158

Mg 9.25000 48.08700 24.69800
C  7.00900 48.88600 27.43600
C  11.79800 49.28900 26.78200
C  11.46700 47.48800 22.24900
C  6.52700 47.57500 22.67800
N  9.35000 48.79900 26.86400
C  8.33900 48.99900 27.77400
C  8.80100 49.54000 29.11700
C  10.13500 50.16600 28.58600
C  10.48700 49.31300 27.36300
C  10.05700 51.65100 28.23800
C  8.98000 48.42900 30.20200
C  8.84300 48.84300 31.65900
H  8.14400 47.86000 32.62500
N  11.33100 48.28100 24.57200
C  12.20800 48.78400 25.54000
C  13.60600 48.61100 25.11700
C  13.46000 48.04400 23.78200
C  12.06600 47.92000 23.47800
C  14.75600 48.93600 25.94800
C  14.57800 47.68900 22.83900
O  14.38600 47.22300 21.74100
C  15.92800 47.95700 23.31800
N  9.02600 47.71600 22.74500
C  10.12700 47.52400 21.90000
C  9.69300 47.00500 20.58200
C  8.10400 46.99200 20.57600
C  7.83600 47.46300 22.09100
C  10.14600 47.87800 19.38000
C  7.47100 45.64200 20.14800
C  7.32400 45.55400 18.57900
N  7.23200 48.17200 24.91900
C  6.23900 48.06700 23.99900
C  4.96800 48.38600 24.48700
C  5.16800 48.59200 25.84900
C  6.54700 48.51100 26.13900
C  3.69900 48.19800 23.74900
C  4.50900 48.85000 27.16300
O  3.29700 48.83200 27.45500
C  5.73300 49.18900 28.15400
C  5.50100 48.46900 29.38500
O  5.74900 47.32400 29.63900
O  4.84300 49.35500 30.23900
C  4.58100 48.84100 31.58800
H  12.59400 49.80300 27.32500
H  12.10100 47.24900 21.39200
H  5.64700 47.32800 22.08000
H  8.10900 50.29100 29.49900
H  10.89000 49.95900 29.34400
H  9.18400 52.19400 28.60100
H  9.87300 51.77900 27.17100
H  10.87400 52.24700 28.64400
H  10.00300 48.08900 30.04700
H  8.38400 47.52000 30.12000
H  8.56000 49.86200 31.92300
H  9.86300 48.85200 32.04300
H  14.44400 48.89500 26.99200
H  15.15800 49.89300 25.61700
H  15.45700 48.10700 25.84600
H  16.04800 48.91900 23.81600
H  16.74300 47.97600 22.59400
H  16.06900 47.17200 24.06100
H  10.19400 46.05400 20.40500
H  7.71800 47.80800 19.96500
H  9.35800 48.37300 18.81300
H  10.79800 47.38400 18.65900
H  10.72900 48.73200 19.72500
H  6.49900 45.51400 20.62600
H  8.17000 44.93100 20.58800
H  7.78500 46.42700 18.11800
H  6.27000 45.40000 18.34700
H  7.83900 44.66100 18.22600
H  3.52800 47.14400 23.52900
H  3.73200 48.79800 22.83900
H  2.95000 48.68000 24.37800
H  5.56600 50.24900 28.34600
H  3.50400 48.93100 31.72900
H  4.87900 49.61800 32.29200
H  4.94300 47.89600 31.99300
Mg -9.87900 16.83500 41.66900
C  -6.22900 16.57800 41.77700
C  -9.46700 20.33700 41.51700
C  -12.90700 16.77700 40.70700
C  -9.75700 13.26500 41.63700
N  -8.16400 18.23200 41.52500
C  -6.77200 17.90300 41.65200
C  -5.99400 19.15700 41.53800
C  -6.97300 20.24800 42.03000
C  -8.28200 19.59200 41.58900
C  -7.03100 20.55800 43.56200
C  -5.57000 19.34700 40.07900
C  -4.09100 18.83400 39.69500
H  -3.90900 18.03100 38.42300
N  -11.01900 18.36000 41.15800
C  -10.70000 19.71800 41.16900
C  -11.90000 20.37800 40.83200
C  -12.96000 19.41500 40.70800
C  -12.37100 18.07000 40.81500
C  -11.92700 21.93300 40.57700
C  -14.41100 19.71800 40.49400
O  -14.77700 20.82400 40.14100
C  -15.46100 18.66600 40.32300
N  -11.11500 15.17000 41.04100
C  -12.36400 15.51300 40.80100
C  -13.19000 14.24800 40.55700
C  -12.20100 13.07800 41.01300
C  -10.98400 13.83300 41.27900
C  -14.50800 14.26200 41.25400
C  -12.07500 11.97600 40.02100
C  -12.89400 10.67500 40.26700
N  -8.31400 15.15000 41.80900
C  -8.43600 13.78300 41.91500
C  -7.15600 13.11400 42.13300
C  -6.26500 14.18700 42.13400
C  -6.99000 15.38400 41.83300
C  -6.81500 11.72400 42.23300
C  -4.87500 14.58000 42.28000
O  -3.86600 13.97200 42.55900
C  -4.78300 16.10100 42.02000
C  -4.07500 16.80200 43.10200
O  -3.05900 17.46200 42.99400
O  -4.66200 16.63800 44.36100
C  -4.01800 17.22900 45.53500
H  -9.33800 21.42200 41.52900
H  -13.89400 16.71500 40.24200
H  -9.81500 12.19200 41.83300
H  -5.14900 19.12200 42.22600
H  -6.85000 21.15800 41.44200
H  -6.15300 20.32900 44.16600
H  -7.85200 20.05100 44.06700
H  -7.09300 21.62800 43.76400
H  -5.68800 20.41800 39.91200
H  -6.22000 18.72500 39.46300
H  -3.70000 18.32800 40.57700
H  -3.58100 19.78800 39.56200
H  -12.00700 22.47300 41.52000
H  -12.87600 22.30200 40.19000
H  -11.12200 22.35900 39.97900
H  -15.50900 18.06400 39.41600
H  -16.47100 19.07800 40.31100
H  -15.37300 17.99900 41.18000
H  -13.36700 14.25100 39.48100
H  -12.48500 12.63900 41.96900
H  -15.35500 14.39300 40.58100
H  -14.46600 15.05500 42.00000
H  -14.73200 13.33200 41.77600
H  -11.02000 11.73700 39.88600
H  -12.42800 12.34400 39.05700
H  -13.31100 10.71400 41.27400
H  -12.29800 9.77900 40.09500
H  -13.69000 10.57400 39.52900
H  -5.90400 11.62200 42.82400
H  -6.47100 11.39900 41.25100
H  -7.60700 11.03000 42.51300
H  -4.21300 16.22100 41.09800
H  -3.09300 16.66600 45.66000
H  -4.61900 17.12300 46.43800
H  -3.82800 18.29500 45.41100

