158

Mg 48.18900 34.91000 27.81900
C  46.29700 33.28500 30.22900
C  48.34800 37.66800 30.07400
C  49.37100 36.99900 25.39700
C  47.62700 32.44800 25.60800
N  47.39800 35.35200 29.92100
C  46.79400 34.45500 30.74600
C  46.86300 35.02800 32.20600
C  47.06000 36.50600 31.93300
C  47.68100 36.50600 30.55300
C  45.80600 37.41500 32.22300
C  48.14700 34.34800 32.87600
C  48.44700 34.51700 34.36700
H  47.54100 35.48600 35.20300
N  48.84800 36.98100 27.74900
C  48.90000 37.88900 28.81400
C  49.66300 39.02000 28.43500
C  49.91000 38.93600 27.02700
C  49.28500 37.61400 26.63200
C  49.95600 40.16800 29.39200
C  50.65100 39.92300 26.02900
O  50.80500 39.62700 24.86200
C  51.12300 41.29000 26.50800
N  48.22200 34.89100 25.73700
C  48.88300 35.74900 24.94400
C  48.99300 35.21900 23.51400
C  48.63900 33.69600 23.69900
C  48.16500 33.66900 25.12900
C  48.07500 36.07100 22.54600
C  49.83900 32.82700 23.33600
C  49.39400 31.58200 22.52900
N  47.23800 33.09500 27.87700
C  47.04300 32.17500 26.94100
C  46.41100 30.96700 27.43800
C  46.08600 31.36800 28.72900
C  46.58700 32.71900 28.95900
C  45.93600 29.69800 26.76000
C  45.31600 31.07100 29.99100
O  44.61800 30.08700 30.24500
C  45.38500 32.29200 30.93200
C  45.76200 31.74800 32.33100
O  46.66700 31.00500 32.59300
O  44.82400 32.12300 33.21900
C  45.11100 31.79400 34.62700
H  48.48500 38.39600 30.87600
H  49.75300 37.54700 24.53300
H  47.49000 31.71300 24.81100
H  45.98400 34.69200 32.75600
H  47.71000 36.95500 32.68400
H  44.92100 36.87200 32.55400
H  45.40600 38.05900 31.44100
H  45.91900 38.04400 33.10600
H  49.07500 34.66700 32.40100
H  48.18100 33.26400 32.77200
H  49.44700 34.89800 34.57300
H  48.43500 33.58200 34.92800
H  50.97000 40.54500 29.25400
H  49.92700 39.87900 30.44200
H  49.27100 41.00400 29.25300
H  50.43200 41.71800 27.23400
H  51.13300 41.91000 25.61100
H  52.13900 41.23400 26.89900
H  50.04000 35.34900 23.24000
H  47.75000 33.39600 23.14400
H  47.18400 35.44600 22.50300
H  48.47400 36.42300 21.59500
H  47.98200 37.00300 23.10400
H  50.34500 32.48400 24.23800
H  50.62300 33.38200 22.82000
H  48.82100 31.83200 21.63600
H  48.71800 31.02600 23.17800
H  50.18800 30.91400 22.19600
H  44.98200 29.56600 26.25000
H  45.73300 28.92700 27.50300
H  46.71400 29.35600 26.07700
H  44.44100 32.82700 31.03800
H  46.05300 31.28400 34.82800
H  44.25700 31.14100 34.80700
H  45.14400 32.74800 35.15400
Mg -11.24600 17.30300 42.23000
C  -7.69100 16.29600 42.13000
C  -10.03800 20.31600 40.91100
C  -14.31400 17.80000 40.93300
C  -12.00400 13.80600 42.38300
N  -9.14200 18.13200 41.53400
C  -7.89300 17.58100 41.60900
C  -6.81200 18.43700 40.94300
C  -7.50900 19.89600 41.04200
C  -8.99200 19.47400 41.16900
C  -6.99200 20.90400 42.18700
C  -6.42400 17.98300 39.50900
C  -5.00800 17.37300 39.28900
H  -4.97700 16.22000 38.37000
N  -12.11600 18.98500 41.29500
C  -11.48100 20.13700 40.81700
C  -12.41400 21.00200 40.26500
C  -13.71400 20.34700 40.29600
C  -13.42800 18.96300 40.84900
C  -12.01600 22.46400 39.88400
C  -14.98800 21.01800 39.99900
O  -14.98500 22.13700 39.51200
C  -16.28400 20.33800 40.33600
N  -12.83900 15.98600 41.64200
C  -14.07200 16.44300 41.19700
C  -15.02600 15.33700 40.86400
C  -14.23900 14.07900 41.12100
C  -12.96900 14.61300 41.84300
C  -16.39100 15.29000 41.52900
C  -13.96900 13.28500 39.82700
C  -14.72200 11.89600 39.78600
N  -10.17900 15.49600 42.52200
C  -10.63900 14.19200 42.65100
C  -9.57600 13.35400 43.11500
C  -8.42500 14.09300 42.85300
C  -8.81700 15.37300 42.46800
C  -9.63200 11.91000 43.61200
C  -6.95500 14.02600 42.81100
O  -6.28000 13.01500 42.92100
C  -6.47600 15.43100 42.27700
C  -5.38900 15.91100 43.16100
O  -5.34600 17.03900 43.69700
O  -4.45700 14.92700 43.30300
C  -3.53400 15.15900 44.43700
H  -9.75600 21.31900 40.58500
H  -15.33400 17.88200 40.55300
H  -12.12400 12.72100 42.35700
H  -5.93300 18.45600 41.58700
H  -7.32000 20.38100 40.08400
H  -6.90600 21.78800 41.55500
H  -5.99900 20.70800 42.59100
H  -7.67600 21.01300 43.02800
H  -6.48000 18.85500 38.85900
H  -7.15200 17.26100 39.13900
H  -4.79400 16.91800 40.25600
H  -4.29400 18.16900 39.07900
H  -11.56400 22.35700 38.89800
H  -11.29300 22.59200 40.68900
H  -12.70500 23.30500 39.80000
H  -16.16100 19.80100 41.27700
H  -16.51200 19.70700 39.47800
H  -16.94000 21.17800 40.56500
H  -15.25000 15.36800 39.79800
H  -14.68300 13.41700 41.86500
H  -16.95900 14.69600 40.81300
H  -16.80700 16.28600 41.67700
H  -16.48100 14.68300 42.43000
H  -12.89700 13.26500 39.63400
H  -14.33500 13.85300 38.97200
H  -15.24600 11.83800 38.83200
H  -15.45700 11.76000 40.58000
H  -13.98300 11.10300 39.67000
H  -8.76400 11.31600 43.32800
H  -10.52500 11.37500 43.28900
H  -9.60200 11.98900 44.69900
H  -6.10900 15.10900 41.30200
H  -2.89600 14.27600 44.47000
H  -4.17800 15.32300 45.30100
H  -2.95200 16.04500 44.18400

