158

Mg 34.74800 2.97900 29.60200
C  32.72000 4.14000 32.23800
C  37.37200 2.69300 31.81700
C  36.80900 2.49500 27.02700
C  32.07400 3.73900 27.50800
N  35.02100 3.45200 31.73500
C  34.03400 3.74600 32.65700
C  34.53900 3.58300 34.12400
C  36.10800 3.43000 33.92900
C  36.19000 3.12200 32.40400
C  37.03600 4.61100 34.23200
C  33.77600 2.43400 34.79500
C  33.13200 2.77100 36.13400
H  33.86900 3.83600 37.15200
N  36.81300 2.60900 29.41400
C  37.71900 2.53600 30.43600
C  39.04000 2.22900 29.89100
C  38.94500 2.10500 28.49600
C  37.49000 2.34500 28.26800
C  40.30400 2.03100 30.81800
C  40.03400 1.94400 27.38400
O  39.79700 1.95000 26.21100
C  41.47600 1.84200 27.88900
N  34.47700 3.14600 27.50700
C  35.48400 2.87300 26.63500
C  35.06100 3.18100 25.16500
C  33.50200 3.53100 25.38900
C  33.27400 3.39300 26.89700
C  35.81000 4.36100 24.47100
C  32.57400 2.69200 24.48600
C  32.18600 1.18200 24.81100
N  32.76200 3.69400 29.75200
C  31.77600 3.89700 28.85300
C  30.62400 4.42000 29.40600
C  30.88200 4.54000 30.78900
C  32.21600 4.13300 30.92100
C  29.35100 4.70400 28.64400
C  30.34000 4.82000 32.11400
O  29.25800 5.21000 32.49900
C  31.53800 4.50100 33.10800
C  31.69800 5.80600 33.91100
O  32.05300 6.90900 33.47900
O  31.19900 5.52600 35.18200
C  31.27800 6.62600 36.12700
H  38.17900 2.70100 32.55300
H  37.52600 2.46400 26.20400
H  31.37100 4.09700 26.75400
H  34.37000 4.58600 34.51600
H  36.49700 2.49200 34.32600
H  37.58000 4.89900 33.33200
H  37.75200 4.15000 34.91300
H  36.51500 5.39300 34.78500
H  34.52500 1.71200 35.12100
H  33.06800 1.84300 34.21300
H  33.14600 1.79000 36.60900
H  32.15100 3.18100 35.89300
H  40.15200 2.15600 31.89000
H  41.12300 2.70600 30.57400
H  40.62500 1.01800 30.57200
H  41.64000 2.77000 28.43700
H  42.11500 1.75500 27.01000
H  41.60000 0.98600 28.55200
H  35.04400 2.20400 24.68300
H  33.36000 4.59500 25.19700
H  36.36400 4.91900 25.22600
H  35.11000 5.06200 24.01700
H  36.42400 3.90500 23.69400
H  33.15500 2.48900 23.58700
H  31.68800 3.25500 24.19100
H  31.09900 1.11500 24.77200
H  32.49000 0.96400 25.83500
H  32.68400 0.43100 24.19800
H  28.85200 3.79900 28.29900
H  29.47100 5.30300 27.74100
H  28.57000 5.24800 29.17500
H  31.44900 3.78800 33.92700
H  31.19700 6.29700 37.16300
H  30.45500 7.32600 35.98300
H  32.23700 7.14100 36.06600
Mg 37.10600 49.92000 24.50900
C  37.40500 48.38300 27.55800
C  35.56100 52.52300 26.12100
C  36.58500 51.18100 21.47900
C  38.67900 47.08400 22.98200
N  36.65000 50.46400 26.67700
C  36.83700 49.63900 27.71100
C  36.37400 50.35300 29.05800
C  35.77300 51.69100 28.52600
C  36.00600 51.59000 27.04500
C  34.30200 51.91600 28.75400
C  37.64200 50.50500 29.95400
C  37.53000 49.81400 31.35400
H  36.24600 49.86800 32.16100
N  36.16400 51.64700 23.85100
C  35.61200 52.60600 24.66000
C  35.07800 53.67500 23.87100
C  35.33100 53.31000 22.50800
C  35.98100 51.95200 22.51900
C  34.55500 54.96600 24.43300
C  34.97300 54.09400 21.25000
O  35.23100 53.69800 20.09200
C  34.51400 55.56400 21.24300
N  37.44600 49.09400 22.38800
C  37.24700 49.90400 21.36600
C  37.64400 49.18400 20.02700
C  38.55600 48.06500 20.62700
C  38.24200 48.08600 22.12000
C  36.36800 48.79700 19.25800
C  39.99900 48.12800 20.29800
C  40.98700 48.60900 21.38100
N  37.80900 48.12700 25.08800
C  38.46700 47.10200 24.42300
C  38.95500 46.12800 25.32600
C  38.53800 46.56200 26.53500
C  37.90600 47.79900 26.34800
C  39.62100 44.87000 25.13800
C  38.53700 46.15300 27.91200
O  39.01100 45.25900 28.50900
C  37.78800 47.29500 28.60400
C  36.61300 46.72900 29.42200
O  35.42100 46.65800 29.02900
O  37.08900 46.43800 30.66100
C  36.32100 45.56200 31.54800
H  35.01700 53.36200 26.56000
H  36.44200 51.59900 20.48100
H  39.34200 46.28500 22.64300
H  35.64300 49.63200 29.42600
H  36.34900 52.57200 28.80700
H  34.18800 52.78500 29.40200
H  33.91000 51.11200 29.37700
H  33.67200 52.11600 27.88700
H  37.66100 51.56500 30.20800
H  38.50700 50.18200 29.37600
H  38.17700 50.41000 31.99800
H  37.89500 48.79300 31.24300
H  35.03300 55.81700 23.94700
H  34.80700 55.11800 25.48300
H  33.47200 54.92200 24.31700
H  33.43600 55.40300 21.21200
H  34.72600 55.99300 20.26400
H  34.95800 56.20300 22.00500
H  38.20400 49.92500 19.45600
H  38.22600 47.10100 20.23900
H  35.48400 49.06900 19.83400
H  36.34300 47.74400 18.97800
H  36.40800 49.41300 18.36000
H  40.17900 48.63500 19.35000
H  40.32200 47.09300 20.18600
H  41.28400 47.79200 22.03700
H  40.49900 49.34900 22.01600
H  41.81400 49.08900 20.85700
H  40.36400 45.06700 24.36500
H  38.91800 44.07800 24.87600
H  40.17800 44.68200 26.05500
H  38.53100 47.80300 29.21900
H  35.77000 44.80800 30.98700
H  35.54100 46.03600 32.14400
H  37.02200 44.96700 32.13400

