158

Mg 46.77400 16.91400 27.46900
C  44.56500 16.62000 30.41400
C  48.79300 18.72500 29.46700
C  48.26300 17.70700 24.71000
C  43.83200 15.66600 25.66800
N  46.43500 17.92600 29.70500
C  45.75200 17.32300 30.68400
C  46.27000 17.74800 32.05700
C  47.46100 18.71400 31.62200
C  47.57400 18.47900 30.14500
C  47.37100 20.21100 32.11300
C  46.67900 16.49500 32.85300
C  46.76200 16.72700 34.30500
H  46.97700 18.12500 34.90700
N  48.33200 18.01800 27.17000
C  49.15400 18.57800 28.10100
C  50.41300 18.96100 27.46200
C  50.20100 18.73700 26.11100
C  48.94600 18.04300 25.97100
C  51.64800 19.34600 28.19000
C  51.23900 19.15400 24.92300
O  50.97000 18.85600 23.78500
C  52.55700 19.78000 25.26400
N  46.12200 16.67000 25.56000
C  46.98100 17.13200 24.54400
C  46.38000 16.93900 23.11300
C  44.99100 16.14300 23.46100
C  44.95500 16.14000 24.99200
C  46.22800 18.31800 22.40800
C  44.89400 14.70500 22.76000
C  43.67300 14.46100 21.86900
N  44.65600 16.07500 27.92100
C  43.62000 15.61600 27.06800
C  42.45700 15.27900 27.91100
C  42.84900 15.64700 29.22500
C  44.14200 16.16600 29.16400
C  41.11700 14.69600 27.42600
C  42.37900 15.60200 30.58400
O  41.38600 15.14000 31.04500
C  43.54200 16.18600 31.47500
C  43.09200 17.29000 32.29800
O  42.88600 18.43100 31.82800
O  42.75700 16.87900 33.58700
C  42.29500 17.94700 34.47100
H  49.48900 19.19700 30.16300
H  48.85000 17.81200 23.79600
H  42.96100 15.30900 25.11500
H  45.52800 18.22300 32.70000
H  48.38400 18.34300 32.07000
H  46.65400 20.28000 32.93100
H  47.01400 20.74600 31.23400
H  48.34500 20.61700 32.38500
H  47.68100 16.18200 32.55800
H  46.05600 15.60200 32.80400
H  47.46800 15.98100 34.66900
H  45.78500 16.49200 34.72800
H  52.48000 18.69700 27.91800
H  51.45300 19.39100 29.26200
H  51.84500 20.35100 27.81600
H  52.42700 20.74000 25.76400
H  53.20600 19.86600 24.39200
H  53.10200 19.07400 25.89100
H  46.97900 16.22400 22.55000
H  44.18600 16.80100 23.13200
H  46.53900 19.14000 23.05400
H  45.17700 18.42100 22.13900
H  46.86000 18.29500 21.52000
H  44.99300 13.97000 23.55900
H  45.80800 14.67100 22.16800
H  43.18900 13.48900 21.96800
H  43.95200 14.55800 20.82000
H  42.90200 15.19500 22.10300
H  40.84600 15.08500 26.44400
H  40.37800 15.05300 28.14300
H  41.18000 13.61000 27.48600
H  43.93000 15.35500 32.06400
H  41.84700 18.77400 33.92000
H  43.09400 18.37400 35.07800
H  41.52300 17.62600 35.17000
Mg 6.19100 53.92600 41.15900
C  4.71700 50.90400 41.18400
C  8.81700 52.59800 39.55900
C  7.39900 57.18100 40.85300
C  3.23100 55.38900 42.64700
N  6.65600 51.99700 40.30700
C  5.94600 50.86900 40.53800
C  6.66000 49.64700 39.96300
C  8.11700 50.18800 39.84800
C  7.84000 51.67700 39.79100
C  9.07300 49.86300 41.03400
C  6.24200 49.04400 38.61700
C  5.51600 49.92500 37.58600
H  6.12900 50.08800 36.15200
N  7.88300 54.72900 40.39300
C  8.89200 54.04600 39.78000
C  9.98100 54.88500 39.37100
C  9.66800 56.18700 39.78800
C  8.23100 56.09800 40.39600
C  11.22100 54.33700 38.69300
C  10.62100 57.36000 39.66200
O  11.69400 57.15800 39.14600
C  10.32100 58.65200 40.41300
N  5.40500 55.97100 41.60700
C  6.11300 57.19300 41.43800
C  5.42000 58.49900 41.96600
C  4.05500 57.78700 42.44100
C  4.25400 56.28000 42.31000
C  6.10900 59.32400 43.03100
C  2.81900 58.37500 41.81400
C  2.27600 57.70500 40.54900
N  4.31400 53.37100 41.80300
C  3.28400 54.03000 42.39900
C  2.28700 53.07900 42.67300
C  2.81600 51.84100 42.29100
C  4.03600 52.09700 41.68800
C  0.85300 53.35200 43.21700
C  2.50900 50.43200 42.30600
O  1.59300 49.83500 42.84200
C  3.80100 49.71800 41.61200
C  3.30200 48.87400 40.51800
O  2.69100 49.20600 39.53700
O  3.79700 47.57200 40.69600
C  3.45500 46.59200 39.71900
H  9.68800 52.07500 39.15800
H  7.76100 58.20600 40.75400
H  2.32500 55.66400 43.19200
H  6.56400 48.94300 40.78900
H  8.67900 50.03600 38.92700
H  9.42200 50.68400 41.66000
H  9.92800 49.27100 40.70800
H  8.62400 49.10700 41.67900
H  5.68700 48.11100 38.71600
H  7.17200 48.71400 38.15300
H  5.36400 50.95900 37.89400
H  4.52300 49.47700 37.56000
H  11.16900 53.31100 38.32800
H  12.02600 54.32200 39.42900
H  11.54400 54.99400 37.88600
H  11.12300 59.37700 40.27400
H  10.07400 58.36200 41.43400
H  9.40800 58.94300 39.89400
H  5.24500 59.08500 41.06400
H  3.86800 57.84100 43.51400
H  6.34500 60.30100 42.60900
H  7.00100 58.92200 43.51100
H  5.44200 59.44000 43.88500
H  2.93800 59.45400 41.71600
H  2.11000 58.14500 42.60900
H  1.27300 57.30200 40.69400
H  2.93800 56.89800 40.23500
H  2.09200 58.51300 39.84100
H  0.45000 54.33700 42.98400
H  0.95600 53.27000 44.29900
H  0.23500 52.54200 42.83000
H  4.22000 48.98400 42.30100
H  2.37800 46.47000 39.83700
H  3.94500 45.63400 39.89300
H  3.66000 46.88100 38.68800

