158

Mg 8.85700 3.77400 27.57700
C  10.23200 2.26100 30.47100
C  6.90900 5.78600 29.82100
C  7.61300 5.36000 24.92400
C  10.72600 1.67600 25.57300
N  8.67000 3.96300 29.88400
C  9.38300 3.28900 30.88200
C  8.94100 3.69600 32.28300
C  8.03400 4.90100 32.00100
C  7.81100 4.85500 30.47800
C  6.65400 5.05500 32.75800
C  10.10000 4.02300 33.21300
C  9.93200 4.98600 34.40700
H  10.73200 4.66600 35.67200
N  7.36200 5.28500 27.36400
C  6.73000 6.02100 28.40300
C  5.94900 7.12600 27.75200
C  6.20800 7.03000 26.32500
C  7.09900 5.86000 26.15400
C  5.00600 8.06400 28.50000
C  5.81300 7.92400 25.15600
O  6.01600 7.73400 23.96400
C  4.94800 9.18300 25.47000
N  9.17100 3.58100 25.55300
C  8.56200 4.38500 24.61000
C  8.88300 3.92700 23.17100
C  9.97700 2.76400 23.37200
C  10.00700 2.66400 24.93500
C  7.59800 3.59300 22.35700
C  11.33400 3.08100 22.69500
C  11.88300 2.03400 21.72100
N  10.17200 2.22800 27.89700
C  10.87600 1.49300 27.03200
C  11.65900 0.45700 27.75600
C  11.45400 0.83000 29.08100
C  10.53400 1.90000 29.14100
C  12.43400 -0.67100 27.14500
C  11.78500 0.36700 30.42300
O  12.58400 -0.51800 30.87800
C  11.04800 1.31500 31.38500
C  10.21100 0.49100 32.33200
O  9.06900 0.06700 32.08000
O  10.73800 0.43500 33.59200
C  9.86600 -0.07200 34.58400
H  6.34900 6.44000 30.49200
H  7.35000 5.85700 23.98700
H  11.49400 1.03500 25.13500
H  8.41200 2.78700 32.56800
H  8.54800 5.85500 32.11700
H  6.42900 6.10800 32.92700
H  6.52700 4.45900 33.66200
H  5.83000 4.67800 32.15200
H  11.01700 4.29200 32.68900
H  10.30400 3.06100 33.68300
H  8.88800 4.84200 34.68600
H  10.17700 5.97100 34.01000
H  5.49200 9.02200 28.68600
H  4.90700 7.60500 29.48300
H  4.14200 8.09500 27.83600
H  3.99000 8.82500 25.84900
H  4.77700 9.65500 24.50300
H  5.35300 9.83400 26.24400
H  9.37600 4.67000 22.54400
H  9.53700 1.87400 22.92100
H  7.84500 2.75100 21.70900
H  7.18600 4.50500 21.92600
H  6.87900 3.19200 23.07100
H  12.06000 3.37300 23.45400
H  11.24600 4.00500 22.12200
H  11.04300 1.36900 21.52000
H  12.73300 1.47200 22.10900
H  12.16500 2.52800 20.79100
H  13.29000 -0.26800 26.60400
H  11.75600 -1.09700 26.40500
H  12.88100 -1.42900 27.78900
H  11.87200 1.78300 31.92400
H  9.30100 -0.93500 34.23200
H  9.20600 0.78200 34.73800
H  10.29400 -0.42800 35.52200
Mg 44.56000 5.00000 48.08000
C  42.52400 7.76600 47.49700
C  41.78100 2.99300 47.13500
C  46.64200 2.37600 47.79700
C  47.28700 7.19900 48.18500
N  42.49000 5.36000 47.27800
C  41.95800 6.57700 47.01400
C  40.50900 6.54300 46.49400
C  40.18800 5.03400 46.70700
C  41.49900 4.37400 47.12100
C  39.10200 4.67500 47.76400
C  40.30500 7.19200 45.06500
C  38.88000 7.70300 44.63500
H  38.48200 7.35000 43.17700
N  44.20800 2.94600 47.76700
C  43.01800 2.34000 47.35700
C  43.28100 0.91800 47.30500
C  44.66400 0.67400 47.48000
C  45.22300 2.01000 47.70900
C  42.14800 -0.06800 47.11300
C  45.34800 -0.68500 47.61700
O  44.70800 -1.68100 47.32900
C  46.78600 -0.90100 48.10100
N  46.63600 4.84600 47.85900
C  47.24600 3.63000 47.91600
C  48.75500 3.83500 48.07200
C  48.95100 5.35800 47.90100
C  47.51400 5.84700 47.92900
C  49.33900 3.19600 49.31000
C  49.80100 5.91100 46.65900
C  49.06400 6.08700 45.28300
N  44.87400 7.01500 48.07600
C  46.01400 7.74600 48.20200
C  45.62600 9.17000 48.32600
C  44.25800 9.21400 48.01700
C  43.83300 7.86600 47.89600
C  46.49000 10.39200 48.46000
C  43.12000 10.07000 47.80000
O  42.90400 11.29600 47.83500
C  41.96400 9.11400 47.48800
C  40.96000 9.34800 48.43400
O  40.97100 9.11800 49.59600
O  39.84100 9.95100 47.86000
C  38.70000 10.12900 48.73200
H  40.93500 2.37900 46.82000
H  47.41200 1.61700 47.95400
H  48.12700 7.88400 48.32100
H  39.85900 7.03400 47.21800
H  39.90000 4.71300 45.70600
H  38.18800 4.38400 47.24700
H  38.88800 5.58900 48.31700
H  39.39800 3.94100 48.51500
H  40.39400 6.27600 44.48100
H  41.09200 7.81500 44.63900
H  38.91800 8.78600 44.52600
H  38.13000 7.41300 45.37200
H  41.24000 0.38700 46.71800
H  42.03400 -0.68300 48.00600
H  42.52100 -0.71900 46.32200
H  47.12500 -0.28400 48.93300
H  47.45100 -0.65900 47.27200
H  46.82300 -1.98800 48.17000
H  49.13100 3.27800 47.21400
H  49.35300 5.72400 48.84600
H  49.27200 2.11000 49.36100
H  48.92200 3.76500 50.14000
H  50.39400 3.46200 49.37400
H  50.45400 5.07100 46.42200
H  50.39400 6.78600 46.92400
H  49.47500 5.40100 44.54300
H  49.20200 7.09300 44.88700
H  48.02700 5.79300 45.45000
H  46.32900 10.90400 49.40900
H  46.23200 11.06400 47.64100
H  47.49800 10.01000 48.29900
H  41.60600 9.37400 46.49200
H  39.06700 10.44900 49.70600
H  38.04400 9.25900 48.77800
H  38.04200 10.92900 48.39300

