158

Mg 35.45000 49.56100 26.47800
C  35.73600 47.21900 29.05000
C  34.23500 51.89300 28.82800
C  34.87700 51.59800 24.00100
C  36.33600 47.00900 24.15800
N  35.06900 49.52600 28.65700
C  35.31300 48.47700 29.50900
C  35.14800 48.93200 30.88700
C  34.26900 50.18000 30.74800
C  34.44800 50.55000 29.34700
C  32.78800 49.93300 31.08700
C  36.53400 49.13300 31.54300
C  36.74900 48.68500 33.00300
H  37.02800 49.83100 34.00200
N  34.88300 51.51700 26.51000
C  34.44300 52.33200 27.50900
C  34.29400 53.65800 26.95800
C  34.46700 53.62400 25.56300
C  34.78400 52.17600 25.29000
C  33.83000 54.74000 27.85900
C  34.34300 54.72600 24.54200
O  34.50000 54.56000 23.34700
C  34.03400 56.27700 24.91100
N  35.36000 49.20400 24.35000
C  35.20000 50.28900 23.55400
C  35.43300 49.95800 22.05200
C  36.14800 48.58800 22.16900
C  35.92900 48.26300 23.61400
C  34.03600 49.88300 21.35700
C  37.58500 48.45600 21.76600
C  37.92200 47.23900 20.81700
N  35.84600 47.46700 26.52400
C  36.26700 46.55200 25.52000
C  36.47300 45.24300 26.10800
C  36.32000 45.42300 27.53600
C  35.88300 46.82300 27.74600
C  36.74800 43.96600 25.39200
C  36.40000 44.83100 28.91400
O  36.58600 43.68500 29.30700
C  36.11000 45.97100 29.87500
C  35.03800 45.49800 30.84500
O  33.98800 44.94200 30.61700
O  35.40800 45.90500 32.10000
C  34.46500 45.64700 33.16300
H  33.97500 52.50100 29.69700
H  34.71300 52.24800 23.13900
H  36.58700 46.30800 23.35900
H  34.62000 48.11700 31.38200
H  34.72500 50.86400 31.46400
H  32.61700 48.96600 30.61300
H  32.15900 50.58800 30.48400
H  32.53300 49.98500 32.14500
H  36.87200 50.15200 31.73300
H  37.34000 48.76600 30.90800
H  37.48500 47.88100 32.99800
H  35.82900 48.18100 33.29800
H  34.51200 55.58700 27.78800
H  33.59900 54.43000 28.87800
H  32.85100 55.03600 27.48100
H  33.08100 56.43600 25.41500
H  34.08900 56.74900 23.93100
H  34.82100 56.66800 25.55600
H  36.07700 50.68600 21.55900
H  35.52300 47.95200 21.54200
H  33.24600 49.67800 22.07900
H  33.98600 49.19600 20.51300
H  33.82100 50.86100 20.92600
H  38.21100 48.34400 22.65200
H  37.92200 49.33900 21.22200
H  38.08400 47.63700 19.81500
H  37.17200 46.44800 20.81900
H  38.91500 46.83400 21.01300
H  37.72700 44.15500 24.95000
H  36.07300 43.75500 24.56300
H  36.62800 43.05800 25.98300
H  36.90300 46.34900 30.52000
H  34.39400 46.46200 33.88400
H  34.99600 44.89400 33.74500
H  33.45100 45.27400 33.02200
Mg 16.86400 52.27000 26.84800
C  19.06900 50.95500 29.34800
C  14.91600 53.50100 29.34500
C  14.85900 53.58900 24.43200
C  19.04700 51.18900 24.40000
N  16.97600 52.14000 28.98800
C  17.94400 51.56800 29.79300
C  17.61800 51.88100 31.26500
C  16.11000 52.21700 31.20500
C  15.98500 52.70700 29.75500
C  15.10300 51.03900 31.39900
C  18.51900 52.94600 31.93000
C  19.02200 52.86300 33.36600
H  18.18300 52.15900 34.38000
N  15.10700 53.37900 26.87700
C  14.46800 53.76500 28.04500
C  13.28800 54.53600 27.72300
C  13.27500 54.58800 26.26800
C  14.39400 53.79100 25.78500
C  12.36700 55.15300 28.73400
C  12.26600 55.34800 25.42400
O  12.34100 55.43500 24.21400
C  11.14600 56.11700 26.04000
N  16.87000 52.11000 24.69800
C  15.89500 52.78300 23.93900
C  16.12600 52.50600 22.43000
C  17.54100 51.92000 22.44600
C  17.89700 51.75900 23.94900
C  15.03600 51.65000 21.80300
C  18.59600 52.70700 21.60200
C  19.15400 54.02200 22.16600
N  18.61800 51.12200 26.92100
C  19.43900 50.83700 25.78700
C  20.62900 50.15500 26.30900
C  20.50200 50.13900 27.69900
C  19.30500 50.77200 28.01100
C  21.79800 49.87600 25.50500
C  21.19600 49.86400 28.99800
O  22.26100 49.31200 29.27400
C  20.23100 50.38900 30.06400
C  19.86200 49.48800 31.12400
O  19.11600 48.51000 30.94900
O  20.28900 49.84200 32.31400
C  20.30700 48.86100 33.46400
H  14.23600 53.74200 30.16600
H  14.29500 54.08400 23.63900
H  19.76700 50.84600 23.65400
H  17.66200 50.96000 31.84600
H  16.07600 53.04100 31.91700
H  14.37700 50.91100 30.59600
H  14.53000 51.25100 32.30100
H  15.57600 50.06500 31.52600
H  18.04000 53.92200 31.85400
H  19.44000 53.01000 31.35200
H  19.13200 53.82700 33.86200
H  20.02100 52.42900 33.40300
H  12.11000 56.15200 28.38000
H  12.79100 55.21800 29.73600
H  11.46100 54.54600 28.75200
H  10.43200 56.47800 25.29900
H  11.62200 56.94200 26.56900
H  10.65600 55.42700 26.72700
H  16.20900 53.48100 21.95100
H  17.56400 50.88600 22.10100
H  14.66800 51.99200 20.83600
H  14.14200 51.67600 22.42600
H  15.38800 50.62200 21.71900
H  18.22000 53.15300 20.68100
H  19.36000 51.98200 21.32200
H  18.95700 54.79600 21.42300
H  20.22100 54.01100 22.39000
H  18.65000 54.31000 23.08800
H  22.66700 50.12500 26.11300
H  21.78300 50.41800 24.55900
H  21.89000 48.83600 25.19100
H  20.72700 51.19900 30.59700
H  19.27200 48.76300 33.79200
H  20.99600 49.13700 34.26300
H  20.54000 47.87800 33.05600

