158

Mg 35.17600 49.22200 25.06800
C  35.30400 47.61800 28.39700
C  33.89500 52.03900 26.59700
C  34.63200 50.36600 22.09800
C  36.37600 46.13300 23.83300
N  34.57500 49.62700 27.23200
C  34.78000 48.94800 28.39000
C  34.41700 49.78400 29.65700
C  33.86600 51.12400 29.03200
C  34.17700 50.96700 27.51700
C  32.35800 51.37200 29.31700
C  35.56400 49.71400 30.72300
C  35.07400 49.22300 32.07000
H  34.82000 50.21900 33.20800
N  34.35700 50.98700 24.40400
C  33.99200 52.06400 25.17700
C  33.79900 53.19500 24.23800
C  33.80000 52.74700 22.87500
C  34.25000 51.31200 23.07300
C  33.59700 54.62600 24.71600
C  33.65400 53.51300 21.56300
O  33.87000 52.98000 20.46500
C  33.14200 55.01400 21.45400
N  35.44800 48.33100 23.26300
C  35.18700 49.08700 22.15900
C  35.57000 48.30100 20.87800
C  36.28300 47.07300 21.44900
C  35.95700 47.18300 22.95400
C  34.44900 48.04800 19.88000
C  37.85200 47.00000 21.18400
C  38.77800 47.80600 22.12600
N  35.67100 47.18000 25.89600
C  36.22200 46.07700 25.27000
C  36.52900 45.09800 26.24800
C  36.20200 45.65400 27.51800
C  35.69600 46.91600 27.23700
C  37.00000 43.69300 26.01200
C  36.28200 45.49700 29.01100
O  36.73200 44.52500 29.60600
C  35.60300 46.70800 29.58600
C  34.37000 46.16000 30.31600
O  33.34000 45.79700 29.84000
O  34.60300 46.05400 31.67100
C  33.64000 45.20200 32.41800
H  33.53700 53.01100 26.94000
H  34.49400 50.72400 21.07600
H  36.77800 45.25000 23.33200
H  33.52900 49.42200 30.17600
H  34.39800 52.00300 29.39500
H  32.32400 52.38000 29.73100
H  31.96300 50.72600 30.10100
H  31.72400 51.16700 28.45500
H  35.83900 50.76700 30.78500
H  36.34800 49.06400 30.33400
H  35.76600 48.44800 32.40100
H  34.13000 48.68600 31.98100
H  33.66200 54.70100 25.80200
H  32.67900 55.19800 24.57800
H  34.37500 55.16000 24.17100
H  34.03700 55.63000 21.54200
H  32.38200 55.36300 22.15300
H  32.62700 55.13600 20.50000
H  36.34200 48.91200 20.41000
H  35.88800 46.14900 21.02800
H  34.60000 48.58000 18.94100
H  33.56800 48.39300 20.42100
H  34.37700 46.98600 19.64800
H  37.94300 47.34700 20.15500
H  38.08200 45.93600 21.12900
H  38.25400 48.23800 22.97800
H  39.25700 48.53600 21.47300
H  39.49000 47.04800 22.45200
H  36.36700 42.96400 26.51700
H  37.99500 43.68900 26.45700
H  37.06400 43.32500 24.98800
H  36.27800 47.14100 30.32400
H  33.55300 44.22300 31.94600
H  32.65700 45.65800 32.30900
H  33.77200 45.07500 33.49300
Mg 25.41200 50.04200 26.18500
C  23.34700 51.22800 28.81400
C  27.70000 49.37200 28.57400
C  27.61100 49.41300 23.76700
C  23.23100 51.26700 23.93400
N  25.38800 50.06100 28.52300
C  24.48300 50.70200 29.36400
C  24.82600 50.39100 30.82000
C  26.33300 50.09600 30.68500
C  26.53300 49.79200 29.18200
C  27.38400 51.18300 31.21400
C  23.97100 49.24100 31.35300
C  23.61900 49.31700 32.92600
H  24.37300 50.24500 33.84400
N  27.39300 49.37900 26.22000
C  28.14100 49.21100 27.30300
C  29.44900 48.74400 26.93800
C  29.47000 48.71200 25.51300
C  28.13800 49.10400 25.07700
C  30.58700 48.35700 27.88900
C  30.60500 48.43000 24.53900
O  30.54400 48.68700 23.32200
C  31.94900 47.91700 25.03500
N  25.40900 50.27400 24.15500
C  26.44500 49.94700 23.34400
C  25.99600 50.01500 21.85300
C  24.54300 50.52300 21.85000
C  24.36900 50.70200 23.40900
C  26.98200 50.63400 20.83300
C  23.50100 49.53000 21.31100
C  22.22400 50.10900 20.76800
N  23.65500 51.07600 26.32000
C  22.88000 51.55100 25.32000
C  21.69800 52.25800 25.84900
C  21.86700 52.11600 27.21500
C  23.07000 51.46700 27.43300
C  20.65800 52.93400 25.03800
C  21.32400 52.41800 28.50300
O  20.27100 53.02400 28.82000
C  22.21600 51.85800 29.60200
C  22.60300 53.02200 30.43900
O  23.15500 53.98400 30.03800
O  22.06600 52.88500 31.71500
C  22.43600 54.00600 32.61000
H  28.51900 49.22300 29.28100
H  28.22000 49.22300 22.88100
H  22.45500 51.55600 23.22100
H  24.67500 51.34400 31.32500
H  26.60400 49.16500 31.18100
H  26.88300 52.14400 31.32100
H  28.15000 51.39800 30.47000
H  27.83300 50.98800 32.18800
H  24.47900 48.32400 31.05400
H  23.00800 49.21300 30.84400
H  23.67500 48.28800 33.28000
H  22.56400 49.59100 32.92500
H  30.47500 48.78800 28.88400
H  31.58400 48.61100 27.52800
H  30.61000 47.27000 27.96500
H  32.46300 47.52700 24.15600
H  31.80800 47.04600 25.67600
H  32.48200 48.73300 25.52200
H  25.97000 48.98900 21.48600
H  24.39800 51.44400 21.28500
H  27.89900 50.87300 21.37100
H  26.51500 51.56600 20.51500
H  27.19100 49.90500 20.05100
H  23.22400 48.76600 22.03800
H  23.99100 48.97900 20.50900
H  21.50900 50.09300 21.59100
H  21.94700 49.66000 19.81500
H  22.34800 51.18400 20.63000
H  20.34400 52.53900 24.07200
H  21.06400 53.94200 24.95600
H  19.77800 53.02900 25.67400
H  21.60600 51.10800 30.10600
H  21.65500 54.75900 32.50300
H  23.41800 54.45100 32.44700
H  22.39100 53.71700 33.66000

