158

Mg 2.15700 -2.49600 44.60300
C  5.14600 -0.95900 43.74500
C  0.44600 -0.11100 42.86800
C  -0.57900 -4.43500 45.02700
C  4.05100 -5.32200 45.71600
N  2.72100 -0.94800 43.17600
C  4.01600 -0.42400 43.09400
C  4.05900 0.80000 42.23700
C  2.50200 1.07500 41.98000
C  1.83600 -0.09100 42.68000
C  2.09400 2.40100 42.44700
C  4.81700 0.81900 40.85600
C  6.01200 1.84500 40.67400
H  6.76600 1.34400 39.50500
N  0.22000 -2.24600 44.11500
C  -0.34800 -1.18300 43.38300
C  -1.78600 -1.35400 43.23000
C  -2.08900 -2.63100 43.84000
C  -0.81700 -3.16700 44.40100
C  -2.60600 -0.45100 42.27600
C  -3.48200 -3.40100 43.79700
O  -4.48700 -2.84700 43.35000
C  -3.62700 -4.75100 44.32900
N  1.73700 -4.55800 45.47100
C  0.50400 -5.09600 45.42800
C  0.50100 -6.50000 46.03800
C  1.99400 -6.81400 46.02600
C  2.65200 -5.50700 45.81000
C  -0.27200 -6.78300 47.35000
C  2.52900 -7.91500 45.00600
C  3.49800 -8.94400 45.64300
N  4.22100 -3.03200 44.89300
C  4.79300 -4.18500 45.33500
C  6.26100 -4.05200 45.19800
C  6.48300 -2.74100 44.62500
C  5.20600 -2.19400 44.46200
C  7.21900 -5.21200 45.53800
C  7.45700 -1.81400 44.20500
O  8.66900 -1.87500 44.26300
C  6.61500 -0.56600 43.71700
C  7.10200 0.37700 44.77300
O  7.02800 0.15000 45.97400
O  7.25300 1.60600 44.18700
C  7.59400 2.62300 45.23400
H  -0.06900 0.76800 42.47600
H  -1.44500 -5.07400 45.21300
H  4.59400 -6.24100 45.95000
H  4.43100 1.56600 42.91700
H  2.30600 0.91800 40.91900
H  2.89800 3.13700 42.44800
H  1.72600 2.38600 43.47300
H  1.23100 2.81000 41.92300
H  4.10300 1.13800 40.09700
H  5.16100 -0.17900 40.58400
H  6.65400 1.82800 41.55500
H  5.66100 2.85300 40.45400
H  -2.80400 -1.04900 41.38600
H  -2.13600 0.51100 42.07200
H  -3.61100 -0.28200 42.66200
H  -4.63100 -5.09200 44.07700
H  -3.57300 -4.70600 45.41600
H  -2.92200 -5.47200 43.91400
H  0.06500 -7.10900 45.24500
H  2.22100 -7.05500 47.06400
H  0.41300 -7.02700 48.16200
H  -1.02800 -7.56600 47.29200
H  -0.70600 -5.82500 47.63500
H  3.02400 -7.41100 44.17600
H  1.70700 -8.41900 44.49900
H  3.39200 -9.99600 45.37500
H  3.51200 -8.96800 46.73300
H  4.48200 -8.63900 45.28800
H  8.21600 -5.02700 45.13800
H  6.92200 -6.14100 45.05200
H  7.15600 -5.22100 46.62600
H  6.99300 -0.23600 42.74900
H  6.96200 3.50400 45.35100
H  8.53300 3.08400 44.93000
H  7.85500 2.21100 46.20900
Mg 0.75700 8.12600 24.97200
C  1.40800 9.68200 28.21700
C  0.91800 5.09600 26.69800
C  1.01500 6.62400 22.12100
C  1.32200 11.26600 23.52300
N  1.17100 7.53600 27.21700
C  1.29100 8.30300 28.32300
C  1.22900 7.46300 29.62900
C  1.07000 6.04300 29.09800
C  1.03700 6.21300 27.59800
C  2.20900 5.09900 29.52400
C  0.01100 7.91800 30.50600
C  0.20800 7.66600 32.07500
H  1.55800 7.32500 32.69200
N  0.75500 6.16400 24.41200
C  0.79500 5.03300 25.26300
C  0.72100 3.82500 24.43800
C  0.53300 4.25000 23.07000
C  0.78200 5.71100 23.12000
C  0.65700 2.44500 25.03000
C  0.31300 3.48400 21.80900
O  0.18100 4.04500 20.72300
C  -0.05600 1.97400 21.82600
N  1.16900 8.86200 23.11100
C  1.23500 8.00600 22.06900
C  1.21700 8.87400 20.68900
C  1.07200 10.33300 21.23700
C  1.18100 10.16600 22.75200
C  2.45500 8.67400 19.76800
C  -0.17800 11.13700 20.68300
C  -1.44000 10.99400 21.46000
N  1.09000 10.08600 25.67200
C  1.39400 11.20800 24.95900
C  1.51800 12.31600 25.84100
C  1.60900 11.76300 27.10400
C  1.35200 10.43900 26.96800
C  1.62000 13.75700 25.44100
C  1.87700 12.02600 28.54500
O  2.09900 13.15700 29.03600
C  1.63500 10.69600 29.30900
C  2.83000 10.51300 30.17300
O  3.92000 10.17000 29.88000
O  2.54800 10.94100 31.43900
C  3.67100 11.08800 32.41300
H  0.91500 4.13200 27.21100
H  1.26500 6.17000 21.16000
H  1.26100 12.24500 23.04300
H  2.08800 7.75600 30.23300
H  0.11400 5.65600 29.45000
H  1.79900 4.50400 30.34100
H  3.04200 5.67400 29.92700
H  2.63900 4.30600 28.91100
H  -0.87000 7.29900 30.34100
H  -0.19500 8.96700 30.29100
H  -0.46000 6.83100 32.28600
H  -0.24700 8.56400 32.49200
H  -0.33700 2.03000 24.86400
H  0.94200 2.37700 26.08000
H  1.34100 1.77000 24.51400
H  0.76900 1.27900 21.98600
H  -0.66300 1.80600 20.93600
H  -0.79700 1.82200 22.61100
H  0.27000 8.53700 20.26700
H  1.99200 10.83000 20.92700
H  2.93200 9.64300 19.62300
H  2.07600 8.27400 18.82800
H  3.26500 8.03100 20.11300
H  -0.39000 10.76400 19.68100
H  0.19100 12.16100 20.61500
H  -2.16800 10.45600 20.85400
H  -1.83900 11.96000 21.76800
H  -1.38400 10.44400 22.39900
H  0.96900 14.02100 24.60800
H  2.65200 14.09100 25.32700
H  1.32400 14.43800 26.23900
H  0.84800 10.84500 30.04800
H  4.31000 11.87400 32.01100
H  4.22300 10.16300 32.58200
H  3.39300 11.35000 33.43400

