158

Mg 40.41900 8.06700 29.06500
C  41.98200 9.28400 32.04800
C  38.18700 6.57000 31.02800
C  39.07200 6.80800 26.23000
C  43.09200 9.21500 27.26200
N  40.09300 8.13800 31.30700
C  40.73900 8.82500 32.28900
C  39.96200 8.61900 33.62400
C  39.08000 7.35900 33.30100
C  39.07400 7.34400 31.76600
C  39.54800 6.07100 33.91000
C  39.11300 9.89600 33.96700
C  38.81700 10.04300 35.48000
H  39.47700 11.19600 36.19600
N  38.77700 6.89200 28.67000
C  37.96400 6.31800 29.63300
C  36.86300 5.62500 28.95500
C  37.12400 5.72300 27.53200
C  38.33300 6.52100 27.40700
C  35.70000 5.05600 29.70100
C  36.34300 5.05500 26.37900
O  36.69000 5.36600 25.24100
C  35.14300 4.19000 26.66400
N  41.12300 7.82800 27.00500
C  40.29100 7.47000 26.01400
C  40.83300 7.79000 24.52800
C  41.84200 8.87400 25.04300
C  42.14400 8.48200 26.50700
C  41.36600 6.51500 23.79300
C  41.40000 10.38800 24.69300
C  39.96400 10.86700 25.10000
N  42.18000 8.97400 29.45300
C  43.20400 9.37500 28.64300
C  44.29100 9.93800 29.42400
C  43.86100 9.91300 30.75800
C  42.55600 9.34700 30.77200
C  45.63300 10.28700 29.02500
C  44.25900 10.13600 32.10700
O  45.33000 10.55300 32.54800
C  43.00500 9.92200 33.02400
C  43.28700 8.98000 34.16200
O  43.42100 7.75300 34.08000
O  43.43000 9.73100 35.29100
C  43.84700 8.91800 36.54000
H  37.49100 6.02500 31.66900
H  38.57900 6.52800 25.29600
H  43.86400 9.75400 26.70900
H  40.68400 8.40300 34.41100
H  38.12300 7.71700 33.68000
H  40.58300 6.25100 34.20100
H  39.51400 5.23800 33.20900
H  38.97300 5.90700 34.82200
H  38.15800 9.86300 33.44200
H  39.67500 10.73200 33.55100
H  39.02600 9.10200 35.98900
H  37.76300 10.14900 35.73800
H  34.75900 5.46400 29.33400
H  35.91500 5.28400 30.74500
H  35.78100 3.97000 29.75400
H  35.22500 3.48300 27.49000
H  34.99400 3.78700 25.66300
H  34.28100 4.83300 26.83900
H  40.07600 8.22400 23.87500
H  42.60600 8.71800 24.28200
H  40.73000 6.28800 22.93800
H  41.39300 5.63700 24.43800
H  42.37000 6.69900 23.40900
H  41.46800 10.67300 23.64300
H  42.12300 11.02900 25.19800
H  39.39900 10.07100 25.58500
H  39.44900 11.19300 24.19700
H  39.99800 11.74900 25.73900
H  45.83700 9.67600 28.14600
H  46.34200 9.97400 29.79200
H  45.71900 11.35300 28.81200
H  42.66300 10.87900 33.41700
H  42.96600 8.44800 36.97800
H  44.45000 9.46600 37.26300
H  44.51100 8.11000 36.23300
Mg 9.44400 46.48100 26.53700
C  7.44900 46.15900 29.27000
C  12.11900 47.03400 28.58300
C  11.27300 46.90900 23.80300
C  6.47700 46.75000 24.52000
N  9.67300 46.57800 28.61800
C  8.76500 46.44600 29.56500
C  9.35200 46.80900 30.89400
C  10.70700 47.41400 30.59700
C  10.85800 46.90400 29.16300
C  10.87900 48.98600 30.69900
C  9.40500 45.65600 31.92400
C  8.86200 46.06300 33.38600
H  9.39800 45.28500 34.51000
N  11.43400 46.82300 26.22100
C  12.44900 47.02800 27.22800
C  13.68400 47.14200 26.46500
C  13.47400 47.13200 25.07000
C  12.02500 46.98600 24.99300
C  14.93600 47.49000 27.04700
C  14.30700 47.13800 23.86200
O  13.93600 46.89700 22.69100
C  15.76300 47.38500 24.03200
N  8.96300 46.87800 24.49100
C  9.94300 46.98100 23.55300
C  9.27700 47.06100 22.13100
C  7.72100 46.94100 22.44000
C  7.69000 46.85200 23.90700
C  9.68800 48.35900 21.23500
C  7.09900 45.72900 21.61900
C  6.11400 46.10400 20.58100
N  7.34800 46.30900 26.73400
C  6.28500 46.49200 25.84900
C  5.07700 46.18300 26.54700
C  5.44600 46.14300 27.90000
C  6.88000 46.11000 27.94600
C  3.81000 46.01700 25.87000
C  5.00300 45.94600 29.30600
O  3.87800 45.75300 29.73000
C  6.26700 46.09400 30.17700
C  6.16300 44.87600 31.08900
O  6.58000 43.76000 30.81700
O  5.36600 45.25000 32.16300
C  5.51500 44.50200 33.41800
H  12.99600 47.32700 29.16300
H  11.78200 46.76600 22.84700
H  5.61500 46.64200 23.85800
H  8.63500 47.49000 31.35300
H  11.42900 47.01200 31.30800
H  10.86100 49.39900 29.69100
H  11.71600 49.20000 31.36400
H  10.06700 49.54800 31.16100
H  10.44400 45.33600 32.00900
H  8.81500 44.82300 31.54100
H  7.78300 45.93000 33.30200
H  9.01500 47.12200 33.58900
H  15.78000 46.81000 26.92400
H  14.82900 47.69600 28.11200
H  15.33700 48.39100 26.58100
H  16.11900 46.54600 24.63100
H  15.83100 48.40300 24.41700
H  16.38700 47.40700 23.13800
H  9.63900 46.13400 21.68800
H  7.22500 47.86900 22.15800
H  8.77100 48.86300 20.93100
H  10.24000 47.87900 20.42700
H  10.28500 48.95000 21.93000
H  6.74600 44.84800 22.15600
H  7.85900 45.35400 20.93300
H  5.24000 45.45400 20.62800
H  6.53300 46.00500 19.58000
H  5.74800 47.13000 20.54800
H  3.82000 46.40000 24.85000
H  3.07600 46.50300 26.51200
H  3.41400 45.00200 25.84000
H  6.10100 46.98400 30.78300
H  5.70000 45.23200 34.20600
H  6.37800 43.83600 33.41600
H  4.61900 43.91100 33.60700

