158

Mg 1.08000 8.52400 26.79700
C  1.36600 10.90300 29.36900
C  1.12600 6.06500 29.21600
C  0.85400 6.18500 24.29800
C  1.13500 11.08300 24.38800
N  1.43100 8.50500 29.08100
C  1.40500 9.59900 29.92000
C  1.12100 9.24700 31.36200
C  1.22800 7.65200 31.30800
C  1.23700 7.38700 29.81000
C  2.42800 7.01500 32.01700
C  -0.29900 9.58900 31.85300
C  -0.63600 9.38500 33.35800
H  0.42000 9.00200 34.39500
N  0.98100 6.40400 26.74400
C  1.06800 5.58800 27.87600
C  1.00900 4.18800 27.40400
C  0.81500 4.19500 25.97200
C  0.89500 5.61900 25.62100
C  1.17000 3.08600 28.38900
C  0.73700 3.06000 25.00100
O  0.55300 3.11900 23.78600
C  0.71200 1.70800 25.63600
N  1.05300 8.65000 24.68300
C  0.89800 7.53000 23.87800
C  0.65300 7.99700 22.49000
C  0.49800 9.50500 22.48500
C  0.95700 9.77600 23.93800
C  1.81500 7.54800 21.64500
C  -0.90700 10.08700 22.10300
C  -0.93100 10.95500 20.78400
N  1.43800 10.50500 26.80200
C  1.37100 11.43800 25.76500
C  1.66300 12.77200 26.32900
C  1.50400 12.59100 27.67700
C  1.48300 11.17300 27.96300
C  1.90600 14.06600 25.61800
C  1.52100 13.28900 28.89300
O  1.51100 14.50500 29.13900
C  1.23800 12.22700 30.06000
C  2.31300 12.45000 31.08100
O  3.49000 12.68100 30.89300
O  1.80800 12.49000 32.37800
C  2.75600 12.78700 33.49500
H  1.09800 5.30600 30.00000
H  0.72400 5.46300 23.49000
H  1.09600 11.93000 23.70000
H  1.88900 9.79500 31.90800
H  0.42000 7.13000 31.82200
H  2.11100 6.58500 32.96800
H  3.29300 7.65200 32.19800
H  2.79900 6.24600 31.33900
H  -1.03200 9.05900 31.24600
H  -0.44300 10.63300 31.57400
H  -1.44200 8.65400 33.29400
H  -1.07000 10.27500 33.81300
H  2.00300 2.44900 28.09200
H  0.28500 2.46200 28.26500
H  1.37200 3.38400 29.41800
H  -0.14400 1.79000 26.30600
H  1.62500 1.46700 26.18000
H  0.46300 0.91200 24.93400
H  -0.17900 7.43700 22.06300
H  1.15300 10.04800 21.80400
H  1.88200 8.15200 20.74000
H  1.90100 6.48700 21.41100
H  2.72100 7.74000 22.21900
H  -1.27700 10.63100 22.97200
H  -1.60600 9.27900 21.89100
H  -1.80700 10.67600 20.19900
H  -0.10500 10.80900 20.08800
H  -1.07500 11.99800 21.06400
H  1.26400 14.13100 24.73900
H  2.95200 14.02200 25.31400
H  1.69400 14.86900 26.32400
H  0.26500 12.29900 30.54600
H  3.49400 11.98800 33.41700
H  2.23300 12.64300 34.44100
H  3.14700 13.80400 33.49500
Mg 26.30600 50.61700 26.80000
C  24.17900 51.97300 29.32600
C  28.45300 49.65600 29.18700
C  28.36800 49.39500 24.29800
C  24.25500 52.16700 24.41100
N  26.22900 50.74200 28.96800
C  25.33800 51.41400 29.81000
C  25.56300 51.09200 31.31600
C  27.09800 50.56900 31.15700
C  27.28400 50.28600 29.69900
C  28.06400 51.51600 31.85100
C  24.58300 50.01000 31.95300
C  24.63400 49.58400 33.45700
H  25.57900 50.40100 34.38600
N  28.07200 49.61300 26.76200
C  28.83500 49.29800 27.88000
C  30.03100 48.64500 27.58000
C  30.02800 48.58300 26.20800
C  28.78400 49.20400 25.63200
C  31.08600 48.13900 28.55800
C  31.03800 47.94900 25.26800
O  30.90400 47.75300 24.05600
C  32.38200 47.64300 25.80800
N  26.25900 50.75800 24.64000
C  27.18100 50.11300 23.90400
C  26.76300 50.26900 22.43400
C  25.36100 51.00600 22.43100
C  25.27500 51.35600 23.89700
C  27.81400 51.03700 21.57200
C  24.21300 50.03100 22.06600
C  24.04400 49.46100 20.65100
N  24.60600 51.82900 26.82600
C  23.91700 52.44600 25.75200
C  22.71100 52.95700 26.21900
C  22.76500 52.83100 27.61800
C  23.95800 52.14000 27.88900
C  21.64600 53.56100 25.38100
C  22.03900 53.06800 28.82100
O  21.08100 53.75800 29.08700
C  22.91500 52.42900 30.01500
C  23.25600 53.45400 30.98500
O  24.13600 54.29500 30.88400
O  22.48500 53.29000 32.12700
C  22.79900 54.21200 33.25900
H  29.13700 49.46600 30.01700
H  29.02600 49.01900 23.51200
H  23.71300 52.48900 23.52000
H  25.42800 52.02900 31.85700
H  27.18700 49.58800 31.62200
H  27.55700 52.37300 32.29600
H  28.76700 51.79200 31.06500
H  28.60100 50.92700 32.59400
H  24.79000 49.10100 31.38800
H  23.57600 50.31900 31.67100
H  24.99200 48.55500 33.48900
H  23.63200 49.71200 33.86600
H  31.95400 48.79100 28.65600
H  31.45200 47.13600 28.33900
H  30.81600 48.03300 29.60800
H  32.86700 48.46900 26.33000
H  32.86800 47.67300 24.83200
H  32.35500 46.68400 26.32400
H  26.82300 49.28300 21.97400
H  25.33600 51.93800 21.86700
H  28.73800 50.82400 22.10900
H  27.61500 52.10800 21.61400
H  27.80400 50.75500 20.51900
H  23.21000 50.45000 22.14300
H  24.36800 49.11800 22.64100
H  23.16900 49.86900 20.14400
H  23.90100 48.39300 20.81700
H  24.97600 49.51300 20.08700
H  22.03200 53.62600 24.36400
H  21.40000 54.50300 25.87100
H  20.78400 52.89600 25.44100
H  22.35800 51.62100 30.48900
H  22.14400 53.76500 34.00700
H  22.33000 55.13800 32.92600
H  23.84100 54.40900 33.51000

