158

Mg 1.11400 7.08100 25.40600
C  1.54500 8.62800 28.50000
C  0.93500 4.00300 27.11900
C  0.85700 5.53300 22.40000
C  1.45400 10.21000 23.83200
N  1.41300 6.40400 27.52800
C  1.32100 7.25200 28.65600
C  1.23900 6.51800 29.96100
C  1.33500 4.98300 29.51100
C  1.20200 5.09600 27.93100
C  2.68300 4.35500 29.96100
C  0.11900 6.93700 30.89300
C  0.55900 7.06400 32.31200
H  1.93700 6.47300 32.87000
N  0.90000 5.01000 24.80900
C  0.79200 3.95900 25.73600
C  0.48300 2.74500 24.91400
C  0.50200 3.15900 23.50100
C  0.75500 4.64400 23.52400
C  0.14700 1.39300 25.50300
C  0.30700 2.27700 22.22500
O  0.36500 2.81300 21.10700
C  -0.02200 0.80000 22.29500
N  1.37700 7.80400 23.46800
C  1.13000 6.95100 22.34400
C  1.01600 7.75100 21.06400
C  0.99900 9.19900 21.59800
C  1.28700 9.13300 23.04200
C  2.19800 7.51200 20.03500
C  -0.28700 9.96000 21.26300
C  -0.34300 10.49200 19.80900
N  1.65000 9.07600 25.95300
C  1.70600 10.21000 25.24100
C  1.91600 11.33800 26.13000
C  1.88400 10.74800 27.44200
C  1.65400 9.36700 27.26600
C  2.16600 12.82800 25.82900
C  1.95400 11.06500 28.89700
O  2.31500 12.08100 29.48500
C  1.72000 9.66400 29.66500
C  2.84300 9.49100 30.58500
O  4.01700 9.20600 30.33900
O  2.35100 10.03800 31.76000
C  3.42200 10.45200 32.68300
H  0.76400 3.06400 27.65000
H  0.82800 5.14600 21.37900
H  1.48600 11.22100 23.42100
H  2.18000 6.82100 30.42100
H  0.51700 4.36300 29.87700
H  3.33000 3.97100 29.17200
H  2.51500 3.47800 30.58500
H  3.35100 5.10300 30.38900
H  -0.62500 6.14800 30.78600
H  -0.36800 7.87300 30.61900
H  -0.28300 6.78200 32.94300
H  0.65400 8.13000 32.51800
H  0.98500 0.75200 25.23200
H  -0.82500 1.02200 25.17800
H  0.11300 1.45500 26.59100
H  0.74900 0.13100 22.67800
H  -0.21400 0.54500 21.25300
H  -0.96000 0.62800 22.82200
H  0.11200 7.64000 20.46500
H  1.83000 9.68000 21.08100
H  3.06600 8.15600 20.17700
H  1.85800 7.52100 18.99900
H  2.59800 6.51400 20.21000
H  -0.48600 10.77000 21.96500
H  -1.08200 9.22800 21.40900
H  0.64800 10.39600 19.36600
H  -0.75500 11.49800 19.88500
H  -0.96300 9.84700 19.18500
H  2.93300 13.31200 26.43400
H  1.26500 13.37900 26.09900
H  2.44500 12.94200 24.78100
H  0.74500 9.75800 30.14300
H  3.20800 11.46400 33.03000
H  4.42200 10.48200 32.25200
H  3.41700 9.81500 33.56800
Mg 41.05100 40.89900 26.87500
C  40.40400 43.39700 29.11400
C  42.16500 38.79900 29.33700
C  41.83100 38.74500 24.44200
C  40.71200 43.35700 24.18700
N  41.26700 41.04900 29.00800
C  40.80900 42.15400 29.74900
C  41.05000 41.90600 31.26900
C  41.58900 40.46200 31.28100
C  41.74500 40.06700 29.82300
C  42.90200 40.30200 31.98800
C  39.74800 42.10200 32.21100
C  39.99100 42.01700 33.78000
H  39.18400 42.93500 34.65600
N  41.81300 38.98700 26.93100
C  42.22500 38.29000 28.03300
C  42.59200 36.94600 27.60500
C  42.56000 36.98800 26.16400
C  42.00600 38.28800 25.77000
C  43.01200 35.83000 28.49000
C  43.00600 35.81800 25.22100
O  43.04800 35.98400 23.96600
C  43.27400 34.45100 25.75600
N  40.97300 40.95600 24.60600
C  41.39300 39.91100 23.89000
C  41.39500 40.04000 22.36600
C  40.88200 41.58200 22.33800
C  40.83700 42.01800 23.78100
C  42.70700 39.64300 21.62000
C  39.45200 41.76400 21.65700
C  38.31300 41.37300 22.55700
N  40.67700 42.99500 26.61700
C  40.58800 43.85400 25.52900
C  40.31600 45.15100 26.06000
C  40.18900 45.03500 27.43500
C  40.40700 43.71700 27.70100
C  40.24200 46.43000 25.23800
C  39.94400 45.70200 28.66800
O  39.67300 46.85200 29.00900
C  40.13600 44.69000 29.83500
C  41.38600 45.18600 30.52700
O  42.47900 45.23600 29.98900
O  41.16700 45.47900 31.89800
C  42.29000 45.89400 32.72900
H  42.35400 38.13200 30.18000
H  41.97000 37.95100 23.70500
H  40.63800 44.11300 23.40100
H  41.76500 42.69600 31.50000
H  40.80700 39.88200 31.77100
H  42.70200 39.66500 32.85000
H  43.22000 41.29500 32.30400
H  43.69700 39.87800 31.37500
H  39.06500 41.32000 31.88000
H  39.21900 42.98100 31.84300
H  41.06900 42.00100 33.94400
H  39.66200 40.99000 33.93800
H  42.30800 35.00200 28.57700
H  43.09000 36.21900 29.50500
H  43.97000 35.34800 28.29400
H  42.60200 34.09300 26.53500
H  44.16900 34.57600 26.36500
H  43.33300 33.74800 24.92500
H  40.62600 39.43800 21.88300
H  41.61200 42.11200 21.72600
H  43.51900 39.24500 22.22800
H  43.07900 40.54200 21.13000
H  42.49200 38.91300 20.83900
H  39.57400 41.11400 20.79000
H  39.31700 42.81700 21.41100
H  38.60900 41.04400 23.55300
H  37.73400 40.61700 22.02700
H  37.72300 42.28700 22.62100
H  39.93000 46.25200 24.20900
H  41.24800 46.85000 25.23600
H  39.55400 47.03100 25.83300
H  39.19100 44.84400 30.35700
H  42.27200 45.39300 33.69700
H  42.21700 46.97800 32.82000
H  43.22000 45.49800 32.32100

