158

Mg -0.41800 7.56600 26.16200
C  0.48900 9.53500 28.87900
C  -0.22000 4.78300 28.17900
C  -0.66000 5.56300 23.39500
C  0.07000 10.34100 24.07200
N  0.04400 7.24200 28.31700
C  0.30500 8.20500 29.18900
C  0.35400 7.60700 30.68000
C  0.35000 6.00800 30.39400
C  -0.04300 6.00200 28.83300
C  1.73100 5.34100 30.65400
C  -0.89200 8.19900 31.41400
C  -1.04200 7.80300 32.87300
H  0.25800 7.62700 33.79100
N  -0.40500 5.40900 25.84000
C  -0.27800 4.50400 26.80900
C  -0.38300 3.17600 26.26900
C  -0.57700 3.32800 24.81800
C  -0.61400 4.81800 24.61600
C  -0.29300 1.88400 27.12300
C  -0.78200 2.17900 23.74200
O  -1.03800 2.42800 22.55600
C  -0.74500 0.77900 24.19500
N  -0.43900 7.85400 24.10600
C  -0.60200 6.90600 23.14800
C  -0.60100 7.45800 21.73500
C  -0.74400 9.05300 21.99800
C  -0.32600 9.14700 23.49400
C  0.77300 7.09400 20.97000
C  -2.15800 9.56100 21.64300
C  -2.33800 10.30600 20.38000
N  -0.00100 9.54300 26.39000
C  0.22000 10.57500 25.46800
C  0.70700 11.78100 26.18900
C  0.68400 11.32400 27.48600
C  0.42700 9.96500 27.59700
C  0.94300 13.13500 25.58400
C  0.96600 11.87100 28.82900
O  1.38800 12.99600 29.11600
C  0.69400 10.74100 29.80400
C  1.96700 10.57700 30.61400
O  2.90700 9.86100 30.31500
O  1.88700 11.35200 31.75200
C  3.18500 11.51700 32.42200
H  -0.15100 3.94800 28.88000
H  -0.72500 4.83500 22.58300
H  0.30000 11.23200 23.48400
H  1.25700 7.85900 31.23600
H  -0.40400 5.52600 31.01600
H  2.56300 6.03700 30.55100
H  2.02000 4.62300 29.88600
H  1.75900 4.93600 31.66500
H  -1.78800 7.80300 30.93600
H  -0.98200 9.27800 31.28700
H  -1.71800 6.94800 32.84900
H  -1.63300 8.50700 33.45900
H  0.63900 1.38600 26.85600
H  -1.10400 1.18300 26.92800
H  -0.41000 2.11700 28.18200
H  -0.69500 0.08800 23.35300
H  -1.69300 0.65000 24.71700
H  0.17100 0.63800 24.76900
H  -1.53500 7.19700 21.23900
H  0.12600 9.30600 21.39200
H  1.61100 7.06100 21.66600
H  1.02900 7.90300 20.28400
H  0.45300 6.12600 20.58400
H  -2.28400 10.27400 22.45800
H  -2.91400 8.78800 21.78400
H  -1.41000 10.31000 19.80700
H  -2.57100 11.35000 20.59000
H  -3.08400 9.81700 19.75400
H  1.84300 13.44500 26.11600
H  0.10800 13.75400 25.91100
H  1.10200 13.11000 24.50600
H  -0.14700 11.05600 30.42200
H  4.03000 11.68300 31.75500
H  3.38600 10.60300 32.98100
H  3.20700 12.36200 33.11000
Mg 55.41400 24.45800 45.41000
C  52.91700 26.58000 44.22700
C  53.98100 21.84300 43.73300
C  58.26700 22.75200 45.66200
C  56.99600 27.28100 46.81800
N  53.77600 24.37400 43.84900
C  52.77600 25.30100 43.67700
C  51.47800 24.60600 43.10400
C  51.82300 23.07500 43.22300
C  53.26900 23.04800 43.64400
C  50.79600 22.31900 44.14100
C  51.23100 24.97300 41.64300
C  49.71100 24.88300 41.21500
H  49.36400 24.24700 39.82800
N  56.00100 22.49800 44.96400
C  55.26100 21.56600 44.28100
C  55.89800 20.33500 44.24500
C  57.19000 20.51500 44.90700
C  57.20500 21.98800 45.16100
C  55.20900 19.12000 43.75000
C  58.17500 19.46600 45.14400
O  58.08600 18.28700 44.73400
C  59.41900 19.73500 45.94500
N  57.33700 24.97000 46.09100
C  58.37900 24.08000 46.05300
C  59.67800 24.73700 46.66100
C  59.16600 26.12500 47.13100
C  57.78400 26.19100 46.53000
C  60.56000 23.98400 47.69400
C  60.15300 27.25500 46.69300
C  60.27800 27.69800 45.26700
N  55.00700 26.54900 45.64100
C  55.68400 27.55400 46.33200
C  54.86000 28.75000 46.30700
C  53.79300 28.42100 45.45800
C  53.95200 27.09800 45.07800
C  55.17500 30.08400 46.88600
C  52.59100 28.93000 44.87700
O  52.03600 29.97900 45.15900
C  51.99600 27.81700 44.01000
C  51.62500 28.29000 42.60900
O  52.36000 28.77400 41.69400
O  50.22700 28.30500 42.40000
C  49.82600 28.81700 41.07700
H  53.39700 20.96100 43.46600
H  59.20000 22.20700 45.81900
H  57.44900 28.18900 47.22100
H  50.68900 24.96900 43.76300
H  51.78900 22.57600 42.25500
H  51.32600 21.66700 44.83600
H  50.02300 21.76100 43.61400
H  50.24100 23.05600 44.72300
H  51.75800 24.28300 40.98400
H  51.56600 25.99700 41.47700
H  49.34900 25.88600 41.44100
H  49.23700 24.25800 41.97300
H  55.85500 18.30200 43.43100
H  54.70900 19.41200 42.82600
H  54.50100 18.61200 44.40500
H  60.15900 20.27100 45.35200
H  59.85300 18.74700 46.10100
H  59.14000 20.14600 46.91500
H  60.36400 24.91800 45.83400
H  59.05200 26.15100 48.21400
H  60.85200 24.70200 48.46100
H  61.45700 23.57200 47.23000
H  60.09100 23.11400 48.15200
H  61.15000 26.92800 46.98900
H  59.78800 28.04400 47.35000
H  59.64700 27.14500 44.57100
H  61.26200 27.57600 44.81400
H  60.04800 28.76300 45.28800
H  54.86500 30.11800 47.93100
H  54.67800 30.85500 46.29700
H  56.25300 30.24600 46.86700
H  51.03300 27.51900 44.42600
H  49.58600 29.87600 41.17000
H  49.04200 28.20500 40.63100
H  50.57700 28.64900 40.30500

