158

Mg 9.72700 47.45400 26.26500
C  7.70800 48.08000 29.02700
C  12.50200 48.18900 28.07200
C  11.37800 47.13300 23.40000
C  6.67400 46.87700 24.43700
N  10.01000 48.09100 28.33900
C  9.07000 48.11600 29.29400
C  9.83500 48.22600 30.70500
C  11.25700 48.75200 30.26300
C  11.26900 48.23900 28.81000
C  11.44200 50.32800 30.25000
C  9.89900 46.80900 31.41100
C  10.46400 46.88400 32.79600
H  9.72100 46.29100 34.06900
N  11.69100 47.84000 25.77000
C  12.72400 48.09600 26.73000
C  13.98600 47.96100 26.04200
C  13.69800 47.62100 24.67300
C  12.19700 47.51000 24.53200
C  15.31000 48.19500 26.79100
C  14.67600 47.48300 23.53400
O  14.28800 47.14800 22.44300
C  16.14600 47.50600 23.69400
N  9.11400 47.07300 24.26300
C  10.04800 46.85300 23.32700
C  9.49400 46.27200 22.05300
C  7.96200 46.10100 22.39500
C  7.87200 46.77900 23.76800
C  9.73400 47.04000 20.67800
C  7.43300 44.65300 22.44200
C  8.22500 43.67800 23.33700
N  7.59500 47.67100 26.55300
C  6.50500 47.37000 25.74600
C  5.32100 47.48500 26.53700
C  5.71800 47.81300 27.87100
C  7.10100 47.89900 27.76200
C  3.98900 47.31200 26.06300
C  5.26400 48.02400 29.23500
O  4.12000 48.04000 29.70200
C  6.54100 48.20800 30.02300
C  6.45500 47.10600 30.99400
O  6.27200 45.89600 30.72700
O  6.05600 47.68500 32.14200
C  5.42700 46.76800 33.15300
H  13.37600 48.16900 28.72500
H  11.99300 46.81900 22.55500
H  5.77000 46.63400 23.87400
H  9.40900 48.94600 31.40500
H  12.00900 48.23300 30.85700
H  11.42200 50.53300 29.18000
H  12.49900 50.36800 30.51500
H  10.79500 51.02100 30.78600
H  10.52500 46.13700 30.82500
H  8.91200 46.37300 31.25700
H  10.66800 47.94700 32.93000
H  11.34300 46.24000 32.75600
H  15.71000 49.11300 26.36000
H  16.01300 47.39600 26.55700
H  15.20600 48.31600 27.86900
H  16.67800 47.63200 22.75100
H  16.22600 46.45800 23.98000
H  16.52900 48.20000 24.44200
H  9.80000 45.23600 21.90800
H  7.41300 46.70600 21.67300
H  9.48500 48.09200 20.82100
H  9.02500 46.60700 19.97300
H  10.73500 46.83500 20.29900
H  7.54400 44.16600 21.47300
H  6.38600 44.54000 22.72000
H  9.05700 44.10500 23.89800
H  8.61000 42.82400 22.78000
H  7.61900 43.26600 24.14300
H  3.91400 46.43600 25.41900
H  3.73400 48.24900 25.56800
H  3.28100 47.20800 26.88500
H  6.53700 49.21300 30.44400
H  5.93000 45.80100 33.17300
H  4.35900 46.60600 33.01200
H  5.68300 47.40700 33.99800
Mg -2.49100 34.48100 27.16800
C  -3.89000 32.40100 29.63100
C  -0.97300 36.19400 29.77000
C  -1.31300 36.49300 24.89800
C  -4.03300 32.52400 24.70800
N  -2.61700 34.43600 29.42300
C  -3.35900 33.57100 30.17200
C  -3.20000 33.86400 31.69900
C  -2.39600 35.18900 31.68300
C  -1.94800 35.30100 30.21000
C  -3.22200 36.52700 31.94800
C  -2.48400 32.65800 32.41300
C  -3.22400 32.24300 33.67800
H  -2.27700 32.22900 34.91500
N  -1.17000 36.03700 27.29400
C  -0.58500 36.59800 28.47400
C  0.33200 37.59200 28.16500
C  0.22800 37.74700 26.76800
C  -0.78200 36.76400 26.25100
C  1.24100 38.34700 29.21000
C  1.03500 38.62700 25.77900
O  0.78100 38.68400 24.56100
C  2.18000 39.38800 26.38000
N  -2.87500 34.66900 25.10800
C  -2.22500 35.61400 24.38700
C  -2.52200 35.56600 22.83300
C  -3.27700 34.18600 22.74200
C  -3.39500 33.73000 24.25000
C  -3.22100 36.80800 22.31800
C  -2.60800 33.18000 21.77000
C  -1.33600 32.51500 22.25500
N  -3.70800 32.80900 27.07400
C  -4.12500 32.00800 26.03600
C  -4.71300 30.78500 26.54500
C  -4.67600 30.92200 27.91900
C  -4.03700 32.14000 28.23300
C  -5.32200 29.76800 25.60600
C  -5.05300 30.27800 29.04500
O  -5.60100 29.21000 29.24900
C  -4.55400 31.23400 30.27100
C  -5.76400 31.66700 30.97800
O  -6.60500 32.40900 30.47200
O  -5.84900 31.10100 32.27100
C  -6.93300 31.47900 33.17800
H  -0.52500 36.79800 30.56100
H  -1.01300 37.22300 24.14300
H  -4.30500 31.90300 23.85200
H  -4.20800 34.11600 32.02700
H  -1.60500 34.98900 32.40700
H  -2.93800 37.36500 31.31200
H  -3.12900 36.75700 33.01000
H  -4.26400 36.28400 31.74400
H  -1.48400 32.91000 32.76500
H  -2.35500 31.82800 31.71900
H  -3.61600 31.23000 33.58200
H  -4.01400 32.92800 33.98400
H  2.32300 38.23200 29.15100
H  1.04700 38.10900 30.25600
H  1.10800 39.40700 28.99500
H  1.74400 40.24600 26.89100
H  2.86200 39.85700 25.67000
H  2.70200 38.64500 26.98200
H  -1.53600 35.55000 22.36900
H  -4.27000 34.33500 22.31800
H  -2.43100 37.23000 21.69700
H  -3.42600 37.41800 23.19900
H  -4.15200 36.56300 21.80700
H  -2.49100 33.67800 20.80700
H  -3.37600 32.40900 21.70900
H  -1.24400 31.44100 22.09000
H  -1.12100 32.68700 23.31000
H  -0.63500 33.16100 21.72700
H  -4.74600 29.40200 24.75600
H  -6.26600 30.26600 25.38200
H  -5.61900 28.87600 26.15700
H  -3.88100 30.59900 30.84900
H  -6.42300 31.76500 34.09700
H  -7.55100 30.59500 33.33400
H  -7.64400 32.23900 32.85400

