158

Mg -1.45900 17.52600 27.39200
C  -1.90100 15.23900 29.97300
C  -2.27200 20.02900 29.65800
C  -1.61600 19.68400 24.81000
C  -1.59100 14.89800 25.04000
N  -2.00400 17.66500 29.58500
C  -1.99800 16.61000 30.49000
C  -2.35600 17.07500 31.96500
C  -2.43600 18.63200 31.83400
C  -2.22800 18.82400 30.23500
C  -3.69700 19.32900 32.43000
C  -1.39600 16.60500 33.08900
C  -1.65100 17.17900 34.51300
H  -0.37300 17.04000 35.35200
N  -1.67700 19.52100 27.32400
C  -1.97400 20.42700 28.30100
C  -2.16000 21.71800 27.73800
C  -1.82700 21.59200 26.37800
C  -1.70400 20.18700 26.09200
C  -2.53900 23.00200 28.45900
C  -1.60600 22.67400 25.34200
O  -1.19000 22.59500 24.19900
C  -1.94900 24.10300 25.68100
N  -1.52800 17.30400 25.24800
C  -1.43500 18.43000 24.40100
C  -1.42000 17.98500 22.91500
C  -1.07800 16.45700 23.06400
C  -1.38100 16.15800 24.52800
C  -2.76500 18.28400 22.15300
C  0.28000 16.02500 22.53700
C  1.43200 16.56800 23.30200
N  -1.56400 15.48100 27.46300
C  -1.68900 14.59000 26.41500
C  -1.74900 13.25400 26.94600
C  -1.91400 13.43500 28.35100
C  -1.76200 14.83300 28.62000
C  -1.79100 11.95200 26.16400
C  -2.09800 12.72700 29.56600
O  -2.20100 11.56800 29.82600
C  -2.14100 13.89900 30.70200
C  -1.15300 13.51500 31.77400
O  -0.06900 14.07100 31.95300
O  -1.72300 12.61800 32.64400
C  -1.25500 12.67000 34.03700
H  -2.35400 20.81500 30.41200
H  -1.64200 20.45300 24.03500
H  -1.58700 14.13400 24.26000
H  -3.39100 16.76100 32.09800
H  -1.51800 18.99700 32.29500
H  -4.15900 18.61900 33.11600
H  -4.43400 19.70700 31.72200
H  -3.33400 20.23900 32.90800
H  -0.37200 16.68700 32.72500
H  -1.60300 15.55000 33.26800
H  -2.55400 16.69700 34.88400
H  -1.81100 18.25700 34.51400
H  -2.58600 22.84100 29.53600
H  -3.56200 23.18500 28.13100
H  -1.91800 23.89000 28.34000
H  -1.92000 24.86400 24.90100
H  -1.22800 24.52200 26.38300
H  -2.96400 24.02900 26.07200
H  -0.60100 18.39700 22.32600
H  -1.77000 15.76100 22.59000
H  -3.55900 18.55600 22.84900
H  -2.93200 17.38800 21.55600
H  -2.58100 19.09500 21.44900
H  0.37900 16.44800 21.53800
H  0.43900 14.94700 22.51100
H  1.09700 16.94100 24.27000
H  1.78900 17.46900 22.80400
H  2.27500 15.88100 23.38300
H  -1.75900 12.04200 25.07800
H  -2.64600 11.35000 26.46900
H  -0.93300 11.37500 26.51100
H  -3.09500 13.91600 31.23000
H  -1.58800 13.59800 34.50200
H  -0.17700 12.54200 34.12700
H  -1.74200 11.85700 34.57600
Mg 48.27800 34.36500 27.15100
C  46.11400 33.27600 29.72000
C  48.83300 37.11500 29.00800
C  49.51700 35.63700 24.48700
C  46.80900 31.67100 25.10000
N  47.50900 35.06900 29.12700
C  46.83800 34.42300 30.06400
C  46.97900 35.05600 31.45900
C  47.38300 36.50300 31.08700
C  47.98900 36.23200 29.65200
C  46.14700 37.54300 30.98400
C  48.07800 34.33800 32.32200
C  47.90900 34.32500 33.82200
H  46.77800 35.24100 34.45100
N  49.12900 36.13300 26.80500
C  49.26600 37.19900 27.70700
C  50.01700 38.18400 27.02700
C  50.22600 37.73400 25.70700
C  49.62200 36.40500 25.65600
C  50.31500 39.51500 27.70700
C  51.01800 38.46700 24.57400
O  51.26900 37.96000 23.46000
C  51.54200 39.71800 24.83000
N  48.23300 33.59000 25.02700
C  48.94100 34.36600 24.20600
C  48.93800 33.78100 22.81300
C  48.32900 32.29600 23.04700
C  47.78800 32.46400 24.46200
C  48.14700 34.67700 21.79500
C  49.42100 31.17100 22.80100
C  49.52000 30.56000 21.41300
N  46.90300 32.68000 27.32600
C  46.41100 31.73300 26.44300
C  45.56500 30.78100 27.15400
C  45.35700 31.37200 28.42000
C  46.18200 32.51200 28.48000
C  44.88400 29.59000 26.58200
C  44.63400 31.18800 29.63400
O  43.90100 30.27800 29.92000
C  44.99300 32.53000 30.52800
C  45.37300 31.90300 31.82100
O  46.40500 31.30500 31.99900
O  44.30300 31.97000 32.67000
C  44.61600 31.63500 34.01200
H  49.09400 37.98400 29.61600
H  50.02200 36.03800 23.60500
H  46.53900 30.90700 24.36800
H  46.02600 35.12100 31.98500
H  48.14900 36.94000 31.72700
H  45.39400 37.40600 31.75900
H  45.66800 37.33900 30.02700
H  46.43700 38.59400 30.97200
H  49.02900 34.85800 32.21300
H  48.33000 33.29600 32.12300
H  48.85800 34.65600 34.24400
H  47.77200 33.29500 34.15100
H  51.40300 39.57700 27.69800
H  49.92000 39.57600 28.72100
H  49.88900 40.42500 27.28500
H  52.47200 39.62900 25.39100
H  50.78300 40.46100 25.07700
H  51.85100 40.04100 23.83600
H  49.96700 33.82100 22.45500
H  47.50300 32.07500 22.37100
H  47.08800 34.42100 21.81400
H  48.52600 34.44300 20.80000
H  48.27000 35.72400 22.07300
H  49.20200 30.31200 23.43600
H  50.38000 31.50200 23.19900
H  49.21600 29.51700 21.50600
H  50.55700 30.65900 21.09200
H  48.84100 31.06400 20.72400
H  44.29500 29.03900 27.31500
H  45.65200 28.91800 26.19800
H  44.18400 29.84700 25.78700
H  44.04600 33.01500 30.76600
H  45.52800 31.04900 34.13000
H  43.83900 31.04100 34.49200
H  44.74600 32.50700 34.65300

