158

Mg 54.21100 24.76800 43.47700
C  51.62700 27.25700 43.39800
C  51.91900 22.46900 42.78000
C  56.76500 22.58300 43.20600
C  56.52300 27.41300 43.73500
N  51.98100 24.96200 42.94100
C  51.20200 26.00200 43.00900
C  49.73800 25.57500 42.65400
C  49.78400 24.01000 42.80200
C  51.32700 23.72300 42.76100
C  49.06200 23.40500 44.06200
C  49.14300 26.12600 41.21100
C  50.20000 26.70900 40.15200
H  50.28000 26.29000 38.63900
N  54.35200 22.81700 43.09900
C  53.27800 22.00400 42.84800
C  53.77300 20.50700 42.74900
C  55.19000 20.53500 42.95000
C  55.52000 22.02200 43.07100
C  52.89100 19.37300 42.46200
C  56.07000 19.31500 43.11100
O  55.58900 18.18800 43.02500
C  57.51900 19.38100 43.46000
N  56.38000 25.05000 43.19700
C  57.18800 23.95700 43.27900
C  58.69700 24.37200 43.44700
C  58.57200 25.87300 43.24800
C  57.07700 26.18200 43.44600
C  59.18400 23.90300 44.80100
C  59.05800 26.41900 41.87500
C  59.80800 27.79700 41.77100
N  54.18800 26.89300 43.55600
C  55.18900 27.80600 43.82500
C  54.55200 29.11600 44.20100
C  53.13600 28.92500 44.06400
C  52.95000 27.56300 43.64600
C  55.22900 30.49300 44.57300
C  51.82300 29.52100 44.24100
O  51.48800 30.58800 44.72900
C  50.82700 28.49100 43.72000
C  50.33600 29.13500 42.46900
O  50.95400 29.39900 41.48700
O  48.95500 29.50000 42.63200
C  48.30900 30.07500 41.48000
H  51.16800 21.68100 42.68800
H  57.53100 21.81800 43.35400
H  57.21300 28.23800 43.92600
H  49.21800 25.85400 43.57100
H  49.43200 23.53700 41.88600
H  48.89200 24.08800 44.89400
H  49.58800 22.57300 44.53000
H  48.12600 22.92800 43.77100
H  48.44600 26.91800 41.48400
H  48.56600 25.34300 40.71800
H  51.23300 26.70900 40.50100
H  49.89800 27.75000 40.03300
H  52.92100 18.73500 43.34500
H  53.22300 18.76300 41.62200
H  51.85100 19.68500 42.37000
H  57.91000 18.36800 43.55800
H  57.66800 19.87900 44.41800
H  57.94400 19.89400 42.59700
H  59.22600 23.94800 42.59300
H  59.08300 26.39200 44.05800
H  59.37300 22.83000 44.77700
H  58.45400 23.99400 45.60500
H  60.12300 24.41700 45.00600
H  58.24700 26.45900 41.14800
H  59.73800 25.69900 41.42000
H  60.85400 27.65800 41.49700
H  59.73200 28.42200 42.66100
H  59.51300 28.42400 40.92900
H  55.13100 30.82300 45.60700
H  54.68600 31.26500 44.02700
H  56.30500 30.49900 44.40000
H  49.99400 28.43500 44.42000
H  48.36800 29.43900 40.59600
H  48.80700 31.00300 41.19800
H  47.29300 30.26400 41.82600
Mg -5.93800 24.69900 26.33300
C  -4.56200 26.34200 29.16600
C  -7.93300 22.92100 28.53100
C  -6.62400 22.65500 23.84600
C  -3.66200 26.37900 24.40100
N  -6.06200 24.58300 28.67100
C  -5.45400 25.35800 29.55400
C  -6.01800 25.02500 31.00100
C  -6.95600 23.77000 30.77300
C  -6.97400 23.71500 29.19600
C  -6.59300 22.47200 31.47000
C  -6.68900 26.37700 31.59600
C  -6.74600 26.41900 33.17300
H  -6.40200 25.12800 33.99700
N  -7.19900 23.08800 26.21300
C  -8.06800 22.56000 27.12200
C  -8.89000 21.60300 26.48100
C  -8.41400 21.41900 25.13400
C  -7.36500 22.42500 25.00300
C  -9.96300 20.81200 27.26700
C  -8.80700 20.49200 24.10000
O  -8.37200 20.42200 22.93000
C  -9.96000 19.57800 24.36900
N  -5.28200 24.52100 24.28900
C  -5.71500 23.63100 23.45300
C  -5.11600 23.82600 22.04200
C  -4.03100 24.97800 22.33400
C  -4.34900 25.33200 23.79600
C  -4.57500 22.67600 21.29000
C  -3.97900 26.14400 21.36000
C  -2.59400 26.57100 20.83000
N  -4.48600 26.11700 26.60300
C  -3.70900 26.78900 25.73800
C  -2.80300 27.64900 26.47300
C  -3.11300 27.55100 27.81400
C  -4.19800 26.60800 27.79700
C  -1.74900 28.46700 25.77100
C  -2.81600 28.00500 29.12500
O  -2.00600 28.82000 29.50600
C  -3.73100 27.20200 30.14200
C  -2.87400 26.34200 31.02500
O  -2.35000 25.30500 30.71800
O  -2.66800 27.02300 32.21400
C  -1.99500 26.15100 33.16000
H  -8.48300 22.24100 29.18600
H  -6.80900 22.00600 22.98800
H  -2.97400 26.94600 23.77000
H  -5.16300 24.70900 31.59700
H  -7.98100 24.00700 31.06000
H  -5.56700 22.46300 31.83800
H  -6.71600 21.78300 30.63500
H  -7.28200 22.30400 32.29800
H  -7.71300 26.52800 31.25500
H  -6.10800 27.22600 31.23400
H  -7.60600 26.93400 33.60000
H  -5.86400 27.02600 33.37600
H  -10.94700 21.10300 26.89900
H  -10.13200 21.15600 28.28800
H  -9.98100 19.73100 27.12900
H  -9.70100 18.81600 25.10400
H  -10.05400 19.00600 23.44500
H  -10.93000 20.06400 24.47300
H  -5.94700 24.09400 21.39000
H  -3.05600 24.49300 22.37800
H  -3.54200 22.92600 21.05100
H  -5.26500 22.53000 20.45800
H  -4.53300 21.77900 21.90700
H  -4.52500 26.98000 21.79700
H  -4.47300 25.98300 20.40200
H  -2.72100 26.99900 19.83600
H  -1.97500 25.67500 20.89000
H  -2.13500 27.24000 21.55800
H  -1.35100 28.00500 24.86800
H  -0.95100 28.57300 26.50700
H  -2.10200 29.46500 25.50800
H  -4.25500 27.95900 30.72600
H  -2.39500 26.39200 34.14500
H  -0.90900 26.23700 33.12000
H  -2.31300 25.11200 33.07200

