158

Mg 24.49700 -4.40700 45.34700
C  26.79400 -2.04500 44.10100
C  22.11200 -3.14800 43.53600
C  22.75700 -7.25900 46.02000
C  27.29200 -5.85700 47.10300
N  24.43300 -2.73300 43.99300
C  25.44900 -1.90900 43.64300
C  25.01600 -1.00400 42.53500
C  23.43900 -1.10200 42.64100
C  23.23500 -2.34600 43.42600
C  22.62000 0.17300 43.16700
C  25.61900 -1.50600 41.13600
C  26.31500 -0.47100 40.17000
H  26.17700 -0.80400 38.64700
N  22.56900 -5.05900 44.89800
C  21.75100 -4.36300 44.09300
C  20.48600 -4.99600 44.08800
C  20.66900 -6.31800 44.62200
C  22.08600 -6.25400 45.24100
C  19.25300 -4.44000 43.67400
C  19.64400 -7.41700 44.80900
O  18.53700 -7.30600 44.40700
C  19.95400 -8.84300 45.26200
N  25.05700 -6.40000 46.34900
C  24.07400 -7.31700 46.57000
C  24.61700 -8.48600 47.32900
C  25.93700 -7.92700 47.88900
C  26.15000 -6.62500 47.14500
C  23.71300 -9.26100 48.40100
C  27.12200 -8.86800 47.72700
C  28.33800 -8.76900 48.66900
N  26.61000 -4.02200 45.59400
C  27.56600 -4.68100 46.37000
C  28.83700 -3.91900 46.22800
C  28.54600 -2.88500 45.37600
C  27.19300 -2.96200 45.11500
C  30.16700 -4.35200 46.76300
C  29.16300 -1.68600 44.80900
O  30.27700 -1.17700 44.99400
C  27.97800 -1.12400 43.88900
C  27.83100 0.29700 44.47400
O  27.25900 0.64500 45.48200
O  28.25500 1.13100 43.44500
C  27.64100 2.46400 43.47900
H  21.30300 -2.69200 42.96100
H  22.17100 -8.14800 46.26400
H  28.15900 -6.31300 47.58500
H  25.32900 -0.00500 42.83800
H  23.05300 -1.29600 41.64100
H  21.67200 0.37000 42.66600
H  23.33100 0.99800 43.11900
H  22.29600 -0.06100 44.18100
H  24.79700 -1.91800 40.55100
H  26.34300 -2.30400 41.30100
H  27.37600 -0.35000 40.38800
H  25.95300 0.54200 40.34900
H  19.35300 -3.46800 43.19100
H  18.58600 -4.30000 44.52500
H  18.83500 -5.08000 42.89600
H  20.89400 -9.25900 44.90100
H  19.18300 -9.57100 45.01100
H  19.96400 -9.00300 46.34000
H  24.89900 -9.21900 46.57200
H  25.81300 -7.64900 48.93600
H  23.41300 -10.24600 48.04500
H  22.84400 -8.60500 48.43900
H  24.07400 -9.26700 49.43000
H  27.44300 -8.71800 46.69600
H  26.60400 -9.82000 47.84800
H  28.58700 -9.74200 49.09100
H  28.11100 -8.02800 49.43600
H  29.19300 -8.27100 48.21200
H  30.72700 -5.00600 46.09500
H  29.99000 -5.09300 47.54200
H  30.82100 -3.50300 46.96600
H  28.17500 -1.02100 42.82200
H  27.66700 2.99700 42.52900
H  28.09200 3.05500 44.27600
H  26.59300 2.35400 43.76000
Mg 47.93600 24.77100 28.53700
C  49.00200 27.00100 30.93300
C  46.95600 22.63000 31.01100
C  47.26500 22.64400 26.04400
C  49.33200 26.95800 26.20000
N  47.93600 24.83200 30.67900
C  48.34000 25.91100 31.48700
C  47.91900 25.70200 32.99200
C  47.51400 24.19300 32.97500
C  47.43000 23.86400 31.45700
C  48.35500 23.30500 33.89200
C  46.82200 26.70900 33.53400
C  46.11500 26.26300 34.83200
H  46.24900 27.21900 36.15200
N  47.00800 22.93600 28.53400
C  46.77700 22.13800 29.70400
C  46.19500 20.88000 29.23900
C  46.09500 20.93300 27.76200
C  46.69600 22.24600 27.36900
C  45.67100 19.87200 30.19100
C  45.62800 19.88000 26.78000
O  45.84500 19.96900 25.59600
C  44.99600 18.68300 27.29200
N  48.16700 24.85200 26.34500
C  47.91300 23.75700 25.58400
C  48.30500 23.92600 24.13300
C  48.72600 25.47700 24.21800
C  48.75800 25.82000 25.69500
C  49.46300 22.96600 23.61300
C  47.79300 26.41800 23.48600
C  47.78700 26.27600 21.97500
N  48.99300 26.55600 28.54300
C  49.42400 27.34400 27.54000
C  49.93600 28.66300 28.01000
C  49.88400 28.53200 29.38600
C  49.25900 27.28200 29.59200
C  50.48800 29.71200 27.08300
C  50.05900 29.17300 30.66600
O  50.65500 30.20200 30.96700
C  49.45000 28.20500 31.71000
C  50.45300 27.84600 32.72000
O  51.39700 27.16000 32.47700
O  50.30400 28.49500 33.86300
C  51.29200 28.18500 34.88400
H  46.82500 21.94500 31.85100
H  47.26400 21.82100 25.32500
H  49.69000 27.66500 25.44900
H  48.69300 25.99300 33.70300
H  46.54000 24.08100 33.45200
H  49.38900 23.63700 33.80600
H  48.41300 22.26000 33.58700
H  47.93000 23.31000 34.89600
H  46.00000 26.70000 32.81700
H  47.15200 27.73800 33.67800
H  46.40500 25.24100 35.07600
H  45.03800 26.21200 34.67300
H  46.09100 18.89300 29.96100
H  44.58700 19.79300 30.10000
H  45.76800 20.15200 31.24000
H  44.39300 18.83700 28.18700
H  45.77400 17.92300 27.36700
H  44.36100 18.30500 26.49100
H  47.47900 23.85100 23.42600
H  49.71700 25.62100 23.78900
H  49.18400 22.24200 22.84800
H  49.96800 22.43000 24.41700
H  50.11500 23.63900 23.05600
H  48.12400 27.39900 23.82700
H  46.75100 26.34900 23.80000
H  47.04500 26.96300 21.56700
H  47.73300 25.30300 21.48800
H  48.74400 26.75000 21.75600
H  50.56700 30.65600 27.62200
H  49.80700 29.91500 26.25600
H  51.48300 29.50500 26.69000
H  48.58500 28.76400 32.06600
H  50.98700 27.23900 35.33200
H  51.06600 28.83200 35.73100
H  52.34600 28.20600 34.60700

