158

Mg 24.80600 -5.23500 46.18800
C  26.71600 -2.81800 44.74500
C  22.20000 -4.44300 44.08200
C  23.24500 -8.13900 47.03600
C  27.75800 -6.38400 47.97900
N  24.55800 -3.85900 44.56700
C  25.43800 -2.92800 44.16400
C  24.82400 -1.96000 43.12700
C  23.33100 -2.44800 43.03500
C  23.35000 -3.67800 43.91500
C  22.24100 -1.31900 43.24500
C  25.75000 -2.27600 41.84200
C  25.89000 -1.13700 40.85000
H  25.35900 -1.30600 39.44700
N  22.83900 -6.08900 45.84000
C  21.90300 -5.50700 44.95400
C  20.73200 -6.22800 45.04700
C  21.04700 -7.46600 45.76900
C  22.42000 -7.29600 46.22700
C  19.34400 -5.84300 44.45100
C  20.06500 -8.62100 45.96200
O  18.97100 -8.73900 45.40200
C  20.53200 -9.76700 46.76600
N  25.41000 -7.06000 47.23700
C  24.56600 -8.06300 47.59400
C  25.21300 -9.10800 48.51100
C  26.67100 -8.56600 48.81400
C  26.61300 -7.21300 47.96800
C  24.47500 -9.53400 49.75900
C  27.74800 -9.64400 48.38400
C  29.00900 -9.89700 49.27100
N  26.80600 -4.70400 46.37800
C  27.81300 -5.18400 47.18200
C  29.00500 -4.39200 47.02300
C  28.63800 -3.46100 46.04600
C  27.25800 -3.72000 45.71600
C  30.33500 -4.42300 47.80400
C  29.05700 -2.23100 45.32800
O  30.12300 -1.65300 45.31700
C  27.89700 -1.79100 44.37100
C  27.65500 -0.38300 44.50700
O  27.27000 0.16600 45.54000
O  27.88900 0.15700 43.30600
C  27.95000 1.67500 43.29600
H  21.46200 -4.07400 43.36700
H  22.86500 -9.15900 47.11500
H  28.55700 -6.67700 48.66200
H  25.01300 -0.94500 43.47500
H  23.26700 -2.79700 42.00500
H  22.81500 -0.50700 43.69000
H  21.50000 -1.68400 43.95600
H  21.81800 -1.06200 42.27400
H  25.14400 -3.01900 41.32300
H  26.67000 -2.77800 42.14100
H  26.93100 -0.88200 40.65200
H  25.43900 -0.25700 41.30900
H  19.37500 -5.14200 43.61700
H  18.77900 -5.28200 45.19500
H  18.66800 -6.63600 44.13100
H  19.76500 -10.54200 46.78000
H  20.80100 -9.57100 47.80400
H  21.32800 -10.33500 46.28500
H  25.27300 -9.98200 47.86300
H  26.70100 -8.29500 49.87000
H  23.43500 -9.22500 49.64500
H  24.93200 -9.10100 50.64800
H  24.48800 -10.61900 49.86200
H  28.01800 -9.42100 47.35200
H  27.35500 -10.66100 48.38400
H  29.05800 -10.89300 49.71000
H  28.96700 -9.20600 50.11300
H  29.91300 -9.62000 48.72900
H  30.98600 -5.16400 47.33900
H  30.16100 -4.82000 48.80400
H  30.71600 -3.40500 47.72700
H  28.32200 -2.04600 43.40000
H  27.58700 2.11700 44.22300
H  27.28700 2.01000 42.49900
H  28.95800 2.04200 43.10100
Mg 47.32600 25.20600 27.93800
C  48.45400 27.40200 30.43100
C  46.39300 22.99800 30.45100
C  46.63800 23.00700 25.50600
C  48.53500 27.48100 25.56900
N  47.57800 25.13400 30.17400
C  47.93200 26.22600 30.94000
C  47.55500 26.02200 32.39800
C  47.03400 24.50900 32.37200
C  47.00700 24.19900 30.90200
C  47.90400 23.57200 33.30800
C  46.36900 27.00000 32.88500
C  46.55300 27.75000 34.18300
H  47.27600 27.04400 35.36600
N  46.66500 23.27400 27.94700
C  46.24800 22.52000 29.06700
C  45.84200 21.19300 28.63200
C  45.76400 21.21400 27.22900
C  46.41400 22.49900 26.81900
C  45.58700 20.09800 29.62400
C  45.20400 20.19000 26.34000
O  45.26000 20.25500 25.11100
C  44.41400 19.06300 26.92900
N  47.59500 25.22600 25.90900
C  47.14900 24.20900 25.11100
C  47.42200 24.55700 23.62300
C  47.89700 26.03200 23.62300
C  48.04400 26.26500 25.12100
C  48.40600 23.50600 22.99500
C  46.75800 27.00400 22.98600
C  47.17300 28.28000 22.20300
N  48.12900 27.10900 27.90000
C  48.59200 27.91600 26.90800
C  49.01400 29.15900 27.34500
C  48.95400 29.01900 28.71500
C  48.51400 27.74900 29.02200
C  49.57100 30.33100 26.47600
C  49.24100 29.63500 29.91400
O  49.72600 30.69500 30.10800
C  48.87500 28.71800 31.09200
C  50.06000 28.55000 31.93100
O  51.19100 28.14600 31.65400
O  49.63600 28.61600 33.20900
C  50.73600 28.58400 34.17400
H  46.05800 22.33600 31.25300
H  46.33300 22.34900 24.69000
H  48.87800 28.25400 24.87900
H  48.48400 26.13400 32.95700
H  45.99600 24.54000 32.70300
H  48.52000 23.04700 32.57800
H  47.23200 23.02800 33.97100
H  48.54700 24.17400 33.95000
H  45.38400 26.54400 32.78500
H  46.35700 27.74900 32.09400
H  45.61600 28.11000 34.60800
H  47.12700 28.63800 33.92000
H  45.83600 19.08100 29.32100
H  44.56900 20.09100 30.01300
H  46.20100 20.36500 30.48300
H  43.78100 19.26300 27.79400
H  45.19700 18.31400 27.05100
H  43.85200 18.52600 26.16500
H  46.48500 24.46700 23.07300
H  48.90000 26.19600 23.23000
H  48.70000 22.76500 23.73900
H  49.29900 24.09900 22.79800
H  47.97300 22.99200 22.13700
H  46.14700 27.34600 23.82100
H  46.10100 26.35400 22.40800
H  48.24700 28.23400 22.02100
H  46.77100 29.18800 22.65300
H  46.50200 28.19500 21.34800
H  48.90100 30.30100 25.61600
H  50.64000 30.14200 26.38000
H  49.40000 31.31600 26.91100
H  48.07600 29.21000 31.64800
H  50.33400 29.08000 35.05700
H  51.65200 29.13400 33.95800
H  50.92400 27.55200 34.47000

