158

Mg 45.62700 3.34000 47.30700
C  43.33800 5.98500 46.58400
C  43.10600 1.16000 46.85100
C  48.02100 1.01800 47.19300
C  48.20100 5.85200 47.02000
N  43.54200 3.60700 46.60000
C  42.80600 4.72200 46.61100
C  41.30700 4.39400 46.36800
C  41.23400 2.83200 46.56800
C  42.75000 2.50000 46.66800
C  40.36000 2.40000 47.74900
C  40.84900 4.88900 44.99100
C  39.64200 5.82100 44.91200
H  39.66200 7.02800 43.93600
N  45.59200 1.28700 47.06100
C  44.43900 0.55700 47.08300
C  44.77900 -0.79300 47.41500
C  46.23600 -0.88100 47.42800
C  46.69400 0.48800 47.22000
C  43.85700 -1.90700 47.57000
C  47.12600 -2.19400 47.68300
O  46.64000 -3.30900 47.98000
C  48.62800 -2.15300 47.59500
N  47.82600 3.46600 46.90300
C  48.53600 2.30700 47.09100
C  49.99200 2.60900 47.20600
C  50.08800 4.12700 47.24000
C  48.63200 4.52700 46.95100
C  50.84400 1.99400 48.38900
C  51.16700 4.63800 46.28500
C  52.54000 5.04900 46.77900
N  45.80500 5.47300 46.75800
C  46.87000 6.27900 46.87600
C  46.50100 7.66200 46.85400
C  45.05800 7.59700 46.77900
C  44.74800 6.22300 46.65800
C  47.37100 8.90800 46.85100
C  43.84700 8.38600 46.71800
O  43.67600 9.59500 46.79600
C  42.72400 7.32500 46.56100
C  41.88400 7.56200 47.75600
O  41.94100 6.89500 48.78700
O  40.80000 8.36500 47.43000
C  39.70400 8.39000 48.34300
H  42.29400 0.43800 46.95500
H  48.78400 0.24600 47.31200
H  48.97100 6.62400 46.95600
H  40.55600 4.80100 47.04500
H  40.95500 2.32300 45.64600
H  39.43300 2.97300 47.78200
H  40.80100 2.59100 48.72700
H  40.10500 1.34300 47.67400
H  40.44200 4.04100 44.43900
H  41.61500 5.27400 44.31800
H  39.32400 6.22800 45.87200
H  38.77500 5.22600 44.62500
H  43.56000 -2.06300 48.60800
H  44.24800 -2.82600 47.13400
H  42.94400 -1.74500 46.99700
H  49.09700 -3.13600 47.54900
H  49.17300 -1.55700 48.32700
H  48.99800 -1.69600 46.67700
H  50.48300 2.16700 46.33900
H  50.42600 4.44000 48.22800
H  50.10200 1.69400 49.13000
H  51.48300 2.75600 48.83700
H  51.36400 1.06300 48.16500
H  50.72900 5.44700 45.70100
H  51.26100 3.90300 45.48500
H  52.77100 6.10900 46.66500
H  53.20700 4.44500 46.16400
H  52.67000 4.71700 47.80900
H  48.42100 8.62000 46.78700
H  47.27800 9.58800 47.69800
H  47.03700 9.43200 45.95600
H  42.15100 7.46800 45.64400
H  39.29500 9.33200 48.70900
H  39.97600 7.92600 49.29100
H  38.89800 7.83500 47.86300
Mg -9.91100 17.54000 40.52300
C  -6.44300 17.20500 41.00100
C  -9.40100 20.96000 40.19300
C  -13.12000 17.91500 39.45700
C  -10.21800 14.12100 40.44300
N  -8.16800 18.88800 40.53700
C  -6.82100 18.54800 40.75800
C  -5.95000 19.84800 40.67600
C  -6.99000 20.87900 41.05300
C  -8.28700 20.24100 40.56800
C  -7.08300 21.24800 42.58500
C  -5.38700 20.04500 39.20500
C  -3.91800 19.45200 39.03900
H  -3.55800 18.54100 37.83500
N  -11.12500 19.23600 39.88900
C  -10.62300 20.52600 39.71900
C  -11.73700 21.38000 39.33200
C  -12.88500 20.55700 39.25500
C  -12.43200 19.17200 39.54200
C  -11.56300 22.85600 39.04500
C  -14.24000 20.95900 38.84800
O  -14.39900 22.13000 38.60400
C  -15.44500 20.09200 38.98400
N  -11.39100 16.21800 39.82300
C  -12.68200 16.55600 39.70300
C  -13.61000 15.39100 39.84500
C  -12.64000 14.21600 39.66500
C  -11.30200 14.89200 39.95900
C  -14.50500 15.29500 41.13700
C  -12.68000 13.51700 38.26400
C  -13.10700 12.08700 38.20900
N  -8.64000 15.96700 40.67800
C  -8.93300 14.61900 40.67600
C  -7.78200 13.88900 41.08000
C  -6.77900 14.85500 41.25000
C  -7.33100 16.13900 40.94800
C  -7.67900 12.35000 41.32300
C  -5.39700 15.00000 41.62600
O  -4.59800 14.20500 42.11900
C  -5.10100 16.52700 41.31400
C  -4.29900 16.98400 42.47100
O  -3.20700 17.49900 42.38200
O  -4.90000 16.81500 43.72300
C  -3.96400 16.47100 44.83300
H  -9.34400 22.04800 40.25600
H  -14.15100 17.80400 39.11600
H  -10.39800 13.04500 40.50100
H  -5.08800 19.83900 41.34200
H  -6.76000 21.73800 40.42300
H  -6.79000 22.29000 42.71000
H  -6.49000 20.54900 43.17400
H  -8.07200 21.10300 43.01900
H  -5.35300 21.09600 38.91900
H  -6.05400 19.42500 38.60500
H  -3.60800 18.94100 39.95100
H  -3.24400 20.30700 39.00000
H  -12.13200 23.11600 38.15300
H  -10.53400 23.16300 38.85600
H  -11.89600 23.50500 39.85500
H  -15.32900 19.23400 38.32200
H  -16.35400 20.68200 38.86900
H  -15.41800 19.66900 39.98800
H  -14.28800 15.41200 38.99200
H  -12.97200 13.49600 40.41200
H  -14.02700 15.68400 42.03600
H  -14.85500 14.27100 41.26200
H  -15.34300 15.94800 40.89300
H  -11.69000 13.64400 37.82600
H  -13.20200 14.05300 37.47200
H  -14.12500 11.87300 37.88200
H  -13.06100 11.66400 39.21300
H  -12.42500 11.49900 37.59500
H  -6.73200 12.14200 41.82100
H  -7.59400 11.92300 40.32300
H  -8.50400 11.89300 41.87000
H  -4.52500 16.52900 40.38900
H  -4.14200 15.44400 45.15200
H  -4.21100 17.04700 45.72500
H  -2.90400 16.52800 44.58700

