158

Mg 46.80900 15.00300 27.46900
C  44.87600 15.27900 30.39400
C  49.04600 17.30900 28.89500
C  48.39500 15.28300 24.56400
C  44.34200 13.37300 25.98100
N  46.94100 16.20800 29.41000
C  46.11400 16.00800 30.47000
C  46.71200 16.70700 31.65000
C  47.74900 17.66400 31.07000
C  47.86200 17.19100 29.64900
C  47.58400 19.22700 31.18200
C  47.25900 15.74200 32.74300
C  47.01600 16.06600 34.24400
H  48.14400 15.89000 35.23600
N  48.57000 15.95700 26.86100
C  49.40000 16.76600 27.65500
C  50.61800 17.05900 26.95900
C  50.45500 16.52100 25.67100
C  49.12100 15.84500 25.64100
C  51.82300 17.70500 27.58500
C  51.43900 16.50000 24.48100
O  51.06100 16.09900 23.38500
C  52.89300 16.88000 24.72000
N  46.33200 14.55000 25.55900
C  47.22900 14.66700 24.52000
C  46.70300 13.97100 23.22800
C  45.47800 13.19200 23.75800
C  45.37200 13.74500 25.21200
C  46.34800 15.00200 22.13700
C  45.48000 11.62500 23.58000
C  46.18600 10.70000 24.57200
N  44.95500 14.53600 28.06700
C  44.02400 13.79600 27.28300
C  42.91200 13.49800 28.12600
C  43.18100 14.12200 29.32900
C  44.47300 14.65200 29.28000
C  41.70400 12.69200 27.66800
C  42.63400 14.33400 30.71300
O  41.61500 14.06200 31.31900
C  43.78900 15.11200 31.45000
C  43.27600 16.36700 32.16400
O  42.67200 17.24500 31.58500
O  43.65200 16.23800 33.44400
C  43.32200 17.37900 34.34200
H  49.78500 17.98000 29.33700
H  48.84500 15.24100 23.57000
H  43.59200 12.75100 25.48900
H  45.99300 17.32200 32.19100
H  48.72300 17.46200 31.51600
H  47.33400 19.66900 30.21700
H  48.47000 19.55400 31.72700
H  46.69600 19.36000 31.80000
H  48.32700 15.60000 32.57800
H  46.83400 14.75700 32.54900
H  46.19700 15.45400 34.62300
H  46.60300 17.07200 34.32100
H  51.64000 17.88000 28.64500
H  51.95400 18.66700 27.08800
H  52.79900 17.22000 27.60400
H  53.34300 16.84400 23.72700
H  53.44300 16.21600 25.38700
H  53.00300 17.89400 25.10300
H  47.49500 13.27900 22.94400
H  44.53100 13.57500 23.37800
H  45.68800 14.55200 21.39600
H  47.28700 15.24200 21.63700
H  45.98800 15.84300 22.72900
H  45.87800 11.39000 22.59300
H  44.42800 11.34600 23.51900
H  46.81800 9.99300 24.03500
H  45.35100 10.19000 25.05300
H  46.68800 11.32500 25.31100
H  42.16800 11.87000 27.12300
H  41.00900 13.20900 27.00700
H  41.24100 12.25200 28.55100
H  44.05400 14.34000 32.17100
H  44.29500 17.64400 34.75700
H  42.62400 17.06000 35.11600
H  42.85300 18.26900 33.92400
Mg 46.42700 45.27100 42.92900
C  42.99500 44.45700 42.92800
C  47.10100 42.02000 42.31300
C  49.65900 46.11700 42.54500
C  45.50900 48.73600 43.16800
N  45.13000 43.43300 42.45100
C  43.79400 43.31100 42.73200
C  43.36000 41.84700 42.56300
C  44.72700 41.05600 42.58800
C  45.68800 42.24000 42.47800
C  45.04900 40.14600 43.83900
C  42.52600 41.64500 41.29300
C  42.79700 42.49300 40.15600
H  42.43600 42.04200 38.68500
N  48.12500 44.22100 42.56700
C  48.22500 42.89600 42.32800
C  49.61500 42.49600 42.17000
C  50.35800 43.70300 42.21800
C  49.40800 44.74500 42.36200
C  50.11800 41.07100 41.86200
C  51.86400 43.84000 42.00800
O  52.49600 42.78300 41.82000
C  52.58600 45.25600 41.92600
N  47.40200 47.14900 42.67300
C  48.79000 47.18700 42.81300
C  49.36100 48.61700 42.88600
C  48.04600 49.47000 42.78100
C  46.90900 48.43400 42.94400
C  50.21100 48.77300 44.16500
C  47.89900 50.33600 41.50300
C  48.82300 51.59900 41.53600
N  44.69800 46.48400 43.02100
C  44.41000 47.80700 43.18800
C  42.98200 48.09900 43.39800
C  42.39200 46.76400 43.26200
C  43.44600 45.82000 43.04000
C  42.25900 49.36000 43.62700
C  41.17700 46.09000 43.22200
O  40.01300 46.43200 43.25000
C  41.54100 44.56300 43.17700
C  41.00900 43.90900 44.42400
O  40.18400 43.01500 44.33100
O  41.83000 44.17100 45.48100
C  41.79500 43.08900 46.46700
H  47.41600 40.97600 42.26200
H  50.67800 46.48200 42.68500
H  45.21000 49.78400 43.23600
H  42.67900 41.57200 43.36800
H  44.93800 40.40800 41.73700
H  45.88900 40.55300 44.40200
H  45.37800 39.21500 43.37800
H  44.13100 39.98100 44.40400
H  41.44700 41.70700 41.42800
H  42.73600 40.63400 40.94300
H  43.87400 42.63300 40.06500
H  42.30600 43.45200 40.31800
H  50.29500 41.09600 40.78600
H  49.35400 40.32600 42.08200
H  51.04700 40.83800 42.38100
H  52.12000 45.91100 41.18900
H  53.64700 45.04500 41.79300
H  52.47700 45.61900 42.94800
H  49.96500 48.92700 42.03300
H  47.85200 50.01700 43.70300
H  50.36900 49.78100 44.54700
H  51.20900 48.34400 44.07300
H  49.69400 48.22100 44.94900
H  46.90200 50.77400 41.46600
H  48.11300 49.74900 40.60900
H  49.50700 51.78900 40.70900
H  49.44900 51.55300 42.42800
H  48.19800 52.49100 41.56900
H  41.44600 49.59300 42.94000
H  43.04000 50.11400 43.72300
H  41.82100 49.29300 44.62200
H  40.96000 44.14200 42.35700
H  41.15500 43.39500 47.29400
H  42.84700 43.07000 46.75100
H  41.53200 42.08500 46.13400

