158

Mg 30.73800 56.67800 39.79300
C  28.16400 54.41100 38.77200
C  33.02000 54.16700 38.79800
C  33.19200 58.95500 39.71800
C  28.36600 59.21900 40.00400
N  30.53500 54.50000 38.81100
C  29.38700 53.81300 38.61400
C  29.67900 52.39000 38.20200
C  31.25700 52.29400 38.20900
C  31.63200 53.71700 38.66800
C  31.94100 51.07800 38.91900
C  29.03400 51.94800 36.94000
C  29.36700 52.70600 35.62700
H  28.31500 53.45800 34.93200
N  32.79400 56.62100 39.34400
C  33.54000 55.47400 39.08500
C  34.93100 55.85600 38.99800
C  35.04600 57.23000 39.30800
C  33.67900 57.62800 39.48700
C  36.04900 55.00100 38.54700
C  36.38500 57.96800 39.34200
O  37.42900 57.53400 38.86400
C  36.42100 59.23900 40.15000
N  30.77400 58.80500 39.89600
C  31.90100 59.48800 39.89300
C  31.62200 60.97300 39.99100
C  30.09700 61.07700 40.28300
C  29.70800 59.61800 40.08500
C  32.50400 61.67200 41.07300
C  29.31800 62.07200 39.37300
C  29.81300 63.54700 39.18000
N  28.67200 56.86100 39.62000
C  27.83000 57.93700 39.76200
C  26.51800 57.53100 39.53300
C  26.55300 56.14100 39.21200
C  27.97600 55.83400 39.16800
C  25.27400 58.35100 39.75700
C  25.78100 55.02200 39.00200
O  24.52300 54.93500 39.04600
C  26.69400 53.88200 38.64100
C  26.28400 52.78000 39.61100
O  26.78900 52.61800 40.71200
O  25.28500 52.05800 39.04600
C  24.88500 50.80200 39.66600
H  33.77600 53.40700 38.58800
H  33.94000 59.74100 39.59500
H  27.65000 60.01600 40.21100
H  29.24400 51.76300 38.98000
H  31.67000 52.18500 37.20600
H  32.54300 50.49200 38.22500
H  31.16700 50.44800 39.35800
H  32.58800 51.51400 39.68100
H  27.98300 51.75600 37.15400
H  29.49500 50.98300 36.72500
H  29.63500 51.89500 34.95000
H  30.18300 53.39600 35.84500
H  35.68500 54.02500 38.22700
H  36.71700 54.92700 39.40500
H  36.66000 55.46700 37.77400
H  37.40600 59.35800 40.60100
H  35.68900 58.99000 40.91800
H  36.08500 60.21200 39.79200
H  31.84200 61.35400 38.99300
H  29.89000 61.34600 41.31800
H  33.35200 61.10900 41.46300
H  31.87900 61.98900 41.90800
H  32.92900 62.58600 40.65800
H  28.30100 62.08600 39.76700
H  29.30900 61.55300 38.41500
H  30.22300 63.79000 38.19900
H  30.58200 63.73600 39.92900
H  28.99800 64.25300 39.34200
H  25.29300 59.42100 39.54900
H  25.07500 58.45800 40.82400
H  24.40700 57.76100 39.45900
H  26.52700 53.42300 37.66700
H  23.81700 50.77700 39.88200
H  25.38600 50.65000 40.62200
H  25.17600 50.11000 38.87700
Mg 10.06500 47.54600 26.60600
C  8.30300 47.45900 29.53200
C  12.69500 48.93200 28.32700
C  11.70400 47.77300 23.66300
C  7.14200 46.50400 24.88400
N  10.43500 48.07200 28.67800
C  9.58800 47.97400 29.73100
C  10.26000 48.36100 31.04400
C  11.38700 49.30900 30.51800
C  11.49500 48.75100 29.02200
C  11.22000 50.79500 30.51600
C  10.88700 47.18600 31.86400
C  11.06400 47.57900 33.36900
H  11.06300 46.46400 34.40700
N  11.94900 48.27900 26.07200
C  12.96400 48.59300 26.96200
C  14.25800 48.61500 26.31500
C  13.93000 48.28900 24.96200
C  12.49400 48.16100 24.83700
C  15.56700 48.95100 27.00100
C  14.95800 48.06600 23.92700
O  14.71000 47.93100 22.71100
C  16.43600 48.00100 24.25600
N  9.36100 47.58400 24.56200
C  10.32200 47.53300 23.54400
C  9.63700 47.16300 22.24800
C  8.51300 46.24000 22.74100
C  8.29600 46.80800 24.14300
C  9.14600 48.36800 21.52800
C  8.94300 44.70300 22.78800
C  9.06400 43.85300 21.46500
N  8.09500 47.15800 27.01700
C  6.96900 46.74000 26.27100
C  5.86600 46.34700 27.10800
C  6.37300 46.71400 28.42900
C  7.68800 47.16300 28.28500
C  4.46100 45.93600 26.72300
C  5.95600 46.76900 29.78900
O  4.95600 46.37500 30.37200
C  7.27600 47.15300 30.60400
C  7.55300 45.97400 31.46900
O  7.85900 44.93500 31.00600
O  7.44800 46.30600 32.82000
C  7.60800 45.17700 33.72100
H  13.53200 49.44700 28.80300
H  12.38400 47.68300 22.81300
H  6.37400 45.96300 24.32900
H  9.54600 48.95000 31.62000
H  12.28600 49.12400 31.10600
H  10.24200 50.92700 30.97800
H  11.23000 51.08200 29.46500
H  11.93000 51.33800 31.14000
H  11.91500 47.06200 31.52500
H  10.37500 46.22600 31.80000
H  10.56700 48.47700 33.73500
H  12.07700 47.96500 33.48200
H  15.38800 49.09800 28.06600
H  15.96600 49.89100 26.62000
H  16.32600 48.19400 26.79800
H  16.58800 47.09200 24.83900
H  16.85800 48.89400 24.71600
H  17.05200 47.71300 23.40400
H  10.35000 46.68100 21.57900
H  7.70200 46.45600 22.04600
H  9.81400 48.35700 20.66700
H  9.32200 49.32700 22.01500
H  8.10900 48.24100 21.21600
H  8.29500 44.11100 23.43500
H  9.92700 44.77200 23.25200
H  8.89500 44.54300 20.63800
H  8.27500 43.10200 21.45300
H  10.12300 43.59800 21.43000
H  3.79600 45.79900 27.57500
H  4.51700 45.01000 26.15100
H  4.15200 46.67000 25.97900
H  7.10900 48.01400 31.25200
H  7.56200 44.17100 33.30500
H  6.77300 45.25800 34.41700
H  8.54100 45.16700 34.28500

