158

Mg 25.44900 -7.52700 48.30200
C  27.78100 -5.11800 47.09200
C  23.31500 -6.52100 45.83600
C  23.58500 -10.24200 48.85700
C  27.99600 -8.74400 50.44800
N  25.71700 -6.05600 46.62500
C  26.64100 -5.12000 46.30700
C  26.27100 -4.14500 45.20400
C  24.72100 -4.53200 45.12800
C  24.58600 -5.82400 45.87600
C  23.67000 -3.48400 45.60700
C  27.05000 -4.46000 43.90500
C  27.70100 -3.27900 43.17400
H  27.53800 -3.01600 41.68900
N  23.57100 -8.28100 47.44100
C  22.86500 -7.67500 46.51800
C  21.55600 -8.29800 46.39600
C  21.54600 -9.30000 47.46200
C  22.96600 -9.41500 47.91800
C  20.46300 -7.89200 45.43400
C  20.39500 -10.17400 47.83400
O  19.30000 -10.07500 47.31800
C  20.47500 -11.24900 48.94400
N  25.80300 -9.32900 49.44900
C  24.78500 -10.18500 49.63200
C  25.12000 -11.35600 50.62400
C  26.52200 -10.88100 51.09400
C  26.80700 -9.56600 50.32500
C  24.00900 -11.69900 51.62000
C  27.65200 -11.97400 50.87500
C  28.65000 -12.07000 52.04800
N  27.38700 -7.07800 48.83100
C  28.27300 -7.56900 49.69600
C  29.49500 -6.83200 49.71700
C  29.27500 -5.82900 48.74600
C  28.03100 -6.01700 48.18200
C  30.60700 -7.13200 50.60900
C  29.95100 -4.70100 48.05900
O  31.06100 -4.24200 48.24900
C  28.92300 -4.19900 47.01400
C  28.55600 -2.84000 47.42200
O  28.10700 -2.61200 48.53500
O  28.82700 -1.86500 46.44400
C  28.22100 -0.61800 46.86100
H  22.55500 -6.32100 45.07800
H  22.89400 -11.00400 49.22400
H  28.65900 -9.12400 51.22800
H  26.44800 -3.15800 45.63100
H  24.51000 -4.82500 44.09900
H  24.13600 -2.69900 46.20100
H  22.86300 -3.89700 46.21300
H  23.11700 -3.13300 44.73600
H  26.44000 -5.02100 43.19700
H  27.78400 -5.24500 44.08800
H  28.78300 -3.35100 43.28100
H  27.40900 -2.36100 43.68500
H  19.42900 -7.83200 45.77300
H  20.36400 -8.55900 44.57800
H  20.62400 -6.95400 44.90300
H  21.18900 -11.95600 48.52100
H  19.50900 -11.73400 49.08300
H  20.79500 -10.74300 49.85500
H  25.28300 -12.21700 49.97600
H  26.52400 -10.59000 52.14400
H  23.67000 -12.72800 51.50000
H  23.20600 -10.96700 51.70600
H  24.44700 -11.67400 52.61800
H  28.20000 -11.76800 49.95600
H  27.18700 -12.95300 50.75800
H  28.39800 -12.97000 52.60900
H  28.56100 -11.18600 52.67900
H  29.69400 -12.04900 51.73500
H  30.10900 -6.88400 51.54600
H  31.57900 -6.65600 50.47800
H  30.74800 -8.21200 50.64300
H  29.37600 -4.09900 46.02800
H  29.00500 0.08200 47.15000
H  27.44600 -0.64400 47.62800
H  27.73800 -0.37800 45.91400
Mg 41.17600 40.34400 26.86700
C  40.53100 42.96000 29.18200
C  42.01900 38.29600 29.66300
C  42.06900 38.16300 24.61200
C  40.92600 42.87200 24.24900
N  41.17400 40.55100 29.13300
C  40.83400 41.70400 29.84300
C  40.76500 41.35800 31.39000
C  41.34000 39.87800 31.53700
C  41.54800 39.51900 30.05400
C  42.51600 39.65900 32.46500
C  39.28400 41.51900 32.08400
C  39.01000 40.89400 33.48200
H  38.72000 42.00300 34.59300
N  41.95900 38.43300 27.12900
C  42.16600 37.74800 28.32900
C  42.53700 36.40500 27.94300
C  42.51300 36.34500 26.47300
C  42.19300 37.70600 26.00600
C  42.95600 35.35700 29.00800
C  42.94900 35.28700 25.53900
O  43.02200 35.31100 24.31500
C  43.09700 33.89200 26.11400
N  41.52700 40.55100 24.74200
C  41.73800 39.36900 24.03400
C  41.56700 39.56700 22.49000
C  41.01500 41.03300 22.47500
C  41.18800 41.52100 23.89000
C  42.84700 39.38900 21.61900
C  39.56600 41.21500 21.87600
C  38.28800 41.24600 22.76700
N  40.85100 42.50000 26.74500
C  40.70700 43.31900 25.60200
C  40.40100 44.67600 26.04000
C  40.34700 44.58900 27.44500
C  40.68600 43.25900 27.81700
C  40.23000 45.86100 25.14300
C  40.00400 45.31700 28.64500
O  39.63200 46.42200 28.80600
C  40.14900 44.28100 29.87400
C  41.19500 44.74400 30.83400
O  42.30700 44.99300 30.44900
O  40.73300 44.65900 32.15200
C  41.84300 44.50300 33.07600
H  42.22100 37.62600 30.50200
H  42.31100 37.53100 23.75500
H  40.83000 43.52100 23.37600
H  41.42100 42.05500 31.91000
H  40.52600 39.21800 31.83500
H  43.38300 39.26300 31.93600
H  42.19800 38.99200 33.26700
H  42.87700 40.64900 32.74300
H  38.58500 41.05700 31.38600
H  39.01800 42.57100 31.98400
H  39.89700 40.33000 33.77000
H  38.15700 40.22100 33.39500
H  43.88100 34.83000 28.77300
H  42.16300 34.63800 29.21300
H  43.30100 35.93000 29.86900
H  43.91100 33.93900 26.83700
H  43.24100 33.12400 25.35400
H  42.13500 33.80900 26.62100
H  40.79600 38.87000 22.16100
H  41.69100 41.69000 21.92600
H  43.11600 40.30400 21.09100
H  42.74100 38.66200 20.81300
H  43.70400 39.02000 22.18200
H  39.37200 40.38400 21.19700
H  39.55200 42.02900 21.15200
H  37.60800 40.43200 22.51400
H  37.92200 42.25900 22.60000
H  38.57500 41.12000 23.81100
H  39.81000 46.69800 25.70000
H  39.51100 45.69300 24.34100
H  41.18100 46.21700 24.74600
H  39.15700 44.26600 30.32600
H  42.76700 44.19900 32.58400
H  41.66300 43.78700 33.87800
H  42.02200 45.45000 33.58400

