158

Mg 50.30900 45.32200 42.16800
C  47.31700 46.36500 40.68800
C  50.10800 42.28400 40.39900
C  53.61100 44.83600 42.78200
C  50.72800 48.73000 43.14500
N  48.97700 44.54100 40.65800
C  47.77700 45.10000 40.19900
C  46.98100 44.10500 39.36500
C  47.67900 42.74600 39.58600
C  49.05700 43.16800 40.18200
C  46.82400 41.74500 40.42300
C  46.86700 44.58900 37.81400
C  45.49500 44.72300 37.20100
H  45.42500 44.54600 35.70100
N  51.65600 43.70300 41.74400
C  51.26500 42.50500 41.15100
C  52.34300 41.59500 41.28000
C  53.49600 42.26300 41.97900
C  52.93600 43.65900 42.27400
C  52.35100 40.19900 40.69100
C  54.83200 41.69600 42.43900
O  55.16000 40.59900 42.19200
C  55.74400 42.49600 43.31700
N  52.02900 46.65200 42.76300
C  53.24600 46.18900 43.03900
C  54.22100 47.36700 43.45000
C  53.14300 48.48700 43.87000
C  51.89300 47.97200 43.19800
C  55.25800 47.02500 44.57900
C  53.65100 49.89400 43.60500
C  53.38400 50.98600 44.63400
N  49.21100 47.11100 42.18600
C  49.47200 48.37700 42.60400
C  48.37500 49.25300 42.34900
C  47.46800 48.49700 41.68100
C  48.06800 47.17200 41.56800
C  48.35900 50.73300 42.60100
C  46.17000 48.48900 40.92900
O  45.37800 49.39200 40.65600
C  45.92000 47.04700 40.39900
C  44.75800 46.54700 41.09600
O  43.63200 46.43800 40.69100
O  45.22000 46.12800 42.29300
C  44.24500 45.42600 43.24000
H  50.00000 41.26200 40.03100
H  54.67700 44.73600 42.99900
H  50.69800 49.73600 43.56900
H  45.95400 44.03800 39.72200
H  47.80200 42.31000 38.59400
H  46.63400 40.81800 39.88300
H  45.80900 42.13600 40.49400
H  47.25900 41.43600 41.37400
H  47.60300 43.97800 37.29100
H  47.34200 45.55900 37.66300
H  45.01500 45.65500 37.49900
H  44.93400 43.93100 37.69700
H  51.83500 40.10600 39.73600
H  51.77100 39.60600 41.39900
H  53.34300 39.86500 40.38900
H  55.07000 42.90600 44.06900
H  56.33000 43.20000 42.72700
H  56.39300 41.87700 43.93700
H  54.77400 47.63600 42.55000
H  52.91000 48.41600 44.93300
H  55.25900 47.80600 45.33900
H  56.23400 47.06700 44.09500
H  55.10600 46.02600 44.98600
H  53.15700 50.26900 42.70900
H  54.72800 49.90200 43.43700
H  52.30700 50.96300 44.80500
H  53.57100 51.91100 44.08900
H  53.89100 50.82100 45.58400
H  47.89300 51.08900 43.51900
H  47.60400 51.07200 41.89200
H  49.29200 51.25800 42.39400
H  45.71500 47.12400 39.33200
H  43.53300 46.17300 43.59000
H  44.90400 44.96500 43.97600
H  43.72800 44.71600 42.59500
Mg 9.21000 48.08700 25.62800
C  6.91200 48.53700 28.32100
C  11.63800 49.13600 27.66800
C  11.22900 47.65400 23.02200
C  6.40500 47.56800 23.50200
N  9.20300 49.01100 27.78200
C  8.21700 48.85500 28.72900
C  8.78500 49.08400 30.12900
C  10.27200 49.34800 29.83600
C  10.40600 49.17600 28.32800
C  10.74900 50.81500 30.25200
C  8.41000 47.95700 31.11200
C  9.40000 47.46900 32.26400
H  8.72500 47.02800 33.63200
N  11.13500 48.48900 25.34600
C  12.01800 48.84100 26.31100
C  13.39400 48.91100 25.78200
C  13.29300 48.32700 24.49700
C  11.84200 48.18500 24.19300
C  14.51700 49.30700 26.71000
C  14.37700 48.07500 23.51500
O  14.17600 47.80700 22.36400
C  15.76100 48.29300 24.03300
N  8.87000 47.45100 23.49600
C  9.92200 47.34400 22.64400
C  9.44000 47.28200 21.23700
C  7.92000 47.54300 21.33900
C  7.68900 47.54000 22.87500
C  10.12300 48.20300 20.10800
C  6.99500 46.47900 20.54600
C  7.48000 45.94000 19.19100
N  7.08100 47.92800 25.80200
C  6.08900 47.80400 24.82600
C  4.77400 47.79200 25.46200
C  5.04500 47.95000 26.81300
C  6.47600 48.16300 26.94600
C  3.53800 47.51700 24.68500
C  4.43600 48.10200 28.17600
O  3.29800 48.08600 28.49100
C  5.64400 48.42200 29.20800
C  5.63900 47.27700 30.09500
O  6.07500 46.16300 29.90300
O  5.13500 47.65200 31.23900
C  4.73600 46.59300 32.21400
H  12.46500 49.35500 28.34600
H  11.93000 47.47500 22.20400
H  5.60200 47.41100 22.77900
H  8.21400 49.97100 30.40400
H  10.89200 48.63500 30.37900
H  9.89000 51.44200 30.48900
H  11.25700 51.33400 29.43900
H  11.43300 50.80900 31.10100
H  8.33400 47.08400 30.46300
H  7.48800 48.19100 31.64400
H  10.06200 48.27800 32.57100
H  9.90300 46.58700 31.86700
H  15.33700 49.83500 26.22100
H  14.82500 48.56300 27.44400
H  13.98000 50.07300 27.27000
H  16.01800 49.31200 24.32500
H  16.45200 47.86000 23.31100
H  15.85800 47.73900 24.96600
H  9.59100 46.26000 20.88900
H  7.62400 48.49000 20.88900
H  10.99900 48.74300 20.46700
H  9.43000 49.01300 19.88200
H  10.57800 47.65200 19.28500
H  6.07100 47.04100 20.40900
H  6.91400 45.54100 21.09400
H  8.36200 46.53900 18.96700
H  6.68400 45.90500 18.44700
H  7.73600 44.90100 19.40100
H  3.42900 46.49900 24.31100
H  3.49500 48.27300 23.90100
H  2.79300 47.78000 25.43700
H  5.38200 49.31400 29.77600
H  4.12600 47.10900 32.95500
H  5.59900 46.19900 32.75100
H  4.10700 45.82000 31.77100

