158

Mg 35.66500 48.64500 24.73200
C  35.83400 47.12400 27.90500
C  34.47500 51.47900 26.28400
C  35.48300 50.11000 21.71500
C  36.31300 45.61300 23.24300
N  35.04100 49.18700 26.77400
C  35.35600 48.47200 27.92900
C  35.14600 49.29300 29.20100
C  34.52500 50.68400 28.68100
C  34.57900 50.42700 27.15200
C  33.11500 51.04200 29.19000
C  36.48700 49.52200 29.98900
C  36.52500 49.33500 31.45800
H  35.22800 49.12400 32.26100
N  35.06700 50.57600 24.07600
C  34.63400 51.58300 24.89400
C  34.50300 52.81000 24.11800
C  34.65100 52.43600 22.71100
C  35.04300 50.97700 22.76100
C  34.24900 54.15700 24.72600
C  34.52200 53.20800 21.43100
O  34.85600 52.73100 20.31500
C  34.03400 54.62700 21.49000
N  35.82000 47.94800 22.76900
C  35.78900 48.74800 21.68100
C  36.11200 48.06800 20.38500
C  36.62700 46.67000 20.93000
C  36.22700 46.73000 22.41800
C  34.83000 47.90600 19.49000
C  38.11700 46.41500 20.75200
C  39.19500 47.52500 20.88900
N  35.88700 46.70500 25.41100
C  36.22400 45.56600 24.72200
C  36.41300 44.45000 25.62000
C  36.23000 44.98200 26.90700
C  35.97700 46.38500 26.74700
C  36.86000 43.01400 25.31600
C  36.17700 44.69600 28.35600
O  36.25500 43.62500 29.01600
C  35.98500 46.14200 29.08400
C  34.77800 45.97600 30.00500
O  33.65800 46.32000 29.72700
O  35.11400 45.19400 31.05700
C  33.95300 44.59800 31.74300
H  34.22200 52.41200 26.79400
H  35.49300 50.52500 20.70500
H  36.59700 44.68400 22.74400
H  34.33600 48.95500 29.84700
H  35.20900 51.52000 28.82800
H  33.27300 52.01400 29.65800
H  32.72600 50.34600 29.93300
H  32.37700 51.31000 28.43300
H  36.62800 50.59900 29.89900
H  37.31400 48.97100 29.54200
H  37.06500 50.19400 31.85900
H  37.10000 48.41100 31.51400
H  34.53600 54.99800 24.09500
H  34.53400 54.22500 25.77600
H  33.16100 54.11500 24.67500
H  33.61500 54.87500 20.51500
H  34.91400 55.23400 21.70400
H  33.23300 54.59800 22.22900
H  36.79100 48.63500 19.74700
H  36.14300 45.90200 20.32700
H  34.26200 48.83000 19.60000
H  34.26800 47.04000 19.84000
H  35.16700 47.92600 18.45400
H  38.29500 45.99000 19.76400
H  38.49200 45.57000 21.33000
H  39.46300 47.35400 21.93200
H  39.00400 48.57000 20.64400
H  40.15500 47.39100 20.39000
H  37.86200 42.79700 25.68500
H  36.86300 42.76100 24.25500
H  36.13600 42.32300 25.74700
H  36.91900 46.33500 29.61200
H  33.30300 43.94700 31.15700
H  33.32500 45.28600 32.30900
H  34.45200 44.05500 32.54600
Mg -10.63300 17.38400 43.22200
C  -7.15900 18.17900 43.35700
C  -11.17600 20.75100 42.98300
C  -13.69500 16.73000 42.47600
C  -9.72400 13.87000 42.85000
N  -9.29900 19.28600 43.06900
C  -7.96700 19.31600 43.35700
C  -7.47000 20.74700 43.32600
C  -8.77700 21.45100 43.72200
C  -9.80100 20.48900 43.25900
C  -8.91900 21.78900 45.22300
C  -6.89400 21.27900 41.94100
C  -5.38400 21.54300 41.73500
H  -4.83200 20.79000 40.48500
N  -12.13400 18.50600 42.51600
C  -12.15900 19.92300 42.51300
C  -13.44100 20.39100 42.00800
C  -14.27200 19.22000 41.82800
C  -13.36800 18.08300 42.29600
C  -13.71600 21.78300 41.63000
C  -15.66700 19.15300 41.19700
O  -16.21200 20.23700 40.89500
C  -16.37900 17.84300 40.98900
N  -11.58400 15.49100 42.36800
C  -12.87000 15.54400 42.63700
C  -13.42200 14.07900 42.92500
C  -12.16800 13.16200 42.72000
C  -11.10400 14.24700 42.59900
C  -14.28100 13.86600 44.23600
C  -12.06300 12.14500 41.48500
C  -13.28300 11.34100 41.00900
N  -8.89400 16.24100 43.13700
C  -8.72400 14.86500 43.03800
C  -7.33500 14.57900 43.29500
C  -6.68600 15.89800 43.32600
C  -7.69900 16.83000 43.29500
C  -6.70200 13.24600 43.26200
C  -5.39800 16.53100 43.46000
O  -4.33500 16.06800 43.56600
C  -5.61900 18.03400 43.50400
C  -5.17900 18.52400 44.80000
O  -5.61800 18.11700 45.87400
O  -4.36000 19.60000 44.63600
C  -4.03000 20.31400 45.81600
H  -11.34700 21.82600 43.06300
H  -14.74500 16.53400 42.70400
H  -9.44700 12.81700 42.93800
H  -6.76500 20.96800 44.12800
H  -9.01600 22.35800 43.16700
H  -8.88600 22.87800 45.24400
H  -8.10500 21.35400 45.80200
H  -9.93500 21.55200 45.53800
H  -7.48900 22.11500 41.57300
H  -7.27400 20.52000 41.25700
H  -4.87600 21.28900 42.66500
H  -5.22300 22.59200 41.48700
H  -14.24700 22.19100 42.49100
H  -14.38200 21.81100 40.76800
H  -12.84400 22.42600 41.51000
H  -15.76300 17.14500 40.42100
H  -17.21100 18.21200 40.39000
H  -16.84000 17.37700 41.86000
H  -14.00600 13.82600 42.04000
H  -11.97400 12.56100 43.60800
H  -15.27900 13.47900 44.03400
H  -14.55500 14.88100 44.52400
H  -13.80900 13.24600 44.99900
H  -11.29400 11.41200 41.73000
H  -11.92900 12.78400 40.61200
H  -14.12600 11.33700 41.70000
H  -12.97800 10.30600 40.85600
H  -13.56600 11.60400 39.99000
H  -7.00200 12.68400 42.37800
H  -6.96000 12.78800 44.21700
H  -5.61300 13.22600 43.30300
H  -5.02400 18.47000 42.70100
H  -4.82000 21.05800 45.92600
H  -3.13300 20.90500 45.62900
H  -3.93900 19.69200 46.70600

