158

Mg 29.79700 58.10300 41.23700
C  26.85200 56.55800 39.81100
C  31.53400 55.37100 39.92000
C  32.39700 59.98700 41.33800
C  27.60500 60.78200 42.21600
N  29.22200 56.22700 39.80100
C  27.96800 55.78000 39.49400
C  28.03800 54.54500 38.66000
C  29.46900 53.95800 39.09100
C  30.16000 55.19800 39.75000
C  29.31800 52.85200 40.25100
C  27.83600 54.88700 37.12900
C  27.12400 53.88700 36.31700
H  27.60300 53.90800 34.82900
N  31.75200 57.70800 40.78000
C  32.29300 56.52200 40.27200
C  33.75700 56.64000 40.28300
C  34.05900 58.02100 40.54000
C  32.74300 58.66000 40.89400
C  34.75800 55.55400 39.92800
C  35.39100 58.69100 40.36700
O  36.30900 58.05300 39.91200
C  35.49700 60.21200 40.65700
N  29.98700 60.09100 41.74700
C  31.19600 60.64300 41.65900
C  31.23300 62.02300 42.30600
C  29.74300 62.28200 42.52300
C  29.03900 60.99000 42.11400
C  32.15400 62.18900 43.52400
C  29.25500 63.36900 41.61900
C  28.14700 64.26400 42.26400
N  27.72400 58.60000 41.12500
C  27.00300 59.63900 41.67400
C  25.61400 59.42600 41.42300
C  25.53000 58.23400 40.74400
C  26.82300 57.78200 40.53000
C  24.42100 60.26900 41.76900
C  24.62700 57.36500 40.08600
O  23.42600 57.34400 39.95200
C  25.46000 56.23100 39.39100
C  24.88700 54.99100 39.91000
O  25.35000 54.37900 40.83000
O  23.78500 54.59100 39.17400
C  23.02900 53.42200 39.62900
H  32.09900 54.50900 39.55800
H  33.23700 60.65400 41.53800
H  27.04600 61.69200 42.44600
H  27.28600 53.81700 38.96400
H  30.10000 53.51300 38.32200
H  29.52300 53.15000 41.28000
H  29.99900 52.03600 40.00900
H  28.35000 52.36000 40.16000
H  28.79600 55.03300 36.63300
H  27.34300 55.85600 37.05200
H  26.11200 54.28800 36.28200
H  26.99300 52.91500 36.79300
H  35.04300 55.53200 38.87600
H  34.31800 54.60400 40.23100
H  35.61600 55.70700 40.58300
H  36.53300 60.48700 40.46100
H  35.26300 60.35900 41.71100
H  34.77200 60.77000 40.06400
H  31.73000 62.70200 41.61300
H  29.51300 62.53300 43.55800
H  32.49800 61.25800 43.97400
H  31.74200 62.82700 44.30600
H  32.99700 62.72000 43.08200
H  28.90700 62.98400 40.66000
H  29.94800 64.18000 41.39400
H  28.44200 65.29300 42.05900
H  28.06200 64.09000 43.33700
H  27.22600 64.02000 41.73500
H  23.95500 59.83000 42.65100
H  23.70500 60.34200 40.94900
H  24.60100 61.31400 42.02200
H  25.33700 56.38500 38.32000
H  22.60500 52.80200 38.83800
H  22.21400 53.76700 40.26600
H  23.61800 52.72400 40.22300
Mg 10.20100 48.68300 26.44800
C  8.34900 48.44000 29.43200
C  12.77300 50.12500 28.21800
C  11.84900 48.66600 23.51000
C  7.20200 47.66400 24.65900
N  10.48200 49.28500 28.56800
C  9.67200 48.91900 29.61700
C  10.28000 49.42700 30.95300
C  11.53200 50.28200 30.54100
C  11.60800 49.93600 29.03500
C  11.37800 51.84700 30.90100
C  10.62900 48.21200 31.91600
C  9.78500 48.12500 33.22900
H  10.21600 49.01200 34.47600
N  12.15400 49.34100 25.99100
C  13.03400 49.84900 26.84100
C  14.20100 50.09900 26.04600
C  14.04600 49.53700 24.70900
C  12.64600 49.12600 24.69900
C  15.43200 50.80400 26.59400
C  14.93800 49.47700 23.43200
O  14.58400 49.05200 22.33800
C  16.33300 49.94600 23.51500
N  9.49800 48.36400 24.30400
C  10.47200 48.38100 23.35700
C  9.87500 47.93600 21.99000
C  8.51400 47.37900 22.45700
C  8.35900 47.83300 23.83900
C  9.82800 49.01200 20.86700
C  8.42900 45.90100 22.25100
C  9.53000 45.09700 23.03400
N  8.21700 48.27400 26.89200
C  7.12000 47.89100 26.08700
C  5.99700 47.60400 26.89500
C  6.42000 47.81100 28.18000
C  7.76300 48.16700 28.15400
C  4.62600 47.21400 26.45600
C  5.96600 47.78500 29.53100
O  4.81300 47.46700 29.93700
C  7.22800 48.19700 30.46200
C  7.51100 47.01200 31.33700
O  8.17500 46.05300 31.04000
O  6.78400 47.11000 32.51500
C  6.95100 46.05300 33.54400
H  13.67800 50.50600 28.69700
H  12.26000 48.55300 22.50500
H  6.35700 47.14700 24.20000
H  9.54100 50.07900 31.41900
H  12.42300 49.82400 30.97000
H  11.42500 52.46200 30.00200
H  12.30300 52.09600 31.42100
H  10.63400 52.15000 31.63800
H  11.68300 48.27900 32.18900
H  10.47000 47.28200 31.37100
H  9.75900 47.07100 33.50400
H  8.75600 48.40500 33.00500
H  16.26500 50.10100 26.57900
H  15.33500 51.10200 27.63800
H  15.67700 51.71900 26.05500
H  16.70200 50.05100 24.53500
H  16.28800 50.88200 22.95800
H  16.88700 49.13200 23.04800
H  10.52400 47.15800 21.58800
H  7.67700 47.79200 21.89400
H  8.88500 49.54500 20.74400
H  10.14700 48.60700 19.90700
H  10.66900 49.68600 21.03300
H  8.50800 45.70500 21.18200
H  7.47000 45.50100 22.57800
H  10.19100 45.64300 23.70700
H  10.04300 44.47000 22.30400
H  8.97900 44.52200 23.77800
H  3.89400 47.38800 27.24400
H  4.63900 46.16300 26.16700
H  4.32400 47.80900 25.59400
H  7.13100 49.10100 31.06300
H  7.70700 45.28400 33.38800
H  6.06800 45.46200 33.29800
H  6.92700 46.43800 34.56300

