158

Mg 9.60900 4.87800 27.58500
C  10.73200 3.24500 30.53000
C  7.50100 6.78700 29.59600
C  8.26500 6.26400 24.82300
C  11.35900 2.58700 25.67800
N  9.19400 5.01800 29.78500
C  9.86200 4.36600 30.78000
C  9.65700 4.97600 32.18900
C  8.64400 6.13200 31.85600
C  8.37700 5.97400 30.36200
C  7.39200 6.03200 32.75600
C  10.96400 5.43500 32.79100
C  11.34700 4.79900 34.08100
H  11.67300 5.67400 35.32500
N  8.01500 6.23900 27.30300
C  7.31300 6.94900 28.20500
C  6.47500 7.99000 27.50200
C  6.67900 7.82700 26.12900
C  7.69300 6.72600 25.99500
C  5.50500 9.00500 28.17700
C  6.08900 8.66500 25.01800
O  6.29100 8.50500 23.80100
C  5.14300 9.80300 25.30100
N  9.70300 4.39500 25.47200
C  9.16300 5.24500 24.56700
C  9.79600 4.91200 23.12400
C  10.58100 3.57700 23.43500
C  10.63000 3.57600 25.00600
C  8.81200 4.84400 21.90400
C  11.90500 3.50500 22.77000
C  12.12200 2.48000 21.56900
N  10.83700 3.25400 27.99800
C  11.42300 2.35300 27.09400
C  12.13000 1.27900 27.78400
C  11.94400 1.71200 29.11900
C  11.04100 2.79200 29.23700
C  12.84300 0.08500 27.25900
C  12.34900 1.31800 30.45300
O  13.09300 0.41200 30.84300
C  11.58500 2.31100 31.44900
C  10.79400 1.58100 32.49500
O  9.62300 1.26300 32.38300
O  11.63200 1.11100 33.53300
C  10.88900 0.70300 34.63800
H  6.85800 7.45700 30.17000
H  7.88100 6.67200 23.88500
H  11.92100 1.90500 25.03700
H  9.10000 4.23100 32.75700
H  9.22100 7.05100 31.96500
H  6.46200 5.83600 32.22300
H  7.33400 7.06400 33.10200
H  7.48400 5.50200 33.70400
H  10.94800 6.51300 32.95000
H  11.76400 5.26200 32.07100
H  12.28500 4.35100 33.75300
H  10.65900 3.99800 34.34900
H  5.51900 8.77200 29.24200
H  4.49900 9.06100 27.76200
H  5.84400 10.04100 28.21000
H  4.19200 9.46500 25.71400
H  4.96600 10.34000 24.36900
H  5.64400 10.39300 26.06800
H  10.48500 5.73900 22.95100
H  9.91000 2.76900 23.14400
H  7.84200 4.53100 22.29000
H  9.23400 4.13200 21.19400
H  8.88500 5.87500 21.55900
H  12.65300 3.23800 23.51700
H  12.26600 4.44100 22.34400
H  13.11900 2.15900 21.26600
H  11.75100 2.82800 20.60500
H  11.47100 1.64400 21.82600
H  12.94100 0.01700 26.17600
H  12.24500 -0.72300 27.68000
H  13.84000 0.22600 27.67800
H  12.40400 2.80200 31.97400
H  10.06400 1.40200 34.77400
H  11.54800 0.64700 35.50500
H  10.48000 -0.28500 34.42800
Mg 16.20800 52.22500 26.69400
C  18.24100 51.03400 29.31800
C  14.00000 53.37000 28.94100
C  14.49600 53.57700 24.17700
C  18.54200 51.01000 24.36000
N  16.11500 52.09300 28.89800
C  17.03400 51.71500 29.85500
C  16.64900 52.04700 31.29100
C  15.13700 52.52600 31.00500
C  15.06500 52.71000 29.52900
C  13.94100 51.83000 31.64000
C  17.51800 53.06000 31.96800
C  17.71500 52.89900 33.46000
H  16.61200 52.04700 34.20400
N  14.46100 53.18100 26.56800
C  13.70600 53.60800 27.62200
C  12.45000 54.30900 27.12100
C  12.61700 54.33700 25.73900
C  13.87000 53.69100 25.43800
C  11.31800 54.74300 27.95400
C  11.70800 54.89800 24.77200
O  11.93900 54.88100 23.57000
C  10.27800 55.43300 25.17900
N  16.39100 52.09900 24.56200
C  15.59600 52.86900 23.74000
C  16.16400 52.93800 22.26800
C  17.58400 52.24900 22.43200
C  17.49100 51.67200 23.82800
C  15.25700 52.22600 21.23600
C  18.82900 53.08400 22.08300
C  20.01800 52.33400 21.52500
N  17.92700 51.13500 26.81600
C  18.76900 50.67500 25.73500
C  19.79700 49.94400 26.34000
C  19.60900 50.06300 27.69300
C  18.53100 50.83800 27.99500
C  20.96700 49.20900 25.64100
C  20.21500 49.60100 28.90000
O  21.19100 48.94600 29.22300
C  19.32600 50.26000 30.06200
C  18.70200 49.18800 30.93800
O  18.24100 48.16300 30.53000
O  18.96000 49.55300 32.20500
C  18.78900 48.50200 33.25300
H  13.35500 53.75000 29.73600
H  13.98700 54.03300 23.32600
H  19.30700 50.69000 23.65000
H  16.64400 51.08200 31.79700
H  15.09300 53.47000 31.54800
H  13.19500 51.56200 30.89300
H  13.53000 52.45400 32.43400
H  14.23500 50.90000 32.12700
H  17.16400 54.05300 31.68900
H  18.52900 52.97500 31.57100
H  17.68100 53.84400 34.00200
H  18.66300 52.45100 33.75800
H  10.93300 55.70800 27.62700
H  11.45400 54.79300 29.03500
H  10.41400 54.14100 27.86500
H  9.73800 54.82000 25.90100
H  9.54500 55.50300 24.37500
H  10.47300 56.41700 25.60500
H  16.25900 54.00100 22.04600
H  17.56200 51.47700 21.66300
H  15.81500 51.66600 20.48600
H  14.65800 52.99700 20.75200
H  14.54700 51.52500 21.67500
H  19.30200 53.55200 22.94600
H  18.58500 53.92500 21.43300
H  20.81700 52.28000 22.26400
H  20.45200 52.92100 20.71600
H  19.80500 51.29100 21.29100
H  21.00700 48.17200 25.97800
H  21.87500 49.77600 25.84400
H  20.89500 49.18400 24.55400
H  19.85000 51.03700 30.62000
H  19.27900 47.53300 33.15900
H  17.74200 48.26000 33.43300
H  19.18300 48.99400 34.14300

