158

Mg 41.03100 41.20300 26.11400
C  40.79100 43.80400 28.62100
C  42.02300 39.07900 28.67600
C  42.19400 38.90000 23.74900
C  40.77100 43.64500 23.75200
N  41.36800 41.43800 28.40100
C  40.98400 42.48900 29.15600
C  40.82800 42.22000 30.64000
C  41.34000 40.67900 30.74800
C  41.60100 40.36100 29.21400
C  42.54100 40.51000 31.70900
C  39.27600 42.40400 31.03200
C  38.94300 43.19900 32.33700
H  39.71300 42.86000 33.67400
N  41.93500 39.21300 26.15400
C  42.33400 38.55100 27.32800
C  42.97400 37.30300 26.96400
C  42.90400 37.23500 25.56600
C  42.35000 38.47600 25.06400
C  43.48600 36.25300 28.00900
C  43.43800 36.06600 24.71800
O  43.39600 36.23000 23.51000
C  43.98800 34.77000 25.33400
N  41.33800 41.22100 24.10400
C  41.59000 40.07100 23.33200
C  41.59400 40.47900 21.85100
C  40.93900 41.84900 21.81300
C  40.95100 42.28100 23.29900
C  43.01100 40.42800 21.14400
C  39.49700 41.78000 21.21400
C  38.37600 41.20000 22.19900
N  40.68600 43.30200 26.14300
C  40.60000 44.21000 25.03800
C  40.36300 45.47600 25.55100
C  40.28900 45.37500 26.96000
C  40.61100 44.04400 27.24500
C  40.26400 46.66800 24.70200
C  40.12600 46.08700 28.17200
O  39.82700 47.24000 28.27800
C  40.39300 45.09400 29.32600
C  41.46700 45.64700 30.16600
O  42.58500 46.04900 29.84400
O  40.92200 45.82300 31.42500
C  41.88500 46.25700 32.50700
H  42.25000 38.39300 29.49500
H  42.22200 38.08800 23.01900
H  40.62400 44.43000 23.00800
H  41.51000 42.89000 31.16300
H  40.50500 40.05500 31.06800
H  43.35800 40.17700 31.06900
H  42.18400 39.87500 32.52000
H  42.84600 41.48900 32.08100
H  38.81100 41.42100 31.10500
H  38.74500 42.89300 30.21600
H  37.96900 42.77800 32.58800
H  38.81700 44.26700 32.16400
H  42.93000 35.32500 27.87800
H  43.35100 36.57200 29.04200
H  44.54300 36.03000 27.85900
H  43.35600 34.35100 26.11700
H  44.89400 35.11100 25.83500
H  44.21000 34.04600 24.55000
H  41.00100 39.73100 21.32500
H  41.58200 42.48700 21.20600
H  43.06500 39.38900 20.81900
H  43.83500 40.47400 21.85500
H  43.21600 41.17200 20.37400
H  39.47300 41.22600 20.27500
H  39.24800 42.81300 20.97200
H  38.74600 40.96600 23.19700
H  37.86900 40.31300 21.81700
H  37.55000 41.90000 22.32400
H  41.18000 46.64900 24.11000
H  40.18400 47.54200 25.34800
H  39.42200 46.48600 24.03500
H  39.40600 45.05000 29.78700
H  41.43500 46.06800 33.48100
H  41.89500 47.34600 32.46500
H  42.92700 45.93700 32.47100
Mg 16.47900 52.63100 26.76000
C  18.05400 50.73000 29.35000
C  14.08000 53.60100 29.10800
C  14.82100 54.08200 24.27500
C  18.84800 51.28100 24.52000
N  16.12100 52.16300 29.01300
C  16.94500 51.48500 29.83500
C  16.57300 51.67700 31.33200
C  15.18700 52.36400 31.17300
C  15.11800 52.77300 29.62500
C  13.88700 51.49300 31.51700
C  17.68000 52.62600 32.03700
C  18.08500 52.12300 33.50700
H  17.21600 52.57600 34.73500
N  14.64900 53.69000 26.75000
C  13.82700 53.97500 27.74900
C  12.84100 55.02000 27.23800
C  13.06200 55.13700 25.81800
C  14.24000 54.28500 25.51600
C  11.81600 55.63300 28.21000
C  12.27700 56.01600 24.85300
O  12.53900 56.00000 23.65100
C  11.09800 56.84600 25.36500
N  16.81100 52.80800 24.66900
C  15.96400 53.37500 23.84400
C  16.47200 53.31900 22.37400
C  17.87500 52.64000 22.55400
C  17.83300 52.09500 24.01200
C  15.47600 52.57800 21.36500
C  19.13700 53.56900 22.33900
C  20.01300 53.37300 21.06400
N  18.13600 51.26100 26.82000
C  18.94900 50.81600 25.84700
C  19.88700 49.86700 26.38800
C  19.60900 49.84600 27.77800
C  18.50000 50.68500 27.96200
C  21.01100 49.11900 25.66000
C  20.01000 49.38400 29.10700
O  20.91200 48.61300 29.36300
C  19.07700 49.86900 30.17400
C  18.43100 48.82400 30.98600
O  17.50400 48.14900 30.57300
O  19.14700 48.54400 32.13500
C  18.64000 47.60400 33.05200
H  13.33900 53.82500 29.87900
H  14.20800 54.49600 23.47200
H  19.62700 50.94000 23.83400
H  16.35800 50.70800 31.78200
H  15.22500 53.30400 31.72400
H  13.14400 52.07900 32.05800
H  14.24400 50.66600 32.13100
H  13.55300 51.11600 30.55100
H  17.34600 53.66100 32.11000
H  18.64900 52.71000 31.54500
H  19.00900 52.63100 33.78300
H  18.10200 51.03500 33.43900
H  10.82300 55.20200 28.07900
H  11.71600 56.70500 28.03900
H  12.10300 55.43900 29.24400
H  10.46700 56.15800 25.92800
H  10.53300 57.22300 24.51300
H  11.55300 57.51800 26.09300
H  16.53100 54.36400 22.07000
H  17.80800 51.74600 21.93300
H  14.45800 52.50800 21.75000
H  15.96700 51.64000 21.11000
H  15.26800 53.13800 20.45300
H  19.66700 53.50200 23.28900
H  18.70200 54.56300 22.23600
H  19.61900 52.48800 20.56400
H  20.96100 53.05000 21.49600
H  19.92800 54.25300 20.42600
H  21.29500 48.21900 26.20500
H  21.81600 49.82200 25.44600
H  20.74000 48.78300 24.65900
H  19.45000 50.56100 30.93000
H  19.26200 46.70900 33.03600
H  17.65600 47.20600 32.80500
H  18.48800 48.15900 33.97800

