158

Mg 2.23000 -1.86900 44.29000
C  5.67100 -1.35800 43.96500
C  1.62900 0.72600 42.15800
C  -1.03200 -2.70400 44.36300
C  3.04200 -5.02300 45.73200
N  3.55400 -0.52600 43.09400
C  4.98600 -0.45800 43.17400
C  5.41900 0.68400 42.21200
C  4.10400 1.41100 41.71100
C  3.02500 0.49900 42.40300
C  3.89500 2.86300 41.98400
C  6.28500 0.15000 41.03800
C  7.62800 0.90600 40.90400
H  7.99300 1.24100 39.45600
N  0.53800 -1.09800 43.32000
C  0.53500 -0.01100 42.49600
C  -0.81400 0.22100 42.13400
C  -1.59100 -0.77300 42.79100
C  -0.72800 -1.58100 43.54800
C  -1.20800 1.35100 41.27100
C  -3.06600 -0.96500 42.44000
O  -3.54100 -0.29800 41.55200
C  -3.95400 -1.86100 43.19500
N  1.18700 -3.67000 44.85300
C  -0.17000 -3.67000 44.88200
C  -0.75300 -4.89900 45.56200
C  0.61200 -5.76100 45.56500
C  1.70400 -4.80600 45.33200
C  -1.43100 -4.71600 46.91200
C  0.74200 -7.09600 44.67400
C  0.23300 -8.36900 45.35100
N  3.93700 -3.00500 44.82100
C  4.12600 -4.21000 45.40300
C  5.56800 -4.43300 45.70100
C  6.18400 -3.24400 45.24600
C  5.17500 -2.49100 44.61700
C  6.17500 -5.61800 46.41900
C  7.39600 -2.46000 45.13500
O  8.52100 -2.79600 45.53300
C  7.14200 -1.32100 44.27000
C  7.35100 -0.01600 44.87800
O  6.89100 0.42100 45.93800
O  8.16400 0.77600 44.09000
C  8.21400 2.18000 44.40100
H  1.50500 1.56300 41.46700
H  -2.09300 -2.94600 44.44400
H  3.35400 -5.95600 46.20600
H  5.99200 1.42500 42.76900
H  4.01900 1.31500 40.62900
H  4.09900 3.42900 41.07500
H  4.59300 3.31100 42.69100
H  2.85300 3.06200 42.23500
H  5.74200 0.03200 40.10000
H  6.57800 -0.89600 41.12300
H  8.40900 0.20800 41.20400
H  7.61900 1.83000 41.48100
H  -2.18500 1.74100 41.55600
H  -1.35700 0.99700 40.25100
H  -0.59700 2.25300 41.26400
H  -4.98400 -1.67300 42.88900
H  -3.79200 -1.55300 44.22700
H  -3.65900 -2.88900 42.98400
H  -1.51300 -5.38800 44.95200
H  0.70000 -6.10300 46.59600
H  -2.32300 -4.09900 46.79600
H  -0.61500 -4.29000 47.49600
H  -1.67000 -5.62000 47.47200
H  1.78900 -7.20400 44.38900
H  0.09900 -6.97300 43.80300
H  1.05300 -8.71600 45.98000
H  0.15600 -9.22500 44.68000
H  -0.63500 -8.25300 46.00000
H  6.25000 -6.47200 45.74700
H  5.46300 -6.01700 47.14100
H  7.11600 -5.27800 46.85100
H  7.85100 -1.33800 43.44200
H  8.66500 2.37900 45.37300
H  7.25500 2.68800 44.29700
H  8.87000 2.74800 43.74100
Mg 43.43700 3.31900 47.16800
C  41.49200 6.46900 47.00700
C  40.42400 1.67800 46.93800
C  45.17700 0.56400 46.55800
C  46.19000 5.45700 46.37200
N  41.19900 4.04400 46.70800
C  40.68000 5.31600 46.91700
C  39.17000 5.25300 47.19200
C  38.97900 3.70000 47.43500
C  40.26900 3.07200 46.92300
C  38.54300 3.25000 48.85800
C  38.41800 5.93200 46.03900
C  38.79700 5.47700 44.65200
H  39.71400 6.36300 43.71500
N  42.91200 1.35200 46.99900
C  41.63600 0.85700 46.89200
C  41.72500 -0.61400 46.77900
C  43.05400 -0.98200 46.76900
C  43.80600 0.31300 46.73600
C  40.44200 -1.47600 46.64100
C  43.56200 -2.43000 46.71700
O  42.86400 -3.40200 46.88200
C  45.04200 -2.71300 46.66000
N  45.46600 3.05400 46.52900
C  45.95500 1.76400 46.45500
C  47.48800 1.80900 46.24600
C  47.72400 3.38200 46.01900
C  46.33800 4.04400 46.26600
C  48.27500 1.10700 47.41100
C  48.21500 3.61800 44.56300
C  49.67600 3.77300 44.15400
N  43.84600 5.46600 46.99700
C  45.05800 6.15200 46.66900
C  44.79500 7.50800 46.67800
C  43.48300 7.65800 46.86200
C  42.92700 6.44000 46.95100
C  45.91800 8.52200 46.37800
C  42.42000 8.75300 47.11500
O  42.38100 9.96300 47.23000
C  41.16800 7.92300 47.06400
C  40.36800 8.16600 48.31700
O  40.56800 7.64700 49.46100
O  39.49300 9.15400 48.08900
C  38.58500 9.65800 49.16800
H  39.39500 1.32100 47.02100
H  45.76300 -0.35500 46.49700
H  47.05200 5.92100 45.88800
H  39.00400 5.79400 48.12300
H  38.18100 3.39800 46.75700
H  37.62900 2.68300 48.68400
H  38.34700 4.12300 49.48000
H  39.32000 2.61600 49.28400
H  38.63000 6.99900 46.11400
H  37.35800 5.69100 46.12100
H  37.82900 5.38700 44.16000
H  39.25200 4.48900 44.71900
H  40.27800 -2.22700 47.41400
H  40.55700 -2.12800 45.77500
H  39.55600 -0.86000 46.48900
H  45.52600 -2.08400 47.40700
H  45.42100 -2.43100 45.67800
H  45.19200 -3.75300 46.94800
H  47.75800 1.21400 45.37400
H  48.41500 3.74200 46.78100
H  48.93500 1.78900 47.94700
H  48.69200 0.12300 47.19500
H  47.59200 0.93200 48.24200
H  47.78700 4.51800 44.11900
H  47.77000 2.79900 43.99800
H  50.15500 3.49200 45.09200
H  50.05000 4.76800 43.91500
H  49.92700 3.13900 43.30400
H  46.57500 8.79900 47.20200
H  45.45300 9.44900 46.04400
H  46.55600 8.17100 45.56700
H  40.57900 8.31200 46.23300
H  38.22700 8.93300 49.89800
H  37.69300 9.95300 48.61600
H  39.01800 10.55800 49.60600

