158

Mg 48.66300 45.82100 43.25500
C  45.36200 46.24800 42.24800
C  48.78000 42.74600 41.81600
C  51.95100 45.89500 43.89200
C  48.60400 49.44200 43.98900
N  47.22400 44.63800 42.19000
C  45.92100 45.01500 41.79700
C  45.32200 43.97200 40.87200
C  46.44000 42.84400 40.85900
C  47.50300 43.37600 41.77600
C  45.88800 41.42400 41.25400
C  45.08900 44.44500 39.35000
C  43.81400 44.00200 38.64200
H  43.98100 43.02500 37.46700
N  50.21000 44.51100 42.83900
C  50.02900 43.24800 42.24300
C  51.27300 42.56100 42.31000
C  52.23200 43.44100 42.91800
C  51.52800 44.73300 43.27200
C  51.40300 41.15500 41.66600
C  53.77000 43.09700 43.01600
O  54.16400 41.99800 42.61800
C  54.72600 44.12200 43.48000
N  50.09400 47.45400 43.85200
C  51.38300 47.12500 44.15400
C  52.13100 48.35300 44.67300
C  51.08600 49.47600 44.57700
C  49.84400 48.74300 44.11600
C  52.85400 48.24100 45.98300
C  51.46300 50.67000 43.55300
C  51.60600 52.02300 44.17000
N  47.25000 47.50000 43.29300
C  47.34400 48.84000 43.67300
C  46.06800 49.47000 43.61800
C  45.28200 48.44100 43.08000
C  46.06500 47.31100 42.75100
C  45.71700 50.74700 44.41000
C  43.82900 48.09400 42.85500
O  42.73800 48.74800 43.03700
C  43.92600 46.76200 42.06900
C  42.77800 45.83600 42.37300
O  42.00500 45.38900 41.54900
O  42.86200 45.28700 43.65700
C  42.24300 43.93000 43.82700
H  48.86300 41.83800 41.21400
H  53.01500 45.84000 44.13400
H  48.52900 50.52800 44.07400
H  44.51700 43.51300 41.44400
H  47.00300 42.90900 39.92800
H  46.48600 41.05900 42.09000
H  45.93800 40.75300 40.39700
H  44.91600 41.33100 41.73800
H  45.79400 44.07400 38.60700
H  45.12600 45.53500 39.34700
H  43.25800 44.91100 38.41100
H  43.22000 43.46800 39.38300
H  50.58100 40.44100 41.62100
H  52.12300 40.65200 42.31200
H  51.81600 41.28900 40.66600
H  54.54900 44.33700 44.53400
H  54.83100 44.93300 42.75800
H  55.60900 43.48700 43.40000
H  52.90400 48.56800 43.93500
H  50.74000 49.89700 45.52100
H  53.92600 48.30900 45.80000
H  52.64900 47.27800 46.45200
H  52.54500 49.03600 46.66100
H  50.81000 50.59800 42.68300
H  52.46500 50.45400 43.18100
H  51.20800 52.00800 45.18500
H  51.03100 52.76000 43.60900
H  52.62600 52.35300 44.36800
H  44.71100 51.10600 44.19600
H  46.37500 51.52800 44.02800
H  45.82300 50.57900 45.48200
H  43.87500 47.21700 41.08100
H  42.38500 43.56300 44.84300
H  42.64800 43.23000 43.09700
H  41.18900 43.81000 43.57500
Mg 6.12200 52.94400 40.94900
C  5.03500 49.54100 40.79200
C  9.23800 51.91000 39.63700
C  6.86400 56.06800 40.52500
C  2.71500 53.67400 41.72200
N  6.94400 51.01500 40.30000
C  6.39400 49.73500 40.32900
C  7.39000 48.70100 39.82100
C  8.73700 49.47900 39.79200
C  8.28800 50.93400 39.95100
C  9.75100 49.02300 40.96300
C  7.17800 47.98100 38.48500
C  6.44900 48.78900 37.31900
H  7.26600 49.36500 36.14500
N  7.94200 53.88700 40.39400
C  9.09000 53.33500 39.83100
C  10.08400 54.34400 39.60600
C  9.36200 55.56500 39.92300
C  8.00000 55.24600 40.34600
C  11.57100 54.30300 39.33600
C  9.98200 56.93400 39.80800
O  11.10900 57.15700 39.46200
C  9.17300 58.10700 40.20800
N  4.92100 54.63400 40.88400
C  5.47200 55.80300 40.70700
C  4.35900 56.85500 40.70100
C  3.09500 56.07100 41.18300
C  3.65100 54.72400 41.39300
C  4.66400 58.13100 41.58100
C  1.94900 55.97200 40.10900
C  0.50000 56.49200 40.50300
N  4.26100 51.82500 41.37700
C  2.93300 52.29000 41.66500
C  2.12300 51.15100 41.93100
C  2.88900 50.05300 41.60200
C  4.12200 50.49400 41.19400
C  0.72000 51.09100 42.48000
C  2.83600 48.66500 41.53300
O  1.95100 47.85100 41.74900
C  4.31900 48.19800 41.02300
C  4.12000 47.37000 39.76200
O  3.68400 47.79500 38.73700
O  4.63800 46.11000 39.92700
C  4.60100 45.25200 38.73200
H  10.20200 51.49700 39.33400
H  7.00500 57.14700 40.44200
H  1.74800 54.06300 42.04900
H  7.39800 47.98100 40.64000
H  9.19400 49.29300 38.82000
H  10.69100 48.86600 40.43300
H  9.45800 48.08500 41.43300
H  9.83600 49.81200 41.71000
H  6.55300 47.11800 38.71300
H  8.12300 47.51900 38.20100
H  6.03600 49.66000 37.82800
H  5.60000 48.15100 37.07300
H  12.07600 54.69100 40.22000
H  11.80800 55.01300 38.54300
H  11.88900 53.27300 39.17500
H  8.43600 58.22400 39.41300
H  9.71400 59.04000 40.05200
H  8.93600 58.05200 41.27000
H  4.30900 57.16000 39.65600
H  2.65700 56.55600 42.05500
H  4.37100 59.01300 41.01200
H  5.71900 58.13700 41.85700
H  4.11300 58.13800 42.52100
H  1.91800 54.98700 39.64200
H  2.16000 56.64200 39.27500
H  -0.18600 55.77100 40.05900
H  0.28000 57.47100 40.07700
H  0.34600 56.56900 41.58000
H  0.08900 51.83100 41.98800
H  0.78100 51.38200 43.52900
H  0.35800 50.08300 42.27300
H  4.71200 47.48100 41.74500
H  5.07700 44.28300 38.88200
H  5.02300 45.68000 37.82200
H  3.57300 45.01200 38.46000

