158

Mg 17.10200 -2.20200 27.25200
C  16.11500 -0.50200 30.20000
C  18.69500 -4.41500 29.33200
C  17.94200 -3.76000 24.47300
C  15.53000 0.39500 25.45100
N  17.23500 -2.54300 29.51500
C  16.85700 -1.64600 30.48100
C  17.39600 -2.10000 31.91700
C  18.27200 -3.29500 31.58300
C  18.08200 -3.42900 30.03600
C  19.71100 -3.39500 32.14300
C  16.20900 -2.38200 32.89200
C  16.25900 -1.75300 34.33400
H  17.53200 -0.91100 34.69200
N  18.13800 -3.95500 26.97400
C  18.68600 -4.72600 27.96400
C  19.22200 -5.90400 27.28600
C  19.07200 -5.75200 25.88300
C  18.38500 -4.42700 25.69900
C  19.83900 -7.11200 28.01100
C  19.39400 -6.63500 24.66900
O  18.98700 -6.40900 23.56700
C  19.94200 -8.00600 24.94000
N  16.81000 -1.75800 25.32500
C  17.25700 -2.51600 24.31800
C  17.12500 -1.80500 22.94200
C  16.05200 -0.76700 23.31600
C  16.21500 -0.65400 24.81600
C  18.44900 -1.35700 22.25000
C  14.60800 -0.97900 22.84400
C  13.58700 -1.67700 23.76700
N  16.04900 -0.34600 27.69500
C  15.42300 0.48100 26.83500
C  14.72900 1.52800 27.60500
C  14.95400 1.18000 28.92200
C  15.80800 0.00300 28.90700
C  14.03900 2.74200 27.02100
C  14.72300 1.53000 30.29000
O  14.07600 2.49100 30.66000
C  15.50300 0.48300 31.16100
C  16.59900 1.20800 31.91300
O  17.78800 1.38800 31.55500
O  16.00900 1.82000 32.90500
C  16.75000 2.97900 33.44400
H  19.31400 -5.07600 29.94200
H  18.23700 -4.11000 23.48200
H  15.03800 1.21700 24.92800
H  17.98000 -1.23100 32.22000
H  17.78500 -4.13300 32.08000
H  20.43000 -3.56100 31.34000
H  19.73800 -4.23100 32.84100
H  20.11700 -2.51400 32.64100
H  16.24700 -3.44800 33.11200
H  15.29000 -2.40500 32.30700
H  16.30500 -2.57200 35.05100
H  15.37200 -1.12500 34.40900
H  20.82100 -7.39100 27.62900
H  19.01600 -7.82400 27.95200
H  19.91600 -6.87200 29.07100
H  21.03100 -8.04000 24.96300
H  19.59100 -8.63700 24.12400
H  19.62500 -8.56300 25.82200
H  16.67600 -2.67100 22.45500
H  16.35400 0.17100 22.85000
H  18.88900 -2.05400 21.53700
H  19.28400 -1.15700 22.92200
H  18.31100 -0.43000 21.69400
H  14.62500 -1.40000 21.83800
H  14.24500 0.04000 22.70900
H  14.09900 -2.23100 24.55300
H  12.93100 -2.38500 23.26000
H  12.99700 -0.88200 24.22500
H  13.95900 3.51200 27.78900
H  13.08100 2.44000 26.60000
H  14.62300 3.10000 26.17300
H  14.82900 -0.06900 31.81600
H  17.24000 3.51900 32.63400
H  17.56200 2.77600 34.14200
H  16.08200 3.57300 34.06900
Mg 47.44900 44.40600 42.23300
C  44.09900 43.60900 43.13000
C  48.00500 40.96400 41.96300
C  50.40300 45.08000 40.71200
C  46.42500 47.75600 41.62700
N  46.21400 42.58800 42.63600
C  44.88300 42.45000 42.96700
C  44.36100 40.96500 42.88600
C  45.73900 40.17400 42.77600
C  46.77500 41.32700 42.49500
C  45.97400 39.14200 43.88600
C  43.31000 40.78800 41.76600
C  43.68900 41.28300 40.33200
H  43.25400 40.49400 39.08400
N  48.99100 43.21400 41.47200
C  49.03800 41.84100 41.54200
C  50.38900 41.41400 41.24400
C  51.07800 42.56200 40.80300
C  50.16600 43.72300 40.93800
C  50.96200 40.02700 41.40500
C  52.60900 42.51900 40.41500
O  53.32500 41.55400 40.40400
C  53.24700 43.73900 39.86800
N  48.30600 46.15700 41.22300
C  49.58700 46.20900 40.85000
C  50.10200 47.58300 40.77000
C  48.76800 48.38600 40.67300
C  47.70900 47.40700 41.14800
C  51.02700 47.83300 41.94600
C  48.39600 48.83600 39.28800
C  48.97200 50.24700 38.98500
N  45.75100 45.56100 42.61500
C  45.43800 46.91600 42.25100
C  44.14000 47.20900 42.72500
C  43.52400 45.93200 43.01100
C  44.55700 44.90600 42.88600
C  43.40700 48.49500 42.47100
C  42.27000 45.26300 43.37300
O  41.08100 45.63400 43.49300
C  42.60900 43.79400 43.39800
C  42.07100 43.28000 44.70000
O  42.31100 43.72400 45.80800
O  41.29200 42.13400 44.44700
C  41.03800 41.25700 45.56200
H  48.26100 39.90400 41.90300
H  51.36900 45.52400 40.46200
H  46.14000 48.80600 41.53800
H  43.90100 40.68800 43.83400
H  45.67000 39.68700 41.80300
H  46.17600 38.22600 43.33000
H  45.05900 38.92300 44.43700
H  46.75200 39.48700 44.56800
H  42.38800 41.29300 42.05500
H  43.18500 39.70600 41.77600
H  44.77300 41.17300 40.28000
H  43.51400 42.35300 40.22200
H  50.36800 39.29800 41.95500
H  51.97100 40.01300 41.81800
H  51.20800 39.54200 40.46100
H  52.55900 44.31800 39.25100
H  54.13500 43.52900 39.27100
H  53.51500 44.39300 40.69800
H  50.72600 47.60100 39.87700
H  48.71600 49.21200 41.38100
H  50.62900 47.46100 42.89000
H  51.21400 48.90100 42.06500
H  51.99600 47.47500 41.59700
H  47.31800 48.91700 39.15100
H  48.88100 48.14200 38.60000
H  49.51700 50.14800 38.04600
H  49.51200 50.61600 39.85800
H  48.11400 50.89900 38.81900
H  43.72300 48.96800 41.54100
H  43.67600 49.15900 43.29200
H  42.32600 48.43100 42.59000
H  42.06500 43.30400 42.59100
H  41.87400 41.01600 46.21800
H  40.75500 40.36400 45.00500
H  40.13400 41.59400 46.06800

