158

Mg 26.77000 50.28100 27.02400
C  24.68100 51.42600 29.57000
C  29.06900 49.59900 29.47100
C  28.89700 49.44200 24.60400
C  24.57000 51.58500 24.60600
N  26.84700 50.55700 29.17500
C  25.83200 50.91200 30.02700
C  26.21600 50.67800 31.44100
C  27.75600 50.43100 31.43400
C  27.97700 50.25500 29.91600
C  28.69300 51.52600 32.11500
C  25.27100 49.63100 32.05600
C  24.74800 50.13700 33.41900
H  25.78200 50.50400 34.54700
N  28.70400 49.51600 27.06800
C  29.46900 49.23300 28.12600
C  30.73900 48.61300 27.66000
C  30.69800 48.58700 26.26800
C  29.40300 49.20300 25.92700
C  31.83900 48.09200 28.67600
C  31.81400 48.22500 25.20700
O  31.75000 48.41200 24.04100
C  33.07100 47.54600 25.66100
N  26.62900 50.30600 24.90000
C  27.68500 49.93000 24.15200
C  27.31400 49.96400 22.63000
C  25.81100 50.48600 22.67300
C  25.64500 50.85300 24.14400
C  28.29500 50.74000 21.79500
C  24.71500 49.49000 22.09300
C  23.52100 50.03800 21.33100
N  24.98600 51.30400 27.01000
C  24.16700 51.65700 25.94700
C  22.93700 52.23200 26.40700
C  23.07100 52.19700 27.86000
C  24.40200 51.67000 28.15200
C  21.81100 52.77500 25.56700
C  22.50900 52.53500 29.18400
O  21.54400 53.11100 29.52000
C  23.52200 52.09000 30.32700
C  23.98300 53.15500 31.25300
O  25.10600 53.70500 31.26000
O  23.02800 53.35500 32.17100
C  23.46400 54.34700 33.21900
H  29.78200 49.20900 30.20200
H  29.62500 49.17700 23.83300
H  23.86200 52.00900 23.89100
H  26.01300 51.61400 31.96100
H  27.93300 49.54900 32.04900
H  29.20100 51.00200 32.92500
H  28.04300 52.32300 32.47600
H  29.46300 51.93900 31.46300
H  25.71400 48.64800 32.21500
H  24.40000 49.48900 31.41600
H  24.13400 49.36000 33.87400
H  24.06300 50.95600 33.19700
H  31.61700 48.35900 29.71000
H  32.77800 48.62100 28.51500
H  32.17200 47.07600 28.46400
H  33.79100 48.35400 25.79600
H  33.47100 46.92800 24.85700
H  33.02200 46.92000 26.55200
H  27.35500 48.88900 22.45200
H  25.83200 51.46400 22.19100
H  29.14500 51.07700 22.38700
H  27.88500 51.47500 21.10300
H  28.61400 49.98100 21.08100
H  24.21400 49.12200 22.98900
H  25.12000 48.75300 21.40000
H  23.52700 49.49900 20.38400
H  23.73800 51.07500 21.07100
H  22.55400 49.82200 21.78500
H  21.48300 52.18000 24.71500
H  22.10800 53.75600 25.19700
H  20.97900 52.88500 26.26300
H  23.01700 51.31400 30.90200
H  23.82000 55.26100 32.74300
H  24.28300 53.92900 33.80400
H  22.59800 54.58900 33.83400
Mg -10.00200 39.15000 42.09900
C  -8.69100 35.96800 41.01400
C  -7.00700 40.43500 40.70400
C  -11.29300 42.17400 42.38400
C  -13.04400 37.58700 42.75700
N  -8.06200 38.28300 40.91800
C  -7.75400 36.95600 40.71700
C  -6.42500 36.73100 39.99300
C  -5.87200 38.23900 40.00600
C  -7.02200 39.07200 40.57000
C  -4.49500 38.52500 40.64300
C  -6.52300 36.03800 38.60200
C  -5.45300 34.95000 38.27700
H  -4.50400 35.13900 37.01700
N  -9.26000 40.98900 41.69100
C  -7.99700 41.31500 41.19500
C  -7.89300 42.80200 41.14700
C  -9.14000 43.30300 41.60200
C  -9.95800 42.13400 41.98400
C  -6.73000 43.55900 40.55700
C  -9.52200 44.82900 41.71500
O  -8.62900 45.63600 41.39600
C  -10.86300 45.48300 42.16200
N  -11.89500 39.78800 42.61300
C  -12.16500 41.09800 42.75600
C  -13.61300 41.37100 43.13000
C  -14.18600 39.87000 43.29200
C  -13.01600 39.02700 42.78400
C  -13.88500 42.23500 44.33000
C  -15.48200 39.56400 42.53100
C  -16.76200 40.35000 43.04900
N  -10.76600 37.19600 42.00900
C  -12.07700 36.69100 42.28200
C  -12.02600 35.26400 42.15500
C  -10.70600 34.95400 41.69900
C  -10.00100 36.16400 41.56900
C  -13.23000 34.41900 42.47700
C  -9.82400 33.82600 41.35200
O  -10.05500 32.60900 41.31700
C  -8.51100 34.42400 40.88300
C  -7.41600 33.95400 41.73600
O  -7.46000 33.79400 42.97000
O  -6.43400 33.47800 40.91000
C  -5.22900 32.93700 41.54100
H  -6.04100 40.87300 40.44400
H  -11.90500 43.06300 42.55200
H  -13.96100 37.00200 42.85600
H  -5.83200 36.11100 40.66600
H  -5.86500 38.57300 38.96900
H  -4.54800 39.40800 41.28000
H  -3.75000 38.61800 39.85300
H  -4.14500 37.62700 41.15200
H  -6.39800 36.77400 37.80700
H  -7.47700 35.55100 38.40100
H  -6.05400 34.04300 38.21600
H  -4.85300 34.78300 39.17100
H  -7.05600 44.29400 39.82100
H  -5.86200 42.95800 40.28800
H  -6.26200 44.12400 41.36300
H  -11.66700 45.66100 41.44800
H  -10.57100 46.49100 42.45700
H  -11.23100 45.01700 43.07600
H  -14.17700 41.77600 42.29000
H  -14.36500 39.56900 44.32500
H  -12.96800 42.38700 44.89900
H  -14.70100 41.80900 44.91400
H  -14.11800 43.18200 43.84400
H  -15.87200 38.54700 42.53100
H  -15.41100 39.80100 41.46900
H  -17.65300 39.75400 42.84900
H  -16.94200 41.36800 42.70300
H  -16.75100 40.40700 44.13700
H  -13.81100 34.34300 41.55800
H  -13.94300 34.74800 43.23300
H  -12.96100 33.39100 42.72100
H  -8.23000 34.29800 39.83800
H  -4.45800 33.69700 41.67000
H  -4.61600 32.24300 40.96600
H  -5.52600 32.47900 42.48400

