158

Mg 47.00600 17.30800 28.95800
C  45.02800 16.99700 31.78500
C  49.34200 19.18300 30.90800
C  48.72900 18.21200 26.14200
C  44.51700 15.88000 27.02000
N  47.09600 18.10900 31.05300
C  46.26700 17.66600 32.03100
C  46.75300 18.19500 33.44300
C  47.98500 19.11300 33.08100
C  48.19100 18.80600 31.57900
C  47.92900 20.68900 33.38900
C  46.97800 16.98800 34.37900
C  46.78500 17.25200 35.88700
H  46.42300 18.67600 36.37900
N  48.85000 18.56900 28.58200
C  49.62000 19.17100 29.49700
C  50.63600 19.94900 28.78600
C  50.46300 19.68800 27.35900
C  49.33600 18.77800 27.29900
C  51.59400 20.84100 29.49800
C  51.24700 20.18100 26.13500
O  50.99100 19.87900 25.00500
C  52.22900 21.36000 26.33900
N  46.74500 17.05900 26.93900
C  47.62300 17.31800 25.98000
C  47.25300 16.75900 24.60200
C  46.02000 15.85200 24.96600
C  45.72800 16.26700 26.44300
C  46.98300 17.88600 23.57200
C  46.30300 14.25100 24.81300
C  45.64000 13.56900 23.64800
N  45.19300 16.39200 29.32900
C  44.24900 15.88400 28.47300
C  43.10500 15.47000 29.22900
C  43.38600 15.85500 30.53900
C  44.63000 16.45900 30.55900
C  41.90300 14.87500 28.71800
C  42.97300 15.84200 31.96000
O  41.93200 15.43500 32.49400
C  43.90400 16.79400 32.78200
C  43.09100 18.04800 33.05400
O  42.95400 18.96200 32.28500
O  42.65500 17.97600 34.33400
C  41.97500 19.22700 34.80000
H  50.14300 19.54600 31.55600
H  49.28200 18.48300 25.23900
H  43.78000 15.31300 26.44900
H  45.96800 18.80800 33.88500
H  48.82000 18.76700 33.69100
H  47.78700 21.20100 32.43800
H  48.87300 20.98200 33.85000
H  47.06900 21.00100 33.98100
H  47.96700 16.56200 34.20700
H  46.20300 16.24200 34.20200
H  47.76000 17.00000 36.30400
H  46.07100 16.61200 36.40600
H  51.26600 21.84300 29.22300
H  52.61300 20.76800 29.11800
H  51.59200 20.77900 30.58600
H  52.86700 21.02000 27.15600
H  51.69200 22.24600 26.67800
H  52.80100 21.50600 25.42300
H  48.11300 16.22100 24.20200
H  45.10000 16.02300 24.40800
H  47.00200 18.86300 24.05600
H  45.92600 17.88200 23.30700
H  47.70500 17.74300 22.76700
H  45.95600 13.68900 25.68000
H  47.36100 14.08800 24.60900
H  46.32200 13.36500 22.82200
H  44.71900 14.11600 23.44700
H  45.26800 12.60200 23.98800
H  41.57600 15.42600 27.83600
H  41.17600 14.93500 29.52800
H  41.96900 13.82400 28.43700
H  44.09700 16.04900 33.55500
H  41.19800 19.69900 34.19900
H  42.71800 20.00000 34.99400
H  41.52300 19.04200 35.77500
Mg 17.13000 51.69800 26.36100
C  18.68200 50.02300 28.94900
C  14.73700 52.85200 28.60900
C  15.39100 52.91700 23.70700
C  19.55200 50.44300 24.08800
N  16.74800 51.40500 28.57100
C  17.51100 50.69200 29.37600
C  17.09100 50.76900 30.87700
C  15.58600 51.34100 30.55400
C  15.74800 52.04600 29.18900
C  14.37100 50.35600 30.63200
C  18.00500 51.67600 31.74100
C  18.08600 51.28700 33.19700
H  16.97200 51.88400 34.03700
N  15.35300 52.75500 26.17200
C  14.55200 53.17300 27.22600
C  13.42600 53.91600 26.67700
C  13.51500 53.92900 25.26600
C  14.71800 53.07700 24.93900
C  12.48900 54.57300 27.55300
C  12.57400 54.51100 24.27700
O  12.71600 54.41400 23.03500
C  11.34700 55.12800 24.70700
N  17.32400 51.61100 24.21700
C  16.47600 52.13300 23.37200
C  17.04400 52.02700 21.96500
C  18.44700 51.43100 22.09000
C  18.48500 51.22900 23.56000
C  16.03300 51.40000 20.98700
C  19.64000 52.26300 21.53200
C  20.83400 51.53100 20.93800
N  18.69500 50.44600 26.42400
C  19.66500 50.08400 25.46300
C  20.72000 49.30100 26.08700
C  20.37500 49.30100 27.42000
C  19.18200 50.04000 27.60900
C  21.92900 48.68000 25.39400
C  20.75300 48.77600 28.77600
O  21.71100 48.06300 29.10000
C  19.73700 49.30400 29.78600
C  19.24300 48.10700 30.64500
O  18.46300 47.25500 30.25800
O  19.91300 48.11100 31.85900
C  19.59100 47.16000 32.89500
H  14.08600 53.29800 29.36300
H  14.96700 53.48500 22.87600
H  20.35500 50.14800 23.40900
H  16.97500 49.79400 31.34900
H  15.33400 52.07700 31.31800
H  14.14000 50.17800 31.68200
H  14.56200 49.34900 30.26100
H  13.46400 50.81200 30.23500
H  17.51800 52.64700 31.83800
H  19.00400 51.79500 31.32300
H  19.07400 51.46800 33.62200
H  18.04400 50.20300 33.30300
H  11.49100 54.21800 27.29500
H  12.60100 55.60300 27.21200
H  12.73100 54.52500 28.61500
H  10.83700 54.46200 25.40400
H  10.65200 55.24400 23.87500
H  11.65100 56.05200 25.20000
H  17.15400 53.06200 21.64200
H  18.45100 50.45100 21.61200
H  15.76200 52.16900 20.26300
H  15.10000 51.18400 21.50800
H  16.35000 50.43500 20.59200
H  20.09300 52.97000 22.22600
H  19.24600 52.83200 20.69000
H  20.93700 51.85100 19.90100
H  20.69900 50.45100 20.87400
H  21.76900 51.66300 21.48200
H  21.63500 48.77000 24.34800
H  22.03300 47.61200 25.58000
H  22.90900 49.12300 25.57400
H  20.22500 49.98200 30.48600
H  19.10400 46.25900 32.52400
H  18.90800 47.74100 33.51500
H  20.54500 46.94700 33.37800

