158

Mg 26.19200 -0.27600 29.11600
C  27.85800 -0.65100 32.08100
C  23.17700 0.16600 30.83700
C  24.54100 -0.27900 26.14100
C  29.22600 -0.87600 27.34800
N  25.53100 -0.50300 31.18200
C  26.44900 -0.41200 32.21900
C  25.63200 -0.08100 33.57200
C  24.12900 0.19700 33.04500
C  24.27100 -0.08600 31.56700
C  23.04400 -0.72700 33.81700
C  26.15100 1.04500 34.54000
C  26.46800 0.47200 35.94800
H  27.30100 1.39900 36.82600
N  24.16500 -0.03100 28.60100
C  23.06700 0.16300 29.43900
C  21.84800 0.37200 28.63100
C  22.24600 0.27200 27.22200
C  23.70100 -0.00900 27.27500
C  20.48000 0.55300 29.28100
C  21.45600 0.33300 25.92700
O  21.90300 0.24900 24.79800
C  19.98100 0.49900 26.11200
N  26.81500 -0.49100 27.08900
C  25.95000 -0.52300 26.04100
C  26.60500 -0.90100 24.72200
C  28.10800 -0.66600 25.01800
C  28.07900 -0.66900 26.62500
C  26.22300 -2.34900 24.37300
C  28.74500 0.72400 24.61800
C  29.12300 0.86900 23.06500
N  28.08700 -0.70700 29.60700
C  29.21800 -0.92000 28.78500
C  30.31700 -1.22400 29.67300
C  29.89500 -1.06200 30.96500
C  28.51200 -0.83900 30.84600
C  31.71000 -1.52300 29.28900
C  30.24100 -0.97700 32.34000
O  31.33500 -1.00900 32.96700
C  28.95000 -0.70600 33.13300
C  28.72300 -1.93200 34.05700
O  28.43200 -3.08400 33.77000
O  29.10400 -1.55700 35.33500
C  29.14100 -2.70400 36.30700
H  22.36800 0.49800 31.49100
H  24.09400 -0.38700 25.15100
H  30.14300 -1.04400 26.78000
H  25.68200 -1.04500 34.07900
H  23.90400 1.26100 33.11700
H  22.47400 -1.37700 33.15200
H  22.30600 -0.19100 34.41400
H  23.64500 -1.37900 34.45100
H  25.46200 1.88900 34.57200
H  27.14500 1.29800 34.17200
H  26.88900 -0.52600 35.82500
H  25.47500 0.35700 36.38200
H  20.07900 1.54000 29.05400
H  20.65000 0.54900 30.35700
H  19.83000 -0.27800 29.00600
H  19.51000 0.58100 25.13200
H  19.84100 1.40100 26.70800
H  19.57400 -0.42600 26.52000
H  26.22200 -0.36700 23.85200
H  28.73400 -1.49800 24.69400
H  25.28600 -2.62200 24.85800
H  26.98500 -3.04800 24.71800
H  26.00100 -2.53400 23.32200
H  29.69900 0.99000 25.07400
H  27.99400 1.47600 24.86200
H  28.45900 1.55300 22.53700
H  28.92100 -0.08500 22.57900
H  30.13700 1.22300 22.87900
H  31.91200 -1.22100 28.26100
H  31.89300 -2.59700 29.27600
H  32.44300 -1.13700 29.99700
H  29.06900 0.17600 33.76200
H  28.37300 -2.58000 37.07100
H  30.11500 -2.83400 36.78000
H  28.99000 -3.69600 35.88100
Mg 30.31200 58.13900 40.37200
C  27.26700 56.47400 39.36700
C  32.12500 55.46500 39.21700
C  33.19600 60.03300 40.62500
C  28.40400 61.03300 40.80700
N  29.74000 56.15000 39.56000
C  28.48700 55.74300 39.21400
C  28.57900 54.46400 38.42800
C  30.12700 53.95500 38.77700
C  30.71900 55.24800 39.27700
C  30.14900 52.81800 39.82900
C  28.37000 54.76600 36.95500
C  27.32300 53.77300 36.37200
H  26.53200 54.22500 35.20400
N  32.34200 57.84200 39.91600
C  32.88400 56.67600 39.45500
C  34.29600 56.71600 39.49800
C  34.66500 58.04000 39.90000
C  33.39600 58.71400 40.12200
C  35.17300 55.63700 39.13500
C  36.08200 58.59800 40.01300
O  37.06400 57.87400 39.80000
C  36.30700 59.97800 40.40700
N  30.72400 60.29000 40.48100
C  32.01100 60.76200 40.78200
C  31.87800 62.33500 41.07400
C  30.37300 62.59300 41.22200
C  29.78700 61.23800 40.74000
C  32.71600 62.88100 42.29300
C  29.84600 63.76200 40.42700
C  29.56500 63.63200 38.89700
N  28.30800 58.65600 40.17600
C  27.68900 59.86400 40.44900
C  26.28100 59.76700 40.25900
C  26.05300 58.47900 39.78600
C  27.29000 57.78600 39.80300
C  25.34200 60.95100 40.39200
C  25.08900 57.54500 39.35000
O  23.87400 57.74200 39.17800
C  25.80600 56.19100 39.03000
C  25.14100 55.06200 39.89300
O  24.71900 55.16600 41.02600
O  25.23200 53.88200 39.14500
C  24.61700 52.82100 39.89000
H  32.61700 54.56300 38.84800
H  34.06300 60.61600 40.94400
H  27.79200 61.91800 40.99300
H  27.91300 53.70000 38.82900
H  30.72000 53.69600 37.90000
H  30.97100 52.13500 39.61300
H  29.23700 52.22100 39.86000
H  30.34100 53.27000 40.80200
H  29.34100 54.50200 36.53800
H  28.16100 55.77900 36.61000
H  26.60500 53.33800 37.06600
H  27.87400 52.87900 36.08200
H  35.61700 55.05300 39.94200
H  35.87500 56.15600 38.48200
H  34.69600 54.88800 38.50300
H  35.97400 60.12400 41.43400
H  35.80600 60.61600 39.67900
H  37.38900 60.07400 40.49700
H  32.29000 62.90700 40.24300
H  30.18100 62.69100 42.29100
H  33.18800 62.06200 42.83500
H  32.05700 63.19400 43.10300
H  33.34900 63.70600 41.96500
H  30.57700 64.56800 40.36100
H  28.95000 64.24300 40.81800
H  29.65400 62.60700 38.53900
H  30.38700 64.17200 38.42700
H  28.66000 64.06700 38.47300
H  25.78400 61.81200 40.89300
H  24.52200 60.49500 40.94700
H  24.87600 61.21700 39.44300
H  25.59000 55.83800 38.02200
H  25.00000 52.69600 40.90300
H  24.82000 51.85800 39.42100
H  23.53200 52.88400 39.96800

