158

Mg 54.49700 25.08100 44.08400
C  51.43900 26.60200 43.45400
C  52.78300 22.05800 43.22000
C  57.47000 23.57300 43.70700
C  55.85000 28.16400 44.73900
N  52.44500 24.40800 43.21500
C  51.37700 25.24300 43.06400
C  50.09300 24.49500 42.56000
C  50.45400 23.03700 42.90300
C  51.98200 23.15300 43.18100
C  49.76100 22.42100 44.18400
C  49.92200 24.65600 41.01700
C  48.62000 24.08800 40.47700
H  48.45400 24.10200 38.93200
N  55.02200 23.03300 43.68100
C  54.16700 21.98800 43.41100
C  55.03500 20.81700 43.22700
C  56.43600 21.23000 43.29000
C  56.37600 22.64600 43.60400
C  54.42600 19.44500 42.89200
C  57.58700 20.38400 42.93500
O  57.40800 19.18500 42.76300
C  59.00500 20.94100 42.81700
N  56.42000 25.82900 43.86000
C  57.49200 25.00100 43.90800
C  58.71800 25.82000 44.29700
C  58.18000 27.27600 44.46100
C  56.69600 27.10100 44.37700
C  59.65500 25.33500 45.46300
C  58.81200 28.37600 43.43600
C  60.28200 28.71000 43.67700
N  53.82200 27.03500 44.22000
C  54.45800 28.16500 44.55300
C  53.48800 29.29700 44.70600
C  52.24700 28.67800 44.24800
C  52.54000 27.31900 43.92100
C  53.79500 30.72000 45.03600
C  50.84500 28.88500 44.01200
O  50.10200 29.83400 44.21800
C  50.30600 27.60900 43.34800
C  50.01500 28.07200 41.91200
O  50.80500 28.16400 40.99000
O  48.72300 28.30200 41.84800
C  48.15700 28.63600 40.52900
H  52.18900 21.19200 42.92100
H  58.46700 23.16100 43.87800
H  56.25300 29.10600 45.11500
H  49.21200 24.90700 43.04900
H  50.46600 22.34600 42.06100
H  49.03700 21.67600 43.85600
H  49.19400 23.27800 44.54800
H  50.53000 22.13600 44.90200
H  50.65300 24.00600 40.53700
H  49.93600 25.68300 40.65100
H  47.72800 24.50400 40.94500
H  48.56300 23.06600 40.85300
H  54.54100 19.10300 41.86300
H  53.39500 19.25500 43.18900
H  54.95100 18.71300 43.50600
H  59.59700 20.13600 42.38000
H  59.33800 21.11100 43.84100
H  59.13600 21.78600 42.14200
H  59.32500 25.77200 43.39300
H  58.39100 27.76000 45.41400
H  59.22300 24.51200 46.03100
H  59.77400 26.09700 46.23400
H  60.63300 25.08900 45.04800
H  58.34700 29.34600 43.61100
H  58.93000 28.02300 42.41200
H  60.73400 27.95800 44.32300
H  60.39600 29.73000 44.04400
H  60.83700 28.71600 42.73800
H  54.11400 31.29600 44.16800
H  54.56500 30.81600 45.80200
H  52.88900 31.20000 45.40500
H  49.33800 27.39400 43.80000
H  48.71900 29.55600 40.36800
H  47.10900 28.90100 40.66800
H  48.21600 27.88800 39.73800
Mg 1.56500 42.26300 26.05300
C  2.61300 42.35500 29.39100
C  -1.41800 41.05300 26.96800
C  0.72500 41.85500 22.70400
C  4.69300 43.55200 25.08000
N  0.77200 41.75300 27.98400
C  1.25600 42.01600 29.27500
C  0.25800 41.60500 30.33500
C  -0.88000 40.90000 29.49000
C  -0.51500 41.25900 28.08600
C  -1.17000 39.37200 29.62900
C  -0.15100 42.84500 31.16800
C  -0.34300 42.62400 32.73200
H  -1.00200 41.25500 33.07300
N  -0.18400 41.70100 25.05000
C  -1.38400 41.24000 25.57200
C  -2.36700 41.07900 24.50300
C  -1.74300 41.22700 23.26500
C  -0.30300 41.54200 23.61100
C  -3.82600 40.69900 24.89000
C  -2.28100 40.99300 21.85000
O  -1.60000 41.12200 20.85000
C  -3.79900 40.71700 21.72500
N  2.67400 42.40500 24.22000
C  2.02100 42.34900 22.99800
C  2.87200 42.99400 21.88300
C  3.87800 43.83700 22.66200
C  3.68000 43.33200 24.14400
C  3.46000 41.95400 20.86400
C  3.61600 45.40200 22.57100
C  3.96300 45.82900 21.09100
N  3.40000 42.76100 26.97600
C  4.62600 43.23700 26.46000
C  5.60400 43.31100 27.50400
C  4.91300 42.96500 28.68900
C  3.52800 42.64400 28.34500
C  7.06000 43.73300 27.40200
C  4.96500 42.77800 30.12600
O  5.98700 42.75900 30.86000
C  3.51500 42.54200 30.60600
C  3.56200 41.39700 31.56300
O  4.01000 40.22300 31.33800
O  2.81300 41.67200 32.68900
C  2.74700 40.56900 33.69100
H  -2.36000 40.64800 27.34300
H  0.48000 41.61600 21.66700
H  5.49400 44.23900 24.79800
H  0.76200 40.89700 30.99300
H  -1.80000 41.42600 29.74500
H  -1.02300 38.88000 28.66800
H  -2.18800 39.24700 29.99900
H  -0.51700 38.89200 30.35800
H  -0.98000 43.38800 30.71400
H  0.74300 43.46600 31.11400
H  -1.01400 43.44900 32.97300
H  0.59500 42.73200 33.27600
H  -4.01400 40.79500 25.96000
H  -4.05800 39.67400 24.60000
H  -4.56600 41.35100 24.42600
H  -3.93000 39.80200 22.30200
H  -3.92900 40.38700 20.69500
H  -4.40400 41.57000 22.03400
H  2.12000 43.59100 21.36700
H  4.87900 43.60800 22.29800
H  4.49000 41.85100 21.20500
H  3.23000 42.34300 19.87200
H  2.90300 41.02200 20.96200
H  4.29500 45.98500 23.19300
H  2.60500 45.63300 22.90600
H  4.32300 45.01500 20.46200
H  4.75300 46.56700 20.94800
H  3.04300 46.34200 20.81100
H  7.50300 43.37200 26.47400
H  7.51300 43.24500 28.26500
H  7.08200 44.81900 27.49300
H  3.27000 43.49400 31.07600
H  2.26200 40.99700 34.56800
H  3.74500 40.19500 33.92100
H  2.23300 39.72100 33.24000

