158

Mg -1.46000 18.13900 27.34900
C  -2.17800 15.86800 29.94600
C  -1.86300 20.68600 29.51400
C  -1.07200 20.12400 24.75700
C  -1.10700 15.31200 25.23400
N  -1.93100 18.20700 29.54400
C  -2.09500 17.21800 30.42100
C  -2.22800 17.80600 31.85800
C  -2.40800 19.32700 31.58500
C  -1.97100 19.41200 30.11800
C  -3.85000 19.72000 31.91100
C  -1.11500 17.38800 32.81800
C  -1.63600 16.87100 34.18900
H  -0.54800 16.53900 35.23200
N  -1.42800 20.10200 27.25000
C  -1.61800 20.98300 28.23500
C  -1.55600 22.36300 27.64500
C  -1.22400 22.19100 26.20500
C  -1.18600 20.72700 26.01200
C  -1.94900 23.57700 28.43200
C  -1.10900 23.32100 25.11700
O  -0.75200 23.10900 23.96700
C  -1.66500 24.67000 25.47800
N  -1.16700 17.75400 25.25900
C  -1.00100 18.77100 24.38200
C  -0.66500 18.22300 23.01100
C  -0.44600 16.70800 23.26200
C  -0.92400 16.57800 24.66400
C  -1.84000 18.49600 22.05800
C  1.03100 16.22600 23.10500
C  2.15400 16.83800 23.97600
N  -1.61000 16.06200 27.47900
C  -1.54800 15.04600 26.53600
C  -1.84100 13.73800 27.05000
C  -2.13800 14.04400 28.42500
C  -1.91900 15.46100 28.63500
C  -1.75800 12.45100 26.43700
C  -2.46400 13.42200 29.63300
O  -2.60000 12.22400 29.90700
C  -2.55900 14.57200 30.70400
C  -1.69400 14.10700 31.81900
O  -0.45000 14.15400 31.84900
O  -2.42600 13.55600 32.83700
C  -1.70500 12.90500 33.97900
H  -1.64300 21.53200 30.16800
H  -0.98100 20.79700 23.90200
H  -1.03600 14.47700 24.53400
H  -3.09300 17.37400 32.36000
H  -1.72200 19.89500 32.21300
H  -4.14700 20.60100 31.34100
H  -4.10800 20.06300 32.91300
H  -4.49800 18.92800 31.53400
H  -0.44700 18.21200 33.06700
H  -0.52300 16.60800 32.33800
H  -2.20500 15.96100 34.00100
H  -2.16800 17.69600 34.66400
H  -2.44600 23.28800 29.35800
H  -2.57000 24.25500 27.84600
H  -1.16800 24.16000 28.92100
H  -2.69000 24.42300 25.75700
H  -1.66000 25.45400 24.72100
H  -1.21900 25.06600 26.39000
H  0.26700 18.66700 22.66100
H  -1.13800 16.18900 22.59900
H  -1.58000 18.41000 21.00300
H  -2.23000 19.47400 22.33900
H  -2.56700 17.71400 22.27800
H  1.47900 16.49600 22.14900
H  1.00500 15.15600 23.31100
H  1.73600 17.51000 24.72600
H  2.69000 17.54300 23.34000
H  2.75800 16.01200 24.35200
H  -1.30100 11.75000 27.13700
H  -1.17800 12.52100 25.51700
H  -2.79600 12.20700 26.20900
H  -3.55300 14.74900 31.11400
H  -2.35200 13.09400 34.83600
H  -0.77100 13.40100 34.24100
H  -1.55100 11.83500 33.84100
Mg 9.81000 48.16100 24.96900
C  7.14100 48.45500 27.45100
C  11.77900 49.33200 27.16300
C  12.05900 48.02500 22.41600
C  7.20100 47.63400 22.63100
N  9.49600 48.74900 27.06900
C  8.44000 48.75700 27.92200
C  8.75000 49.04400 29.42000
C  10.23900 49.60700 29.17600
C  10.51000 49.39200 27.70500
C  10.47100 51.06700 29.66300
C  8.51500 47.81700 30.43400
C  9.50200 47.64600 31.60800
H  9.01700 46.88100 32.83200
N  11.71900 48.44200 24.91100
C  12.39300 48.90900 25.94600
C  13.75100 48.86800 25.67400
C  13.88600 48.53200 24.28400
C  12.51800 48.41900 23.77800
C  14.78800 49.20300 26.72500
C  15.10400 48.38400 23.45400
O  15.07600 48.15400 22.26300
C  16.40700 48.32400 24.09000
N  9.66200 48.05500 22.82600
C  10.73500 47.94400 21.97500
C  10.35400 47.55500 20.56900
C  8.86900 47.26200 20.68400
C  8.52000 47.68700 22.12000
C  10.76600 48.65700 19.61900
C  8.38000 45.81900 20.28900
C  9.20500 44.67700 20.84700
N  7.63300 47.90800 24.97700
C  6.71700 47.75900 23.90200
C  5.33900 47.82800 24.38600
C  5.51200 48.07000 25.76600
C  6.88100 48.09600 26.04400
C  4.09300 47.60100 23.59900
C  4.72900 48.43800 26.97700
O  3.54100 48.67600 27.19700
C  5.75900 48.55100 28.16300
C  5.59900 47.39900 29.05500
O  5.87600 46.24200 28.77800
O  5.09500 47.88800 30.21400
C  5.05400 46.81600 31.26900
H  12.47700 49.69100 27.92300
H  12.80400 47.88300 21.63100
H  6.38700 47.41300 21.93700
H  8.11500 49.84700 29.79400
H  10.97100 49.02000 29.73100
H  11.31000 51.11600 30.35800
H  9.58600 51.25100 30.27100
H  10.54000 51.76000 28.82400
H  8.37000 46.88700 29.88400
H  7.53000 47.97300 30.87500
H  9.85900 48.64100 31.87600
H  10.30200 47.00900 31.23200
H  15.66800 48.56600 26.63500
H  14.55700 49.14200 27.78900
H  14.98800 50.22300 26.39900
H  16.55800 49.31900 24.50900
H  17.16800 48.16100 23.32700
H  16.32900 47.56200 24.86500
H  10.88400 46.64400 20.29100
H  8.31000 47.83100 19.94000
H  11.58900 49.21300 20.06700
H  9.92300 49.30800 19.39000
H  11.11600 48.22000 18.68400
H  8.53400 45.77500 19.21100
H  7.35000 45.75000 20.64000
H  9.80400 44.93300 21.72100
H  9.69200 44.14900 20.02800
H  8.39200 44.01900 21.15500
H  3.70900 48.55500 23.23800
H  3.33900 47.25900 24.30800
H  4.22500 46.84900 22.82100
H  5.74700 49.46200 28.76200
H  6.06900 46.43000 31.36100
H  4.54400 45.88400 31.02300
H  4.69600 47.18000 32.23200

