158

Mg -1.48300 17.78400 27.24500
C  -1.86900 15.32100 29.72700
C  -2.06500 20.16800 29.48100
C  -1.36900 19.89400 24.67200
C  -1.58300 15.03400 24.73900
N  -1.91200 17.66400 29.41200
C  -1.96500 16.62800 30.26100
C  -2.31400 17.17900 31.65700
C  -2.60900 18.67600 31.40500
C  -2.18700 18.87400 29.96300
C  -4.02500 19.09500 31.74500
C  -1.16900 16.84800 32.69000
C  -1.59000 16.06300 33.94800
H  -0.44200 15.98700 34.99000
N  -1.61400 19.76500 27.04800
C  -1.70100 20.58400 28.16600
C  -1.57200 21.92900 27.73800
C  -1.38200 21.91000 26.38200
C  -1.37400 20.53100 25.97700
C  -1.82200 23.15300 28.62300
C  -1.13200 22.99800 25.38600
O  -1.03300 22.84200 24.18800
C  -1.02000 24.41200 25.85300
N  -1.45100 17.46600 25.05100
C  -1.46600 18.57400 24.25100
C  -1.83300 18.16600 22.78700
C  -1.67500 16.63600 22.80100
C  -1.54500 16.40600 24.28100
C  -3.22900 18.51300 22.31400
C  -0.47600 15.98900 22.03100
C  0.99400 16.28800 22.56100
N  -1.56800 15.64700 27.19000
C  -1.54800 14.72600 26.14100
C  -1.76900 13.38700 26.70400
C  -1.90400 13.58700 28.08900
C  -1.74300 14.98100 28.32100
C  -2.09100 12.20700 25.92200
C  -2.17900 12.90700 29.29400
O  -2.30100 11.68600 29.51100
C  -2.22200 13.98900 30.43200
C  -1.11500 13.58500 31.42000
O  0.04800 13.97100 31.34000
O  -1.55200 12.93000 32.52900
C  -0.62300 12.55000 33.64500
H  -2.15500 21.02000 30.15800
H  -1.52500 20.50300 23.77900
H  -1.66000 14.21000 24.02800
H  -3.20700 16.70700 32.06700
H  -1.99300 19.39900 31.94100
H  -4.55900 18.49000 32.47800
H  -4.52000 19.19900 30.78000
H  -3.96600 20.12100 32.11000
H  -0.79500 17.82900 32.98200
H  -0.37900 16.35400 32.12400
H  -1.82700 15.04400 33.63900
H  -2.40600 16.63500 34.39000
H  -2.67400 23.75700 28.31000
H  -0.89300 23.69800 28.78600
H  -2.18400 22.99600 29.63900
H  -1.93700 24.70100 26.36600
H  -0.86900 25.03000 24.96800
H  -0.29000 24.41000 26.66300
H  -1.12200 18.64900 22.11600
H  -2.56700 16.12700 22.43800
H  -3.59800 18.96200 23.23700
H  -3.85000 17.63400 22.14500
H  -3.22300 19.17100 21.44500
H  -0.57200 16.34100 21.00400
H  -0.53500 14.90100 21.99700
H  1.02500 16.75500 23.54500
H  1.49200 16.92000 21.82500
H  1.60700 15.39900 22.71000
H  -2.22800 11.46700 26.71000
H  -1.34300 11.84700 25.21600
H  -3.05400 12.41700 25.45700
H  -3.22400 13.93200 30.85600
H  -0.01100 11.68700 33.38400
H  -1.14400 12.35800 34.58400
H  0.06500 13.39000 33.73600
Mg 41.78800 41.27200 26.53000
C  41.16500 43.82400 29.09800
C  42.47300 39.08800 29.13400
C  42.72700 39.23500 24.34200
C  41.28200 43.82100 24.11100
N  42.03200 41.47400 28.82300
C  41.65900 42.62000 29.61500
C  41.54800 42.11300 31.11600
C  41.94900 40.63600 31.12300
C  42.16000 40.37500 29.62700
C  43.29900 40.25900 31.85300
C  40.04500 42.27900 31.70500
C  39.91400 42.98800 33.00000
H  39.18200 42.37300 34.20400
N  42.54500 39.41600 26.66800
C  42.62700 38.60300 27.83400
C  42.90300 37.24400 27.40700
C  43.11500 37.27600 26.00500
C  42.78800 38.67500 25.60500
C  43.32300 36.22300 28.46100
C  43.58700 36.23700 25.05100
O  43.85400 36.44400 23.86000
C  43.61700 34.74000 25.60300
N  42.04100 41.56800 24.50800
C  42.33200 40.47200 23.80200
C  42.08900 40.66000 22.28200
C  41.50400 42.16600 22.17200
C  41.70100 42.56500 23.66800
C  43.27200 40.36900 21.30700
C  40.08700 42.24600 21.62600
C  39.02400 41.54300 22.44800
N  41.35500 43.35800 26.52400
C  41.20900 44.23200 25.43700
C  40.75900 45.51200 25.93400
C  40.76200 45.37400 27.36900
C  41.07900 44.05100 27.66400
C  40.27500 46.67900 25.06900
C  40.53800 46.16400 28.59100
O  40.39400 47.36400 28.70700
C  40.76500 45.16700 29.73700
C  41.82800 45.68700 30.62500
O  43.01400 45.92100 30.36100
O  41.26100 45.98800 31.84400
C  42.15400 46.73100 32.74100
H  42.45200 38.39700 29.97900
H  42.81200 38.50800 23.53200
H  40.87900 44.44900 23.31300
H  42.28500 42.80800 31.52000
H  41.13200 40.05800 31.55600
H  43.54000 41.06400 32.54700
H  44.09800 40.15000 31.12000
H  43.07600 39.35500 32.41900
H  39.43100 41.37900 31.69900
H  39.50800 42.85500 30.95100
H  39.44500 43.95500 32.81500
H  40.89200 43.27600 33.38700
H  44.36900 35.95500 28.31100
H  42.80300 35.28200 28.27900
H  43.20900 36.51100 29.50600
H  44.53000 34.59300 26.18000
H  43.63100 34.05700 24.75300
H  42.69500 34.46900 26.11700
H  41.19700 40.05500 22.12200
H  42.25400 42.81800 21.72500
H  43.48900 41.25500 20.71000
H  43.08700 39.51200 20.65900
H  44.16300 40.04100 21.84200
H  40.00200 41.72200 20.67400
H  39.75100 43.27300 21.48100
H  39.32900 41.15300 23.41900
H  38.71800 40.68600 21.84700
H  38.17100 42.21300 22.55200
H  40.54400 46.60800 24.01500
H  40.76600 47.53600 25.53100
H  39.20500 46.87500 25.14700
H  39.83300 45.03800 30.28600
H  42.94300 47.28500 32.23200
H  42.54300 46.00200 33.45200
H  41.64300 47.49000 33.33300

