158

Mg 47.56000 34.32600 28.22400
C  45.76500 32.48300 30.47900
C  47.49600 37.02800 30.33700
C  48.59600 36.46600 25.62400
C  47.11000 31.82000 25.82700
N  46.61400 34.74500 30.04100
C  46.06300 33.75700 30.89500
C  45.98500 34.29400 32.30100
C  46.12800 35.86300 32.01900
C  46.83300 35.87400 30.74200
C  44.70900 36.55900 31.95700
C  47.04900 33.67400 33.32700
C  47.88200 34.59700 34.18300
H  47.06800 35.34600 35.31400
N  48.17200 36.38000 28.07100
C  48.13400 37.26400 29.11800
C  48.80300 38.50400 28.77200
C  49.11100 38.37600 27.38700
C  48.61400 37.03700 26.93800
C  49.06700 39.71100 29.80500
C  49.74300 39.40100 26.50500
O  50.04800 39.16200 25.35400
C  50.11900 40.70200 27.00700
N  47.67400 34.23300 25.99100
C  48.17300 35.17500 25.18600
C  48.36600 34.74400 23.73700
C  48.28100 33.16900 23.91400
C  47.66200 33.02800 25.36600
C  47.27200 35.29400 22.82200
C  49.57600 32.37000 23.78800
C  49.50400 31.03700 23.02300
N  46.69400 32.42100 28.11900
C  46.60500 31.54200 27.10100
C  45.89000 30.35200 27.53300
C  45.50200 30.68000 28.88400
C  46.09700 31.92000 29.14200
C  45.46500 29.23500 26.64700
C  44.84200 30.22800 30.13300
O  44.34800 29.18400 30.41100
C  44.82600 31.50400 31.14600
C  45.18300 31.14400 32.57900
O  46.08300 30.42800 32.96700
O  44.20500 31.68500 33.42700
C  44.21000 31.27600 34.82000
H  47.54100 37.87500 31.02500
H  49.14200 37.00500 24.84700
H  47.13200 30.94600 25.17200
H  45.03500 33.96500 32.72200
H  46.83800 36.32100 32.70800
H  44.85200 37.31700 31.18700
H  44.46500 37.01600 32.91700
H  43.92600 35.87600 31.62900
H  47.73400 33.05200 32.75100
H  46.53200 33.00700 34.01700
H  48.58500 35.15100 33.56000
H  48.59500 34.03900 34.79100
H  48.74400 40.69700 29.46900
H  50.14300 39.85800 29.90400
H  48.67100 39.49300 30.79700
H  50.82700 40.55000 27.82200
H  49.26900 41.26600 27.39000
H  50.59500 41.29000 26.22200
H  49.32500 35.11700 23.37600
H  47.58900 32.77600 23.17000
H  46.71000 36.05400 23.36600
H  46.54600 34.62400 22.36200
H  47.63800 35.71600 21.88700
H  49.86200 32.16400 24.82000
H  50.37000 32.98300 23.36400
H  50.03100 31.10100 22.07100
H  48.45200 30.79100 22.87700
H  49.83300 30.23800 23.68800
H  45.56900 28.27100 27.14400
H  45.93500 29.28000 25.66400
H  44.43300 29.32300 26.30700
H  43.86500 32.01800 31.12300
H  43.77300 32.14100 35.31700
H  45.19500 31.23000 35.28500
H  43.72100 30.36400 35.16400
Mg 26.78300 51.89600 25.45600
C  24.23000 52.36300 27.91400
C  28.85100 51.08100 28.06300
C  29.26700 51.39000 23.18400
C  24.58700 52.95300 23.05100
N  26.52400 51.68700 27.79800
C  25.39000 51.82500 28.54600
C  25.59500 51.57100 30.02300
C  27.19500 51.45700 30.07100
C  27.60200 51.48000 28.57400
C  27.82100 52.54500 31.00000
C  24.86800 50.30200 30.52100
C  24.31800 50.38000 31.91200
H  24.85900 49.36100 32.92800
N  28.69900 51.20900 25.57600
C  29.39600 51.04900 26.78400
C  30.76600 50.56900 26.43300
C  30.88900 50.53700 25.03600
C  29.59000 51.05100 24.52300
C  31.68500 50.13300 27.50000
C  32.02200 49.95500 24.18000
O  31.85400 49.81800 22.97500
C  33.32700 49.80300 24.88600
N  26.90200 52.21600 23.47800
C  28.00400 51.86200 22.69600
C  27.68300 51.89300 21.19000
C  26.16800 52.17900 21.16100
C  25.83400 52.46600 22.64300
C  28.52400 53.00400 20.44600
C  25.30100 51.04600 20.54700
C  23.92000 51.51300 20.06300
N  24.82500 52.53500 25.46700
C  24.08400 52.95400 24.38700
C  22.80000 53.32200 24.82900
C  22.80700 53.14200 26.24300
C  24.06700 52.62400 26.56300
C  21.65100 53.79800 24.05300
C  21.99000 53.16200 27.41300
O  20.82700 53.53500 27.56700
C  22.90100 52.73900 28.56800
C  23.15600 53.86500 29.44300
O  23.88700 54.80600 29.20300
O  22.46700 53.70400 30.68700
C  22.70200 54.80200 31.63700
H  29.53000 50.80000 28.87100
H  30.07400 51.32000 22.45200
H  23.85400 53.21900 22.28700
H  25.36700 52.37500 30.72200
H  27.61300 50.52100 30.44300
H  27.08500 52.79900 31.76200
H  28.06200 53.39200 30.35700
H  28.71500 52.19900 31.51900
H  25.57100 49.46900 30.54000
H  24.05200 50.12900 29.81900
H  23.25500 50.14100 31.92700
H  24.36700 51.37300 32.35700
H  31.91400 49.07900 27.34200
H  31.31700 50.33800 28.50500
H  32.63600 50.64400 27.64700
H  33.43900 50.60500 25.61500
H  34.03600 50.09100 24.11000
H  33.47400 48.77700 25.22300
H  27.80400 50.95600 20.64600
H  25.90600 53.08600 20.61600
H  27.86200 53.77700 20.05500
H  29.18000 52.61900 19.66600
H  29.13300 53.49900 21.20300
H  25.09300 50.30700 21.32100
H  25.92400 50.56400 19.79300
H  23.67300 50.98300 19.14300
H  23.85200 52.58900 19.90400
H  23.28900 51.26600 20.91700
H  21.92600 53.71100 23.00200
H  21.39800 54.84400 24.22600
H  20.66400 53.39000 24.26800
H  22.45800 51.90100 29.10600
H  22.58800 55.75900 31.12800
H  23.71800 54.85300 32.02800
H  21.98000 54.74800 32.45200

