158

Mg 41.99200 40.71500 27.49700
C  41.08000 43.27400 29.86900
C  43.22700 38.93700 30.07900
C  43.02200 38.61500 25.27500
C  41.49800 43.13600 24.96400
N  42.18800 41.16000 29.73200
C  41.53900 42.07700 30.47100
C  41.59700 41.78900 31.98000
C  42.45400 40.42300 32.01000
C  42.65800 40.18600 30.52000
C  43.78400 40.40500 32.78400
C  40.18300 41.66200 32.64200
C  39.89300 42.52900 33.80800
H  39.22400 41.88200 34.98100
N  42.75600 38.91600 27.65500
C  43.28200 38.32500 28.80100
C  43.74400 37.01600 28.50200
C  43.67100 36.85200 27.07400
C  43.17200 38.15200 26.59600
C  44.24600 36.03500 29.60100
C  44.17900 35.72100 26.21700
O  44.14600 35.63700 25.03600
C  44.84800 34.65600 26.85900
N  42.28400 40.91000 25.42400
C  42.67800 39.84600 24.70800
C  42.66600 40.06000 23.16000
C  42.07500 41.47400 23.05300
C  41.97600 41.91400 24.52500
C  43.98200 39.83400 22.45200
C  40.67900 41.45400 22.33700
C  39.38800 41.06300 23.08100
N  41.43000 42.81400 27.37300
C  41.23100 43.63400 26.28300
C  41.01000 45.04100 26.75300
C  40.83200 44.90000 28.14100
C  41.13800 43.54200 28.46200
C  40.88900 46.16100 25.78800
C  40.38400 45.59200 29.39800
O  40.12100 46.73500 29.63600
C  40.50500 44.53500 30.56100
C  41.51000 45.10000 31.49800
O  42.72200 45.06000 31.45500
O  40.79500 45.70200 32.47200
C  41.52500 46.08200 33.67900
H  43.72600 38.31400 30.82500
H  43.20600 37.90500 24.46500
H  41.19600 43.73200 24.10000
H  42.15100 42.55000 32.53000
H  41.85200 39.56100 32.29800
H  43.91500 41.40200 33.20700
H  44.69200 40.14900 32.23800
H  43.80000 39.72500 33.63600
H  39.99200 40.65500 33.01200
H  39.50000 41.92900 31.83500
H  39.20800 43.29800 33.45200
H  40.74200 43.07700 34.21900
H  45.33100 35.95000 29.54000
H  43.94600 35.00300 29.42000
H  43.89900 36.26900 30.60800
H  44.04800 34.19700 27.44000
H  45.67700 35.11600 27.39600
H  45.35000 34.00300 26.14500
H  41.97900 39.27500 22.84500
H  42.63500 42.19600 22.45800
H  44.87900 39.72000 23.05900
H  44.19100 40.62800 21.73500
H  43.96000 38.89600 21.89800
H  40.72700 40.65200 21.60100
H  40.47100 42.31300 21.69800
H  39.57400 40.65800 24.07600
H  38.77800 40.25300 22.68100
H  38.87200 42.00700 23.25300
H  39.99400 46.07700 25.17100
H  41.73300 46.01200 25.11500
H  40.91000 47.21600 26.06300
H  39.54000 44.37500 31.04300
H  41.78200 45.20900 34.28000
H  40.91700 46.72500 34.31600
H  42.47300 46.60800 33.57000
Mg 36.06000 48.41300 25.96800
C  35.89500 46.63000 29.07300
C  35.37900 51.25100 27.56800
C  35.79200 49.87800 23.00800
C  36.74000 45.40200 24.44200
N  35.71200 48.87600 28.11700
C  35.75300 48.09200 29.20000
C  35.55700 48.85400 30.54200
C  35.27300 50.32800 30.00500
C  35.40900 50.18100 28.46500
C  33.83300 50.76800 30.57400
C  36.83900 48.75900 31.46200
C  36.58600 48.08100 32.81400
H  35.51200 48.67900 33.84800
N  35.69700 50.28000 25.35700
C  35.47700 51.33800 26.19600
C  35.24300 52.50900 25.46400
C  35.18400 52.11000 24.08700
C  35.53400 50.67000 24.09800
C  35.06900 53.95100 26.17500
C  34.88900 52.91800 22.86800
O  34.84100 52.47000 21.73900
C  34.73100 54.33000 23.06800
N  36.15200 47.72700 24.03800
C  36.01800 48.51800 22.94200
C  36.42600 47.80900 21.66700
C  36.96200 46.44700 22.18000
C  36.63300 46.54200 23.63800
C  35.23700 47.74400 20.67100
C  38.49100 46.23900 22.00400
C  38.80800 45.06600 21.09600
N  36.39100 46.43200 26.57000
C  36.66100 45.28100 25.83300
C  36.78400 44.16600 26.71900
C  36.47100 44.68500 27.99000
C  36.17300 46.00100 27.82400
C  37.17700 42.76800 26.38300
C  36.48700 44.27400 29.38800
O  36.77100 43.27400 29.96000
C  35.99400 45.59400 30.16200
C  34.65900 45.29400 30.69000
O  33.75900 44.78300 30.01100
O  34.68000 45.38100 32.09300
C  33.52900 44.78700 32.81100
H  35.07700 52.16600 28.08200
H  35.68900 50.31900 22.01400
H  37.06500 44.46300 23.98800
H  34.81100 48.29300 31.10500
H  36.07800 50.97800 30.34900
H  33.87100 51.81100 30.89200
H  33.43900 50.10400 31.34300
H  33.13200 50.68800 29.74300
H  37.22300 49.76100 31.65400
H  37.53400 48.13300 30.90200
H  37.54500 48.03900 33.33100
H  36.44900 47.00500 32.70800
H  35.42600 54.84000 25.65500
H  35.54500 53.95600 27.15500
H  34.03100 54.25700 26.31400
H  34.67200 54.78900 22.08100
H  35.61200 54.72300 23.57500
H  33.79600 54.52600 23.59300
H  37.25200 48.30900 21.16200
H  36.30700 45.67500 21.77600
H  34.32200 47.74300 21.26400
H  35.30600 46.83800 20.06900
H  35.25800 48.54300 19.93000
H  38.86000 45.97900 22.99600
H  39.02100 47.14700 21.71500
H  38.02400 44.31500 20.99400
H  39.67600 44.60400 21.56700
H  39.17600 45.34300 20.10800
H  36.91900 42.31600 25.42500
H  36.84500 42.15100 27.21900
H  38.26600 42.73000 26.40300
H  36.65500 45.85100 30.98900
H  33.15300 43.94600 32.22900
H  32.69300 45.47700 32.93400
H  33.84100 44.39600 33.77900

