158

Mg 30.51100 57.98700 40.45500
C  27.65700 55.99900 39.46400
C  32.51000 55.60000 39.12500
C  33.01000 60.04400 40.72500
C  28.19500 60.46300 41.30400
N  30.13700 56.03700 39.48800
C  28.94800 55.44500 39.19700
C  29.13600 54.03600 38.56500
C  30.70900 53.92400 38.49400
C  31.18400 55.25100 39.15400
C  31.35200 52.66700 39.20300
C  28.52300 53.79000 37.19400
C  28.68100 54.89500 36.12300
H  27.43000 55.38000 35.33000
N  32.53000 57.82100 40.04400
C  33.16700 56.76800 39.49300
C  34.59000 57.05100 39.36900
C  34.81900 58.30200 39.97700
C  33.43500 58.82600 40.26600
C  35.52600 56.07600 38.77500
C  36.14600 58.99700 40.10300
O  37.20500 58.42000 39.81700
C  36.15100 60.43100 40.63000
N  30.60000 59.97000 40.80200
C  31.74600 60.60700 41.01900
C  31.41800 62.06400 41.44500
C  29.92200 62.06500 41.88600
C  29.54100 60.71200 41.28800
C  32.38800 62.59100 42.43000
C  29.07800 63.21900 41.18900
C  27.98500 63.89200 42.12900
N  28.33900 58.28200 40.44000
C  27.55700 59.29100 40.82300
C  26.14700 59.05100 40.60600
C  26.15800 57.69100 40.12500
C  27.49300 57.32300 39.98700
C  25.07600 60.05600 40.85000
C  25.23300 56.59900 39.66300
O  24.05600 56.41700 39.51600
C  26.23500 55.45200 39.19800
C  25.95200 54.16200 39.90100
O  26.50000 53.74900 40.89300
O  24.84200 53.58600 39.38700
C  24.36600 52.37100 40.09300
H  33.22500 54.87600 38.72800
H  33.84800 60.68400 41.01000
H  27.46600 61.24300 41.53200
H  28.66800 53.29300 39.21000
H  31.00600 54.05800 37.45300
H  32.08700 52.96600 39.95100
H  31.74100 51.97000 38.46200
H  30.59200 52.10400 39.74400
H  27.51000 53.42600 37.36600
H  29.11300 52.94600 36.83800
H  29.52300 54.60400 35.49500
H  29.02100 55.84700 36.53000
H  36.35400 56.56300 38.25900
H  35.10600 55.50800 37.94500
H  36.01600 55.37600 39.45200
H  35.64100 61.10800 39.94400
H  37.20000 60.71800 40.70100
H  35.83600 60.46200 41.67300
H  31.58400 62.50700 40.46300
H  29.75000 62.24400 42.94700
H  33.07300 61.82300 42.78900
H  31.91100 62.98300 43.32800
H  32.98800 63.40400 42.02200
H  28.51200 62.97400 40.29000
H  29.76300 63.98900 40.83400
H  27.22800 64.42500 41.55400
H  28.41700 64.64400 42.79000
H  27.61400 63.14800 42.83300
H  25.26400 60.80600 41.61800
H  24.11900 59.54400 40.95700
H  24.90000 60.50800 39.87400
H  26.09600 55.12300 38.16800
H  24.39000 51.43200 39.53900
H  23.30800 52.59900 40.22300
H  24.57600 52.14400 41.13900
Mg 5.33300 54.42400 41.20600
C  4.98300 50.87200 41.04500
C  8.52400 54.12200 40.29300
C  5.41400 57.79600 41.00700
C  2.01700 54.60800 42.19300
N  6.47400 52.64600 40.46300
C  6.26200 51.31000 40.61600
C  7.50400 50.50900 40.42500
C  8.64100 51.56600 40.42600
C  7.83600 52.85200 40.42800
C  9.71800 51.44400 41.55900
C  7.62500 49.50900 39.32200
C  6.97600 49.94700 38.01900
H  7.91700 50.37100 36.97100
N  6.73300 55.86300 40.65800
C  8.03800 55.48700 40.39200
C  8.75700 56.65900 40.02400
C  7.89700 57.76100 40.22400
C  6.62400 57.18400 40.64200
C  10.18700 56.62600 39.48600
C  8.19000 59.28400 40.08700
O  9.28200 59.81300 39.84100
C  7.04700 60.23400 40.00700
N  3.93300 55.99500 41.63900
C  4.23000 57.29800 41.58000
C  3.06700 58.23200 41.83000
C  1.99000 57.21400 42.35500
C  2.63000 55.86400 42.15400
C  3.40300 59.47200 42.72200
C  0.58300 57.32500 41.70000
C  -0.05300 58.72800 41.84500
N  3.73800 53.10300 41.37900
C  2.45100 53.32800 41.87800
C  1.75400 52.05700 42.12000
C  2.68200 51.05100 41.81500
C  3.87600 51.74500 41.32700
C  0.44900 51.90700 42.89200
C  3.03700 49.72700 41.98200
O  2.38400 48.92500 42.60400
C  4.49300 49.52700 41.36100
C  4.42400 48.55600 40.34600
O  4.06500 48.82600 39.19700
O  4.79100 47.28800 40.78100
C  4.83800 46.24100 39.71500
H  9.56300 54.08800 39.95900
H  5.33800 58.88500 41.01600
H  0.97900 54.68900 42.52300
H  7.63400 49.94300 41.34800
H  9.28200 51.68000 39.55200
H  9.78300 52.34600 42.16600
H  10.62400 51.34100 40.96100
H  9.54900 50.58400 42.20800
H  7.30900 48.52400 39.66400
H  8.69500 49.31700 39.23900
H  6.23300 50.72900 38.17300
H  6.36900 49.11100 37.67200
H  10.12800 56.51400 38.40300
H  10.69200 55.71400 39.80300
H  10.75700 57.50500 39.78800
H  6.21100 59.81700 39.44400
H  7.25100 61.06800 39.33600
H  6.99300 60.57800 41.04000
H  2.63600 58.52600 40.87300
H  1.94900 57.47100 43.41400
H  3.10400 60.36500 42.17300
H  4.45000 59.58000 43.00700
H  2.83200 59.46500 43.65000
H  -0.18100 56.63000 42.04700
H  0.69600 57.27800 40.61700
H  -0.90800 58.65500 42.51700
H  -0.34300 59.13900 40.87800
H  0.55700 59.50600 42.30600
H  -0.22100 52.72500 42.62800
H  0.60100 52.07700 43.95800
H  0.08800 50.88100 42.82000
H  5.15600 49.21400 42.16700
H  5.81100 46.27300 39.22500
H  4.21700 46.55900 38.87800
H  4.51200 45.27900 40.10900

