158

Mg 47.75500 44.37600 42.59400
C  44.32000 43.99200 42.73500
C  48.16200 40.91200 42.38700
C  50.86100 44.88200 41.20300
C  47.08800 47.83100 41.81000
N  46.38200 42.63400 42.60300
C  44.98600 42.79300 42.78900
C  44.34400 41.32100 42.92000
C  45.60400 40.37400 42.96900
C  46.77500 41.29500 42.67400
C  45.72200 39.63400 44.30900
C  43.32900 40.85300 41.79000
C  43.71000 41.33200 40.39900
H  43.44000 40.36600 39.24700
N  49.36000 43.06500 41.92700
C  49.32100 41.69900 42.05600
C  50.60600 41.14000 41.71700
C  51.43200 42.28200 41.22900
C  50.55500 43.49100 41.43600
C  50.95900 39.69800 41.64500
C  52.78100 42.11400 40.56200
O  53.33800 41.02500 40.55800
C  53.47200 43.37800 40.07200
N  48.92700 46.16500 41.75200
C  50.18100 46.05800 41.44900
C  50.78500 47.49300 41.28100
C  49.56400 48.40300 41.22400
C  48.47500 47.47400 41.59200
C  51.85400 48.00800 42.29100
C  49.33600 49.08600 39.86900
C  48.89900 50.60500 39.90800
N  46.14700 45.74600 42.57200
C  46.01800 47.06600 42.17700
C  44.64100 47.49400 42.32500
C  43.90600 46.34800 42.57200
C  44.89700 45.31300 42.53800
C  44.07300 48.83600 41.94200
C  42.52800 45.74600 42.75900
O  41.42900 46.31500 42.78200
C  42.82100 44.18800 43.01600
C  42.55500 43.84600 44.42300
O  42.80400 44.49400 45.39200
O  42.04900 42.52100 44.55100
C  42.02600 41.85500 45.80600
H  48.26900 39.83000 42.49400
H  51.90200 45.18300 41.06900
H  46.86000 48.89700 41.74900
H  43.85000 41.32300 43.89200
H  45.58000 39.67700 42.13100
H  44.89600 39.92100 44.96000
H  46.62300 39.87400 44.87300
H  45.77600 38.58000 44.03600
H  42.29200 41.08600 42.03400
H  43.44700 39.77100 41.73700
H  44.77300 41.56800 40.35400
H  43.11200 42.19600 40.10700
H  51.11500 39.43900 40.59800
H  50.12900 39.09600 42.01400
H  51.84300 39.42000 42.21900
H  52.82800 43.91300 39.37300
H  54.29600 43.11100 39.41000
H  53.84600 43.98500 40.89600
H  51.29400 47.42900 40.31900
H  49.63000 49.12900 42.03500
H  51.51500 47.58800 43.23800
H  51.96600 49.09000 42.36800
H  52.88900 47.74700 42.07500
H  48.48200 48.56900 39.43100
H  50.18700 48.86800 39.22300
H  49.46700 51.19500 39.18900
H  49.22700 50.97000 40.88100
H  47.82100 50.69100 39.77200
H  43.16400 49.06100 42.49900
H  43.70900 48.76500 40.91800
H  44.85000 49.56800 42.16800
H  42.21800 43.50000 42.42200
H  41.61900 42.35300 46.68600
H  43.08800 41.67000 45.96600
H  41.61400 40.84800 45.74600
Mg -1.83700 34.23100 26.43600
C  -3.08900 32.54300 29.12900
C  -0.40900 36.53200 28.62900
C  -0.88700 36.03100 23.75200
C  -3.66500 31.99100 24.28400
N  -1.90100 34.53300 28.60700
C  -2.30800 33.61200 29.49200
C  -1.76300 34.01300 30.95800
C  -0.88400 35.24900 30.68700
C  -1.08400 35.49300 29.17400
C  -1.12100 36.55500 31.49300
C  -1.12200 32.79400 31.78700
C  -1.69200 32.66700 33.23900
H  -0.69000 32.62100 34.45400
N  -0.86400 36.11100 26.26400
C  -0.33900 36.88400 27.30000
C  0.34600 38.04200 26.66400
C  0.27800 37.89300 25.27700
C  -0.52600 36.66900 25.02900
C  1.03100 39.06100 27.57800
C  0.88800 38.86600 24.24900
O  0.72700 38.71900 23.05900
C  1.74800 40.00600 24.76600
N  -2.19900 34.02800 24.30100
C  -1.59700 34.90700 23.45300
C  -1.85200 34.40500 22.02300
C  -2.53300 32.99900 22.22300
C  -2.81500 32.97200 23.68100
C  -2.67200 35.55700 21.28200
C  -1.60700 31.78300 21.82600
C  -0.21100 31.64000 22.30800
N  -3.16600 32.63800 26.59200
C  -3.78200 31.80200 25.70000
C  -4.54100 30.76600 26.34700
C  -4.28000 31.08900 27.65400
C  -3.49000 32.21500 27.78700
C  -5.31100 29.64400 25.74400
C  -4.54200 30.57100 28.93700
O  -5.20100 29.57900 29.28400
C  -3.71000 31.46200 29.99000
C  -4.72400 31.95500 31.02200
O  -5.52600 32.80200 30.81800
O  -4.48900 31.11300 32.10500
C  -5.36000 31.31900 33.25000
H  0.29400 37.08300 29.25800
H  -0.34500 36.48900 22.92300
H  -4.00000 31.12100 23.71600
H  -2.65600 34.24800 31.53700
H  0.13900 35.00400 30.97400
H  -1.56900 37.33300 30.87500
H  -0.13900 36.91400 31.80200
H  -1.72200 36.25300 32.35100
H  -0.04800 32.98100 31.79500
H  -1.21300 31.88500 31.19300
H  -2.16800 31.68600 33.23300
H  -2.40400 33.44800 33.50400
H  0.59500 40.02500 27.31800
H  2.11300 39.04300 27.44900
H  0.75100 38.91400 28.62100
H  2.22500 40.48600 23.91100
H  2.55000 39.72100 25.44800
H  1.00000 40.65000 25.22800
H  -0.90400 34.32200 21.49100
H  -3.48000 32.93000 21.68800
H  -2.02600 36.03100 20.54200
H  -3.02600 36.31300 21.98200
H  -3.56400 35.27000 20.72500
H  -1.80400 31.66100 20.76100
H  -2.11600 30.94100 22.29500
H  -0.02400 32.27000 23.17700
H  0.36300 32.06800 21.48600
H  0.16500 30.62000 22.39300
H  -4.95200 29.42300 24.73900
H  -6.33700 29.97700 25.58900
H  -5.40900 28.74700 26.35600
H  -2.89400 30.88800 30.42900
H  -6.25200 30.69300 33.22600
H  -5.59500 32.38300 33.29600
H  -4.93400 31.10600 34.23000

