158

Mg 35.32200 2.46400 29.82700
C  33.09900 3.32400 32.46700
C  37.93700 2.29000 32.21400
C  37.47100 2.10900 27.28700
C  32.67400 3.09700 27.60000
N  35.53400 2.87700 32.12200
C  34.46300 3.02500 32.92300
C  34.90800 3.13300 34.41600
C  36.45300 3.03200 34.25900
C  36.69200 2.71000 32.79600
C  37.16700 4.26900 34.87600
C  34.30300 1.95000 35.31400
C  34.17400 2.13800 36.80700
H  34.86800 3.29500 37.53200
N  37.45200 2.20000 29.78700
C  38.29200 2.05900 30.85300
C  39.52900 1.73900 30.32600
C  39.49100 1.79200 28.86800
C  38.10300 2.14400 28.58800
C  40.60600 1.39700 31.23600
C  40.58800 1.71300 27.83700
O  40.41400 2.03200 26.65800
C  41.93100 1.27500 28.23600
N  35.10300 2.65400 27.75900
C  36.14700 2.37700 26.83300
C  35.68800 2.48100 25.37500
C  34.15500 2.50300 25.53500
C  33.92300 2.81300 27.01700
C  36.24600 3.70400 24.42100
C  33.30700 1.34000 24.88400
C  33.10100 0.07500 25.64400
N  33.27100 3.06700 29.96400
C  32.36200 3.28800 28.93400
C  31.15100 3.79300 29.49700
C  31.33700 3.74200 30.90700
C  32.69300 3.33400 31.12500
C  29.87200 4.21500 28.68700
C  30.79200 3.86800 32.21000
O  29.64600 4.20800 32.48700
C  31.88900 3.68300 33.28500
C  31.79400 4.93400 34.10000
O  32.23800 6.05900 33.80300
O  31.21500 4.67000 35.27800
C  30.94400 5.87000 36.10500
H  38.71300 2.18100 32.97500
H  38.17000 1.71900 26.54400
H  31.83700 3.35800 26.94900
H  34.59300 4.08800 34.83600
H  36.81700 2.15200 34.78900
H  38.07100 4.55300 34.33800
H  37.38300 4.05600 35.92300
H  36.60400 5.19900 34.80300
H  34.96200 1.11700 35.06900
H  33.30100 1.66800 34.99100
H  34.64600 1.27800 37.28300
H  33.14500 2.17000 37.16300
H  40.60900 2.14600 32.02800
H  41.61500 1.45000 30.82900
H  40.43800 0.43400 31.71900
H  41.87800 0.26200 28.63300
H  42.30200 2.04200 28.91600
H  42.45900 1.36400 27.28600
H  35.85300 1.52400 24.88100
H  33.88900 3.42700 25.02100
H  36.83000 3.18900 23.65800
H  37.03600 4.24900 24.93900
H  35.47900 4.36800 24.02300
H  33.95400 1.14900 24.02800
H  32.32200 1.70800 24.59600
H  33.37300 -0.85500 25.14600
H  32.09500 0.01700 26.06100
H  33.64300 0.07300 26.58900
H  30.18000 5.10300 28.13500
H  28.90500 4.39700 29.15800
H  29.91000 3.33300 28.04800
H  31.53200 2.84600 33.88600
H  30.39400 5.54500 36.98800
H  30.34000 6.66800 35.67300
H  31.83400 6.41600 36.41700
Mg 42.87600 41.96300 26.22800
C  41.91500 44.40200 28.81400
C  43.83600 39.87200 28.53200
C  43.74500 40.06800 23.67500
C  41.86800 44.59600 23.92400
N  42.87000 42.24100 28.33000
C  42.51000 43.18300 29.24800
C  42.76100 42.74000 30.69400
C  43.58300 41.34700 30.53200
C  43.44400 41.09600 29.06500
C  45.15400 41.38200 30.92400
C  41.42800 42.49900 31.50300
C  41.34000 43.02700 32.92100
H  42.48500 42.84700 33.85100
N  43.76100 40.25300 26.09400
C  44.08800 39.42400 27.16600
C  44.61400 38.17400 26.62200
C  44.66900 38.28600 25.20500
C  43.99500 39.55600 24.93200
C  45.08000 37.03900 27.48000
C  45.16900 37.25100 24.25000
O  44.84100 37.37600 23.05500
C  45.96100 36.06700 24.59300
N  42.93300 42.39600 24.15400
C  43.26000 41.35400 23.31600
C  43.16100 41.76000 21.82800
C  42.28000 43.02800 21.92400
C  42.38800 43.39300 23.38900
C  44.48900 41.82900 21.02500
C  40.83200 42.93500 21.42800
C  39.81300 42.00600 22.11100
N  41.94100 44.03200 26.30200
C  41.63200 44.91600 25.25500
C  41.09000 46.18600 25.85200
C  41.12900 45.95800 27.21400
C  41.68600 44.67500 27.43600
C  40.77600 47.46800 25.10000
C  40.88700 46.59200 28.50100
O  40.59600 47.74900 28.73700
C  41.28800 45.57800 29.56000
C  42.05000 46.17500 30.68300
O  43.26300 46.44800 30.68700
O  41.26500 46.38000 31.80500
C  41.86800 46.72400 33.13700
H  43.89600 38.99100 29.17300
H  44.04400 39.45800 22.82000
H  41.62900 45.43100 23.26300
H  43.36400 43.45100 31.25900
H  43.22800 40.42000 30.98400
H  45.31600 40.78500 31.82200
H  45.49500 42.40500 31.08000
H  45.73500 41.07100 30.05600
H  41.27200 41.42100 31.52500
H  40.48800 42.83000 31.06100
H  40.48900 42.71000 33.52400
H  41.19600 44.10600 32.86200
H  44.80600 36.01700 27.21700
H  44.62500 37.20300 28.45700
H  46.16700 37.08600 27.55600
H  46.52200 36.17000 25.52200
H  46.76200 35.98800 23.85900
H  45.50900 35.07700 24.52600
H  42.65300 40.86800 21.46100
H  42.70200 43.80100 21.28300
H  44.59800 42.87100 20.72400
H  44.59600 41.19400 20.14600
H  45.37400 41.52400 21.58200
H  40.92600 42.64400 20.38100
H  40.46800 43.95600 21.30800
H  40.40400 41.21700 22.57500
H  39.11500 41.57700 21.39200
H  39.27100 42.60700 22.84100
H  40.39100 47.19100 24.11800
H  41.74100 47.90800 24.84800
H  40.19300 48.23500 25.61000
H  40.37700 45.21300 30.03300
H  41.81000 45.84100 33.77300
H  41.35900 47.55300 33.62800
H  42.94200 46.88400 33.04000

