158

Mg 16.39000 -2.29100 27.67000
C  15.33600 -0.13500 30.28100
C  18.53700 -3.80100 29.81100
C  17.82700 -3.63800 25.07700
C  14.58700 -0.08000 25.52700
N  16.78000 -2.03300 29.87900
C  16.21500 -1.18000 30.69200
C  16.66900 -1.41500 32.14100
C  17.74800 -2.49300 32.00400
C  17.66100 -2.83700 30.50200
C  19.16200 -2.19000 32.46500
C  15.52900 -1.82500 33.10300
C  15.49600 -0.88100 34.37900
H  16.84900 -0.36700 35.05800
N  17.90100 -3.69300 27.46300
C  18.62500 -4.22600 28.46600
C  19.52900 -5.31600 27.92700
C  19.32300 -5.33400 26.46300
C  18.28400 -4.22400 26.23800
C  20.42700 -6.19800 28.75100
C  19.86900 -6.14400 25.32100
O  19.55500 -5.94800 24.14800
C  20.73900 -7.35100 25.77900
N  16.10400 -2.02900 25.56600
C  16.93400 -2.65400 24.72400
C  16.93900 -2.01200 23.31500
C  15.80100 -1.02300 23.44300
C  15.43500 -1.04700 24.90900
C  18.30300 -1.32800 22.90600
C  14.51300 -1.12300 22.54100
C  14.14900 0.01500 21.55700
N  15.06800 -0.52000 27.81500
C  14.33600 0.15200 26.82900
C  13.56400 1.19200 27.44400
C  14.01400 1.16600 28.79400
C  14.91200 0.10600 28.96000
C  12.51700 2.04500 26.82200
C  13.75900 1.75100 30.10300
O  12.92100 2.54300 30.48500
C  14.71700 0.96100 31.10600
C  15.72800 1.92700 31.59300
O  16.56300 2.51500 30.89400
O  15.44900 2.32900 32.89900
C  16.22400 3.50600 33.31200
H  19.30300 -4.17700 30.49300
H  18.31100 -4.14200 24.23800
H  13.99200 0.44300 24.77500
H  17.09600 -0.47000 32.47700
H  17.35600 -3.42600 32.40900
H  19.98400 -2.04900 31.76400
H  19.28700 -2.96000 33.22700
H  19.18900 -1.25500 33.02500
H  15.60700 -2.87300 33.39200
H  14.54300 -1.66500 32.66700
H  14.91200 -1.43000 35.11700
H  14.80200 -0.07200 34.15400
H  20.07200 -7.22600 28.82700
H  20.61400 -5.78500 29.74200
H  21.40300 -6.15400 28.26800
H  20.15300 -7.86200 26.54300
H  21.61500 -6.77500 26.07800
H  20.93200 -7.92700 24.87400
H  16.65900 -2.73700 22.55000
H  16.20000 -0.00900 23.40800
H  18.94400 -1.54500 23.76100
H  18.27400 -0.24200 22.80800
H  18.68000 -1.90400 22.06100
H  13.55700 -1.26200 23.04600
H  14.62100 -2.01000 21.91700
H  13.84100 -0.41100 20.60100
H  15.12400 0.47400 21.39300
H  13.47500 0.76800 21.96400
H  12.07800 2.83200 27.43600
H  11.66400 1.42400 26.54800
H  12.89800 2.58900 25.95800
H  14.19900 0.42900 31.90400
H  16.14200 4.39400 32.68500
H  17.28400 3.25500 33.34200
H  15.89100 3.86700 34.28500
Mg 41.19000 9.53600 30.00800
C  43.05000 11.04500 32.56500
C  39.07300 8.13300 32.36900
C  39.36700 8.32100 27.55500
C  43.55400 10.78000 27.74100
N  41.02400 9.67500 32.24200
C  41.85100 10.38300 33.02800
C  41.44200 10.16900 34.50200
C  40.43000 8.96500 34.40500
C  40.13400 8.93800 32.91400
C  40.90500 7.60900 34.92900
C  41.03300 11.60700 35.04800
C  41.81400 12.20200 36.17100
H  41.05500 12.76500 37.38700
N  39.42700 8.42100 29.95700
C  38.73200 7.92200 31.01200
C  37.69900 7.12200 30.52400
C  37.55300 7.38600 29.12500
C  38.82800 8.03400 28.81100
C  36.89800 6.30600 31.48000
C  36.46200 6.91000 28.19900
O  36.60800 7.09900 26.97900
C  35.18500 6.26000 28.70700
N  41.49700 9.49900 27.99500
C  40.59300 8.86000 27.20600
C  41.14300 8.77100 25.80500
C  42.40900 9.69900 25.75000
C  42.45200 10.07200 27.18800
C  41.40800 7.31600 25.29000
C  42.23800 10.95400 24.93000
C  41.45800 12.15800 25.49000
N  42.98300 10.62000 30.06400
C  43.91200 11.02400 29.11200
C  44.96200 11.74300 29.72600
C  44.66800 11.78000 31.10800
C  43.45500 11.06400 31.24800
C  46.08900 12.42900 28.97500
C  45.11900 12.22700 32.43000
O  46.19400 12.75300 32.76000
C  44.05500 11.75200 33.44300
C  44.93700 10.99600 34.36600
O  45.41200 9.87700 34.21400
O  45.20200 11.81700 35.47700
C  45.79500 11.10900 36.66800
H  38.58500 7.53500 33.14200
H  38.86800 7.89600 26.68100
H  44.27100 11.27500 27.08300
H  42.32900 9.81000 35.02500
H  39.52800 9.23300 34.95600
H  40.12500 7.16600 35.54900
H  41.82000 7.63200 35.52100
H  40.98900 6.89000 34.11500
H  39.97700 11.58600 35.31700
H  41.08300 12.40500 34.30700
H  42.32000 13.08400 35.77700
H  42.62300 11.54600 36.49100
H  36.07700 6.86600 31.92800
H  37.46400 5.89900 32.31800
H  36.43900 5.43200 31.01800
H  34.24200 6.54000 28.23600
H  34.86100 6.55600 29.70500
H  35.30700 5.17700 28.70400
H  40.41500 9.18200 25.10700
H  43.33600 9.15700 25.56300
H  40.86700 6.97000 24.40900
H  41.34900 6.58600 26.09700
H  42.43200 7.25500 24.92100
H  41.85500 10.79000 23.92300
H  43.28700 11.22100 24.80100
H  41.03600 12.67300 24.62700
H  42.10100 12.89100 25.97800
H  40.76400 11.73200 26.21400
H  45.67500 12.78400 28.03100
H  46.92300 11.73100 28.90700
H  46.35300 13.30300 29.57000
H  43.53700 12.64500 33.79100
H  45.01200 10.49900 37.11900
H  46.12800 11.86900 37.37500
H  46.62900 10.50100 36.31900

