158

Mg 6.36200 54.09500 41.68400
C  5.90100 50.54100 41.38800
C  9.44100 53.63200 40.27200
C  6.66200 57.53500 41.50100
C  3.04600 54.49200 42.36600
N  7.47700 52.31200 40.78400
C  7.12500 50.96800 40.87700
C  8.29400 50.15400 40.30900
C  9.54300 51.10500 40.57100
C  8.76200 52.44800 40.46300
C  10.30800 50.81500 41.87500
C  8.06600 49.87600 38.80400
C  7.03800 50.66400 38.06100
H  6.70600 50.18800 36.55200
N  7.85400 55.41900 41.01300
C  9.07200 54.99100 40.43900
C  9.93600 56.14500 40.30300
C  9.21400 57.26100 40.79900
C  7.87300 56.80100 41.15800
C  11.35500 56.04700 39.82700
C  9.85800 58.65200 41.20300
O  11.00700 58.90500 40.86600
C  9.10000 59.64000 42.08200
N  4.95000 55.85700 41.89000
C  5.31900 57.14400 41.82100
C  4.16000 58.08200 42.06600
C  2.91000 57.08600 42.27600
C  3.65100 55.72800 42.09700
C  4.39000 59.01500 43.21700
C  1.76600 57.14600 41.30800
C  0.67900 58.21700 41.71200
N  4.79600 52.83700 41.97500
C  3.52000 53.15200 42.30500
C  2.79900 51.95000 42.58200
C  3.65600 50.89900 42.21400
C  4.84200 51.51500 41.82400
C  1.40600 51.77600 43.03000
C  3.79700 49.46000 42.14200
O  3.04000 48.55500 42.40600
C  5.26000 49.18400 41.48000
C  5.12800 48.41700 40.21100
O  4.39900 48.77800 39.24200
O  5.91700 47.31300 40.22100
C  5.55100 46.35400 39.16300
H  10.45400 53.42300 39.92100
H  6.79200 58.61700 41.43000
H  2.02500 54.59800 42.74000
H  8.29900 49.19400 40.82700
H  10.35600 51.08700 39.84600
H  11.34300 51.15400 41.83400
H  10.12700 49.82700 42.29900
H  9.96800 51.55900 42.59500
H  7.88100 48.80700 38.69700
H  8.97700 50.06400 38.23600
H  7.37800 51.69500 37.96300
H  6.11200 50.66100 38.63500
H  11.22200 56.18800 38.75400
H  11.73400 55.02500 39.84500
H  12.04400 56.77500 40.25400
H  8.43600 59.05600 42.71900
H  8.61200 60.14100 41.24600
H  9.68800 60.21900 42.79400
H  4.00100 58.68200 41.17000
H  2.55400 57.28900 43.28600
H  3.83200 58.64400 44.07700
H  4.12500 60.01800 42.88500
H  5.45000 59.16100 43.42200
H  1.19000 56.22100 41.33000
H  2.08800 57.40700 40.30000
H  -0.28600 57.77600 41.96200
H  0.60900 59.08400 41.05400
H  1.05400 58.80800 42.54700
H  1.25700 52.62300 43.69900
H  1.23800 50.82200 43.52800
H  0.79600 51.84700 42.12900
H  5.88300 48.53400 42.09300
H  5.97100 45.38400 39.42900
H  5.83200 46.77600 38.19800
H  4.46700 46.24700 39.18000
Mg 16.94900 51.60300 26.50200
C  18.73400 50.44200 29.27400
C  14.50200 52.78700 28.58900
C  15.48300 52.73800 23.73200
C  19.69600 50.45000 24.45400
N  16.65000 51.53400 28.67100
C  17.50900 51.01200 29.61000
C  17.02300 51.35600 31.01800
C  15.52400 51.74400 30.79800
C  15.46200 51.99800 29.24700
C  14.45700 50.68200 31.37800
C  17.88200 52.48300 31.65000
C  18.16900 52.23900 33.13100
H  17.16400 51.39600 33.99800
N  15.23800 52.59600 26.21600
C  14.39800 53.05800 27.17700
C  13.40900 53.87900 26.42600
C  13.55400 53.64600 25.04700
C  14.81300 52.95700 24.92900
C  12.36000 54.65000 27.13500
C  12.64300 54.12300 23.88400
O  12.94700 53.94300 22.66200
C  11.32900 54.73100 24.01300
N  17.60400 51.72500 24.40600
C  16.77200 52.21400 23.49700
C  17.46600 52.14100 22.05200
C  18.93800 51.70000 22.35300
C  18.68100 51.19600 23.78900
C  16.74900 51.16300 21.06800
C  19.99900 52.88100 22.41000
C  21.23100 52.77700 21.49100
N  18.77700 50.57400 26.72900
C  19.78400 50.22500 25.82000
C  20.85300 49.58200 26.55900
C  20.52300 49.70500 27.88700
C  19.26000 50.25800 27.97000
C  22.19900 48.99500 25.99700
C  20.92200 49.41000 29.21000
O  21.96300 48.88100 29.62000
C  19.80800 49.93700 30.19500
C  19.33400 48.74300 31.00300
O  18.85400 47.70200 30.52500
O  19.60700 48.95700 32.33700
C  19.32300 47.82100 33.12400
H  13.73000 53.24800 29.20900
H  15.09300 52.99200 22.74400
H  20.55800 50.11200 23.87600
H  17.16700 50.48400 31.65600
H  15.25500 52.68600 31.27700
H  14.90700 49.77600 31.78200
H  13.70200 50.37100 30.65600
H  13.86100 51.11200 32.18200
H  17.44100 53.47700 31.56700
H  18.87600 52.55500 31.20900
H  18.27200 53.24200 33.54500
H  19.14900 51.81200 33.33900
H  12.27900 55.62200 26.64800
H  12.50500 54.90900 28.18400
H  11.39100 54.14900 27.13300
H  10.65400 54.11100 23.42300
H  11.35900 55.73900 23.60100
H  10.79800 54.63000 24.95900
H  17.35300 53.12400 21.59300
H  19.20900 50.81300 21.78000
H  15.83500 50.78200 21.52200
H  17.36900 50.31100 20.78900
H  16.41500 51.76100 20.22100
H  20.46800 52.80500 23.39100
H  19.45000 53.82200 22.37500
H  21.39100 53.69700 20.92900
H  21.15200 51.91100 20.83400
H  22.08000 52.69300 22.17000
H  21.90200 47.97400 25.75600
H  22.83200 48.97800 26.88400
H  22.57800 49.66100 25.22200
H  20.26300 50.64600 30.88600
H  19.89400 47.80900 34.05300
H  19.45400 46.84700 32.65400
H  18.30300 47.84500 33.50800

