158

Mg 8.57200 3.23400 27.98100
C  10.00400 1.63600 30.86100
C  6.40000 4.89300 30.27300
C  7.37600 4.77900 25.41700
C  10.48200 1.16400 25.87100
N  8.34300 3.26600 30.28900
C  9.02500 2.55300 31.20600
C  8.64700 3.00700 32.68700
C  7.23900 3.69300 32.38000
C  7.33700 3.95800 30.90200
C  6.03700 2.85100 32.75900
C  9.72200 3.86200 33.39400
C  9.30500 4.75500 34.57300
H  10.15300 4.52500 35.84900
N  7.21600 4.60000 27.83700
C  6.36600 5.15800 28.83800
C  5.54600 6.20900 28.22100
C  5.72500 6.11700 26.80600
C  6.78000 5.10200 26.63500
C  4.54100 7.07400 29.03300
C  5.07500 6.97200 25.71900
O  5.35500 6.80200 24.56100
C  3.95100 7.88000 26.06600
N  8.77300 2.99400 25.87400
C  8.28000 3.86800 25.01900
C  8.76200 3.62800 23.58700
C  9.72800 2.42400 23.81900
C  9.63100 2.13600 25.27800
C  7.73900 3.52800 22.46000
C  11.25900 2.65900 23.32700
C  12.36900 3.16200 24.30000
N  9.87700 1.62800 28.22000
C  10.63400 0.89400 27.28700
C  11.52000 0.00700 27.92800
C  11.35300 0.31200 29.28600
C  10.33100 1.21900 29.44700
C  12.42100 -0.97500 27.20500
C  11.89100 0.02100 30.61100
O  12.81600 -0.77000 30.85300
C  11.15700 0.90700 31.59700
C  10.78000 0.08400 32.73600
O  9.91600 -0.76100 32.73500
O  11.35900 0.56000 33.87600
C  10.88700 -0.03500 35.09200
H  5.75900 5.48100 30.93300
H  7.07400 5.30700 24.50900
H  10.99800 0.56700 25.11600
H  8.61900 2.10700 33.30100
H  7.20100 4.67300 32.85600
H  5.22500 3.07600 32.06800
H  5.66100 2.99200 33.77200
H  6.37600 1.84100 32.52800
H  10.00600 4.60300 32.64700
H  10.56400 3.23900 33.69400
H  8.29500 4.42700 34.81700
H  9.38700 5.79700 34.26400
H  4.41600 6.71000 30.05300
H  3.55500 7.03000 28.56900
H  4.75100 8.14300 29.02100
H  3.14600 7.27200 26.47900
H  3.61400 8.37400 25.15500
H  4.16500 8.62100 26.83700
H  9.38300 4.50800 23.41900
H  9.34200 1.59500 23.22600
H  6.78900 3.89400 22.85000
H  7.62300 2.46900 22.22600
H  7.92600 4.19100 21.61500
H  11.28300 3.40100 22.52800
H  11.50600 1.73100 22.81200
H  12.03000 3.20500 25.33500
H  12.75800 4.14700 24.04200
H  13.09300 2.35300 24.21100
H  12.84500 -0.32600 26.43900
H  11.95800 -1.78600 26.64300
H  13.21500 -1.35000 27.85100
H  11.76900 1.77800 31.83200
H  10.44000 0.78800 35.64800
H  11.62800 -0.52900 35.72200
H  10.01900 -0.69400 35.06100
Mg -8.90100 17.25900 41.69500
C  -5.41600 17.02200 41.54000
C  -8.66100 20.51900 41.01700
C  -12.18100 17.21200 41.26300
C  -9.00200 13.79500 42.11700
N  -7.17200 18.54700 41.35800
C  -5.89200 18.24000 41.20400
C  -5.05700 19.42800 40.68500
C  -6.05300 20.58700 41.06600
C  -7.42500 19.85100 41.12000
C  -5.80600 21.45500 42.39900
C  -4.67000 19.22400 39.15900
C  -3.17500 19.04800 38.83000
H  -2.78000 17.71500 38.22200
N  -10.22900 18.68400 41.29900
C  -9.94200 20.01000 41.04500
C  -11.14600 20.70200 40.73000
C  -12.24800 19.76600 40.80000
C  -11.64400 18.46500 41.10700
C  -11.22200 22.10800 40.25300
C  -13.72800 19.99800 40.51800
O  -14.15100 21.12100 40.34200
C  -14.71800 18.90900 40.36300
N  -10.38800 15.64800 41.52000
C  -11.68100 15.94900 41.50400
C  -12.48400 14.69500 41.95700
C  -11.48600 13.58100 42.18700
C  -10.18900 14.41300 41.87900
C  -13.41600 14.94900 43.20000
C  -11.48800 12.36600 41.23500
C  -12.71700 11.46800 41.39100
N  -7.45100 15.68500 41.69200
C  -7.70300 14.37100 42.04700
C  -6.45600 13.71600 42.35400
C  -5.47600 14.69400 42.17500
C  -6.16900 15.88800 41.84600
C  -6.29000 12.34200 42.89300
C  -4.01900 15.06200 42.26800
O  -3.02900 14.40100 42.52000
C  -3.95800 16.61400 41.90600
C  -3.49000 17.49500 43.06600
O  -4.23100 18.23600 43.66300
O  -2.17100 17.48200 43.21100
C  -1.59100 18.54500 44.05200
H  -8.59000 21.58600 40.79500
H  -13.27100 17.19100 41.32100
H  -9.09600 12.75000 42.42000
H  -4.15100 19.47800 41.28900
H  -6.00500 21.31300 40.25400
H  -5.58900 22.49700 42.16600
H  -4.89900 21.15600 42.92600
H  -6.68100 21.39300 43.04500
H  -5.08400 20.02900 38.55300
H  -5.14900 18.38000 38.66300
H  -2.73600 19.11900 39.82500
H  -2.86300 19.85200 38.16300
H  -10.22700 22.53000 40.11400
H  -11.60100 22.77500 41.02800
H  -11.88600 22.21200 39.39600
H  -15.53500 19.27100 39.73800
H  -15.06800 18.42300 41.27300
H  -14.32200 18.11700 39.72800
H  -13.11300 14.30000 41.15900
H  -11.49500 13.16500 43.19400
H  -12.99000 14.53100 44.11200
H  -14.34000 14.46700 42.88000
H  -13.47300 16.01700 43.41000
H  -10.58300 11.75800 41.24000
H  -11.51900 12.86700 40.26800
H  -13.41600 11.63100 40.57100
H  -13.26100 11.74900 42.29200
H  -12.52400 10.39500 41.38300
H  -7.17300 12.05500 43.46300
H  -5.47000 12.22600 43.60200
H  -6.11800 11.65200 42.06700
H  -3.40100 16.70400 40.97300
H  -1.85500 19.50000 43.59900
H  -0.52300 18.33700 44.11800
H  -2.00900 18.50200 45.05800

