158

Mg -1.84500 17.26200 26.40900
C  -2.14600 14.67300 28.83400
C  -2.36100 19.56800 28.85500
C  -2.04300 19.84700 24.06700
C  -2.34300 14.80300 24.02200
N  -2.18800 17.06800 28.54300
C  -2.14100 15.98400 29.42600
C  -2.39800 16.33700 30.91400
C  -2.28800 17.91700 30.78000
C  -2.25200 18.19600 29.32500
C  -3.37700 18.67200 31.63300
C  -1.30000 15.78800 31.93600
C  -1.15600 16.47200 33.26500
H  -1.36500 15.67200 34.54600
N  -2.12300 19.38800 26.50400
C  -2.30700 20.12300 27.55200
C  -2.47400 21.53800 27.28300
C  -2.14900 21.61300 25.90800
C  -2.06700 20.25800 25.44100
C  -2.67300 22.59800 28.40000
C  -2.01100 22.91200 25.04600
O  -1.55200 22.96100 23.89300
C  -2.41800 24.18400 25.75200
N  -2.34100 17.39400 24.40300
C  -2.20300 18.48700 23.59000
C  -2.33300 18.10700 22.06700
C  -2.36600 16.59100 22.09300
C  -2.35000 16.20800 23.59100
C  -3.45200 18.88900 21.45000
C  -1.21100 15.91100 21.32200
C  -1.42000 15.65400 19.82500
N  -2.02500 15.14100 26.35700
C  -2.29600 14.33700 25.32000
C  -2.47500 12.97900 25.76100
C  -2.46300 13.08600 27.13900
C  -2.13100 14.40900 27.47100
C  -2.63600 11.69300 25.02900
C  -2.61200 12.31100 28.34000
O  -2.92100 11.09800 28.39900
C  -2.40700 13.32600 29.49800
C  -1.33600 12.85200 30.41400
O  -0.19000 13.17400 30.36500
O  -1.87800 11.87000 31.17500
C  -1.03400 11.39500 32.26600
H  -2.53300 20.29500 29.65100
H  -2.06600 20.70000 23.38500
H  -2.41500 14.07400 23.21200
H  -3.44000 16.19000 31.19900
H  -1.32600 18.20900 31.20100
H  -3.03200 19.51600 32.23100
H  -3.84800 17.97100 32.32200
H  -4.19100 18.97500 30.97600
H  -0.34300 15.73100 31.41800
H  -1.73400 14.80600 32.12200
H  -1.77600 17.36000 33.38800
H  -0.15200 16.88900 33.34600
H  -1.77000 23.20800 28.42700
H  -2.88900 22.20200 29.39300
H  -3.54300 23.24500 28.29400
H  -2.39600 25.01200 25.04400
H  -1.75100 24.31700 26.60500
H  -3.38000 24.00600 26.23200
H  -1.40700 18.34200 21.54200
H  -3.29000 16.23400 21.63700
H  -3.87300 19.48500 22.26000
H  -4.30100 18.33500 21.04900
H  -3.09000 19.38500 20.54900
H  -1.10000 14.86900 21.62100
H  -0.27700 16.44500 21.49500
H  -2.22800 16.22900 19.37300
H  -1.60800 14.60300 19.60300
H  -0.49300 15.93900 19.32700
H  -3.45000 11.07100 25.40200
H  -1.63500 11.28900 25.17600
H  -2.95300 11.87200 24.00200
H  -3.33400 13.30800 30.07200
H  -1.22400 12.19000 32.98800
H  0.03000 11.37000 32.03100
H  -1.34900 10.43700 32.68000
Mg 43.91500 3.89200 46.98500
C  42.05300 6.72700 46.87900
C  40.91000 1.98600 46.80400
C  45.76000 1.20300 46.40200
C  46.86100 5.84800 46.46500
N  41.71800 4.37500 46.96100
C  41.19600 5.58700 46.86000
C  39.68000 5.52100 46.80700
C  39.30300 4.02100 46.94700
C  40.73400 3.40200 46.84500
C  38.52400 3.69700 48.26200
C  39.09400 6.22900 45.61400
C  39.44100 5.64600 44.21800
H  39.91400 6.62900 43.17100
N  43.37300 1.85300 46.78000
C  42.12300 1.21600 46.81000
C  42.26000 -0.15600 46.64400
C  43.58700 -0.37100 46.32900
C  44.35300 0.88500 46.44700
C  41.01700 -1.08100 46.73200
C  44.08500 -1.73800 45.92000
O  43.23800 -2.62400 45.86800
C  45.46600 -1.96400 45.56600
N  46.06500 3.59700 46.50000
C  46.48100 2.36900 46.48000
C  48.07100 2.31700 46.55300
C  48.43100 3.79100 46.36900
C  47.09700 4.51000 46.49200
C  48.50700 1.74600 47.92900
C  48.97000 4.15200 44.92300
C  50.44200 4.50100 44.94900
N  44.38600 5.87400 46.67300
C  45.62500 6.54400 46.51300
C  45.37600 8.00900 46.52900
C  43.97600 8.07000 46.64500
C  43.41300 6.81700 46.75100
C  46.30400 9.08000 46.56700
C  42.91500 8.93100 46.79600
O  42.95600 10.18000 46.81100
C  41.58100 8.18500 46.85800
C  40.73000 8.68200 47.92600
O  40.42600 8.04000 48.88900
O  40.18000 9.89400 47.54600
C  38.97100 10.32500 48.25500
H  39.97100 1.44900 46.65400
H  46.40800 0.32800 46.48500
H  47.71600 6.52300 46.38700
H  39.28700 6.13200 47.61900
H  38.72500 3.68000 46.08800
H  39.23400 3.84500 49.07600
H  38.39500 2.62200 48.38400
H  37.62600 4.28100 48.46200
H  39.45600 7.25500 45.56100
H  38.00800 6.27700 45.69800
H  38.58700 5.05200 43.89100
H  40.31000 5.01300 44.39600
H  40.77700 -1.52100 45.76400
H  40.10600 -0.51100 46.91500
H  41.16500 -1.84900 47.49100
H  46.05700 -2.16600 46.45900
H  45.80700 -1.08800 45.01400
H  45.50400 -2.80700 44.87600
H  48.46600 1.81000 45.67200
H  48.99800 4.30800 47.14300
H  47.68700 1.51100 48.60700
H  49.13600 2.50100 48.40000
H  49.01900 0.80200 47.74100
H  48.37500 4.95400 44.48600
H  48.70800 3.30400 44.29000
H  50.95400 3.91800 44.18300
H  50.80900 4.15900 45.91600
H  50.67200 5.56500 44.88900
H  45.87300 10.02900 46.24800
H  47.05300 8.88000 45.80100
H  46.77000 9.20700 47.54400
H  41.10500 8.50600 45.93200
H  38.98300 10.26000 49.34300
H  38.07200 9.83600 47.87900
H  38.79600 11.39200 48.11200

