158

Mg 1.46600 7.99100 25.68800
C  2.23800 10.14700 28.35300
C  1.30500 5.41100 27.92200
C  0.52900 6.13900 23.22000
C  1.67600 10.67600 23.47600
N  1.77200 7.86200 27.91500
C  2.04400 8.84300 28.84700
C  1.97000 8.26600 30.23500
C  1.99600 6.64900 30.01000
C  1.69000 6.65400 28.53500
C  3.28600 5.88700 30.46400
C  0.70500 8.62500 30.96700
C  0.87100 8.92300 32.44700
H  2.10700 8.53000 33.28000
N  1.00200 5.99800 25.58900
C  0.86100 5.13800 26.67600
C  0.38700 3.88500 26.09300
C  0.23000 4.04300 24.67200
C  0.55200 5.46600 24.40300
C  0.17600 2.68100 26.94500
C  -0.15000 3.02400 23.59500
O  -0.06600 3.33500 22.39100
C  -0.69700 1.68300 24.03100
N  1.39900 8.28700 23.56600
C  0.90200 7.37900 22.78700
C  0.95800 7.79700 21.30900
C  1.12800 9.35400 21.35400
C  1.39000 9.46300 22.89500
C  2.25300 7.17700 20.65500
C  -0.16400 10.13600 20.96400
C  0.03900 11.52900 20.26100
N  1.81800 10.00600 25.84700
C  1.91300 10.99300 24.85600
C  2.20100 12.31000 25.47600
C  2.34900 12.00400 26.86900
C  2.15600 10.59200 26.98000
C  2.24600 13.66400 24.79400
C  2.55300 12.52700 28.17800
O  2.80300 13.65000 28.48300
C  2.38300 11.39200 29.16900
C  3.49800 11.36100 30.16000
O  4.58100 10.91600 29.90200
O  3.16900 11.92400 31.39800
C  4.23800 12.06600 32.41700
H  1.41100 4.57400 28.61600
H  0.21200 5.52400 22.37500
H  1.68500 11.58900 22.87600
H  2.89600 8.42500 30.78800
H  1.22300 6.11300 30.56200
H  3.91400 5.52900 29.64800
H  3.07500 4.95300 30.98500
H  3.89300 6.47900 31.14900
H  -0.14600 7.97100 30.77800
H  0.31700 9.56400 30.57200
H  0.07300 8.28100 32.81900
H  0.61400 9.95300 32.69700
H  0.18000 2.80400 28.02800
H  0.87400 1.87600 26.71400
H  -0.79100 2.23100 26.72500
H  0.15600 1.31900 24.60400
H  -0.92200 1.03800 23.18200
H  -1.54800 1.86700 24.68600
H  -0.00900 7.47200 20.92500
H  1.93500 9.69300 20.70400
H  1.81700 6.23200 20.33000
H  2.97200 7.05500 21.46500
H  2.63900 7.67600 19.76600
H  -0.69600 10.38200 21.88300
H  -0.77000 9.48700 20.33200
H  -0.50000 11.64400 19.32100
H  1.09500 11.77700 20.15200
H  -0.52000 12.25800 20.84800
H  2.48600 13.49300 23.74500
H  2.90500 14.28400 25.40300
H  1.23700 14.07600 24.82600
H  1.42800 11.56100 29.66600
H  4.38500 13.10900 32.69900
H  5.21200 11.64600 32.16500
H  3.83400 11.49900 33.25600
Mg 47.18000 34.62400 27.39600
C  45.68000 33.36000 30.47900
C  48.12200 37.47300 29.35400
C  48.58700 35.83100 24.66300
C  45.89700 31.99200 25.77500
N  47.14400 35.17300 29.78900
C  46.36200 34.59500 30.77100
C  46.51600 35.33900 32.08300
C  47.03500 36.74500 31.62800
C  47.49700 36.48000 30.16200
C  46.14100 38.02000 31.87500
C  47.52300 34.62400 33.08700
C  47.17700 34.73700 34.61800
H  46.77600 36.09200 35.11000
N  48.16200 36.42200 27.01100
C  48.47100 37.43800 27.91800
C  49.23100 38.41000 27.23600
C  49.45600 37.94300 25.91300
C  48.72800 36.66200 25.84200
C  49.77900 39.73800 27.87900
C  50.20300 38.51900 24.77600
O  50.34500 38.00900 23.66500
C  50.84200 39.92800 24.88000
N  47.09900 34.02500 25.41400
C  47.81500 34.66800 24.40600
C  47.85900 33.84500 23.13500
C  46.96300 32.59600 23.47800
C  46.63000 32.83100 24.99400
C  47.49700 34.73100 21.93400
C  47.68800 31.28700 23.39300
C  46.87300 30.06700 22.89300
N  46.12000 32.96600 27.91200
C  45.69600 31.96300 27.15300
C  44.95300 30.95000 27.91000
C  44.86900 31.48900 29.16800
C  45.65000 32.68000 29.18700
C  44.37600 29.65800 27.32000
C  44.42000 31.26800 30.54700
O  43.80800 30.35500 31.02800
C  44.60500 32.63100 31.30200
C  44.87600 32.37100 32.69400
O  45.79800 31.80100 33.14300
O  43.77100 32.90800 33.40700
C  43.55900 32.27500 34.71600
H  48.37800 38.39200 29.88500
H  49.24000 36.02500 23.80900
H  45.40700 31.20300 25.20100
H  45.54100 35.41800 32.56400
H  47.97900 37.04100 32.08600
H  45.61700 38.29500 30.95900
H  46.66700 38.91700 32.19900
H  45.46500 37.77800 32.69500
H  48.58300 34.83300 32.94500
H  47.51900 33.58400 32.76100
H  48.06000 34.54400 35.22800
H  46.28600 34.14600 34.82700
H  49.43100 39.70100 28.91100
H  49.38300 40.63300 27.40000
H  50.85700 39.81100 28.02200
H  51.64000 39.83200 25.61600
H  50.15200 40.73700 25.12100
H  51.19800 40.21200 23.89000
H  48.87700 33.52200 22.91800
H  46.05700 32.63000 22.87300
H  48.41100 34.97800 21.39500
H  47.04300 35.68400 22.20400
H  46.85500 34.19900 21.23100
H  47.99800 30.96800 24.38800
H  48.54600 31.45800 22.74300
H  47.48900 29.39300 22.29800
H  45.95000 30.32300 22.37400
H  46.53500 29.36600 23.65700
H  44.17000 29.07400 28.21700
H  45.12900 29.10500 26.75900
H  43.50700 29.77800 26.67300
H  43.68200 33.20600 31.23500
H  43.89000 31.23800 34.65700
H  42.49300 32.25000 34.94200
H  44.01600 32.85600 35.51700

