158

Mg 40.15300 9.32800 30.22500
C  41.72500 10.60600 33.06800
C  37.70900 8.01400 32.21600
C  38.58200 8.12600 27.48600
C  42.99300 10.10300 28.37600
N  39.79300 9.30300 32.36400
C  40.47700 9.97100 33.38300
C  39.81000 9.97300 34.74600
C  38.56600 8.98800 34.46800
C  38.67400 8.79100 32.93800
C  38.48200 7.68500 35.25800
C  39.43200 11.38600 35.26700
C  38.53800 11.37100 36.55600
H  39.17700 12.23600 37.66500
N  38.32000 8.29200 29.90100
C  37.47700 7.80300 30.86200
C  36.44200 7.02900 30.27000
C  36.65200 7.17100 28.85300
C  37.88500 7.97000 28.66600
C  35.44900 6.21700 31.07500
C  35.84800 6.54900 27.73500
O  36.02600 6.84000 26.52800
C  34.75700 5.62100 28.00600
N  40.70400 9.28300 28.16900
C  39.87200 8.63100 27.25800
C  40.58900 8.44700 25.98000
C  41.88100 9.29600 26.14300
C  41.85500 9.63900 27.62600
C  40.91700 6.95500 25.56600
C  41.99400 10.46900 25.17100
C  41.80000 11.86400 25.70600
N  41.92800 10.28300 30.56300
C  43.04500 10.46000 29.70300
C  44.00900 11.17400 30.39600
C  43.53800 11.25400 31.68100
C  42.24000 10.65600 31.78800
C  45.36000 11.64800 29.82500
C  43.85100 11.79300 32.92200
O  44.70500 12.62900 33.20300
C  42.76500 11.24300 33.91800
C  43.45800 10.36300 34.86200
O  43.55400 9.16500 34.76000
O  43.84500 11.15700 35.90700
C  44.43400 10.37900 36.97200
H  36.87300 7.67800 32.83300
H  38.18100 7.59600 26.61900
H  43.92500 10.32900 27.85200
H  40.47300 9.58400 35.51800
H  37.58900 9.42500 34.67600
H  38.60000 6.78300 34.65800
H  37.54500 7.58200 35.80500
H  39.33800 7.68600 35.93400
H  38.88900 11.91900 34.48600
H  40.37100 11.91900 35.42100
H  38.45800 10.33200 36.87500
H  37.54700 11.78500 36.36800
H  36.16500 5.92100 31.84200
H  35.03700 5.31900 30.61300
H  34.58500 6.82500 31.33900
H  34.07900 6.12700 28.69200
H  35.16400 4.64600 28.27200
H  34.26400 5.50500 27.04000
H  39.95300 8.91500 25.22900
H  42.74500 8.63200 26.16700
H  40.26200 6.29800 26.13800
H  41.93900 6.63100 25.76600
H  40.64600 6.83700 24.51700
H  41.23900 10.34000 24.39600
H  42.99000 10.42400 24.72900
H  41.38400 12.49200 24.91800
H  42.72100 12.34100 26.04000
H  41.09200 11.93900 26.53100
H  45.25400 12.23000 28.91000
H  46.12300 10.89800 29.61300
H  45.68200 12.29100 30.64400
H  42.30600 12.02700 34.51900
H  45.01800 9.52500 36.62900
H  43.59000 10.09800 37.60300
H  45.14500 11.07300 37.42300
Mg 53.77700 23.94500 45.45000
C  51.22200 26.08400 44.28700
C  52.45500 21.39800 43.90400
C  56.59200 22.20000 45.88400
C  55.41900 26.96400 46.59600
N  52.19300 23.81300 44.07500
C  51.22900 24.76400 43.74900
C  50.11500 24.17000 42.85900
C  50.46400 22.65300 43.02100
C  51.83800 22.60800 43.69700
C  49.27300 21.75700 43.58100
C  50.30700 24.68700 41.37700
C  49.00400 25.02700 40.67000
H  49.05200 25.69800 39.33700
N  54.45400 21.99600 45.03200
C  53.71200 21.04800 44.44300
C  54.42800 19.71600 44.27800
C  55.59400 19.96500 45.05800
C  55.59000 21.42800 45.36200
C  53.89200 18.52200 43.60000
C  56.57300 18.90500 45.50700
O  56.42300 17.80500 45.05500
C  57.66900 19.21100 46.47700
N  55.71000 24.56000 46.12200
C  56.63400 23.58000 46.16800
C  57.83500 24.12300 46.89600
C  57.70400 25.74700 46.82100
C  56.20200 25.77400 46.50500
C  58.04500 23.55700 48.34300
C  58.68700 26.45700 45.79100
C  59.34700 27.75300 46.31400
N  53.35100 26.10900 45.51900
C  54.13200 27.12000 46.13200
C  53.24800 28.32300 46.29400
C  52.06800 27.99100 45.60700
C  52.23500 26.62700 45.10000
C  53.56400 29.51700 47.12500
C  50.74500 28.36100 45.17200
O  50.03300 29.31400 45.39300
C  50.10600 27.09000 44.36300
C  49.52500 27.70300 43.13300
O  50.22300 28.04700 42.20900
O  48.14600 27.78400 43.07100
C  47.49000 28.26200 41.88000
H  51.89600 20.59600 43.41800
H  57.51800 21.65400 46.07300
H  55.85100 27.85700 47.05200
H  49.07200 24.31100 43.14400
H  50.54800 22.15700 42.05400
H  49.36000 21.41000 44.61100
H  49.09500 20.91400 42.91300
H  48.37200 22.37100 43.59600
H  50.77400 23.92900 40.74800
H  50.98000 25.54200 41.31000
H  48.39900 25.68400 41.29600
H  48.50200 24.07400 40.50400
H  53.04400 18.84700 42.99700
H  53.64900 17.76200 44.34200
H  54.71400 18.14900 42.98900
H  57.20100 19.72800 47.31500
H  58.36100 19.90900 46.00600
H  58.20600 18.34600 46.86700
H  58.71900 23.85900 46.31600
H  57.67100 26.19700 47.81300
H  57.88800 24.28700 49.13700
H  59.07800 23.22200 48.44300
H  57.46300 22.66500 48.57200
H  58.22700 26.71800 44.83800
H  59.54600 25.82000 45.57600
H  59.00600 28.38000 45.48900
H  60.43400 27.83500 46.30800
H  58.92800 28.09000 47.26200
H  54.22000 29.34400 47.97800
H  52.65000 29.89500 47.58400
H  53.98500 30.30700 46.50300
H  49.39200 26.64500 45.05500
H  46.96900 29.17400 42.16900
H  46.72700 27.53300 41.60500
H  48.08000 28.48700 40.99200

