158

Mg -1.80500 17.18600 27.15400
C  -2.13800 14.99100 29.78800
C  -2.44200 19.77300 29.36000
C  -1.83500 19.33600 24.47400
C  -1.71400 14.56300 24.93800
N  -2.49300 17.28600 29.29600
C  -2.29300 16.27000 30.21100
C  -2.42200 16.76100 31.69500
C  -2.54200 18.31500 31.52700
C  -2.46900 18.49200 29.95000
C  -3.80400 18.97400 32.28200
C  -1.28900 16.30600 32.72400
C  -0.86800 17.10700 33.92100
H  -0.49900 16.30200 35.12700
N  -2.03500 19.30400 26.99200
C  -2.24900 20.17300 28.03200
C  -2.32500 21.46200 27.46200
C  -2.06900 21.43200 26.06900
C  -1.97300 19.94300 25.74800
C  -2.49300 22.63800 28.28300
C  -1.98900 22.51800 24.96500
O  -2.00600 22.15900 23.77600
C  -2.07900 23.95000 25.36400
N  -2.02900 16.96600 25.03600
C  -1.88600 18.00300 24.17700
C  -1.70300 17.52300 22.77100
C  -1.35100 16.00500 22.95600
C  -1.79900 15.80100 24.36700
C  -2.93800 17.81300 21.89100
C  0.13800 15.54000 22.57800
C  1.37500 16.23500 23.37700
N  -1.81400 15.16300 27.25000
C  -1.80700 14.18000 26.28000
C  -1.83900 12.85300 26.86800
C  -1.94100 13.13300 28.25400
C  -1.93600 14.51500 28.42400
C  -1.82900 11.61100 26.17200
C  -2.03700 12.52600 29.59200
O  -1.88200 11.35800 29.91800
C  -2.11500 13.67800 30.59100
C  -0.83500 13.58800 31.38300
O  0.28000 13.99600 31.05600
O  -1.12000 13.10900 32.64200
C  0.02500 13.20800 33.58600
H  -2.48600 20.60600 30.06400
H  -1.72300 19.88700 23.53800
H  -1.58400 13.83000 24.13900
H  -3.32800 16.19800 31.91700
H  -1.65800 18.76200 31.98100
H  -3.54000 19.89400 32.80300
H  -4.32200 18.24100 32.90100
H  -4.60300 19.27900 31.60500
H  -0.45200 16.02800 32.08300
H  -1.70600 15.36900 33.09500
H  -1.71700 17.69200 34.27300
H  0.07600 17.61200 33.71500
H  -2.74200 22.29900 29.28800
H  -3.38400 23.14700 27.91400
H  -1.70900 23.39400 28.28500
H  -3.03800 24.02100 25.87900
H  -2.02500 24.58000 24.47600
H  -1.34100 24.28900 26.09100
H  -0.80500 17.99200 22.36700
H  -1.97700 15.29200 22.42000
H  -3.54900 18.58200 22.36400
H  -3.40800 16.83300 21.80100
H  -2.61500 18.15000 20.90600
H  0.34200 15.78000 21.53500
H  0.22300 14.45300 22.55100
H  1.85000 17.00400 22.76800
H  2.15000 15.51000 23.62400
H  0.92600 16.57800 24.31000
H  -1.38300 11.76300 25.18900
H  -2.87700 11.44900 25.92000
H  -1.42200 10.77000 26.73400
H  -2.84000 13.76200 31.40100
H  0.65600 14.06400 33.34800
H  0.70600 12.38000 33.38600
H  -0.21600 13.23900 34.64900
Mg 15.96600 52.60000 26.46400
C  17.90100 50.65700 28.88300
C  13.89500 53.28500 28.95900
C  13.95800 53.58300 24.10800
C  18.01900 51.06100 24.02200
N  15.87400 51.82200 28.71400
C  16.77000 51.28700 29.46300
C  16.49700 51.51100 30.93800
C  14.97800 51.95000 30.90700
C  14.87400 52.32400 29.44500
C  13.97100 50.90200 31.40400
C  17.47300 52.49100 31.54600
C  17.52400 52.70700 33.06400
H  16.72200 51.77400 33.96900
N  14.27900 53.41000 26.55300
C  13.60500 53.78100 27.70400
C  12.53500 54.72900 27.32300
C  12.39400 54.63500 25.92800
C  13.55200 53.83500 25.47700
C  11.79100 55.64600 28.36900
C  11.29000 55.15500 25.09400
O  11.17300 54.80700 23.86700
C  10.13700 55.91800 25.60900
N  16.00400 52.23600 24.26700
C  15.07000 52.86100 23.55400
C  15.43500 52.74100 21.99200
C  16.75300 51.97200 22.04300
C  16.92500 51.76600 23.48900
C  14.35200 52.03300 21.08600
C  17.92700 52.68600 21.24600
C  19.11200 51.76800 20.86300
N  17.63600 51.15100 26.41500
C  18.39100 50.79100 25.31700
C  19.50000 49.97600 25.83100
C  19.34300 49.92200 27.20300
C  18.22500 50.64300 27.51600
C  20.50500 49.17200 25.07800
C  19.96200 49.30800 28.41900
O  20.97700 48.62200 28.60400
C  19.05100 49.90700 29.55300
C  18.64700 48.89300 30.54900
O  17.89600 47.97400 30.28000
O  19.27000 49.20200 31.75900
C  18.94400 48.32800 32.87700
H  13.24500 53.75300 29.70100
H  13.30200 54.00600 23.34400
H  18.68900 50.51700 23.35300
H  16.76300 50.67300 31.58300
H  14.80900 52.82800 31.53000
H  14.39500 49.91200 31.57500
H  13.21400 50.79800 30.62700
H  13.54400 51.33700 32.30700
H  17.42500 53.44800 31.02700
H  18.43400 52.04800 31.28200
H  17.38100 53.78000 33.19500
H  18.54900 52.57400 33.40900
H  11.05500 55.01600 28.86700
H  11.30800 56.54900 27.99300
H  12.55600 55.93800 29.08800
H  9.40400 56.34000 24.92100
H  10.42200 56.80900 26.16700
H  9.48500 55.34400 26.26800
H  15.61800 53.78100 21.71800
H  16.71400 50.92900 21.72800
H  13.51900 51.75000 21.73000
H  14.90100 51.19400 20.65700
H  14.02400 52.70200 20.29100
H  18.24600 53.49200 21.90600
H  17.51500 53.19900 20.37700
H  18.93400 50.75000 21.20800
H  20.07700 52.25900 20.99200
H  18.97300 51.52200 19.81000
H  21.35900 48.98800 25.72900
H  20.82100 49.70100 24.17900
H  20.14800 48.18600 24.78100
H  19.75000 50.61400 30.00100
H  17.87700 48.10900 32.88900
H  19.25900 48.65100 33.86900
H  19.30700 47.30500 32.77400

