158

Mg -1.09800 17.38600 26.95700
C  -1.92000 14.98500 29.46800
C  -1.93000 19.83100 29.14300
C  -0.76500 19.35600 24.41500
C  -0.69300 14.60900 24.82200
N  -2.05600 17.34500 29.03000
C  -2.02500 16.30900 29.89500
C  -2.23600 16.78300 31.30500
C  -2.48600 18.33000 31.11700
C  -2.08700 18.54500 29.72800
C  -3.87400 18.78000 31.34100
C  -1.19400 16.23600 32.31200
C  -1.23300 16.91400 33.63200
H  -0.67800 16.13600 34.81500
N  -1.31400 19.29400 26.80700
C  -1.58700 20.19400 27.82900
C  -1.51200 21.49300 27.37700
C  -1.10800 21.37000 25.95200
C  -1.07100 19.97800 25.61600
C  -1.71700 22.71300 28.14000
C  -0.83800 22.47500 24.90900
O  -0.55500 22.24600 23.68500
C  -0.85400 23.87800 25.43600
N  -0.96700 16.98100 24.86900
C  -0.62400 18.03600 24.11300
C  -0.40100 17.64600 22.63800
C  -0.16200 16.08400 22.74700
C  -0.53400 15.81300 24.20000
C  -1.60700 17.94800 21.77400
C  1.29700 15.60000 22.44100
C  2.43400 16.18700 23.36500
N  -1.35700 15.18100 27.05100
C  -1.07900 14.22300 26.15600
C  -1.55800 12.91200 26.59200
C  -1.79500 13.12400 27.96600
C  -1.72600 14.54500 28.13700
C  -1.50500 11.63600 25.83500
C  -2.26700 12.57400 29.21500
O  -2.72800 11.46200 29.49300
C  -2.20900 13.69100 30.24500
C  -0.95900 13.28800 31.09200
O  0.19600 13.59400 30.90400
O  -1.40900 12.50300 32.21900
C  -0.40800 11.95100 33.14700
H  -1.99400 20.62800 29.88700
H  -0.54400 19.98400 23.55000
H  -0.43800 13.71600 24.24700
H  -3.07900 16.19700 31.67200
H  -1.84300 18.83800 31.83500
H  -4.06300 19.56800 30.61200
H  -3.84300 19.11800 32.37600
H  -4.52300 17.90600 31.28100
H  -0.22200 16.37200 31.83700
H  -1.40300 15.20200 32.58400
H  -2.22700 17.29200 33.86900
H  -0.53000 17.71700 33.41600
H  -2.25300 22.59700 29.08200
H  -2.15100 23.54200 27.58300
H  -0.68200 22.97700 28.35700
H  -0.24100 24.08700 26.31300
H  -1.87400 24.20000 25.64500
H  -0.42300 24.49300 24.64600
H  0.46700 18.15100 22.21400
H  -0.82300 15.34900 22.28700
H  -2.33700 18.01300 22.58000
H  -1.71900 17.25000 20.94400
H  -1.54100 18.90700 21.26000
H  1.60100 15.86800 21.42900
H  1.41800 14.51800 22.49100
H  2.08500 17.01000 23.98900
H  3.27200 16.52100 22.75500
H  2.92000 15.49000 24.04700
H  -0.98000 11.87500 24.91000
H  -2.51900 11.37700 25.53100
H  -0.99200 10.85300 26.39400
H  -3.03700 13.70800 30.95400
H  -0.90300 11.77600 34.10200
H  0.39700 12.67600 33.27200
H  -0.10400 10.97700 32.76500
Mg 23.87200 -5.37800 47.03400
C  25.90200 -2.90000 45.55400
C  21.35400 -4.24500 44.80700
C  22.23000 -8.11600 47.57100
C  26.77000 -6.61900 48.57000
N  23.79900 -3.84800 45.29700
C  24.69400 -2.89500 44.92400
C  24.16100 -1.87100 43.98800
C  22.62000 -2.08300 44.12900
C  22.56000 -3.51700 44.82200
C  21.73300 -1.07200 44.88300
C  24.66800 -1.88300 42.52800
C  24.95200 -0.46200 42.02000
H  25.39300 -0.30500 40.59300
N  22.00800 -6.10200 46.34900
C  21.16800 -5.46600 45.46400
C  19.96100 -6.21800 45.36500
C  20.09600 -7.34100 46.15700
C  21.45300 -7.21900 46.75700
C  18.86500 -5.84700 44.44700
C  19.00800 -8.36300 46.47500
O  17.92200 -8.31700 45.94600
C  19.24900 -9.38100 47.52800
N  24.42800 -7.09200 47.87500
C  23.55700 -8.07200 48.08900
C  24.19900 -9.32700 48.81200
C  25.45200 -8.74300 49.34600
C  25.58700 -7.38300 48.51400
C  23.42900 -9.99900 49.97800
C  26.74800 -9.64600 49.18500
C  27.64700 -9.78800 50.38900
N  25.91600 -4.80600 47.22100
C  26.97800 -5.39300 47.92700
C  28.20800 -4.53800 47.83800
C  27.77100 -3.54200 46.89800
C  26.39300 -3.78200 46.51100
C  29.46100 -4.92500 48.44400
C  28.22600 -2.36500 46.18300
O  29.33000 -1.80400 46.19800
C  27.08700 -1.95400 45.23200
C  26.75000 -0.51300 45.53600
O  26.31000 -0.12300 46.59800
O  27.29600 0.33800 44.54400
C  27.13900 1.77300 44.70000
H  20.51600 -3.70600 44.36100
H  21.75800 -9.06500 47.83400
H  27.53700 -6.82700 49.31800
H  24.43100 -0.90800 44.42200
H  22.11100 -2.20600 43.17300
H  22.40200 -0.33800 45.33200
H  21.17300 -1.62700 45.63500
H  21.05100 -0.53600 44.22300
H  23.99300 -2.41700 41.85900
H  25.65100 -2.35300 42.55900
H  25.84200 -0.23800 42.60800
H  24.12500 0.22800 42.19200
H  18.44200 -6.78100 44.07800
H  19.18600 -5.17500 43.65100
H  18.07000 -5.34700 45.00000
H  18.35100 -9.97700 47.68700
H  19.61500 -8.91000 48.44000
H  20.03200 -10.01100 47.10300
H  24.45900 -10.05600 48.04500
H  25.24100 -8.30200 50.32000
H  22.76300 -9.22000 50.34900
H  24.06100 -10.31900 50.80700
H  22.82000 -10.81000 49.57900
H  27.24400 -9.21900 48.31400
H  26.48400 -10.66000 48.88600
H  28.63300 -10.14100 50.08600
H  27.27200 -10.49700 51.12700
H  27.70500 -8.84600 50.93500
H  30.28000 -4.23600 48.23800
H  29.71700 -5.93900 48.13700
H  29.30300 -4.82100 49.51700
H  27.44500 -1.95400 44.20200
H  27.64800 2.21400 43.84200
H  27.63000 2.10800 45.61300
H  26.12300 2.15300 44.58900

