158

Mg 26.67700 50.04300 26.92500
C  24.62300 51.33500 29.63200
C  28.94100 49.05300 29.40600
C  28.69500 49.22800 24.53700
C  24.38100 51.53700 24.70200
N  26.73700 50.18200 29.27100
C  25.68200 50.66800 30.11700
C  26.05200 50.43600 31.58300
C  27.49100 49.71700 31.47200
C  27.76900 49.62900 29.93200
C  28.59900 50.48300 32.20500
C  25.00300 49.58700 32.33800
C  24.37300 50.26300 33.66100
H  24.59200 49.48600 34.94700
N  28.48200 49.22800 26.95100
C  29.27400 48.84500 28.02200
C  30.53000 48.23400 27.63000
C  30.51800 48.28800 26.13900
C  29.17200 48.88100 25.80100
C  31.51900 47.57800 28.61700
C  31.52700 47.86400 25.18700
O  31.33200 48.06900 24.01800
C  32.81900 47.27200 25.56100
N  26.52000 50.36400 24.93200
C  27.51800 49.88200 24.12700
C  27.13900 49.99100 22.61700
C  25.79400 50.76000 22.71700
C  25.46900 50.85200 24.21000
C  28.17700 50.81600 21.73700
C  24.58400 50.03600 21.96900
C  24.05200 48.63500 22.34000
N  24.88400 51.16300 27.08000
C  24.09700 51.74300 26.08100
C  22.94500 52.54400 26.62600
C  23.17000 52.37300 28.05200
C  24.34500 51.56600 28.24500
C  21.82200 53.24000 25.80800
C  22.60100 52.67900 29.36200
O  21.57800 53.26100 29.67500
C  23.52800 52.04100 30.44400
C  23.93600 53.16300 31.33600
O  24.73400 54.04000 31.09100
O  23.20500 53.11500 32.53200
C  23.66000 54.00200 33.60100
H  29.54000 48.57700 30.18500
H  29.20500 48.87700 23.63800
H  23.70800 52.07600 24.03200
H  26.17300 51.39600 32.08600
H  27.62000 48.72500 31.90300
H  29.54900 50.00000 31.97700
H  28.56200 50.65100 33.28100
H  28.65700 51.43400 31.67700
H  25.47200 48.64200 32.61300
H  24.15500 49.35300 31.69300
H  23.31400 50.42300 33.46100
H  24.77500 51.27100 33.75900
H  31.38500 47.88700 29.65300
H  32.55400 47.86300 28.42800
H  31.37200 46.49800 28.60200
H  33.29200 47.70300 26.44400
H  33.53600 47.35400 24.74400
H  32.60500 46.21400 25.71500
H  26.89900 49.03300 22.15600
H  25.81600 51.77400 22.31500
H  29.07800 51.05400 22.30100
H  27.79900 51.76800 21.36500
H  28.34900 50.18700 20.86300
H  24.89700 49.95500 20.92800
H  23.84300 50.83600 21.98600
H  24.61300 48.22400 23.17900
H  24.20300 48.03300 21.44400
H  23.00100 48.74900 22.60400
H  21.38700 52.67100 24.98500
H  22.05500 54.22000 25.39100
H  21.04700 53.37400 26.56200
H  22.94900 51.30200 30.99800
H  22.88600 54.12900 34.35800
H  23.87900 54.96300 33.13500
H  24.53700 53.64200 34.13900
Mg 6.08500 54.20800 42.48800
C  5.41300 50.91000 41.93300
C  9.24000 53.79300 40.99400
C  6.41300 57.69800 42.06600
C  2.91300 54.65900 43.73400
N  7.16000 52.56000 41.59500
C  6.63000 51.32400 41.49000
C  7.65300 50.41100 40.87600
C  9.00100 51.19700 41.08400
C  8.49200 52.61700 41.24200
C  9.83000 50.74400 42.28300
C  7.45600 50.10600 39.33700
C  7.05900 51.29600 38.48300
H  5.95200 50.96700 37.45800
N  7.63400 55.53900 41.71200
C  8.84400 55.12700 41.18000
C  9.64800 56.26700 40.94800
C  8.86200 57.44200 41.18800
C  7.52500 56.89700 41.62600
C  11.03600 56.23700 40.60300
C  9.42500 58.85400 41.02900
O  10.54900 59.03300 40.62700
C  8.63300 60.04600 41.41300
N  4.81700 55.91100 42.73700
C  5.20000 57.24400 42.54600
C  4.09000 58.16300 42.97000
C  2.95700 57.16000 43.41500
C  3.60300 55.81100 43.33700
C  4.47000 59.34400 43.93900
C  1.61000 57.38800 42.67400
C  0.75300 58.51700 43.26000
N  4.44600 52.97900 42.85900
C  3.27400 53.34900 43.57400
C  2.60500 52.09200 43.89000
C  3.41500 51.05600 43.33600
C  4.43900 51.71100 42.53500
C  1.41300 51.88300 44.72100
C  3.54600 49.57000 43.14800
O  2.88000 48.66200 43.58800
C  4.79300 49.46100 42.16400
C  4.17600 48.85300 40.86100
O  3.21900 49.27600 40.28300
O  4.80800 47.70500 40.52800
C  4.33500 46.91800 39.41600
H  10.20000 53.50100 40.56400
H  6.57000 58.77800 42.04400
H  1.97500 54.70700 44.29100
H  7.57700 49.46700 41.41500
H  9.60700 51.17900 40.17700
H  10.72500 50.21900 41.94900
H  9.32800 50.03900 42.94400
H  10.06300 51.62400 42.88300
H  6.81000 49.23200 39.24800
H  8.37900 49.75500 38.87500
H  7.99600 51.60800 38.02100
H  6.68600 52.17900 39.00300
H  11.13800 56.44900 39.53900
H  11.43100 55.22900 40.73000
H  11.68500 56.84500 41.23300
H  7.72600 60.02500 40.80900
H  9.06500 60.99300 41.08900
H  8.27200 60.16200 42.43500
H  3.79400 58.67600 42.05500
H  2.72700 57.42100 44.44800
H  5.52200 59.25800 44.21400
H  3.79700 59.37500 44.79600
H  4.37300 60.33400 43.49300
H  0.92800 56.54400 42.77500
H  1.88600 57.59500 41.64000
H  0.60900 59.34800 42.56900
H  1.02600 58.79900 44.27700
H  -0.25900 58.11700 43.33000
H  1.42700 50.84800 45.06400
H  0.58900 52.14300 44.05600
H  1.33500 52.66600 45.47500
H  5.50200 48.74500 42.57900
H  3.25500 47.04800 39.34000
H  4.46900 45.84700 39.56700
H  4.81000 47.26800 38.49900

