158

Mg 16.86600 -2.47700 27.31700
C  16.20800 -0.32000 30.00400
C  18.51100 -4.57900 29.37200
C  17.58600 -4.27600 24.64600
C  15.06700 -0.08700 25.21300
N  17.47200 -2.27600 29.38400
C  17.00600 -1.38700 30.32100
C  17.44500 -1.80400 31.78900
C  18.30700 -3.14500 31.56200
C  18.08400 -3.38400 30.04200
C  19.78300 -3.13100 31.96900
C  16.31700 -2.02900 32.88400
C  16.55500 -1.79700 34.40700
H  18.04700 -1.39000 34.90500
N  17.95700 -4.16600 27.03200
C  18.50700 -4.93600 27.95400
C  18.94400 -6.21600 27.36600
C  18.79400 -6.10300 26.00700
C  18.10900 -4.80700 25.83200
C  19.43400 -7.32900 28.20700
C  19.19500 -7.11900 24.89300
O  19.07700 -6.82900 23.65700
C  19.75900 -8.50600 25.16900
N  16.37300 -2.15300 25.25100
C  16.94000 -3.02700 24.37200
C  16.63600 -2.53400 22.84900
C  15.45200 -1.55700 23.09800
C  15.62300 -1.21500 24.53000
C  17.92800 -1.87700 22.39000
C  14.04100 -2.21300 22.95100
C  13.16000 -1.60600 21.90400
N  15.94500 -0.54800 27.57300
C  15.22100 0.17600 26.65300
C  14.64900 1.27800 27.36400
C  15.04000 1.19000 28.70900
C  15.67400 -0.03500 28.80000
C  13.98000 2.33000 26.71600
C  14.97200 1.76400 30.05500
O  14.44700 2.82000 30.41700
C  15.73100 0.81100 30.94700
C  16.75600 1.58500 31.74000
O  17.87000 1.87300 31.33900
O  16.11100 2.14900 32.87500
C  16.87200 3.26100 33.52300
H  19.00000 -5.25500 30.07600
H  17.91800 -4.83500 23.76900
H  14.36000 0.59600 24.73700
H  18.14100 -1.07300 32.19800
H  17.78100 -3.98000 32.02600
H  19.94300 -3.81100 32.80600
H  20.08100 -2.13200 32.28600
H  20.38400 -3.49000 31.13300
H  16.07200 -3.08200 32.74700
H  15.37000 -1.56600 32.60600
H  16.34200 -2.68000 35.00900
H  15.86600 -0.98800 34.65000
H  20.28600 -7.80600 27.72300
H  18.66700 -8.07800 28.40700
H  19.90600 -6.93700 29.10800
H  19.14700 -9.03800 25.89600
H  20.80100 -8.40400 25.47200
H  19.71800 -9.04500 24.22200
H  16.40100 -3.32300 22.13500
H  15.58000 -0.61800 22.55900
H  17.79800 -0.79600 22.33100
H  18.14700 -2.20700 21.37500
H  18.77600 -2.07400 23.04500
H  13.54100 -2.39100 23.90300
H  14.34100 -3.18900 22.56900
H  12.08900 -1.58600 22.10400
H  13.31900 -2.17500 20.98800
H  13.51500 -0.58500 21.76800
H  13.67800 3.07300 27.45400
H  13.16700 1.95900 26.09100
H  14.72300 2.76300 26.04600
H  15.09300 0.38000 31.71900
H  17.55200 2.75800 34.21100
H  16.25900 3.91000 34.14800
H  17.59400 3.85600 32.96500
Mg 52.58400 23.84600 45.05700
C  49.90900 25.95700 44.48000
C  50.75000 21.23500 43.74000
C  55.42900 21.98500 44.95000
C  54.38000 26.71300 46.15600
N  50.66500 23.70500 44.01500
C  49.70000 24.69300 43.99500
C  48.35100 23.98900 43.60300
C  48.61700 22.48300 43.74400
C  50.14100 22.43700 43.78800
C  47.90900 21.73600 44.97200
C  47.88100 24.48400 42.24600
C  48.87400 24.42700 41.01900
H  48.37400 23.63400 39.73400
N  53.00900 21.82600 44.49700
C  52.05300 20.94300 44.09500
C  52.73400 19.72200 43.90900
C  54.08800 19.81600 44.30000
C  54.22300 21.24100 44.60900
C  52.06700 18.49800 43.35700
C  55.11700 18.70100 44.22100
O  54.90600 17.52800 43.82600
C  56.56900 18.99600 44.61000
N  54.60200 24.29600 45.41200
C  55.60500 23.39300 45.24700
C  56.98900 24.03700 45.57900
C  56.61100 25.40800 46.14000
C  55.09400 25.53300 45.87800
C  57.90700 23.12400 46.53400
C  57.50200 26.54800 45.57300
C  58.78000 26.84400 46.32800
N  52.24700 25.91900 45.32800
C  53.00500 26.95500 45.88800
C  52.21200 28.10100 46.10700
C  50.96400 27.77100 45.51900
C  51.05800 26.48800 45.02000
C  52.71600 29.40400 46.64900
C  49.69500 28.32000 45.19400
O  49.17500 29.44100 45.32200
C  48.88100 27.17300 44.50500
C  48.54800 27.73000 43.10900
O  49.39800 27.83900 42.24000
O  47.20400 28.09000 43.06300
C  46.83700 28.65200 41.68400
H  50.05300 20.43100 43.49400
H  56.40600 21.49700 44.96300
H  54.94500 27.60100 46.45000
H  47.58200 24.33300 44.29500
H  48.30800 22.02800 42.80300
H  47.20300 22.43400 45.42200
H  48.69400 21.56400 45.70800
H  47.42700 20.83700 44.58800
H  47.40200 25.43000 42.49800
H  47.00500 23.88000 42.01000
H  49.72000 23.79200 41.28200
H  49.26000 25.42400 40.80800
H  50.98500 18.48000 43.48200
H  52.33600 17.68200 44.02800
H  52.32600 18.36900 42.30600
H  57.06400 18.02500 44.61300
H  56.45900 19.46200 45.58900
H  56.99400 19.71500 43.91000
H  57.61400 24.17300 44.69600
H  56.71100 25.29500 47.22000
H  57.22400 22.54600 47.15700
H  58.43500 23.80300 47.20400
H  58.63600 22.60600 45.91000
H  56.83700 27.41100 45.53600
H  57.74300 26.36900 44.52600
H  59.66900 26.92300 45.70300
H  59.01600 26.09900 47.08800
H  58.70400 27.78500 46.87300
H  52.42500 30.20400 45.96900
H  53.80400 29.35600 46.60900
H  52.51200 29.65900 47.68900
H  47.94200 26.93800 45.00600
H  47.66200 29.19700 41.22600
H  45.98200 29.26100 41.98000
H  46.52700 27.81400 41.06000

