158

Mg 27.06900 51.33200 26.24200
C  25.19100 52.13100 29.00800
C  29.60500 50.34400 28.43600
C  29.06800 50.65800 23.63700
C  24.80600 52.86800 24.22700
N  27.40600 51.44700 28.46000
C  26.44500 51.62400 29.40300
C  26.87900 51.26500 30.85200
C  28.39100 51.00400 30.62500
C  28.50200 50.94900 29.10100
C  29.46300 51.82200 31.37800
C  26.12600 50.07900 31.58900
C  25.13700 50.44400 32.75200
H  25.19000 49.75100 34.11300
N  29.00500 50.51300 26.03900
C  29.84100 50.15200 27.08200
C  31.09800 49.67500 26.55500
C  30.98500 49.64400 25.12000
C  29.65300 50.34500 24.84400
C  32.24300 49.20200 27.41200
C  31.89400 49.06800 24.06400
O  31.76400 49.31600 22.88100
C  33.00900 48.15300 24.50100
N  27.03300 51.80000 24.25400
C  27.83900 51.30600 23.33500
C  27.33700 51.46700 21.88900
C  25.90200 52.03400 22.11400
C  25.91100 52.29400 23.63500
C  28.18000 52.36800 20.94500
C  24.72800 51.08300 21.66500
C  23.63300 51.75600 20.88000
N  25.29800 52.19200 26.43300
C  24.44300 52.85000 25.53300
C  23.26600 53.30100 26.19100
C  23.50600 52.95000 27.53100
C  24.76200 52.34500 27.63200
C  22.13800 54.17000 25.63900
C  22.95300 53.01800 28.90200
O  21.89400 53.41900 29.33300
C  24.01700 52.56600 29.89100
C  24.29100 53.69100 30.81600
O  25.28400 54.38900 30.83100
O  23.33000 53.71500 31.81600
C  23.53300 54.71500 32.89300
H  30.31200 49.90700 29.14400
H  29.62700 50.41400 22.73200
H  24.04500 53.14800 23.49700
H  26.88200 52.17900 31.44500
H  28.59300 49.99200 30.97400
H  29.97200 51.15600 32.07500
H  28.91000 52.55600 31.96400
H  30.08800 52.39100 30.69000
H  26.76300 49.27300 31.95200
H  25.50200 49.63800 30.81100
H  24.17600 50.07400 32.39500
H  25.10300 51.53000 32.84100
H  32.07300 48.12800 27.34800
H  32.18600 49.52400 28.45200
H  33.19000 49.42100 26.91800
H  33.71100 48.73200 25.10100
H  33.38200 47.55300 23.67100
H  32.54400 47.39000 25.12500
H  27.21100 50.49900 21.40300
H  25.74900 53.02800 21.69200
H  27.61100 53.26000 20.68300
H  28.57500 51.81900 20.08900
H  29.06400 52.60400 21.53700
H  24.15700 50.76300 22.53600
H  25.08400 50.16500 21.19800
H  22.67800 51.53400 21.35700
H  23.58300 51.52600 19.81500
H  23.79700 52.82700 20.99800
H  21.21400 54.24100 26.21300
H  21.83600 53.83400 24.64800
H  22.45900 55.20000 25.48500
H  23.53400 51.70200 30.34700
H  24.20400 54.24500 33.61200
H  22.67200 54.94100 33.52300
H  23.93700 55.68300 32.59900
Mg 16.95600 53.06000 26.61700
C  18.85600 51.47500 29.03500
C  14.50200 53.61600 28.90600
C  14.96800 54.19400 24.11300
C  19.32600 52.01600 24.14000
N  16.60400 52.48900 28.64200
C  17.60000 51.96100 29.45700
C  17.27300 52.27200 30.89800
C  15.78900 52.63000 30.82800
C  15.53600 52.81700 29.35400
C  14.86500 51.61600 31.45900
C  18.17600 53.39700 31.50300
C  18.63200 53.18400 32.91500
H  17.67100 52.38000 33.82400
N  15.06700 53.95600 26.52200
C  14.23900 54.16000 27.63200
C  13.04800 54.87700 27.23600
C  13.09300 54.96800 25.81900
C  14.41200 54.38800 25.37300
C  11.98100 55.22500 28.26900
C  12.09200 55.62100 24.85100
O  12.39600 55.64900 23.64600
C  10.89300 56.44000 25.37100
N  17.11400 52.97700 24.42200
C  16.11700 53.55900 23.66800
C  16.44900 53.29600 22.14400
C  17.99800 52.95100 22.18800
C  18.18000 52.63200 23.66400
C  15.48400 52.28100 21.47800
C  19.01700 53.94800 21.59500
C  19.51900 55.20900 22.35500
N  18.75900 51.84200 26.53900
C  19.65300 51.60600 25.47300
C  20.76800 50.79000 26.05100
C  20.47000 50.84500 27.45200
C  19.25200 51.41800 27.69000
C  21.90900 50.22000 25.26600
C  21.06100 50.40500 28.73100
O  22.11900 49.84100 28.95900
C  20.00900 50.90300 29.81500
C  19.65600 49.80000 30.60800
O  19.07500 48.77900 30.25000
O  19.99400 50.00700 31.89600
C  19.54800 48.95400 32.76500
H  13.75200 53.79900 29.67800
H  14.35200 54.51100 23.26800
H  20.01300 51.76000 23.33000
H  17.48800 51.39200 31.50500
H  15.69100 53.62500 31.26200
H  14.14100 52.12500 32.09600
H  15.33100 50.76700 31.95900
H  14.35400 51.22100 30.58000
H  17.73300 54.37500 31.31400
H  19.07200 53.51000 30.89200
H  18.66500 54.10700 33.49400
H  19.56700 52.63400 33.02200
H  11.15500 54.52300 28.38000
H  11.50500 56.15400 27.95700
H  12.46300 55.49600 29.20900
H  10.26000 55.91800 26.08800
H  10.27200 56.66700 24.50400
H  11.27500 57.34100 25.85000
H  16.37300 54.28400 21.68900
H  18.24000 51.98800 21.74000
H  16.13200 51.48800 21.10500
H  14.85100 52.57900 20.64300
H  14.87500 51.74700 22.20900
H  18.50500 54.33600 20.71400
H  19.84700 53.27000 21.39500
H  18.81800 55.49300 23.14000
H  19.43700 56.06800 21.68900
H  20.56500 55.09200 22.63800
H  22.49700 51.12500 25.10900
H  21.79100 49.69800 24.31600
H  22.52700 49.66300 25.97000
H  20.51700 51.69800 30.36000
H  20.38800 48.26200 32.82900
H  18.56600 48.52100 32.57300
H  19.43800 49.49400 33.70600

