158

Mg -1.71600 17.08000 25.99900
C  -2.50500 14.89900 28.70300
C  -2.67700 19.63300 28.08100
C  -1.40200 18.97400 23.31200
C  -1.46700 14.20700 23.99100
N  -2.51400 17.20300 28.15800
C  -2.69400 16.17700 29.02300
C  -3.09100 16.67300 30.38700
C  -3.41000 18.23900 30.18100
C  -2.89600 18.36700 28.66900
C  -4.87200 18.74700 30.38400
C  -2.08700 16.36800 31.60300
C  -2.08300 17.29300 32.81300
H  -2.42200 16.61900 34.10600
N  -1.85600 19.12000 25.79000
C  -2.21500 20.07800 26.73600
C  -2.04700 21.31700 26.16000
C  -1.62600 21.18500 24.81600
C  -1.58300 19.69600 24.54200
C  -2.47300 22.50000 26.95100
C  -1.36100 22.19800 23.82800
O  -1.14500 21.95800 22.61200
C  -1.41500 23.65900 24.20100
N  -1.52200 16.69700 23.93700
C  -1.40600 17.63400 22.96800
C  -1.04700 17.10900 21.57200
C  -0.88300 15.61800 21.99700
C  -1.27300 15.49100 23.45500
C  -2.11900 17.47800 20.41600
C  0.50900 14.96800 21.80800
C  1.73200 15.79800 22.31000
N  -1.88400 14.96300 26.29100
C  -1.80200 13.88900 25.33700
C  -2.00300 12.62000 26.04700
C  -2.23100 12.99800 27.38100
C  -2.13400 14.38100 27.44000
C  -2.00100 11.30800 25.38900
C  -2.56500 12.36900 28.60400
O  -2.59700 11.20200 28.88600
C  -2.65100 13.63000 29.53600
C  -1.70900 13.32400 30.70400
O  -0.54800 13.61200 30.85100
O  -2.42500 12.78300 31.73900
C  -1.74700 12.43200 33.00000
H  -2.82000 20.35500 28.88800
H  -1.29500 19.57700 22.40800
H  -1.38400 13.32600 23.35000
H  -3.99700 16.13700 30.67400
H  -2.85000 19.02900 30.68100
H  -5.36400 18.87000 29.41900
H  -4.84200 19.74100 30.83000
H  -5.43300 18.16400 31.11400
H  -1.09100 16.29300 31.16600
H  -2.32100 15.35900 31.94000
H  -2.77200 18.13200 32.71100
H  -1.10600 17.73300 33.01600
H  -1.68200 23.21600 27.17400
H  -2.82900 22.23200 27.94600
H  -3.27600 23.03800 26.44700
H  -0.63500 23.83100 24.94300
H  -2.35700 23.96100 24.66000
H  -1.35300 24.20800 23.26200
H  -0.09800 17.60200 21.36000
H  -1.62500 15.14800 21.35200
H  -1.70300 18.30700 19.84500
H  -3.04500 17.76600 20.91500
H  -2.10000 16.63600 19.72400
H  0.68900 14.91400 20.73400
H  0.44900 13.94300 22.17500
H  2.37900 15.16700 22.91900
H  1.50400 16.64400 22.95800
H  2.27500 16.10600 21.41600
H  -1.87700 10.55900 26.17100
H  -1.22400 11.16400 24.63800
H  -2.92400 11.23500 24.81400
H  -3.62000 13.62000 30.03500
H  -0.93600 11.78700 32.66200
H  -2.47100 11.97100 33.67200
H  -1.33200 13.39600 33.29400
Mg -1.67600 34.68600 26.62500
C  -3.24700 32.73200 29.11300
C  -0.60900 36.79800 29.07800
C  -0.57600 36.53400 24.27200
C  -3.29100 32.50300 24.19300
N  -1.94200 34.86200 28.84100
C  -2.54900 33.86000 29.67200
C  -2.34100 34.12500 31.15300
C  -1.58200 35.50800 31.13100
C  -1.33400 35.74100 29.59200
C  -2.14100 36.71300 31.90400
C  -1.64300 32.91900 31.92000
C  -2.30300 32.44700 33.20900
H  -1.35000 32.31100 34.32800
N  -0.67000 36.40500 26.69900
C  -0.31800 37.15100 27.76500
C  0.37200 38.35800 27.30200
C  0.41900 38.27100 25.90500
C  -0.30800 37.05900 25.55100
C  0.94200 39.37200 28.31200
C  0.98800 39.26400 24.94400
O  1.07900 39.16000 23.69900
C  1.38600 40.65800 25.53200
N  -1.93900 34.54800 24.51200
C  -1.32200 35.47800 23.78200
C  -1.55200 35.15400 22.22900
C  -2.23500 33.75600 22.28800
C  -2.52000 33.58800 23.78300
C  -2.44700 36.08300 21.41400
C  -1.53800 32.48600 21.75300
C  -0.31100 31.98900 22.60200
N  -2.96100 32.90300 26.55100
C  -3.56600 32.17700 25.53700
C  -4.41600 31.21300 26.17000
C  -4.29000 31.41400 27.56500
C  -3.37400 32.41300 27.70000
C  -5.15800 30.13100 25.44500
C  -4.76000 30.83500 28.79400
O  -5.56400 29.94000 28.98000
C  -4.16000 31.71100 29.88100
C  -5.29300 32.33700 30.69700
O  -6.00000 33.27200 30.32600
O  -5.43000 31.64300 31.86600
C  -6.63100 32.03800 32.59600
H  -0.23400 37.43100 29.88600
H  -0.24300 37.21600 23.48700
H  -3.77900 31.85700 23.46100
H  -3.34800 34.29000 31.53800
H  -0.56000 35.33100 31.46500
H  -1.49000 37.10300 32.68600
H  -3.09600 36.49200 32.38200
H  -2.22900 37.56200 31.22600
H  -0.68600 33.27500 32.30400
H  -1.54900 32.17500 31.12900
H  -2.65500 31.42600 33.05900
H  -3.14700 33.09000 33.45800
H  0.12600 40.08000 28.45300
H  1.87600 39.89100 28.09300
H  1.25900 38.80400 29.18600
H  2.25200 40.50400 26.17700
H  0.48800 41.04300 26.01400
H  1.70300 41.38200 24.78100
H  -0.61700 35.04300 21.68100
H  -3.28600 33.72200 22.00300
H  -3.20500 35.60200 20.79700
H  -1.89100 36.55200 20.60200
H  -2.94900 36.88100 21.96100
H  -1.19500 32.81500 20.77300
H  -2.24200 31.65700 21.67100
H  -0.78400 31.54700 23.47900
H  0.23600 32.87000 22.93700
H  0.40100 31.30500 22.14000
H  -6.07000 30.55900 25.02900
H  -5.48000 29.36200 26.14800
H  -4.63300 29.71300 24.58500
H  -3.61000 31.09600 30.59300
H  -7.47300 32.39900 32.00600
H  -6.41900 32.87800 33.25700
H  -6.88500 31.16600 33.19900

