158

Mg 31.29300 57.74600 40.12700
C  28.57600 56.18400 38.63200
C  33.36100 55.48800 38.59300
C  33.99100 59.75000 40.84400
C  29.18500 60.31600 41.25900
N  30.93500 56.03500 38.79500
C  29.76200 55.52500 38.30900
C  29.96700 54.26200 37.35600
C  31.46600 53.91300 37.75700
C  31.95300 55.20700 38.47700
C  31.56500 52.63700 38.56400
C  29.70700 54.71900 35.89800
C  28.93500 53.68000 35.02000
H  28.38700 54.17100 33.64100
N  33.38900 57.56300 39.85500
C  34.00000 56.58200 39.10500
C  35.43800 56.72300 39.26700
C  35.70200 58.01400 39.93100
C  34.34300 58.51600 40.28300
C  36.39300 55.73000 38.71400
C  37.06900 58.63400 40.19200
O  38.11300 58.01300 39.92800
C  37.21000 59.85600 40.99000
N  31.49300 59.72800 40.75500
C  32.75000 60.23900 41.07000
C  32.67200 61.66200 41.74400
C  31.19500 61.69800 42.13300
C  30.56600 60.53400 41.33800
C  33.59200 61.98800 42.99500
C  30.43200 63.03800 41.95800
C  30.47900 63.98900 43.10500
N  29.31000 58.16800 40.06600
C  28.51900 59.25500 40.56000
C  27.11200 59.00200 40.44300
C  27.13500 57.82900 39.61300
C  28.44000 57.36400 39.45700
C  25.94000 59.82300 40.92800
C  26.22000 56.98100 38.88100
O  24.96700 56.90200 38.70300
C  27.21700 55.96300 38.12200
C  26.76200 54.58300 38.25500
O  27.08300 53.87400 39.20500
O  25.84500 54.15900 37.27500
C  25.25900 52.85400 37.43100
H  33.96100 54.69700 38.13800
H  34.77200 60.49400 41.01300
H  28.44200 60.95900 41.73700
H  29.25500 53.47700 37.60700
H  32.01400 53.74500 36.83000
H  30.71400 51.96400 38.66000
H  31.76500 52.88600 39.60600
H  32.40400 52.04600 38.19600
H  30.64000 54.93800 35.37900
H  29.14500 55.65200 35.91800
H  28.01500 53.42700 35.54800
H  29.56500 52.80500 34.86100
H  35.87000 54.97400 38.12900
H  36.92500 55.25700 39.54000
H  37.07100 56.09400 37.94300
H  38.27200 59.88600 41.23400
H  36.68700 59.67000 41.92800
H  36.82600 60.66500 40.36900
H  32.97400 62.40900 41.01000
H  30.93900 61.41700 43.15400
H  34.29100 61.18800 43.23500
H  32.95300 62.19400 43.85400
H  34.27300 62.77100 42.66300
H  29.40000 62.92800 41.62400
H  30.98200 63.53800 41.16000
H  31.13700 64.85500 43.03400
H  30.99300 63.44800 43.89900
H  29.51500 64.41800 43.37700
H  25.60900 59.42600 41.88800
H  25.10200 59.66700 40.24900
H  26.30300 60.84700 41.01600
H  27.22400 56.18900 37.05600
H  25.42000 52.35300 38.38600
H  25.50900 52.10900 36.67600
H  24.18200 53.01700 37.39800
Mg 17.36300 52.41000 25.97500
C  19.34200 50.87700 28.41800
C  15.24500 53.58300 28.53700
C  15.33500 53.80900 23.66900
C  19.62500 51.31600 23.58500
N  17.35800 52.36000 28.15800
C  18.26300 51.68500 28.95900
C  17.96600 51.84900 30.42600
C  16.48100 52.28800 30.40100
C  16.34200 52.87000 28.96000
C  15.44800 51.20200 30.76300
C  19.01500 52.81200 31.09600
C  19.25600 52.48600 32.62300
H  18.17700 51.79100 33.47400
N  15.46300 53.47400 26.08200
C  14.78500 53.88300 27.24900
C  13.67600 54.76200 26.85100
C  13.68200 54.86900 25.42000
C  14.86100 54.01900 25.01500
C  12.79800 55.36100 27.87200
C  12.75900 55.63400 24.48300
O  12.80700 55.54500 23.30000
C  11.89300 56.69200 25.04900
N  17.43100 52.47100 23.93800
C  16.47600 53.09200 23.18800
C  16.78500 53.09400 21.66900
C  18.15100 52.25900 21.67400
C  18.43800 52.03700 23.18100
C  15.66900 52.52600 20.81800
C  19.42500 52.98400 20.92800
C  19.90200 54.28900 21.57600
N  19.14800 51.22300 25.93200
C  19.95000 50.89400 24.91500
C  20.97500 50.03800 25.37500
C  20.77100 49.87000 26.76800
C  19.63900 50.71600 27.06000
C  22.06000 49.38000 24.64900
C  21.24200 49.35900 28.01100
O  22.17600 48.63700 28.21100
C  20.28100 49.95000 29.16700
C  19.65000 48.92800 30.02200
O  19.07500 47.93500 29.60000
O  19.96000 49.13600 31.38000
C  19.75500 48.13300 32.35400
H  14.60000 53.93000 29.34800
H  14.75200 54.28000 22.87400
H  20.30200 50.89900 22.83600
H  18.04200 50.85700 30.87300
H  16.43400 53.11100 31.11500
H  14.69800 51.07000 29.98300
H  15.06800 51.44700 31.75400
H  15.87300 50.21100 30.92700
H  18.64000 53.83100 31.19300
H  19.98000 52.85100 30.58900
H  19.46500 53.43200 33.12200
H  20.12800 51.84700 32.76300
H  12.95200 54.74500 28.75800
H  11.74300 55.22200 27.63400
H  13.02800 56.39500 28.12600
H  11.15200 56.32900 25.76300
H  11.29400 57.07400 24.22200
H  12.57700 57.49200 25.33100
H  16.97100 54.10500 21.30500
H  17.96200 51.26600 21.26500
H  14.78300 53.05200 21.17500
H  15.42100 51.48200 21.00700
H  15.76400 52.74000 19.75300
H  19.14900 53.20300 19.89600
H  20.34200 52.39800 20.86800
H  19.74100 55.04000 20.80200
H  20.92400 54.28700 21.95400
H  19.23200 54.62200 22.36900
H  22.26100 50.12400 23.87800
H  21.57600 48.49000 24.24700
H  22.87000 49.23200 25.36200
H  20.75200 50.61700 29.89000
H  18.98800 48.47300 33.04900
H  20.66200 47.99900 32.94400
H  19.46700 47.21600 31.84100

