158

Mg 0.98700 8.06600 26.80800
C  1.46700 9.89600 29.83800
C  0.30700 5.31900 28.64100
C  0.42700 6.64900 23.95000
C  1.82500 11.17900 25.05600
N  0.91800 7.67100 28.98000
C  0.99800 8.51400 30.01300
C  0.59100 7.85800 31.32300
C  0.86700 6.35600 30.98700
C  0.75700 6.40900 29.43300
C  2.23600 5.82200 31.42600
C  -0.84600 8.11700 31.77600
C  -1.20500 8.49100 33.31800
H  -0.03500 8.48200 34.28600
N  0.47400 6.24900 26.39700
C  0.11600 5.25500 27.23800
C  -0.46500 4.14000 26.52200
C  -0.43500 4.50100 25.21000
C  0.12300 5.84200 25.15300
C  -0.92600 2.79200 27.05000
C  -0.89600 3.70100 23.95000
O  -0.70600 4.19800 22.89600
C  -1.61400 2.36800 24.04400
N  1.25200 8.79300 24.77800
C  0.95500 7.95900 23.78800
C  1.44400 8.50300 22.43200
C  1.45100 10.02300 22.78400
C  1.57700 10.00500 24.31300
C  2.90300 7.83700 22.09000
C  0.14600 10.69200 22.45400
C  0.20100 12.23100 22.10900
N  1.75500 10.06600 27.23000
C  2.06200 11.12500 26.47700
C  2.47700 12.29300 27.28200
C  2.17400 11.84300 28.62200
C  1.82800 10.50600 28.52400
C  2.86900 13.69000 26.68600
C  2.21500 12.27200 29.96400
O  2.53400 13.36000 30.35500
C  1.61300 11.01400 30.83200
C  2.63600 10.81300 31.92800
O  3.68400 10.20400 31.85000
O  2.17400 11.41900 33.07300
C  3.19600 11.52800 34.12600
H  0.20500 4.42600 29.26100
H  0.48600 6.17300 22.96900
H  1.96300 12.12800 24.53300
H  1.20000 8.28000 32.12200
H  0.04100 5.78300 31.40900
H  2.96900 6.58100 31.70000
H  2.57500 5.35400 30.50200
H  2.19600 5.14100 32.27600
H  -1.43300 7.22300 31.56200
H  -1.22500 8.82000 31.03400
H  -2.05400 7.85400 33.56600
H  -1.49800 9.52900 33.16200
H  -1.86600 2.42000 26.64100
H  -0.98100 2.74800 28.13700
H  -0.23900 1.98100 26.80500
H  -1.09100 1.74100 24.76500
H  -1.73400 1.87100 23.08100
H  -2.53300 2.66800 24.54800
H  0.81100 8.19700 21.59800
H  2.28200 10.44700 22.21900
H  3.51600 8.12700 22.94300
H  3.27200 8.46800 21.28100
H  2.66700 6.80200 21.84200
H  -0.50200 10.54400 23.31800
H  -0.25000 10.23500 21.54700
H  1.16500 12.60200 21.76200
H  0.01500 12.83300 22.99800
H  -0.49100 12.53000 21.32100
H  2.11000 14.05300 25.99300
H  3.77800 13.63200 26.08700
H  3.09700 14.39100 27.48900
H  0.62300 11.19200 31.25000
H  3.45600 12.58700 34.14800
H  4.13100 11.03700 33.85800
H  2.84000 11.09500 35.06100
Mg 54.14600 23.12900 44.92200
C  51.70300 25.41100 43.61200
C  52.26000 20.55000 43.74200
C  56.66600 21.09700 45.36400
C  56.04700 25.89900 45.84600
N  52.16000 23.06900 43.76700
C  51.29400 24.09900 43.39600
C  50.24900 23.51500 42.50000
C  50.22500 22.03200 43.07500
C  51.65300 21.82900 43.47800
C  49.22600 21.91000 44.31800
C  50.46000 23.62400 40.93900
C  49.28100 24.10300 40.05900
H  49.02700 23.44900 38.62800
N  54.47000 21.05900 44.57000
C  53.52900 20.12700 44.16300
C  54.06900 18.78700 44.19800
C  55.44100 18.91000 44.53600
C  55.61200 20.37500 44.87400
C  53.32000 17.50500 43.84800
C  56.43600 17.85000 44.58000
O  56.18800 16.66400 44.35300
C  57.81800 18.11700 44.84400
N  56.16200 23.48900 45.32900
C  56.94800 22.43800 45.59600
C  58.31400 22.83400 46.16600
C  58.21000 24.38900 46.22600
C  56.69700 24.63100 45.83900
C  58.68700 22.23600 47.51900
C  59.25200 25.06500 45.28300
C  60.65400 25.34200 45.92400
N  53.92900 25.15000 44.91500
C  54.73600 26.16600 45.41400
C  54.08900 27.47600 45.29900
C  52.91400 27.19200 44.55000
C  52.84600 25.77700 44.36500
C  54.74100 28.83700 45.70000
C  51.75400 27.75400 43.88600
O  51.38200 28.95800 43.81100
C  50.92400 26.59700 43.26100
C  51.00900 26.93400 41.79400
O  52.01500 26.90000 41.05500
O  49.83400 27.47800 41.35200
C  49.81300 28.26700 40.12800
H  51.60100 19.74000 43.42200
H  57.58400 20.52800 45.52500
H  56.68600 26.74200 46.11500
H  49.29900 24.03100 42.63900
H  50.01800 21.24500 42.35000
H  48.75600 22.86700 44.54500
H  49.65400 21.56900 45.26000
H  48.40800 21.33100 43.89100
H  50.81000 22.66300 40.56300
H  51.27500 24.32100 40.74100
H  49.32100 25.17300 39.85300
H  48.41300 23.97200 40.70500
H  53.58400 17.25600 42.82000
H  52.25100 17.69000 43.95200
H  53.52600 16.65200 44.49600
H  58.10600 18.98300 44.24800
H  58.30100 17.19700 44.51400
H  57.94700 18.27000 45.91500
H  59.08800 22.46800 45.49200
H  58.30200 24.74900 47.25000
H  58.06000 21.41900 47.87600
H  58.55600 22.90300 48.37200
H  59.69000 21.81500 47.45700
H  58.74500 25.98100 44.98200
H  59.37600 24.48300 44.36900
H  61.46500 25.05400 45.25600
H  60.70200 24.80300 46.87000
H  60.76100 26.41600 46.08100
H  55.82600 28.83400 45.60100
H  54.37600 29.14200 46.68000
H  54.33200 29.59400 45.03100
H  49.90000 26.69600 43.62000
H  49.15100 29.13300 40.14800
H  49.36600 27.68600 39.32100
H  50.79600 28.64200 39.84300

