158

Mg -2.30000 35.12700 26.75300
C  -3.93900 33.13000 29.01300
C  -0.71100 36.64200 29.40300
C  -0.73300 37.24100 24.47500
C  -3.94100 33.60500 24.12900
N  -2.37400 34.96400 28.89700
C  -3.08100 34.00100 29.66600
C  -2.89900 34.08300 31.16800
C  -2.07900 35.41400 31.25300
C  -1.70700 35.70600 29.74700
C  -2.81700 36.68000 31.93200
C  -2.15400 32.84400 31.75200
C  -2.78800 32.09400 32.98500
H  -2.18700 32.20500 34.33400
N  -0.88500 36.71400 26.94500
C  -0.30500 37.16000 28.09900
C  0.75900 38.13200 27.70800
C  0.76800 38.24700 26.30300
C  -0.34200 37.41800 25.84400
C  1.62100 38.80000 28.71600
C  1.58200 39.11700 25.40900
O  1.36600 39.27400 24.22400
C  2.84800 39.74000 25.97100
N  -2.49700 35.60400 24.60400
C  -1.60100 36.30500 23.87300
C  -1.86100 36.13900 22.35000
C  -2.79800 34.85800 22.34400
C  -3.02700 34.58800 23.80500
C  -2.43700 37.44500 21.67100
C  -2.20300 33.55100 21.61300
C  -0.67900 33.37300 21.43300
N  -3.74000 33.62400 26.52300
C  -4.36500 33.15900 25.42800
C  -5.35700 32.10700 25.85300
C  -5.27200 32.13000 27.29500
C  -4.25200 33.11100 27.64300
C  -6.22100 31.21100 25.09600
C  -5.71500 31.45400 28.45400
O  -6.49000 30.42400 28.55700
C  -4.92200 32.11200 29.70200
C  -5.83600 32.74200 30.67900
O  -6.54000 33.73900 30.46900
O  -5.97400 31.92200 31.80400
C  -6.98000 32.23200 32.87100
H  -0.21100 37.11800 30.24900
H  -0.09000 37.62500 23.68000
H  -4.50800 33.03300 23.39100
H  -3.85900 34.19700 31.67200
H  -1.19100 35.19200 31.84500
H  -2.50300 36.85200 32.96200
H  -3.89700 36.55400 32.01400
H  -2.72700 37.58900 31.33700
H  -1.17900 33.22300 32.05900
H  -2.02300 32.11000 30.95600
H  -2.95700 31.08800 32.60000
H  -3.77700 32.50600 33.18000
H  2.66500 38.75000 28.40900
H  1.52300 38.32400 29.69200
H  1.21000 39.80900 28.66600
H  3.43300 40.25200 25.20700
H  3.40600 38.91800 26.42000
H  2.48100 40.47900 26.68300
H  -0.87800 35.98900 21.90300
H  -3.76900 35.09400 21.90900
H  -3.31400 37.23100 21.05900
H  -1.63700 37.83900 21.04600
H  -2.82300 38.10200 22.45100
H  -2.72000 33.44900 20.65800
H  -2.54900 32.65400 22.12700
H  -0.25100 33.83200 20.54200
H  -0.56400 32.29000 21.38700
H  -0.02300 33.73100 22.22600
H  -5.74800 31.04200 24.12900
H  -7.20000 31.69100 25.11800
H  -6.36000 30.26000 25.61100
H  -4.24200 31.41500 30.19200
H  -7.43800 33.21900 32.79500
H  -6.53200 32.42200 33.84600
H  -7.76500 31.47600 32.86000
Mg -11.72600 15.98000 41.64900
C  -8.56900 14.88600 40.89200
C  -11.15700 18.99900 40.15500
C  -15.01700 16.65200 41.83600
C  -12.41200 12.63600 42.67100
N  -10.04100 16.68300 40.37100
C  -8.79100 16.19300 40.50400
C  -7.78100 17.21800 39.94200
C  -8.62500 18.48900 39.68100
C  -10.07300 18.08400 40.25700
C  -8.05800 19.80200 40.38200
C  -7.01100 16.70500 38.68000
C  -5.62000 17.23500 38.69200
H  -5.34000 18.33600 37.70700
N  -12.91100 17.64700 41.00700
C  -12.48600 18.81500 40.57200
C  -13.59600 19.66300 40.31200
C  -14.77800 19.00000 40.76900
C  -14.24600 17.71300 41.27800
C  -13.44600 20.99600 39.57700
C  -16.24600 19.53800 40.57800
O  -16.43000 20.68500 40.15800
C  -17.44000 18.66800 40.88900
N  -13.44200 14.74400 42.24600
C  -14.69600 15.37900 42.26600
C  -15.78200 14.34400 42.62100
C  -14.98000 13.00400 42.70500
C  -13.50400 13.47700 42.64100
C  -16.50800 14.71400 43.93800
C  -15.17200 11.98400 41.45400
C  -15.45600 10.55000 41.95500
N  -10.73600 14.14300 41.82600
C  -11.05500 12.90800 42.26400
C  -9.93700 11.99900 42.23900
C  -8.80400 12.75500 41.79900
C  -9.43000 14.01200 41.45100
C  -9.90900 10.55200 42.57400
C  -7.44600 12.79500 41.63400
O  -6.53300 11.97900 41.92100
C  -7.17100 14.11700 40.88500
C  -6.16000 14.85100 41.70100
O  -6.22400 15.22600 42.84400
O  -4.98600 14.93200 40.90200
C  -3.79500 15.17900 41.77800
H  -10.92700 19.97500 39.72400
H  -16.10500 16.73500 41.86600
H  -12.67400 11.64200 43.04200
H  -7.14300 17.37000 40.81300
H  -8.66600 18.73100 38.61900
H  -8.10800 20.64700 39.69500
H  -7.07800 19.67200 40.84300
H  -8.83600 20.07400 41.09500
H  -7.48600 17.04400 37.75900
H  -7.10300 15.62000 38.64000
H  -5.05200 16.32700 38.48800
H  -5.37200 17.55900 39.70300
H  -12.57000 21.04900 38.93100
H  -13.24100 21.73800 40.34900
H  -14.34400 21.28500 39.03000
H  -18.30100 19.15800 40.43300
H  -17.46800 18.46600 41.96000
H  -17.33100 17.68300 40.43600
H  -16.48900 14.33300 41.79200
H  -15.37400 12.59300 43.63500
H  -16.90500 15.72700 43.87300
H  -15.91200 14.59800 44.84400
H  -17.24600 13.91600 44.00600
H  -14.25500 11.96000 40.86500
H  -15.94200 12.45700 40.84500
H  -16.28000 10.24300 41.31200
H  -15.56600 10.49800 43.03900
H  -14.52800 10.05300 41.67300
H  -10.71000 10.34900 43.28500
H  -8.94800 10.38500 43.06000
H  -10.13500 9.98000 41.67400
H  -6.84100 14.07900 39.84600
H  -2.90500 15.31000 41.16200
H  -3.63200 14.42400 42.54600
H  -3.98900 16.06300 42.38600

