158

Mg 37.78200 50.00800 25.09300
C  38.21300 48.05100 28.00700
C  36.07000 52.35600 26.86200
C  36.78800 51.54700 22.15700
C  38.97900 47.34800 23.16000
N  37.05200 50.01800 27.25800
C  37.54000 49.29000 28.26900
C  37.22200 49.83500 29.65100
C  36.50400 51.22800 29.19900
C  36.58700 51.24500 27.70900
C  35.02000 51.22100 29.75600
C  38.55900 50.04300 30.49300
C  38.33300 49.73300 32.06000
H  36.90000 49.87600 32.69100
N  36.76900 51.89000 24.58300
C  36.07600 52.69100 25.46300
C  35.64600 53.82300 24.77200
C  35.83500 53.57100 23.37500
C  36.43100 52.29000 23.25700
C  35.09800 55.06400 25.45500
C  35.59000 54.48900 22.19000
O  35.79800 54.14500 21.04200
C  34.97500 55.89700 22.45900
N  37.70100 49.43800 22.96000
C  37.45900 50.34800 21.95100
C  37.89800 49.81200 20.56100
C  38.80900 48.60300 20.92100
C  38.47800 48.43800 22.43800
C  36.78000 49.53000 19.57300
C  40.20500 48.77700 20.31300
C  41.40700 49.25200 21.13600
N  38.36900 48.10900 25.41200
C  38.86100 47.15100 24.56300
C  39.32700 45.96900 25.25800
C  39.17800 46.33800 26.63000
C  38.49900 47.60000 26.67700
C  39.68800 44.66600 24.76300
C  39.27600 45.87800 28.00700
O  39.75500 44.80100 28.34600
C  38.64600 46.98400 29.01400
C  37.56900 46.33800 29.76400
O  36.42600 46.06000 29.39500
O  37.96900 46.13000 31.02000
C  36.95200 45.83100 31.98300
H  35.68900 53.11100 27.55300
H  36.51400 51.99000 21.19800
H  39.56600 46.65900 22.55000
H  36.50600 49.12400 30.06300
H  36.94200 52.13300 29.61900
H  34.89900 51.97200 30.53700
H  34.69600 50.24700 30.12200
H  34.36600 51.53200 28.94200
H  38.87400 51.08000 30.37700
H  39.37000 49.39100 30.16800
H  38.99900 50.43300 32.56500
H  38.59000 48.70200 32.30400
H  34.03600 54.82700 25.52100
H  35.42400 56.05900 25.15200
H  35.48400 55.08900 26.47400
H  33.97800 55.77100 22.88100
H  34.78000 56.43300 21.53000
H  35.67100 56.56400 22.96800
H  38.39500 50.67900 20.12700
H  38.41600 47.72500 20.40700
H  36.87000 50.28500 18.79100
H  35.85200 49.74500 20.10200
H  36.73300 48.52500 19.15400
H  40.12900 49.46400 19.47000
H  40.57500 47.84800 19.88100
H  41.28600 50.30700 21.38300
H  42.29100 49.27100 20.50000
H  41.55800 48.57600 21.97800
H  39.98500 44.06600 25.62300
H  40.47300 44.69200 24.00700
H  38.83200 44.10800 24.38200
H  39.42500 47.33400 29.69200
H  36.59200 44.85600 31.65500
H  36.14500 46.55800 32.07000
H  37.46600 45.61300 32.91900
Mg -1.63700 33.70200 26.51700
C  -3.85200 32.21600 28.74700
C  -0.51400 35.69500 29.05700
C  0.05600 35.50100 24.23100
C  -3.40700 32.08200 23.75700
N  -2.37000 34.08300 28.54000
C  -3.07100 33.14400 29.34300
C  -2.87300 33.42300 30.85100
C  -2.16500 34.81600 30.84600
C  -1.59900 34.85400 29.42500
C  -3.08600 36.11600 30.96700
C  -2.06100 32.24000 31.48600
C  -1.41800 32.40300 32.92800
H  -1.83600 31.55300 34.16000
N  -0.28500 35.26000 26.60800
C  0.00300 35.96300 27.73600
C  1.06000 36.88800 27.44100
C  1.19700 36.83600 26.04400
C  0.23600 35.91300 25.53700
C  1.79700 37.68700 28.43900
C  2.19300 37.60900 25.20000
O  2.15200 37.66500 23.96600
C  3.36400 38.34300 25.86300
N  -1.67000 33.85700 24.33500
C  -0.80300 34.55700 23.66200
C  -0.84300 34.32000 22.15700
C  -1.65600 32.97500 22.10000
C  -2.38000 32.96900 23.46300
C  -1.29700 35.50600 21.26600
C  -0.71000 31.74700 21.66100
C  -0.06400 30.90700 22.78200
N  -3.42100 32.50600 26.27600
C  -3.91500 31.85100 25.15400
C  -4.93500 30.95300 25.63600
C  -4.96800 31.03900 27.02000
C  -3.97800 31.96900 27.35800
C  -5.84100 30.08500 24.68000
C  -5.63600 30.55900 28.20200
O  -6.60500 29.89200 28.28400
C  -4.86500 31.21600 29.38400
C  -5.81800 31.95500 30.31700
O  -6.46700 32.93200 30.00600
O  -5.93800 31.37400 31.56100
C  -6.88600 31.93000 32.55200
H  -0.16400 36.19200 29.96400
H  0.68100 36.02500 23.50400
H  -3.77700 31.36100 23.02400
H  -3.79200 33.52300 31.42900
H  -1.30900 34.94400 31.50800
H  -2.97000 36.75500 30.09200
H  -2.68500 36.64600 31.83100
H  -4.15500 35.90400 30.99600
H  -1.21900 31.90400 30.88100
H  -2.81500 31.45300 31.50700
H  -1.66200 33.41300 33.25700
H  -0.33100 32.37000 32.99600
H  2.69300 37.21600 28.84400
H  1.18400 37.94500 29.30200
H  2.07000 38.65600 28.02200
H  3.00800 39.34700 26.09600
H  4.17500 38.57100 25.17100
H  3.85900 37.81800 26.67900
H  0.21600 34.07500 22.08200
H  -2.38400 32.96700 21.29000
H  -1.67100 35.12100 20.31800
H  -0.42700 36.15700 21.17700
H  -2.23400 35.90400 21.65500
H  0.16500 32.07100 21.09800
H  -1.28100 31.13200 20.96600
H  1.01300 30.79400 22.66300
H  -0.49800 29.91300 22.67500
H  -0.27600 31.24300 23.79700
H  -6.85100 29.99600 25.08100
H  -5.46800 29.06100 24.69600
H  -5.89300 30.47600 23.66400
H  -4.43100 30.44900 30.02600
H  -6.26300 32.55400 33.19300
H  -7.20000 31.06500 33.13600
H  -7.66600 32.53300 32.08600

