158

Mg 2.03700 -1.42500 44.14600
C  5.42000 -0.64600 43.60000
C  1.09900 1.41200 42.44900
C  -1.11100 -2.57100 44.18900
C  3.12500 -4.48400 45.59000
N  3.20700 0.10700 42.89100
C  4.57600 0.28500 43.03000
C  4.86600 1.67500 42.41200
C  3.45300 2.33800 42.29700
C  2.47100 1.24900 42.58700
C  3.33600 3.50800 43.26200
C  5.72900 1.70000 41.06700
C  6.52700 2.97700 41.02100
H  6.31600 3.83800 39.76500
N  0.21800 -0.63000 43.55100
C  0.05100 0.57400 42.89400
C  -1.38400 0.79500 42.79900
C  -2.08900 -0.30800 43.32200
C  -1.01000 -1.19400 43.84600
C  -1.98800 1.84900 41.84700
C  -3.61600 -0.51600 43.26000
O  -4.27600 0.36400 42.65900
C  -4.37700 -1.60100 44.01800
N  1.17800 -3.28900 44.68000
C  -0.19100 -3.50800 44.62600
C  -0.58800 -4.98400 44.95400
C  0.79100 -5.63600 45.28200
C  1.79500 -4.41000 45.16600
C  -1.59400 -5.22800 46.11100
C  1.21100 -6.81600 44.35900
C  1.67800 -8.10600 45.09100
N  3.90500 -2.40500 44.56900
C  4.15300 -3.55400 45.21800
C  5.58100 -3.65400 45.53700
C  6.16800 -2.51800 44.88500
C  5.05900 -1.82000 44.32500
C  6.40300 -4.70600 46.38100
C  7.40300 -1.78700 44.58300
O  8.51800 -2.06400 44.89800
C  7.03700 -0.56600 43.68600
C  7.44000 0.78500 44.33300
O  6.95000 1.16500 45.40800
O  8.38300 1.38000 43.57400
C  8.62000 2.72400 44.11100
H  0.81700 2.42400 42.15300
H  -2.12600 -2.95600 44.07400
H  3.65500 -5.34500 46.00100
H  5.47800 2.07700 43.22000
H  3.22300 2.70000 41.29500
H  2.64700 3.31900 44.08500
H  2.94200 4.37400 42.73000
H  4.24700 3.97900 43.63000
H  5.10000 1.55700 40.18800
H  6.34200 0.81200 41.21600
H  7.57600 2.68400 40.99400
H  6.38800 3.55900 41.93200
H  -2.64300 1.53200 41.03500
H  -1.14500 2.45300 41.51100
H  -2.63600 2.37600 42.54600
H  -5.34800 -1.19100 44.29600
H  -3.82500 -1.97300 44.88200
H  -4.67200 -2.36800 43.30200
H  -1.00600 -5.52800 44.10700
H  0.85400 -5.91200 46.33400
H  -2.00800 -4.33800 46.58400
H  -1.08400 -5.61100 46.99500
H  -2.41200 -5.92700 45.93400
H  2.01700 -6.53800 43.68100
H  0.37800 -7.25200 43.80700
H  1.49200 -8.20700 46.16000
H  2.72900 -8.34000 44.91800
H  1.21800 -8.97300 44.61700
H  6.85000 -4.06000 47.13700
H  7.17300 -5.19600 45.78600
H  5.76100 -5.48100 46.80000
H  7.42300 -0.68300 42.67400
H  7.81900 3.39500 43.80100
H  9.50900 3.23100 43.73400
H  8.61400 2.83100 45.19600
Mg 5.43600 54.15900 40.10500
C  4.61700 50.65800 40.13700
C  8.56600 53.21100 39.05700
C  6.04400 57.31800 39.43300
C  2.05600 54.93400 40.54600
N  6.37300 52.12500 39.45400
C  5.88300 50.87900 39.57000
C  6.95900 49.82700 39.22000
C  8.24500 50.72700 39.38400
C  7.69900 52.15500 39.32500
C  9.20300 50.61300 40.66300
C  6.79300 49.13300 37.87800
C  6.27500 49.84500 36.64600
H  7.12900 50.95200 36.05900
N  7.08200 55.09100 39.23100
C  8.30900 54.60700 39.03200
C  9.23500 55.68200 38.82400
C  8.55500 56.93000 38.79500
C  7.15600 56.49700 39.14800
C  10.76300 55.34700 38.64100
C  9.17200 58.33000 38.59000
O  10.38500 58.49800 38.44700
C  8.26800 59.54200 38.29800
N  4.24300 55.80300 39.94500
C  4.80800 57.06000 39.84700
C  3.76100 58.17700 40.14900
C  2.43800 57.37300 40.28400
C  2.96100 55.94200 40.23100
C  4.01200 59.04200 41.39900
C  1.37600 57.64700 39.23200
C  -0.01700 58.03200 39.86400
N  3.69700 53.04100 40.42800
C  2.41600 53.52400 40.70800
C  1.63200 52.34900 41.04200
C  2.41500 51.18900 40.91500
C  3.65400 51.69900 40.44500
C  0.18100 52.34400 41.36700
C  2.48400 49.81500 41.05000
O  1.61500 49.00300 41.38500
C  3.98200 49.37200 40.64700
C  3.90300 48.33000 39.65500
O  3.86800 48.50400 38.46000
O  4.16500 47.05700 40.14800
C  4.13600 45.88100 39.20700
H  9.59000 52.95400 38.78000
H  6.18900 58.40000 39.39600
H  1.08900 55.16900 40.99700
H  6.96900 49.10200 40.03400
H  8.93500 50.50300 38.57100
H  8.92900 49.72700 41.23600
H  9.04900 51.45600 41.33700
H  10.25200 50.55200 40.37200
H  6.28500 48.20900 38.15400
H  7.77000 48.87100 37.47200
H  5.27300 50.21500 36.86700
H  6.15300 49.06700 35.89200
H  11.17300 56.06700 37.93300
H  10.83600 54.41000 38.08900
H  11.43000 55.20000 39.49000
H  8.76200 60.35500 37.76700
H  7.95600 60.03500 39.21900
H  7.35700 59.25300 37.77400
H  3.76300 58.88700 39.32200
H  2.03900 57.50700 41.29000
H  4.57700 58.37200 42.04800
H  3.06500 59.35900 41.83400
H  4.50700 59.98000 41.14900
H  1.37200 56.87000 38.46800
H  1.69300 58.50600 38.64000
H  0.00400 58.00000 40.95300
H  -0.86700 57.39200 39.62600
H  -0.20000 59.08500 39.65400
H  -0.44000 53.19900 41.09900
H  0.23400 52.32500 42.45600
H  -0.26700 51.42100 41.00000
H  4.47600 48.90000 41.49600
H  3.16800 45.39100 39.09800
H  4.60800 44.98600 39.61200
H  4.47900 46.13200 38.20300

