158

Mg 30.73800 58.62800 40.42800
C  27.89500 56.75400 39.21200
C  32.80700 56.09300 39.19400
C  33.24200 60.65800 40.75800
C  28.31900 61.28700 40.92800
N  30.31200 56.66900 39.18500
C  29.10900 56.13700 38.92900
C  29.34000 54.75700 38.28900
C  30.86400 54.38800 38.58200
C  31.42600 55.77400 38.99500
C  31.03700 53.25700 39.63600
C  28.91200 54.87300 36.72300
C  28.04900 53.73900 36.19800
H  27.11400 54.07600 35.04900
N  32.74700 58.36600 40.09300
C  33.46200 57.32200 39.57100
C  34.83100 57.59500 39.55400
C  35.06600 58.96700 39.80500
C  33.66800 59.45100 40.24500
C  35.85000 56.55600 39.26300
C  36.36600 59.82900 39.66800
O  37.40600 59.33800 39.25400
C  36.37800 61.18900 40.29800
N  30.77400 60.72200 40.83500
C  32.01500 61.31000 40.91300
C  31.88000 62.83300 41.16200
C  30.32400 62.94200 41.42500
C  29.71700 61.59100 41.02900
C  32.77500 63.42700 42.30500
C  29.67100 64.12800 40.65100
C  28.51200 64.82700 41.30900
N  28.55500 59.00900 40.25000
C  27.75600 60.07500 40.50600
C  26.35800 59.76700 40.19700
C  26.37400 58.46600 39.77200
C  27.73100 58.06200 39.72800
C  25.28100 60.81300 40.24100
C  25.52400 57.38700 39.27100
O  24.29700 57.23900 39.12200
C  26.51200 56.18300 38.90800
C  26.22600 55.03900 39.76100
O  26.60300 55.06000 40.98500
O  25.54500 54.06100 39.09800
C  24.97000 52.93800 39.86400
H  33.53000 55.34400 38.86400
H  33.93200 61.48200 40.95000
H  27.55700 62.00400 41.24000
H  28.61500 54.08800 38.75200
H  31.35700 54.10500 37.65200
H  30.41600 52.39000 39.41300
H  30.93000 53.70000 40.62700
H  32.03100 52.81700 39.55200
H  29.84000 54.90300 36.15100
H  28.41700 55.81500 36.48600
H  27.34300 53.32500 36.91800
H  28.63600 52.88900 35.84900
H  35.52700 56.13700 38.30900
H  35.77500 55.80200 40.04600
H  36.79800 57.07200 39.11000
H  35.97100 61.12600 41.30700
H  35.87300 61.94800 39.70000
H  37.43900 61.43900 40.31200
H  32.23300 63.23500 40.21300
H  30.10600 63.16000 42.47000
H  33.42800 62.59800 42.58000
H  32.16800 63.71200 43.16400
H  33.35500 64.25200 41.89300
H  29.37000 63.77000 39.66600
H  30.42200 64.87200 40.38400
H  27.63300 64.61200 40.70100
H  28.63600 65.90900 41.32600
H  28.41400 64.47100 42.33400
H  24.36200 60.27100 40.01700
H  25.48600 61.61500 39.53200
H  25.33300 61.26900 41.22900
H  26.38600 56.04400 37.83400
H  24.71300 53.28200 40.86600
H  25.71100 52.13900 39.82000
H  23.98700 52.62900 39.50700
Mg 1.96600 41.37900 25.38500
C  4.03900 41.62600 28.15000
C  -0.69900 40.61500 27.47300
C  -0.06800 41.19600 22.61200
C  4.72100 41.65400 23.39500
N  1.77300 41.15400 27.52600
C  2.69000 41.27500 28.46400
C  2.16000 41.26000 29.80200
C  0.69600 40.71500 29.62200
C  0.57600 40.80900 28.08700
C  0.48000 39.34200 30.21500
C  2.12800 42.63500 30.53400
C  1.99900 42.57200 32.09800
H  1.80500 41.22600 32.86800
N  -0.13200 41.02000 25.10900
C  -1.06700 40.65900 26.07700
C  -2.29900 40.36700 25.43300
C  -2.18100 40.58400 24.03800
C  -0.75600 41.02600 23.89400
C  -3.52100 39.88300 26.17900
C  -3.14200 40.36000 22.95500
O  -2.86900 40.63100 21.75700
C  -4.55500 40.04900 23.29600
N  2.29800 41.44300 23.30100
C  1.26800 41.39300 22.35500
C  1.95300 41.24600 20.93400
C  3.43300 41.77300 21.24800
C  3.49700 41.55100 22.73900
C  1.86500 39.82500 20.33900
C  3.74200 43.25700 20.72300
C  3.63100 44.47100 21.51500
N  3.97500 41.51700 25.63200
C  5.04000 41.60500 24.74700
C  6.29200 41.83600 25.44600
C  5.96900 41.80400 26.79000
C  4.56800 41.66400 26.85600
C  7.66500 42.15700 24.88700
C  6.52400 41.82000 28.14600
O  7.70600 41.94000 28.54100
C  5.24800 41.72500 29.11100
C  5.52000 40.57900 29.97500
O  5.33500 39.39100 29.76700
O  5.94600 41.12400 31.09900
C  6.10900 40.20000 32.16100
H  -1.60900 40.52700 28.07000
H  -0.65600 40.97700 21.71800
H  5.49600 41.76900 22.63400
H  2.79200 40.52700 30.30300
H  0.10100 41.43900 30.17900
H  -0.34300 39.43000 30.92400
H  1.29700 38.77200 30.65800
H  0.01300 38.74000 29.43600
H  1.38300 43.31400 30.11900
H  3.07900 43.13400 30.34700
H  1.14500 43.23500 32.23900
H  2.85900 43.07200 32.54300
H  -3.31700 39.59900 27.21100
H  -3.90500 39.04500 25.59700
H  -4.32200 40.61700 26.26000
H  -4.94900 40.79600 23.98400
H  -4.85000 39.13300 23.81000
H  -5.04600 40.06900 22.32300
H  1.45700 41.94700 20.26200
H  4.17600 41.04700 20.91700
H  2.85600 39.37300 20.36800
H  1.48900 39.77200 19.31700
H  1.15800 39.22000 20.90700
H  3.27800 43.46700 19.75900
H  4.79200 43.17400 20.44300
H  3.21000 44.21300 22.48700
H  2.96100 45.16800 21.01300
H  4.60900 44.93500 21.64600
H  7.75500 41.50900 24.01500
H  8.38400 41.96900 25.68400
H  7.87900 43.15800 24.51300
H  5.15800 42.63700 29.70100
H  6.69700 39.30900 31.94300
H  5.14900 39.90900 32.58800
H  6.61200 40.70200 32.98800

