158

Mg 41.38000 8.85400 29.82400
C  43.56900 9.98900 32.36800
C  39.43700 7.51000 32.47200
C  39.60100 7.26800 27.57400
C  43.81900 9.64600 27.54600
N  41.49400 8.68300 32.18700
C  42.46700 9.30000 32.90500
C  42.05700 9.25000 34.43400
C  40.97800 8.20400 34.46300
C  40.60300 8.08500 32.93800
C  41.28500 6.90000 35.24400
C  41.63800 10.65800 34.96900
C  42.34300 10.94200 36.34100
H  41.63000 11.80800 37.39000
N  39.70300 7.62400 29.97600
C  38.99600 7.28900 31.15900
C  37.74600 6.69500 30.70000
C  37.74200 6.56800 29.27000
C  39.05400 7.15000 28.86400
C  36.53800 6.23100 31.65300
C  36.79400 6.02100 28.30600
O  36.88300 6.09100 27.09900
C  35.60000 5.43400 28.90300
N  41.74100 8.34500 27.89200
C  40.85200 7.69800 27.14500
C  41.21600 7.80000 25.67600
C  42.50900 8.56400 25.61500
C  42.70800 8.92000 27.14100
C  41.19800 6.52900 24.88600
C  42.36000 9.83100 24.64200
C  41.67900 11.13100 25.12900
N  43.29500 9.72500 29.84100
C  44.16900 9.98300 28.85600
C  45.29600 10.72000 29.31700
C  45.13200 10.74600 30.73900
C  43.90300 10.07300 30.99300
C  46.47400 11.06400 28.53500
C  45.81600 11.19900 31.99200
O  46.80800 11.86600 32.16500
C  44.73300 10.76400 33.05900
C  45.40800 9.99700 34.14600
O  45.56100 8.79900 34.16600
O  45.71700 10.83100 35.18900
C  46.27200 10.19000 36.38200
H  38.82300 7.15800 33.30400
H  38.97200 6.92700 26.74800
H  44.64500 9.86800 26.86700
H  42.91300 8.95000 35.03900
H  40.07300 8.57000 34.94800
H  41.03100 6.07800 34.57500
H  40.67300 6.89000 36.14600
H  42.35500 6.89600 35.45200
H  40.57600 10.86900 35.09700
H  41.99800 11.37000 34.22600
H  43.28000 11.40700 36.03400
H  42.63300 9.96200 36.72000
H  36.54700 5.15300 31.48600
H  35.56000 6.64500 31.40900
H  36.90300 6.54800 32.62900
H  35.82100 4.56000 29.51600
H  35.00200 5.12400 28.04600
H  34.89500 6.14200 29.33700
H  40.46400 8.46100 25.24600
H  43.38300 7.97000 25.34900
H  40.42800 6.36500 24.13200
H  41.14300 5.69900 25.59000
H  42.06900 6.30500 24.27000
H  41.89600 9.45000 23.73200
H  43.37700 10.15200 24.41300
H  40.90300 11.17800 24.36500
H  42.37200 11.95000 24.93300
H  41.22600 11.16200 26.11900
H  46.26700 11.93000 27.90700
H  46.67400 10.28800 27.79600
H  47.38100 11.12900 29.13600
H  44.24700 11.59100 33.57600
H  46.77700 9.24300 36.19200
H  45.37700 10.00800 36.97800
H  46.91800 10.89100 36.91000
Mg 48.10500 15.66200 27.87900
C  46.21100 15.55400 30.86800
C  50.47400 17.55000 29.31100
C  49.65700 16.05600 24.69700
C  45.34800 14.52200 26.18900
N  48.32300 16.51900 29.84900
C  47.48700 16.26400 30.95200
C  48.15500 16.75700 32.25900
C  49.32600 17.61900 31.65300
C  49.42500 17.19400 30.18300
C  49.19200 19.16800 31.80300
C  48.56500 15.56800 33.27500
C  48.47700 15.94400 34.76100
H  48.44100 17.44100 35.20800
N  49.90200 16.51300 27.16600
C  50.80000 17.12800 27.98300
C  52.05900 17.25800 27.25800
C  51.81100 16.93000 25.86400
C  50.37400 16.50800 25.84400
C  53.18500 17.89300 27.99200
C  52.76600 16.99900 24.73700
O  52.47600 16.71700 23.60500
C  54.24000 17.40400 24.95400
N  47.66300 15.25600 25.73600
C  48.41200 15.55300 24.63900
C  47.63600 15.37100 23.29600
C  46.28500 14.73600 23.85000
C  46.44400 14.79500 25.35100
C  47.44300 16.74700 22.56100
C  45.98400 13.34800 23.31200
C  44.71600 13.26600 22.42300
N  46.22500 14.98200 28.42000
C  45.23300 14.54600 27.63500
C  44.05300 14.16000 28.40400
C  44.39600 14.56500 29.75400
C  45.69200 15.07900 29.62300
C  42.84500 13.54900 27.85500
C  43.98800 14.66400 31.12800
O  42.90400 14.37100 31.56600
C  45.24200 15.22400 31.91000
C  44.86000 16.45300 32.59700
O  44.75100 17.57200 32.06800
O  44.84600 16.26300 33.94900
C  44.40600 17.50700 34.61200
H  51.20200 18.16000 29.84900
H  50.03900 16.21100 23.68600
H  44.47400 14.09100 25.69700
H  47.37500 17.40100 32.66600
H  50.23300 17.22700 32.11300
H  49.08300 19.56600 30.79400
H  50.06200 19.60100 32.29600
H  48.29800 19.41700 32.37400
H  49.55500 15.20800 32.99400
H  47.93200 14.69100 33.13700
H  49.29000 15.49900 35.33600
H  47.61800 15.40300 35.15900
H  53.49500 18.88000 27.64700
H  54.05100 17.24300 27.86700
H  53.03500 17.96700 29.06900
H  54.79200 16.78100 25.65800
H  54.33300 18.44400 25.26800
H  54.72300 17.36500 23.97800
H  48.13300 14.68200 22.61300
H  45.42600 15.35900 23.60000
H  47.85800 17.49600 23.23600
H  46.36600 16.87600 22.45100
H  48.00100 16.74700 21.62500
H  45.80100 12.60400 24.08700
H  46.83100 13.06600 22.68700
H  43.83600 13.06400 23.03400
H  44.88200 12.43700 21.73500
H  44.50900 14.21100 21.92100
H  42.12100 13.48600 28.66700
H  43.03500 12.49100 27.67800
H  42.43700 14.07400 26.99100
H  45.55500 14.55500 32.71100
H  44.21700 17.21800 35.64500
H  43.51000 17.88700 34.12000
H  45.15100 18.29900 34.68900

