158

Mg 25.31000 -8.05700 46.85700
C  26.99700 -5.36700 45.33300
C  22.67400 -7.41700 44.60300
C  23.84300 -10.93900 47.67400
C  28.21800 -9.02100 48.42700
N  25.01200 -6.73200 45.06600
C  25.75600 -5.65500 44.67100
C  25.22500 -4.97700 43.43200
C  23.77300 -5.53000 43.34400
C  23.83100 -6.68800 44.35700
C  22.69400 -4.53800 43.60800
C  26.08200 -5.25800 42.06400
C  26.19700 -3.92000 41.23200
H  25.05600 -3.78400 40.26100
N  23.40300 -8.94400 46.35500
C  22.50300 -8.54600 45.44700
C  21.33600 -9.43900 45.44700
C  21.67200 -10.48900 46.27700
C  23.01600 -10.16000 46.81100
C  20.06600 -9.14800 44.73000
C  20.78400 -11.79100 46.53500
O  19.69500 -11.78900 46.05000
C  21.27000 -12.98900 47.16400
N  26.00400 -9.75800 47.77600
C  25.19500 -10.77500 48.15400
C  25.87300 -11.77900 49.08000
C  27.22300 -11.15000 49.31200
C  27.17900 -9.90800 48.42900
C  25.10800 -12.01700 50.47300
C  28.39800 -12.12100 49.23300
C  29.25800 -12.27800 50.50800
N  27.27000 -7.45100 46.82400
C  28.29100 -7.79200 47.68200
C  29.38500 -6.85100 47.55900
C  28.93800 -5.90200 46.57200
C  27.59100 -6.28300 46.23400
C  30.60900 -6.90700 48.29200
C  29.32000 -4.69700 45.90700
O  30.41300 -4.15300 45.78200
C  28.03500 -4.31400 45.02700
C  27.48500 -3.04600 45.46000
O  27.21300 -2.16300 44.65600
O  27.21900 -2.85500 46.79700
C  26.63700 -1.55400 47.16700
H  21.81200 -7.09100 44.01800
H  23.48000 -11.83700 48.17800
H  29.07300 -9.25300 49.06700
H  25.27400 -3.91100 43.65400
H  23.67600 -5.90700 42.32600
H  22.30500 -4.16900 42.66000
H  23.02600 -3.59400 44.04000
H  21.82200 -4.89200 44.15800
H  25.58600 -6.00900 41.44800
H  27.06500 -5.60100 42.38500
H  27.17500 -3.87900 40.75200
H  26.03200 -3.00500 41.79900
H  20.33200 -9.43900 43.71400
H  19.90300 -8.07100 44.77500
H  19.12300 -9.54500 45.10400
H  21.89100 -12.98500 48.05900
H  21.93100 -13.38400 46.39200
H  20.46100 -13.71100 47.27800
H  25.85500 -12.73200 48.55100
H  27.30100 -10.74300 50.32000
H  24.23400 -11.36600 50.47400
H  25.70700 -11.77600 51.35200
H  24.91500 -13.07700 50.64100
H  29.02100 -11.73800 48.42400
H  27.98600 -13.12000 49.08900
H  30.30400 -12.26300 50.20100
H  28.78300 -13.08800 51.06200
H  29.15600 -11.44400 51.20300
H  31.18700 -5.99900 48.12500
H  31.23900 -7.79600 48.24100
H  30.25900 -6.83200 49.32200
H  28.35700 -4.28400 43.98600
H  26.95100 -1.26900 48.17100
H  25.56300 -1.67200 47.31400
H  26.82000 -0.71300 46.49800
Mg 7.08800 56.84700 41.81700
C  5.91400 53.63500 41.43200
C  10.18500 55.63800 40.73300
C  8.11900 60.04600 41.20600
C  3.82300 57.96700 42.39100
N  7.88000 54.89900 41.14500
C  7.20700 53.71300 40.99700
C  8.04500 52.59000 40.50400
C  9.48100 53.19700 40.72200
C  9.20000 54.69800 40.94400
C  10.30000 52.44900 41.82800
C  7.79100 52.22200 39.04800
C  8.28800 50.85100 38.59500
H  7.53000 50.07600 37.48600
N  8.83500 57.76800 41.03600
C  10.01000 57.07400 40.63900
C  10.90000 58.01100 39.93100
C  10.33300 59.32200 39.98700
C  9.02800 59.11100 40.76000
C  12.10300 57.52800 39.26300
C  10.86100 60.55300 39.33700
O  11.92500 60.56200 38.77300
C  10.08000 61.82600 39.22500
N  6.06900 58.69700 41.72200
C  6.76800 59.84700 41.64400
C  5.91300 61.08600 42.00700
C  4.50900 60.42200 42.42700
C  4.79000 58.95800 42.07100
C  6.51300 61.98800 43.17000
C  3.27700 61.00400 41.68300
C  2.01600 61.04500 42.59400
N  5.21400 55.97500 42.07600
C  3.96600 56.57500 42.33700
C  3.01100 55.43200 42.50900
C  3.75600 54.32100 42.15500
C  5.11400 54.66700 41.91900
C  1.56400 55.57300 42.68100
C  3.61300 52.92400 42.03700
O  2.61400 52.26800 42.30200
C  4.98900 52.33400 41.57000
C  4.82200 51.51000 40.38100
O  4.30300 51.90800 39.36500
O  5.17400 50.19100 40.62300
C  4.66200 49.33900 39.51400
H  11.13500 55.16300 40.48000
H  8.30800 61.11800 41.11100
H  2.78600 58.22700 42.61200
H  7.87900 51.70200 41.11500
H  10.11300 53.14400 39.83500
H  10.68900 53.25000 42.45800
H  11.16000 51.87600 41.48200
H  9.56300 51.79800 42.29800
H  8.40500 52.91100 38.46800
H  6.77800 52.44100 38.71000
H  8.46400 50.22700 39.47200
H  9.26800 50.98000 38.13600
H  12.00600 57.75500 38.20200
H  12.27700 56.45400 39.33000
H  13.06900 57.76500 39.70800
H  9.71900 62.14300 40.20300
H  9.34600 61.84000 38.42000
H  10.87500 62.53300 38.98600
H  5.90800 61.44300 40.97600
H  4.32300 60.46900 43.50000
H  5.66100 62.33400 43.75600
H  7.12200 62.83400 42.85200
H  7.18600 61.37000 43.76400
H  3.09800 60.28800 40.88200
H  3.51100 61.99600 41.29600
H  1.61500 60.04500 42.42900
H  1.25500 61.72700 42.21400
H  2.14900 61.18400 43.66700
H  1.17600 55.75100 41.67800
H  1.13700 56.39400 43.25700
H  1.11800 54.63300 43.00500
H  5.48000 51.69000 42.29900
H  3.57700 49.35800 39.61200
H  5.07600 48.33900 39.63900
H  5.02800 49.71500 38.55900

