158

Mg 1.72700 8.12100 25.33000
C  2.13900 10.11300 28.20800
C  1.80600 5.30900 27.42000
C  1.68200 6.22500 22.67800
C  1.87400 11.01200 23.35300
N  2.04000 7.76400 27.64700
C  2.13000 8.73800 28.57800
C  2.12500 8.04100 29.97800
C  2.32400 6.51700 29.68600
C  2.00100 6.50000 28.16300
C  3.76600 5.89600 30.00100
C  0.85600 8.31700 30.86500
C  1.21400 8.73500 32.29300
H  2.41400 7.96300 32.91100
N  1.65200 6.06300 25.08600
C  1.58900 5.08500 26.07100
C  1.27500 3.78700 25.49300
C  1.24800 4.03900 24.05600
C  1.61300 5.42500 23.90100
C  1.23900 2.57900 26.40500
C  0.88000 3.03800 23.02200
O  1.01600 3.26700 21.83400
C  0.40900 1.71300 23.39300
N  1.80600 8.58900 23.29100
C  1.75500 7.57600 22.45700
C  1.82000 8.04100 20.95300
C  1.59600 9.60700 21.13000
C  1.83100 9.77900 22.67000
C  3.17700 7.69600 20.26400
C  0.26000 10.17100 20.73400
C  0.41700 11.53300 20.02600
N  2.02100 10.21500 25.59300
C  1.96700 11.31500 24.70300
C  2.12100 12.52800 25.49900
C  2.23300 12.09000 26.81600
C  2.08100 10.67900 26.82900
C  2.36000 13.92800 24.94200
C  2.39700 12.57000 28.12200
O  2.68700 13.67300 28.55700
C  2.20600 11.34500 29.05700
C  3.29600 11.39700 30.10600
O  4.49500 11.29800 29.90800
O  2.66700 11.60900 31.33300
C  3.49600 11.87100 32.50800
H  1.92100 4.45000 28.08400
H  1.44000 5.63000 21.79600
H  1.97800 11.89000 22.71300
H  2.99300 8.35600 30.55700
H  1.60500 5.95900 30.28500
H  4.36600 6.68400 30.45700
H  4.25400 5.46000 29.12900
H  3.54800 4.98600 30.56000
H  0.30300 7.37800 30.85800
H  0.19100 9.06800 30.43800
H  0.37400 8.40600 32.90400
H  1.26800 9.81500 32.42500
H  2.22600 2.11500 26.40900
H  0.39900 1.92000 26.18400
H  1.18600 2.75800 27.47900
H  -0.39700 1.85900 24.11100
H  1.33900 1.21100 23.66200
H  -0.01000 1.09800 22.59600
H  0.92900 7.56400 20.54500
H  2.47700 10.14300 20.77600
H  3.85300 7.24000 20.98800
H  3.70300 8.60000 19.95500
H  3.08000 7.02000 19.41400
H  -0.45400 10.18400 21.55800
H  -0.16800 9.49100 19.99700
H  1.39000 12.02300 20.07900
H  -0.29300 12.14200 20.58500
H  0.17300 11.41200 18.97100
H  2.26500 14.02500 23.86000
H  3.34600 14.27400 25.24900
H  1.71500 14.72400 25.31300
H  1.25800 11.40500 29.59200
H  2.92400 11.71000 33.42200
H  3.72100 12.92700 32.66300
H  4.39900 11.27200 32.40000
Mg 26.15700 0.51300 29.71400
C  27.83200 -0.01200 32.82400
C  23.16900 0.74300 31.51500
C  24.57800 0.56900 26.80600
C  29.11600 -0.32300 28.01200
N  25.66000 0.48500 31.92700
C  26.48900 0.39800 33.00800
C  25.79400 0.57800 34.35700
C  24.33400 0.68900 33.88700
C  24.34600 0.65800 32.36200
C  23.31300 -0.33500 34.59900
C  26.33600 1.88400 34.95000
C  25.52100 2.37100 36.19700
H  26.17700 2.53100 37.55800
N  24.15600 0.55500 29.26400
C  23.07500 0.78100 30.08000
C  21.84900 0.89900 29.32400
C  22.19900 0.77800 27.93300
C  23.66600 0.61300 27.92900
C  20.50100 1.20100 29.90800
C  21.30700 0.80100 26.63200
O  21.77700 0.62100 25.55100
C  19.81800 1.10500 26.73700
N  26.73500 0.13700 27.73400
C  25.94000 0.39800 26.63300
C  26.64300 0.30800 25.28800
C  28.10500 0.34600 25.83100
C  27.99300 0.06600 27.31800
C  26.20000 -0.95100 24.48100
C  28.82600 1.67800 25.50100
C  28.16000 2.99300 25.97000
N  28.10800 -0.08800 30.26000
C  29.19700 -0.44700 29.44300
C  30.32300 -0.76900 30.30400
C  29.83600 -0.57600 31.62900
C  28.47700 -0.28600 31.51100
C  31.66000 -1.18500 29.85000
C  30.26900 -0.54600 32.96800
O  31.40300 -0.72900 33.45300
C  28.92700 -0.14900 33.83700
C  28.79200 -1.11900 34.95300
O  28.98100 -2.32500 34.91300
O  28.87900 -0.37300 36.08900
C  29.49800 -0.94700 37.24900
H  22.22500 0.75800 32.06400
H  24.05200 0.52900 25.85000
H  30.06500 -0.45500 27.48700
H  25.99700 -0.26600 35.01700
H  23.87700 1.67200 34.00000
H  22.80300 0.21400 35.39000
H  23.95100 -1.13100 34.98200
H  22.60000 -0.67200 33.84700
H  26.36300 2.69800 34.22600
H  27.38100 1.70000 35.19900
H  24.63400 1.73700 36.17800
H  25.27800 3.40300 35.94500
H  19.77900 0.38600 29.96300
H  20.06800 2.04700 29.37400
H  20.57700 1.43700 30.96900
H  19.52900 1.84900 27.48000
H  19.30200 0.18100 27.00000
H  19.43400 1.47300 25.78500
H  26.47400 1.20800 24.69800
H  28.64100 -0.44300 25.30300
H  27.05000 -1.62600 24.38000
H  25.92100 -0.73100 23.45100
H  25.30100 -1.45700 24.83300
H  29.25600 1.67300 24.49900
H  29.71100 1.73800 26.13400
H  28.78800 3.19000 26.83900
H  27.10700 2.90200 26.23400
H  28.36000 3.80900 25.27500
H  31.99000 -0.48900 29.07900
H  31.66200 -2.21600 29.49700
H  32.38000 -1.09000 30.66200
H  29.17000 0.84900 34.20300
H  29.30500 -2.00000 37.45400
H  29.12900 -0.50600 38.17500
H  30.57400 -0.80200 37.16000

