158

Mg -1.23500 17.21600 26.46600
C  -1.79200 14.97400 29.04800
C  -1.60500 19.74900 28.87700
C  -1.56900 19.51600 23.91600
C  -1.73200 14.65800 24.12300
N  -1.47400 17.35600 28.75700
C  -1.66100 16.23300 29.57800
C  -1.62100 16.68200 31.06900
C  -1.74300 18.25900 30.94500
C  -1.59300 18.46400 29.41800
C  -3.00600 18.80900 31.48800
C  -0.39100 16.20400 31.95500
C  0.09200 16.97500 33.25100
H  0.07000 16.23000 34.58200
N  -1.46400 19.37400 26.40000
C  -1.60200 20.20000 27.50900
C  -1.75400 21.59900 27.01400
C  -1.77900 21.47000 25.60000
C  -1.58500 20.04700 25.22500
C  -1.86100 22.72100 27.98200
C  -2.02100 22.59000 24.56800
O  -2.24000 22.39500 23.35200
C  -2.00300 23.96500 25.06300
N  -1.46800 17.06800 24.28400
C  -1.58900 18.15000 23.45700
C  -1.60500 17.69300 21.98700
C  -1.84700 16.18100 22.12100
C  -1.68300 15.91900 23.58700
C  -2.46500 18.27800 20.88900
C  -0.93200 15.34400 21.20300
C  0.55600 15.28800 21.64700
N  -1.49300 15.21400 26.50200
C  -1.74000 14.32400 25.47300
C  -1.99000 12.97000 26.12500
C  -2.02200 13.20800 27.50800
C  -1.69300 14.61000 27.65500
C  -2.13100 11.70900 25.23500
C  -2.18300 12.59800 28.74600
O  -2.33500 11.42900 29.12200
C  -2.19600 13.75900 29.76000
C  -1.53800 13.32100 30.99500
O  -0.45800 12.80900 31.05100
O  -2.36500 13.51100 32.02600
C  -1.96300 13.00900 33.37200
H  -1.77100 20.43700 29.70900
H  -1.70200 20.23000 23.10000
H  -1.85800 13.78500 23.47900
H  -2.56100 16.28600 31.45300
H  -0.88500 18.68400 31.46600
H  -3.07200 19.89700 31.50700
H  -3.14000 18.56600 32.54200
H  -3.76700 18.25100 30.94200
H  0.50600 16.24500 31.33800
H  -0.37200 15.15700 32.25900
H  -0.47400 17.90200 33.33400
H  1.11100 17.29300 33.03100
H  -2.92500 22.93700 28.07800
H  -1.32800 23.63800 27.73000
H  -1.53000 22.30800 28.93500
H  -1.08900 24.07800 25.64500
H  -2.84500 24.18900 25.71900
H  -1.93600 24.64000 24.21000
H  -0.60800 17.77900 21.55500
H  -2.87800 15.88700 21.92000
H  -3.30100 18.74700 21.40800
H  -2.82300 17.46900 20.25300
H  -1.90800 19.07600 20.39800
H  -0.90300 15.79000 20.20900
H  -1.36700 14.34700 21.13600
H  1.34300 15.16100 20.90300
H  0.66600 14.44700 22.33200
H  0.93000 16.10500 22.26400
H  -1.34700 11.62900 24.48100
H  -3.14100 11.78900 24.83500
H  -1.93700 10.82800 25.84700
H  -3.26800 13.81600 29.94900
H  -1.97100 13.87800 34.03000
H  -0.98600 12.53300 33.44900
H  -2.71100 12.29200 33.71200
Mg 30.64600 57.55700 40.88000
C  28.17200 55.30900 40.03700
C  32.97400 55.17300 39.74400
C  33.12100 60.00400 40.87600
C  28.32000 60.00100 41.40000
N  30.55400 55.53600 39.77300
C  29.40000 54.78600 39.69500
C  29.73400 53.35200 39.34200
C  31.28400 53.29200 39.62200
C  31.63900 54.74800 39.70100
C  31.65100 52.60700 40.98500
C  29.26900 52.95600 37.90200
C  29.55400 54.01300 36.81400
H  28.37500 54.50100 36.01000
N  32.85800 57.52800 40.59300
C  33.51700 56.47200 39.96500
C  34.89300 56.85100 39.89900
C  34.97800 58.28100 40.20000
C  33.59300 58.64100 40.56400
C  35.92900 55.93700 39.37000
C  36.22200 59.09400 40.10200
O  37.22800 58.57200 39.70600
C  36.32400 60.53900 40.47300
N  30.69500 59.76500 40.97600
C  31.84600 60.50100 41.10600
C  31.51900 61.92300 41.32300
C  30.05900 61.83000 41.88300
C  29.64000 60.40800 41.40900
C  32.50200 62.77200 42.10100
C  29.07400 63.00800 41.47800
C  28.29800 63.82300 42.65100
N  28.64800 57.76700 40.62100
C  27.78500 58.82100 40.94000
C  26.43000 58.35100 40.77200
C  26.51900 56.97300 40.43600
C  27.88600 56.66100 40.35200
C  25.23600 59.18900 41.05100
C  25.79100 55.79700 40.26600
O  24.57500 55.55900 40.43000
C  26.81400 54.64400 39.99600
C  26.59900 53.63900 41.07300
O  27.02700 53.72700 42.21200
O  25.74300 52.65200 40.65700
C  25.13300 51.99200 41.85900
H  33.67000 54.33500 39.66400
H  33.87500 60.78900 40.79700
H  27.55900 60.64300 41.84900
H  29.34600 52.69600 40.12200
H  31.81700 52.73500 38.85100
H  30.82100 52.26500 41.60400
H  32.24200 53.31500 41.56500
H  32.27900 51.72400 40.86600
H  28.18400 52.86000 37.87500
H  29.75300 52.01200 37.65100
H  30.24400 53.55600 36.10500
H  30.08800 54.88500 37.19100
H  36.18200 56.16400 38.33400
H  35.69900 54.88400 39.52600
H  36.80300 56.17900 39.97500
H  35.95500 60.65400 41.49200
H  35.81200 61.26800 39.84500
H  37.37700 60.79300 40.34800
H  31.41300 62.41500 40.35600
H  30.10500 61.73300 42.96800
H  33.40900 62.18100 42.23000
H  32.11800 63.01200 43.09200
H  32.63500 63.71100 41.56300
H  28.39000 62.56200 40.75700
H  29.47600 63.84400 40.90500
H  28.86800 64.70700 42.93600
H  28.23300 63.21200 43.55100
H  27.28700 64.08600 42.34100
H  24.33500 58.57500 41.01700
H  24.98200 59.93300 40.29600
H  25.38300 59.78000 41.95500
H  26.62200 54.20200 39.01800
H  25.83400 51.31600 42.34900
H  24.27400 51.50100 41.40200
H  24.92300 52.73400 42.63000

