158

Mg 49.15100 45.37200 42.68000
C  45.79500 46.07500 41.61400
C  48.71100 42.28600 41.23500
C  52.39700 45.25700 42.77000
C  49.39400 48.99300 43.29500
N  47.41500 44.36100 41.49600
C  46.14300 44.79400 41.27800
C  45.31500 43.71700 40.57900
C  46.16700 42.46000 40.71100
C  47.51700 43.04700 41.03200
C  45.69900 41.50300 41.82700
C  44.88500 44.10000 39.08400
C  45.86200 44.93900 38.24800
H  45.73800 44.88500 36.78000
N  50.34500 43.89000 42.31300
C  50.03000 42.66100 41.74500
C  51.26900 41.88900 41.80400
C  52.29900 42.69300 42.30400
C  51.74000 44.00300 42.55700
C  51.30300 40.40700 41.40800
C  53.69000 42.14800 42.51500
O  54.04400 41.04900 42.01700
C  54.77500 42.80300 43.35900
N  50.57700 46.93400 43.03900
C  51.88700 46.56000 43.00100
C  52.84700 47.71000 43.19200
C  51.87600 48.94900 43.49800
C  50.53300 48.30900 43.23200
C  54.11800 47.41900 44.05700
C  52.06700 50.21600 42.61800
C  51.93300 51.61900 43.23600
N  47.84300 47.11800 42.69000
C  48.10300 48.45300 43.01600
C  46.86300 49.22700 43.01700
C  45.88000 48.30300 42.52300
C  46.57700 47.05500 42.22500
C  46.75100 50.58500 43.50000
C  44.53800 48.25600 42.11500
O  43.66900 49.14300 42.10400
C  44.41400 46.83600 41.47400
C  43.29700 46.02000 41.94900
O  42.36300 45.61800 41.27200
O  43.22000 46.06000 43.29500
C  42.06400 45.40000 43.88000
H  48.65200 41.26400 40.85500
H  53.47700 45.26000 42.92600
H  49.41300 50.08500 43.28300
H  44.39900 43.57200 41.15200
H  46.28000 41.91100 39.77500
H  46.55300 41.13500 42.39500
H  45.08300 40.73200 41.36300
H  45.10400 41.99400 42.59700
H  43.90300 44.57200 39.07100
H  44.62700 43.17900 38.56100
H  46.86600 44.66100 38.57000
H  45.65300 45.96500 38.54900
H  51.26300 39.82500 42.32900
H  52.22600 39.99500 41.00100
H  50.52100 40.15200 40.69300
H  55.57500 42.07800 43.51200
H  54.36300 43.15200 44.30600
H  55.12400 43.59600 42.69800
H  53.10500 47.85600 42.14300
H  52.05300 49.15600 44.55300
H  54.91200 47.23900 43.33200
H  54.02200 46.54600 44.70200
H  54.28100 48.28200 44.70200
H  51.21500 50.20900 41.93900
H  52.90500 50.18600 41.92200
H  52.94700 52.01800 43.26200
H  51.62600 51.65600 44.28100
H  51.28100 52.22400 42.60500
H  45.87400 50.66500 44.14300
H  46.54600 51.26500 42.67300
H  47.63600 50.80800 44.09500
H  44.17200 46.99800 40.42300
H  41.66700 44.57600 43.28700
H  41.33000 46.19800 43.99500
H  42.42200 45.02600 44.83900
Mg 9.35400 47.69600 26.23500
C  7.51800 47.75700 29.27100
C  11.88600 49.24900 28.01900
C  11.05000 48.00700 23.43400
C  6.50100 46.91500 24.59300
N  9.75100 48.18500 28.53900
C  8.86900 48.09400 29.52200
C  9.47500 48.47900 30.84000
C  10.78000 49.26700 30.41500
C  10.80800 48.95600 28.86900
C  10.78700 50.81600 30.74400
C  9.78200 47.29100 31.79100
C  9.29300 47.40500 33.26100
H  9.29300 46.01400 34.02600
N  11.22400 48.35300 25.77100
C  12.18900 48.82400 26.68200
C  13.49900 48.72300 26.06300
C  13.23200 48.28300 24.71800
C  11.79600 48.23900 24.56300
C  14.78700 49.10400 26.81100
C  14.20200 47.90700 23.68000
O  14.00500 47.61600 22.48600
C  15.70200 47.78300 24.16400
N  8.78000 47.78200 24.32500
C  9.70300 47.85200 23.35300
C  9.01100 47.68700 22.00500
C  7.47200 47.59300 22.38300
C  7.61700 47.29000 23.85400
C  9.27700 48.78000 20.89400
C  6.77500 46.46300 21.61200
C  7.05800 46.27300 20.10400
N  7.33000 47.30000 26.79500
C  6.29100 47.02300 26.00200
C  5.12900 46.99400 26.82300
C  5.55600 47.23900 28.11600
C  6.95700 47.37900 28.07800
C  3.69300 47.03300 26.43200
C  5.09800 47.32700 29.46900
O  3.96800 47.28400 29.97300
C  6.40900 47.54400 30.32700
C  6.58000 46.35800 31.11900
O  7.15500 45.31200 30.79800
O  5.97800 46.58000 32.33100
C  6.07900 45.51400 33.38200
H  12.67000 49.76700 28.57500
H  11.58900 48.09100 22.48800
H  5.63700 46.73400 23.95100
H  8.87700 49.21100 31.38300
H  11.72400 48.89100 30.80800
H  9.76200 51.15600 30.89400
H  11.24600 51.23600 29.84900
H  11.34100 51.03900 31.65500
H  10.86200 47.14300 31.77600
H  9.40700 46.35500 31.37800
H  8.29600 47.84400 33.31000
H  10.04200 47.94400 33.84200
H  15.47500 48.26400 26.91300
H  14.49800 49.44900 27.80400
H  15.26300 49.85100 26.17600
H  15.90700 47.25100 25.09300
H  16.12600 48.78700 24.14700
H  16.37900 47.29600 23.46100
H  9.24700 46.67300 21.68300
H  7.06200 48.58900 22.21900
H  8.39600 49.12300 20.35100
H  10.09900 48.39700 20.28900
H  9.79900 49.62100 21.35000
H  5.70600 46.67100 21.65800
H  6.85400 45.52500 22.16100
H  6.32000 45.61400 19.64700
H  8.09700 46.00300 19.91200
H  6.87400 47.20000 19.56100
H  3.61700 47.22700 25.36200
H  3.21400 47.71500 27.13500
H  3.29000 46.05700 26.70400
H  6.31500 48.45900 30.91200
H  6.33000 46.05700 34.29400
H  6.83300 44.79400 33.06200
H  5.10400 45.02800 33.41100

