158

Mg 24.83700 -5.17100 45.38000
C  26.63900 -2.58700 43.75400
C  22.17300 -4.46400 43.46700
C  23.73400 -8.17200 46.11300
C  27.99500 -5.95200 47.02700
N  24.50900 -3.75000 43.82800
C  25.33000 -2.76500 43.35200
C  24.75000 -2.08500 42.15000
C  23.32000 -2.44700 42.26900
C  23.26500 -3.61500 43.35800
C  22.17000 -1.35500 42.45600
C  25.34600 -2.38700 40.73000
C  25.55900 -1.13700 39.84200
H  24.78400 -1.10800 38.52600
N  23.20400 -6.20100 44.81800
C  22.12700 -5.71700 44.14800
C  20.97300 -6.61600 44.22800
C  21.40200 -7.81900 44.86400
C  22.87900 -7.43400 45.29400
C  19.64100 -6.44200 43.60700
C  20.62400 -9.15800 44.95900
O  19.49500 -9.26100 44.49000
C  21.16800 -10.40900 45.49300
N  25.85900 -6.91400 46.26900
C  25.09900 -7.99900 46.48600
C  25.78200 -8.98500 47.36700
C  27.04500 -8.23900 47.78600
C  26.99500 -6.92700 46.99500
C  24.97600 -9.66300 48.52000
C  28.26700 -9.15100 47.57400
C  29.49800 -9.10700 48.56900
N  26.82700 -4.40400 45.55900
C  27.96800 -4.78000 46.28700
C  29.08900 -3.88100 46.03200
C  28.66200 -3.07400 44.98400
C  27.27100 -3.38200 44.73700
C  30.43300 -3.95100 46.50000
C  29.11200 -2.15000 43.99000
O  30.19200 -1.66500 43.72100
C  27.73600 -1.71300 43.25800
C  27.59700 -0.32000 43.65600
O  27.01200 0.13900 44.62600
O  28.21400 0.42100 42.70100
C  28.21900 1.86400 42.80700
H  21.26900 -4.09300 42.97900
H  23.31200 -9.15300 46.34100
H  28.89400 -6.27200 47.55800
H  24.88500 -1.01800 42.32700
H  23.01400 -2.98500 41.37100
H  21.41000 -1.47900 41.68400
H  22.61500 -0.38600 42.23200
H  21.75100 -1.40900 43.46100
H  24.74300 -3.04500 40.10400
H  26.30800 -2.89300 40.80900
H  26.62200 -1.04300 39.62000
H  25.25700 -0.22600 40.35700
H  19.64100 -5.39000 43.32200
H  18.93300 -6.58700 44.42300
H  19.43600 -7.08200 42.74900
H  20.34000 -11.11400 45.56600
H  21.62000 -10.30000 46.47900
H  21.93600 -10.66400 44.76200
H  25.96700 -9.74900 46.61100
H  27.01500 -7.88900 48.81700
H  24.13300 -9.04000 48.81800
H  25.61100 -9.80700 49.39500
H  24.63900 -10.65400 48.21600
H  28.67600 -9.00300 46.57500
H  27.95400 -10.19200 47.49000
H  29.57300 -10.03600 49.13300
H  29.38800 -8.37000 49.36500
H  30.43500 -8.90500 48.04900
H  30.70900 -4.86600 45.97600
H  30.65900 -4.00300 47.56500
H  31.03900 -3.08300 46.23900
H  27.79900 -1.74200 42.17100
H  27.63600 2.10100 41.91700
H  29.24300 2.23600 42.82200
H  27.71800 2.20200 43.71500
Mg 49.41400 35.95600 27.37800
C  46.93500 34.37600 29.61700
C  49.33400 38.54800 29.55700
C  50.97600 37.65700 25.12300
C  48.56200 33.41000 25.05600
N  48.26600 36.34000 29.29800
C  47.60300 35.45500 30.12100
C  47.55400 36.02200 31.54300
C  47.78700 37.54300 31.38800
C  48.51000 37.53200 29.98800
C  46.47700 38.43700 31.54600
C  48.78800 35.42500 32.31900
C  48.72900 35.65400 33.86100
H  47.56000 36.44700 34.59300
N  50.15200 37.78700 27.39400
C  50.03800 38.74100 28.36400
C  50.81400 39.90400 27.98000
C  51.43900 39.60600 26.69100
C  50.86600 38.30300 26.34800
C  50.88500 41.12100 28.90500
C  52.29500 40.44500 25.73600
O  52.59100 40.16900 24.54700
C  52.81300 41.76400 26.23400
N  49.72200 35.58100 25.39200
C  50.50500 36.41800 24.68600
C  51.01400 35.81200 23.38400
C  50.12100 34.46900 23.27100
C  49.40700 34.42600 24.68600
C  51.14600 36.62700 22.10700
C  51.03500 33.14800 23.11700
C  50.40500 32.08400 22.19100
N  48.12400 34.19200 27.28500
C  47.89000 33.24500 26.28800
C  47.00500 32.21100 26.75000
C  46.62900 32.59700 28.06000
C  47.21900 33.85300 28.27000
C  46.50900 31.00600 25.99300
C  45.85800 32.23900 29.19300
O  45.19900 31.20100 29.41000
C  45.90300 33.42300 30.17800
C  46.32100 32.86900 31.51600
O  47.35600 32.37500 31.87400
O  45.27300 33.04500 32.36000
C  45.14100 32.31800 33.63300
H  49.40900 39.32200 30.32500
H  51.64100 38.05600 24.35400
H  48.32800 32.66900 24.28900
H  46.62600 35.83500 32.08200
H  48.55500 37.78400 32.12300
H  46.27100 38.97800 30.62200
H  46.43900 39.05200 32.44500
H  45.56600 37.84100 31.60400
H  49.74500 35.75700 31.91700
H  48.86500 34.34600 32.18800
H  49.62900 36.18200 34.17500
H  48.81600 34.68800 34.35800
H  49.96100 41.28600 29.45900
H  51.07800 41.96300 28.24000
H  51.60700 40.86100 29.68000
H  52.00400 42.47000 26.41900
H  53.56000 42.12800 25.52800
H  53.25800 41.49000 27.19000
H  52.06600 35.69000 23.64200
H  49.27900 34.68400 22.61400
H  50.37900 36.41000 21.36300
H  52.09600 36.47900 21.59300
H  51.06500 37.70800 22.21500
H  51.13200 32.67800 24.09600
H  52.00500 33.40200 22.69100
H  49.89300 32.48900 21.31800
H  49.86300 31.43500 22.87900
H  51.24900 31.47500 21.86900
H  46.10100 31.40900 25.06600
H  45.96000 30.32900 26.64800
H  47.34300 30.36700 25.70300
H  45.00200 34.03500 30.13400
H  46.09900 32.09200 34.10200
H  44.45200 31.47600 33.70200
H  44.61000 32.96100 34.33500

