158

Mg -2.43900 17.61100 26.78700
C  -3.09100 15.29700 29.56700
C  -2.87300 20.07200 28.98900
C  -2.48700 19.52200 24.15400
C  -2.56000 14.73900 24.69100
N  -3.00800 17.62700 29.03500
C  -3.02300 16.60900 29.96500
C  -3.00600 17.15000 31.38700
C  -3.11500 18.74300 31.11700
C  -3.02900 18.79500 29.62100
C  -4.23900 19.59200 31.65200
C  -1.66300 16.72100 32.21200
C  -1.17500 17.63000 33.27100
H  -0.70500 16.99000 34.67400
N  -2.64300 19.56100 26.56600
C  -2.79100 20.39800 27.62000
C  -2.86600 21.76100 27.10800
C  -2.75700 21.62300 25.69400
C  -2.69800 20.20900 25.36500
C  -2.93300 23.07300 27.98400
C  -2.89400 22.71700 24.63200
O  -2.95200 22.36300 23.45200
C  -2.85000 24.18700 25.02400
N  -2.54000 17.16500 24.73400
C  -2.43300 18.17200 23.84000
C  -2.27500 17.63200 22.34700
C  -2.02300 16.09200 22.64100
C  -2.29400 16.02300 24.10400
C  -3.53200 18.00300 21.45000
C  -0.61200 15.57500 22.16300
C  0.66000 16.14200 22.85200
N  -2.79200 15.44400 26.95300
C  -2.81500 14.45100 26.06700
C  -2.95400 13.19100 26.72700
C  -3.04800 13.44800 28.08500
C  -2.97300 14.87400 28.18100
C  -2.96500 11.82900 26.06000
C  -3.14700 12.85900 29.34500
O  -3.25400 11.66700 29.65100
C  -3.21700 14.01100 30.42500
C  -2.09700 13.68500 31.35700
O  -0.93500 13.86700 31.17200
O  -2.74800 13.05300 32.33500
C  -1.89600 12.70600 33.46800
H  -2.68000 20.79300 29.78700
H  -2.26000 20.03800 23.21800
H  -2.45200 13.88700 24.01700
H  -3.89000 16.83500 31.94200
H  -2.23600 19.26400 31.49700
H  -3.85400 20.39700 32.27800
H  -4.87000 18.96800 32.28500
H  -4.84200 20.03100 30.85800
H  -0.81900 16.52400 31.55100
H  -1.90700 15.79900 32.74100
H  -1.86800 18.44900 33.46300
H  -0.34100 18.16400 32.81500
H  -2.79800 22.75000 29.01600
H  -3.84500 23.65300 27.83800
H  -2.10500 23.67600 27.61300
H  -3.45100 24.50100 25.87700
H  -3.23800 24.87300 24.27100
H  -1.84300 24.55300 25.22500
H  -1.30200 17.97900 22.00100
H  -2.72700 15.45100 22.11000
H  -3.08400 18.49600 20.58700
H  -4.05500 18.71900 22.08400
H  -4.18600 17.14200 21.31100
H  -0.46300 15.75100 21.09800
H  -0.60100 14.48700 22.22000
H  0.39700 17.00600 23.46200
H  1.33100 16.54100 22.09200
H  1.06400 15.30600 23.42300
H  -3.19200 12.06000 25.01900
H  -3.71100 11.24100 26.59500
H  -2.02600 11.28000 26.12200
H  -4.21100 13.91900 30.86500
H  -1.56000 11.66900 33.45400
H  -2.47800 12.90900 34.36700
H  -1.05200 13.36400 33.67800
Mg 26.62700 50.60500 26.51500
C  24.70000 52.01700 29.02200
C  29.02000 49.70800 28.91900
C  28.71300 49.53900 24.02900
C  24.47800 52.03000 24.24400
N  26.82800 50.92600 28.69400
C  25.82400 51.37700 29.51300
C  26.23800 51.09100 30.97600
C  27.70000 50.55600 30.94800
C  27.84400 50.29800 29.44000
C  28.75900 51.46500 31.45100
C  25.25800 50.12600 31.73600
C  24.78100 50.50300 33.22800
H  24.94000 49.49400 34.39900
N  28.62500 49.69900 26.50100
C  29.43600 49.49300 27.57200
C  30.71100 48.92400 27.08600
C  30.64600 48.91900 25.57800
C  29.29200 49.38100 25.30500
C  31.85400 48.68700 28.09800
C  31.67700 48.51300 24.47200
O  31.57700 48.68000 23.22900
C  32.98300 47.92400 24.94100
N  26.64600 50.81700 24.46400
C  27.45300 50.12000 23.61400
C  27.01700 50.22300 22.17600
C  25.53300 50.74200 22.31600
C  25.54700 51.25300 23.75800
C  27.87400 51.21900 21.42200
C  24.42500 49.60700 22.21900
C  23.32600 49.96800 21.25300
N  24.89700 51.84200 26.56500
C  24.12300 52.25100 25.56900
C  22.94800 52.86200 26.03800
C  23.02000 52.81700 27.39900
C  24.31400 52.22200 27.70100
C  21.92700 53.53800 25.30500
C  22.47600 53.13800 28.68300
O  21.52700 53.82100 28.87700
C  23.55500 52.61100 29.77000
C  23.99100 53.81300 30.51600
O  24.61500 54.78000 30.10700
O  23.67100 53.66900 31.84300
C  24.19500 54.66700 32.78500
H  29.61700 49.25200 29.71100
H  29.23100 49.09800 23.17500
H  23.80800 52.40200 23.46600
H  26.27400 51.97800 31.60900
H  27.83600 49.57400 31.40200
H  28.56300 51.75100 32.48400
H  28.75400 52.37000 30.84500
H  29.72800 50.99300 31.61800
H  25.62400 49.10000 31.73200
H  24.41900 49.98500 31.05400
H  23.71300 50.71900 33.21200
H  25.40400 51.36600 33.46100
H  31.80800 47.66500 28.47500
H  31.87200 49.38300 28.93600
H  32.79400 48.89300 27.58500
H  32.73100 47.22600 25.73900
H  33.50700 48.76900 25.38900
H  33.60800 47.56800 24.12300
H  26.98200 49.23800 21.71100
H  25.43300 51.56000 21.60400
H  28.77700 51.59600 21.90100
H  27.32900 52.07000 21.01300
H  28.25800 50.77800 20.50200
H  23.95100 49.32500 23.15900
H  24.96500 48.75700 21.80100
H  23.62200 50.75700 20.56000
H  22.51400 50.38800 21.84700
H  23.01700 49.09300 20.68100
H  22.43900 54.18700 24.59400
H  21.31800 54.16600 25.95600
H  21.30900 52.83000 24.75300
H  23.12700 51.90200 30.47900
H  23.55000 54.51600 33.65000
H  23.97900 55.68900 32.47200
H  25.26600 54.46400 32.79000

