158

Mg 35.45900 2.83300 30.43900
C  33.04500 3.96900 32.81400
C  37.57800 2.47700 33.09400
C  37.60300 1.71300 28.25300
C  32.93800 3.25600 27.95900
N  35.33300 3.28800 32.69700
C  34.25600 3.72300 33.44600
C  34.57400 3.80500 34.94600
C  36.12100 3.62500 34.94700
C  36.40000 3.05900 33.47900
C  37.02700 4.85700 35.10000
C  33.72800 2.56000 35.46700
C  33.27000 2.49900 36.95700
H  33.83600 3.71000 37.82300
N  37.46700 2.20900 30.68600
C  38.21900 2.24500 31.87600
C  39.54800 1.79400 31.41900
C  39.53200 1.47400 29.98700
C  38.20800 1.76000 29.60200
C  40.65500 1.70500 32.43100
C  40.51000 0.76400 29.05900
O  40.23900 0.20900 28.00100
C  41.97000 0.58100 29.56600
N  35.27600 2.52400 28.42500
C  36.30600 2.02100 27.70900
C  36.03200 1.91700 26.21900
C  34.48000 1.93600 26.29700
C  34.16800 2.63300 27.61700
C  36.76900 3.08700 25.38500
C  33.74200 0.56900 26.19200
C  32.57900 0.20200 27.22900
N  33.40400 3.57700 30.32500
C  32.53600 3.65800 29.22100
C  31.19500 4.10000 29.73100
C  31.43600 4.30100 31.13300
C  32.76300 3.90800 31.45000
C  29.83900 4.25200 28.99900
C  30.73300 4.65600 32.41200
O  29.50700 4.91500 32.65700
C  31.77200 4.54300 33.49100
C  31.96600 5.85600 34.09900
O  32.34400 6.91000 33.64000
O  31.41100 5.82000 35.35900
C  31.46600 6.84800 36.43300
H  38.26600 2.33900 33.93000
H  38.34500 1.46900 27.49000
H  32.15400 3.36600 27.20800
H  34.18700 4.71400 35.40600
H  36.38000 2.79100 35.59900
H  37.78400 4.64700 35.85600
H  36.59500 5.85400 35.18300
H  37.59600 4.90000 34.17200
H  34.36300 1.67800 35.39100
H  32.98600 2.27700 34.72100
H  33.64600 1.63000 37.49700
H  32.18300 2.44700 37.00700
H  40.26500 2.09200 33.37200
H  41.45300 2.31800 32.01200
H  40.90700 0.64700 32.50900
H  42.22500 1.40300 30.23500
H  42.64000 0.52900 28.70800
H  42.00300 -0.40200 30.03600
H  36.41700 0.91100 26.05400
H  34.23600 2.66100 25.52000
H  37.35100 3.71700 26.05800
H  36.06000 3.71500 24.84600
H  37.48700 2.70400 24.66000
H  34.49500 -0.21900 26.20800
H  33.38000 0.40700 25.17600
H  33.02300 0.08300 28.21700
H  32.07500 -0.75000 27.05900
H  31.84600 1.00900 27.22800
H  29.87700 4.98700 28.19500
H  29.08300 4.36400 29.77600
H  29.49900 3.30500 28.58100
H  31.38400 3.85400 34.24200
H  30.49900 7.28700 36.67800
H  32.21000 7.58800 36.13600
H  31.75500 6.29900 37.32900
Mg -12.27900 16.00600 41.69000
C  -9.46000 14.04700 40.96000
C  -10.48200 18.74600 40.39900
C  -15.12600 17.55200 41.20500
C  -13.93000 13.07900 42.69300
N  -10.19000 16.30000 40.69900
C  -9.20100 15.39000 40.57200
C  -7.89900 15.99300 39.89000
C  -8.24500 17.45900 39.82600
C  -9.71800 17.53100 40.33400
C  -7.29900 18.38500 40.69000
C  -7.66100 15.34700 38.51000
C  -6.23000 14.93300 38.13900
H  -5.51800 15.67100 37.04900
N  -12.77000 17.95000 41.10600
C  -11.88800 18.86400 40.59100
C  -12.66300 20.05500 40.38200
C  -14.00900 19.70300 40.45900
C  -14.05300 18.35700 40.93800
C  -12.00300 21.33100 40.03200
C  -15.26500 20.62700 40.12400
O  -15.05800 21.77900 39.72300
C  -16.74600 20.08200 40.16300
N  -14.19500 15.43300 42.04500
C  -15.23500 16.24800 41.74400
C  -16.59800 15.53100 41.80600
C  -16.25400 14.07300 42.39400
C  -14.71500 14.18500 42.41600
C  -17.84700 16.26800 42.61000
C  -16.87600 12.99600 41.59600
C  -17.57500 11.91500 42.54800
N  -11.80500 13.97600 41.92700
C  -12.59000 12.93800 42.43300
C  -11.75800 11.73200 42.52900
C  -10.55400 12.10500 41.88900
C  -10.65100 13.48100 41.47100
C  -12.11000 10.35300 43.00200
C  -9.28500 11.61700 41.51600
O  -8.87500 10.50600 41.61100
C  -8.55700 12.83100 40.84100
C  -7.27900 13.05800 41.50200
O  -7.11300 13.13600 42.72100
O  -6.25500 13.05800 40.64000
C  -4.86300 13.33300 41.06500
H  -9.99500 19.66900 40.07700
H  -16.14400 17.94000 41.13200
H  -14.52500 12.27800 43.13600
H  -7.05300 15.90800 40.57200
H  -8.05600 17.81600 38.81400
H  -6.69600 18.89700 39.94000
H  -6.75000 17.91700 41.50700
H  -7.96200 19.15200 41.09100
H  -7.96500 16.00300 37.69500
H  -8.22200 14.42300 38.37100
H  -6.27900 13.87300 37.89000
H  -5.61100 15.10500 39.01900
H  -11.71000 21.38000 38.98300
H  -11.11000 21.43700 40.64800
H  -12.62300 22.20000 40.24900
H  -17.53700 20.66300 39.68800
H  -16.96600 19.98700 41.22600
H  -16.75900 19.13000 39.63400
H  -17.01900 15.41700 40.80700
H  -16.43600 13.96500 43.46400
H  -17.83000 15.87100 43.62500
H  -18.70100 15.94900 42.01300
H  -17.70800 17.34600 42.52600
H  -16.04200 12.57900 41.03300
H  -17.54300 13.33000 40.80100
H  -16.90400 11.45500 43.27300
H  -17.96300 11.15700 41.86700
H  -18.42800 12.37900 43.04400
H  -12.74100 10.44200 43.88600
H  -11.24400 9.77300 43.32300
H  -12.69400 9.99200 42.15500
H  -8.44100 12.66500 39.77100
H  -4.52600 12.52000 41.70800
H  -4.81000 14.25700 41.64100
H  -4.24600 13.50300 40.18200

