158

Mg 17.42700 -1.41000 27.74100
C  16.36500 0.46200 30.41300
C  19.46600 -3.29100 29.96700
C  18.68300 -3.15800 25.15900
C  15.76000 0.57900 25.60000
N  17.78200 -1.46700 29.92700
C  17.15300 -0.61600 30.84200
C  17.61200 -0.91200 32.23800
C  18.69000 -2.03600 32.07500
C  18.67800 -2.25600 30.52000
C  20.16300 -1.65600 32.51000
C  16.42400 -1.17300 33.31800
C  16.56500 -0.43300 34.69700
H  17.75000 -0.82700 35.55900
N  18.73000 -3.06000 27.60100
C  19.45000 -3.71200 28.62100
C  20.00100 -4.98800 28.12200
C  19.81600 -4.91800 26.73500
C  19.03800 -3.68900 26.45900
C  20.64000 -6.12100 28.95600
C  20.37100 -5.79600 25.69700
O  20.28700 -5.61700 24.49800
C  21.10300 -7.09500 26.08600
N  17.32300 -1.18600 25.66900
C  17.92400 -2.04500 24.78500
C  17.73500 -1.63300 23.29600
C  16.60100 -0.55100 23.54300
C  16.56000 -0.37900 25.02500
C  19.07500 -1.07000 22.64500
C  15.25100 -0.78000 22.95400
C  14.62100 0.36500 22.12700
N  16.28100 0.23200 27.89900
C  15.63600 0.93800 26.93600
C  14.86100 2.03300 27.59200
C  15.13900 1.87200 29.02000
C  16.02100 0.81700 29.11700
C  13.98300 3.01100 26.97800
C  14.85600 2.40400 30.28200
O  14.18100 3.40200 30.60700
C  15.67500 1.51200 31.25000
C  16.69400 2.36300 31.82600
O  17.80700 2.54300 31.41900
O  16.23000 2.96500 32.94200
C  17.26500 3.60500 33.84400
H  20.05100 -3.94700 30.61500
H  19.00700 -3.80400 24.34100
H  15.31400 1.21000 24.82900
H  18.20600 -0.06900 32.59100
H  18.31200 -2.97700 32.47400
H  20.07800 -0.66600 32.95800
H  20.89900 -1.63500 31.70600
H  20.57200 -2.39800 33.19500
H  16.36200 -2.23400 33.56300
H  15.48100 -0.96400 32.81300
H  15.61100 -0.57500 35.20700
H  16.50100 0.62700 34.45300
H  20.08200 -7.03500 28.75200
H  20.69000 -5.90400 30.02300
H  21.65500 -6.19700 28.56600
H  22.04600 -6.83900 26.56900
H  21.44700 -7.70800 25.25300
H  20.49500 -7.66700 26.78700
H  17.22100 -2.36000 22.66800
H  16.99500 0.37900 23.13300
H  19.90200 -0.99700 23.35100
H  18.97200 -0.04000 22.30200
H  19.40300 -1.71800 21.83200
H  14.56200 -1.13400 23.72100
H  15.29600 -1.60100 22.23900
H  13.74400 0.82100 22.58500
H  14.32500 0.04500 21.12800
H  15.29900 1.20800 21.99200
H  14.54900 3.92200 26.78200
H  13.22500 3.21400 27.73500
H  13.49100 2.62400 26.08600
H  15.12700 1.13700 32.11400
H  16.94300 4.52300 34.33600
H  18.20600 3.90100 33.38100
H  17.41100 2.82200 34.58800
Mg 6.62400 53.53300 41.71400
C  6.02200 50.11500 41.33800
C  9.87900 52.98700 40.94500
C  6.90200 56.81200 41.30300
C  3.17100 53.91100 42.51100
N  7.84100 51.70500 41.29700
C  7.39900 50.45600 41.07000
C  8.54600 49.43700 40.70800
C  9.85200 50.33000 41.07600
C  9.19100 51.79000 41.05900
C  10.61000 50.05100 42.43300
C  8.63300 48.85000 39.26200
C  8.32400 49.89700 38.19500
H  7.28000 49.52000 37.09800
N  8.19600 54.75200 41.28400
C  9.42700 54.29300 40.86900
C  10.19900 55.43300 40.45000
C  9.34500 56.59800 40.54700
C  8.08000 56.06800 41.03200
C  11.66600 55.42700 39.96900
C  9.76100 58.03400 40.17100
O  10.84100 58.30300 39.58100
C  8.98900 59.11700 40.67000
N  5.25400 55.14000 41.97200
C  5.63300 56.43000 41.73800
C  4.43000 57.28900 41.78400
C  3.28700 56.44200 42.46700
C  3.88400 55.05100 42.29900
C  4.50300 58.71100 42.41200
C  1.79000 56.61800 41.97900
C  0.75800 56.64600 43.11300
N  4.95100 52.34000 41.95700
C  3.66300 52.62600 42.38500
C  2.85900 51.42200 42.42800
C  3.74900 50.42800 42.08700
C  5.02600 51.02400 41.74700
C  1.37100 51.20600 42.79000
C  3.84000 49.02000 41.80900
O  3.02400 48.08600 41.86100
C  5.40200 48.78800 41.43200
C  5.39100 47.97300 40.22000
O  4.81500 48.26000 39.19100
O  5.92300 46.74800 40.46800
C  6.24600 45.85400 39.34800
H  10.91300 53.03200 40.59700
H  6.90800 57.82900 40.90500
H  2.11200 53.92600 42.77700
H  8.34500 48.70700 41.49200
H  10.66900 50.40400 40.35800
H  10.47800 48.99600 42.67200
H  10.37600 50.67900 43.29200
H  11.65700 50.30800 42.26800
H  7.96600 47.99300 39.16700
H  9.61100 48.37500 39.18100
H  9.23000 50.20700 37.67400
H  8.06200 50.81700 38.71700
H  12.19000 54.50000 40.20200
H  12.23200 56.23000 40.44100
H  11.72100 55.63000 38.90000
H  8.52600 59.74000 39.90600
H  9.62800 59.90600 41.06600
H  8.49500 58.91000 41.62000
H  4.24400 57.44100 40.72000
H  3.29400 56.59200 43.54700
H  5.37900 58.88800 43.03700
H  3.68200 58.99000 43.07200
H  4.47500 59.48300 41.64300
H  1.47600 55.89400 41.22700
H  1.67100 57.58500 41.49100
H  0.09500 57.50900 43.06000
H  1.28800 56.73300 44.06200
H  0.13000 55.75500 43.14300
H  0.93400 52.13400 43.15900
H  1.32100 50.54900 43.65900
H  0.82600 50.68000 42.00700
H  5.92800 48.25200 42.22200
H  7.28500 45.83700 39.02000
H  5.56600 45.88700 38.49700
H  6.01300 44.84500 39.68700

