158

Mg 53.33000 24.48600 45.56200
C  50.78600 26.51300 44.46300
C  51.64300 21.85600 44.03600
C  55.98200 22.57700 46.18100
C  55.07700 27.24900 46.71600
N  51.54200 24.29600 44.22500
C  50.62700 25.21900 43.88100
C  49.66900 24.73100 42.84100
C  49.63200 23.21600 43.23000
C  51.01300 23.06000 43.88200
C  48.49700 22.86000 44.33100
C  50.28700 25.02700 41.42300
C  49.42900 25.71400 40.25000
H  50.29400 26.40400 39.15300
N  53.76500 22.46800 45.17500
C  52.91900 21.57500 44.55700
C  53.55700 20.24300 44.64500
C  54.79500 20.36200 45.45000
C  54.91700 21.81900 45.54400
C  52.91100 19.02300 44.00100
C  55.60200 19.18000 45.98300
O  55.16200 18.04200 45.99200
C  56.93600 19.46000 46.69400
N  55.36500 24.90300 46.19800
C  56.16800 23.93200 46.55600
C  57.61600 24.35500 46.95500
C  57.30000 25.92300 47.11300
C  55.88400 26.09500 46.61200
C  58.17000 23.67500 48.21800
C  58.35600 26.86200 46.40800
C  59.32900 27.50200 47.23500
N  53.01200 26.46200 45.69300
C  53.71700 27.47100 46.28800
C  52.93700 28.70400 46.36600
C  51.81100 28.37900 45.63400
C  51.87100 26.99500 45.22200
C  53.29700 29.94000 47.01800
C  50.48100 28.88300 45.14600
O  49.92900 29.94600 45.33500
C  49.87800 27.70400 44.29100
C  49.51900 28.27000 42.96600
O  50.26900 28.34700 41.98100
O  48.22800 28.64200 43.04900
C  47.77700 29.28000 41.80500
H  51.02500 21.03500 43.66700
H  56.85600 21.94200 46.33500
H  55.80200 28.00900 47.01300
H  48.63200 25.05400 42.75400
H  49.46900 22.55100 42.38200
H  48.00700 21.94900 43.98600
H  47.96700 23.79300 44.52300
H  48.96700 22.67200 45.29600
H  50.51000 24.07500 40.94100
H  51.30800 25.39700 41.51900
H  48.82900 26.49400 40.71900
H  48.69900 24.98300 39.90300
H  52.36300 19.28600 43.09600
H  52.34900 18.52200 44.78900
H  53.72700 18.35000 43.74000
H  57.34800 18.45500 46.78800
H  56.80000 19.73500 47.74000
H  57.61400 20.02800 46.05800
H  58.30400 24.19800 46.12500
H  57.21700 26.21600 48.15900
H  58.97500 23.08600 47.77800
H  57.38400 23.02200 48.59600
H  58.33800 24.53200 48.87000
H  57.84600 27.68200 45.90300
H  58.85200 26.27800 45.63200
H  59.23700 27.31800 48.30500
H  59.29000 28.56300 46.98800
H  60.31600 27.09800 47.01000
H  54.14000 30.47100 46.57600
H  53.61100 29.66200 48.02400
H  52.41000 30.56900 47.09400
H  48.97300 27.47700 44.85400
H  48.24900 30.26100 41.86000
H  46.69500 29.38600 41.88900
H  47.99700 28.78500 40.86000
Mg 47.68100 16.70100 29.02900
C  45.25600 16.39000 31.74300
C  49.59500 18.69100 31.01500
C  49.54000 17.31000 26.40600
C  45.10100 15.31700 26.97500
N  47.39300 17.35400 31.13500
C  46.42900 17.07800 32.11000
C  46.86900 17.55800 33.50200
C  48.12000 18.39600 33.15200
C  48.43400 18.15600 31.61600
C  47.93800 19.90500 33.45600
C  47.00700 16.36200 34.55300
C  46.19300 16.48300 35.86800
H  46.08200 17.82400 36.56000
N  49.41000 17.75100 28.79100
C  50.04400 18.50300 29.69500
C  51.22300 19.07900 29.08100
C  51.30300 18.58600 27.79700
C  50.06000 17.78900 27.61000
C  52.16900 19.94700 29.78300
C  52.33600 18.94300 26.65000
O  52.17200 18.46000 25.57500
C  53.50400 19.89800 26.90300
N  47.36700 16.13300 27.06200
C  48.28300 16.58500 26.19000
C  47.77600 16.45000 24.76200
C  46.48200 15.62600 24.88000
C  46.27200 15.68000 26.36400
C  47.57900 17.81700 23.92700
C  46.60000 14.15900 24.36200
C  45.94200 13.88000 23.02600
N  45.68400 15.86700 29.26000
C  44.80200 15.37300 28.31300
C  43.53100 15.04300 28.90600
C  43.74000 15.31700 30.23800
C  45.02500 15.88100 30.41800
C  42.50500 14.22200 28.20800
C  43.10600 15.28300 31.51700
O  41.98200 14.89300 31.82500
C  44.11200 15.89700 32.60400
C  43.44500 17.04300 33.21400
O  43.48400 18.14800 32.78700
O  42.77800 16.68700 34.34900
C  42.07400 17.78100 34.98600
H  50.12900 19.31400 31.73500
H  50.19600 17.27400 25.53300
H  44.23500 15.20300 26.32000
H  46.02000 18.17000 33.80700
H  48.94500 18.08900 33.79400
H  47.06100 20.12700 34.06400
H  47.79500 20.45600 32.52600
H  48.77900 20.35800 33.98000
H  48.05600 16.30100 34.84000
H  46.61700 15.46400 34.07300
H  46.83100 15.89500 36.52700
H  45.20100 16.03300 35.89200
H  53.17100 19.52200 29.72000
H  51.96300 20.11100 30.84100
H  52.13400 20.95300 29.36400
H  54.10100 20.02800 26.00100
H  54.23500 19.45000 27.57600
H  53.25200 20.88100 27.30300
H  48.57400 15.83700 24.34300
H  45.59200 16.05800 24.42200
H  46.53700 17.79700 23.60800
H  48.35500 17.83900 23.16200
H  47.85500 18.75900 24.40100
H  46.10700 13.49400 25.07100
H  47.63400 13.81600 24.37700
H  45.04300 13.28100 23.17100
H  46.57400 13.22000 22.43100
H  45.87700 14.78800 22.42700
H  42.79800 13.19400 27.99600
H  42.11200 14.59400 27.26200
H  41.67200 14.10800 28.90200
H  44.34400 15.19600 33.40500
H  41.43200 18.18800 34.20400
H  42.74600 18.46400 35.50500
H  41.50300 17.33500 35.80100

