158

Mg 0.57500 7.72100 25.53300
C  1.30700 9.76200 28.29800
C  0.51600 5.09000 27.62200
C  0.27900 5.76300 22.71100
C  1.16600 10.59000 23.42200
N  0.97300 7.47300 27.61200
C  1.17600 8.42100 28.60300
C  1.18900 7.84700 30.05300
C  1.07100 6.32000 29.82400
C  0.74300 6.29200 28.25100
C  2.36700 5.37400 30.18400
C  0.07900 8.32800 30.98000
C  0.43200 8.46300 32.44500
H  1.70300 7.62200 32.83900
N  0.35200 5.69900 25.20300
C  0.42400 4.76500 26.24300
C  0.34300 3.43200 25.62100
C  0.19900 3.65000 24.16400
C  0.34200 5.06800 23.99900
C  0.27400 2.15900 26.44500
C  0.05700 2.54700 23.09800
O  0.08200 2.82800 21.89700
C  -0.06900 1.12900 23.48700
N  0.84800 8.04700 23.41100
C  0.47300 7.12700 22.50400
C  0.27800 7.71600 21.09600
C  0.33600 9.29400 21.44000
C  0.83100 9.38200 22.83100
C  1.29200 7.26400 20.06000
C  -1.04200 10.03100 21.49100
C  -1.16500 11.24100 20.59800
N  1.12700 9.73700 25.76700
C  1.25100 10.80700 24.85200
C  1.48900 12.04800 25.51300
C  1.40200 11.69800 26.84100
C  1.24400 10.29700 27.00100
C  1.80100 13.28600 24.90000
C  1.63300 12.28800 28.18900
O  1.87000 13.43800 28.53300
C  1.40300 11.07700 29.17400
C  2.66200 11.08400 30.03800
O  3.83400 10.94700 29.60400
O  2.31700 11.36500 31.38000
C  3.42200 11.19000 32.24400
H  0.29700 4.22800 28.25600
H  0.08200 5.25700 21.76400
H  1.20900 11.51100 22.83800
H  2.17900 8.11800 30.41900
H  0.25400 5.81700 30.34200
H  2.10400 4.58200 30.88600
H  3.12300 6.06600 30.55400
H  2.83400 4.86500 29.34200
H  -0.78600 7.68300 30.83000
H  -0.06900 9.33500 30.59000
H  -0.38900 8.33500 33.15000
H  0.81400 9.48400 32.48300
H  0.96700 1.37000 26.15300
H  -0.77400 1.86500 26.38400
H  0.60400 2.27100 27.47800
H  -0.21500 0.52300 22.59300
H  -0.94200 1.16200 24.13800
H  0.81400 0.70700 23.96800
H  -0.72000 7.51900 20.70500
H  1.00600 9.84800 20.78200
H  1.69800 6.26700 20.22600
H  2.15400 7.91100 19.89400
H  0.75900 7.24000 19.11000
H  -1.38000 10.19500 22.51400
H  -1.81700 9.30600 21.24500
H  -0.25300 11.47400 20.04800
H  -1.38900 12.09700 21.23500
H  -1.97100 11.13300 19.87300
H  1.37100 13.53200 23.92900
H  2.86800 13.31900 24.67900
H  1.44500 14.04400 25.59800
H  0.53300 11.37300 29.76100
H  3.93800 10.24500 32.07600
H  3.04100 11.13200 33.26300
H  4.21300 11.91000 32.03200
Mg 48.94100 45.36800 42.86900
C  45.46600 45.71800 41.95000
C  48.85900 42.28900 41.42100
C  52.28900 45.50400 42.79700
C  48.78200 48.61500 43.94100
N  47.33200 44.26000 41.66000
C  46.01700 44.51200 41.48600
C  45.38500 43.36800 40.65500
C  46.34200 42.21300 40.92000
C  47.58400 42.97000 41.38600
C  45.96200 41.07600 41.92400
C  45.24100 43.89900 39.12900
C  43.99400 43.29900 38.39600
H  43.87800 43.43000 36.86000
N  50.38400 43.93900 42.36200
C  50.11200 42.78700 41.74800
C  51.37000 42.11900 41.47400
C  52.37100 43.10200 41.71400
C  51.69700 44.28300 42.33400
C  51.49700 40.65200 41.07100
C  53.87600 42.90100 41.42800
O  54.26700 41.87700 40.91000
C  54.91600 43.92500 41.80600
N  50.34400 46.82800 43.15700
C  51.67200 46.64000 43.26900
C  52.44000 47.93000 43.74600
C  51.29000 48.85500 44.28600
C  50.03600 48.07300 43.75600
C  53.65000 47.68200 44.73600
C  51.43300 50.42000 43.88900
C  51.64300 51.34700 45.02900
N  47.38400 46.88700 43.00200
C  47.54200 48.19000 43.46100
C  46.30000 48.83600 43.35700
C  45.40400 47.90700 42.81200
C  46.15200 46.75400 42.51600
C  46.14300 50.28000 43.92000
C  44.03300 47.66800 42.42500
O  43.06600 48.42000 42.52200
C  44.03600 46.13800 41.79800
C  43.01600 45.29700 42.53000
O  42.42800 44.33500 42.04900
O  42.78800 45.82900 43.77000
C  41.67400 45.10300 44.48100
H  48.87100 41.29300 40.97600
H  53.37600 45.59500 42.75600
H  48.90000 49.64600 44.28000
H  44.37000 43.12200 40.96500
H  46.65700 41.71400 40.00400
H  45.62300 40.16200 41.43700
H  45.12700 41.32200 42.58100
H  46.80700 40.83300 42.56700
H  46.14000 43.86400 38.51400
H  45.07100 44.97500 39.09300
H  43.09200 43.74300 38.81700
H  43.92300 42.23900 38.64100
H  51.76300 40.45400 40.03300
H  50.53800 40.19500 41.31700
H  52.25800 40.34200 41.78700
H  54.61800 44.72300 41.12600
H  55.88600 43.50900 41.53400
H  54.96400 44.13300 42.87500
H  52.86600 48.44300 42.88300
H  51.23400 48.83500 45.37400
H  54.60500 47.83300 44.23200
H  53.62000 46.66100 45.11500
H  53.59200 48.34800 45.59700
H  50.56600 50.67600 43.27900
H  52.27100 50.57000 43.20900
H  50.77300 52.00300 45.02700
H  52.42700 52.04100 44.72600
H  51.81600 50.91400 46.01400
H  46.85700 50.85500 43.33000
H  46.50100 50.37700 44.94500
H  45.13700 50.68300 43.80000
H  43.63400 46.18000 40.78600
H  40.74300 45.66700 44.44000
H  41.96000 45.00000 45.52800
H  41.40700 44.09200 44.17200

