158

Mg 17.17800 -1.39900 27.99700
C  15.99200 0.25600 30.82300
C  19.61100 -2.97300 29.95900
C  18.62700 -2.66800 25.22600
C  14.99500 0.49300 26.03700
N  17.75400 -1.28700 30.11700
C  17.01900 -0.66600 31.11800
C  17.51100 -0.95600 32.56400
C  18.66500 -2.02000 32.24100
C  18.75800 -2.12300 30.66300
C  20.02600 -1.69500 32.88100
C  16.34900 -1.46700 33.51900
C  16.50500 -1.35200 35.05400
H  17.69300 -0.61200 35.61200
N  18.71400 -2.79000 27.67700
C  19.63200 -3.25100 28.59600
C  20.41000 -4.28800 27.90900
C  20.10700 -4.25900 26.53000
C  19.12900 -3.20500 26.39500
C  21.29100 -5.15100 28.67200
C  20.58100 -5.13600 25.39400
O  20.06800 -5.07100 24.33400
C  21.71400 -6.08700 25.57400
N  16.78800 -1.19000 25.89100
C  17.51600 -1.80300 24.98200
C  17.17000 -1.33600 23.65500
C  15.92100 -0.49700 23.88000
C  15.79100 -0.45600 25.36100
C  18.39600 -0.63900 22.93300
C  14.62900 -1.05300 23.15100
C  13.95300 -0.15800 22.13900
N  15.95200 0.18700 28.31000
C  15.03900 0.81200 27.40000
C  14.31500 1.82900 28.07400
C  14.65400 1.59900 29.38400
C  15.66600 0.63700 29.53100
C  13.41400 2.74300 27.47300
C  14.30000 2.10100 30.64600
O  13.52700 2.99300 30.96700
C  15.24400 1.26000 31.67900
C  16.12100 2.25000 32.38000
O  17.08600 2.83700 31.85700
O  15.67700 2.41500 33.73100
C  16.38400 3.45800 34.50500
H  20.20700 -3.59800 30.62800
H  19.08500 -3.07100 24.32000
H  14.25700 1.12800 25.54200
H  17.98200 -0.04500 32.93600
H  18.46800 -3.01800 32.63400
H  20.79500 -1.69100 32.10800
H  20.22900 -2.45300 33.63700
H  20.08000 -0.63900 33.14600
H  16.12800 -2.52600 33.38000
H  15.43700 -0.99200 33.15700
H  16.40400 -2.29700 35.58800
H  15.65200 -0.76100 35.38700
H  22.21700 -4.64200 28.93900
H  21.38000 -6.09800 28.14000
H  20.73300 -5.47200 29.55200
H  21.99100 -6.42700 24.57600
H  21.35000 -6.92800 26.16400
H  22.47600 -5.52200 26.11000
H  16.91600 -2.16000 22.98900
H  16.15500 0.50600 23.52300
H  18.19900 0.36900 22.56800
H  18.67700 -1.21400 22.05000
H  19.26200 -0.65400 23.59500
H  13.87600 -1.35300 23.87900
H  14.98500 -1.89500 22.55800
H  14.32400 0.86400 22.22500
H  12.86700 -0.21600 22.21200
H  14.20000 -0.46500 21.12300
H  12.67200 2.07400 27.03800
H  13.92800 3.20700 26.63100
H  12.85300 3.41000 28.12900
H  14.63100 0.71000 32.39300
H  17.36600 3.70200 34.09900
H  16.66500 3.03300 35.46900
H  15.76800 4.34100 34.67300
Mg 41.97200 41.06500 27.78600
C  41.50200 43.61400 30.00200
C  43.40800 39.13300 30.21500
C  42.31600 38.66100 25.42200
C  41.33200 43.37400 25.14800
N  42.29000 41.27400 29.85500
C  41.88400 42.39100 30.60200
C  41.97900 42.08400 32.09400
C  42.77700 40.70400 32.17100
C  42.81600 40.31200 30.63700
C  44.16800 40.78900 32.75200
C  40.59800 41.90700 32.79300
C  40.27700 42.79100 33.99000
H  39.68500 42.16700 35.31200
N  42.64400 39.11900 27.82900
C  43.25100 38.52600 28.89200
C  43.57000 37.16900 28.55000
C  43.16200 36.97900 27.18800
C  42.67900 38.26600 26.72600
C  44.33800 36.14900 29.38600
C  43.17900 35.66200 26.29800
O  42.75500 35.70500 25.13300
C  43.76900 34.36400 26.76800
N  41.80700 41.00000 25.59400
C  41.92300 39.90100 24.88300
C  41.52600 40.01800 23.38100
C  41.17000 41.56400 23.39400
C  41.49900 42.07400 24.78800
C  42.75800 39.62700 22.50800
C  39.63600 41.92200 22.89100
C  38.58300 41.76800 24.01100
N  41.49900 43.06900 27.55800
C  41.28400 43.86300 26.46400
C  40.96600 45.23800 26.85000
C  41.02500 45.10700 28.28400
C  41.37600 43.81500 28.63300
C  40.66800 46.36600 25.96900
C  40.84000 45.86700 29.46200
O  40.57600 47.05000 29.60900
C  40.87500 44.81000 30.62500
C  41.86200 45.35600 31.59200
O  43.04300 45.21500 31.36900
O  41.32400 45.97300 32.67200
C  42.29800 46.49800 33.65900
H  43.78800 38.42400 30.95300
H  42.47800 37.84600 24.71400
H  41.06200 44.08700 24.36700
H  42.48700 42.87400 32.64700
H  42.28400 39.95900 32.79500
H  44.57600 41.71400 32.34500
H  44.92900 40.06700 32.45600
H  44.07400 40.78600 33.83800
H  40.42000 40.89300 33.15000
H  39.85200 42.12800 32.03000
H  39.62600 43.61700 33.70700
H  41.16700 43.35200 34.27500
H  44.71700 36.60500 30.30000
H  45.13100 35.79300 28.72900
H  43.68300 35.31500 29.64200
H  43.31200 34.02200 27.69700
H  44.75300 34.38800 27.23800
H  43.59100 33.53400 26.08400
H  40.60400 39.46600 23.19900
H  41.88700 42.05200 22.73400
H  43.60600 39.36000 23.13800
H  43.10800 40.52100 21.99000
H  42.41700 38.80400 21.88000
H  39.30200 41.26500 22.08700
H  39.66200 42.94600 22.51700
H  39.00700 41.94300 25.00000
H  38.39900 40.69500 24.06600
H  37.64700 42.30500 23.85500
H  39.65500 46.73100 26.13800
H  40.74400 46.08100 24.91900
H  41.41300 47.13200 26.18200
H  39.83300 44.80000 30.94400
H  41.68100 47.32100 34.02100
H  43.24000 46.80700 33.20700
H  42.47700 45.72700 34.40900

