158

Mg 27.51100 50.46900 26.05300
C  25.64900 51.23700 28.83000
C  29.86100 48.98500 28.23900
C  29.32500 49.60500 23.41000
C  25.15600 51.90100 23.97100
N  27.78300 50.25700 28.29100
C  26.82700 50.61900 29.21400
C  27.11900 50.21600 30.62900
C  28.53400 49.70300 30.45600
C  28.75300 49.53100 28.87000
C  29.70900 50.43300 31.06500
C  26.15200 49.31600 31.39700
C  25.67600 49.81200 32.77300
H  25.39900 48.86600 33.89300
N  29.40700 49.55000 25.87200
C  30.19500 49.01900 26.86500
C  31.38500 48.34200 26.25000
C  31.21900 48.44400 24.82000
C  29.93700 49.20200 24.61500
C  32.48700 47.64400 27.04900
C  32.06000 47.76600 23.67500
O  31.69900 47.72300 22.48600
C  33.27900 47.06400 24.05300
N  27.32400 50.83900 23.95400
C  28.21400 50.40900 23.09700
C  27.81200 50.79200 21.68200
C  26.34100 51.36200 21.79000
C  26.26100 51.35000 23.33600
C  28.75000 51.63100 20.78500
C  25.22800 50.38500 21.19300
C  23.89400 51.05900 20.64800
N  25.81100 51.49800 26.26700
C  24.93700 52.02900 25.37400
C  23.83400 52.62300 26.08000
C  24.01400 52.27600 27.39800
C  25.23000 51.62100 27.47200
C  22.65900 53.20200 25.48900
C  23.43400 52.31400 28.75700
O  22.31300 52.73900 29.11600
C  24.45400 51.65400 29.73200
C  24.85900 52.71600 30.71100
O  25.66600 53.60600 30.47400
O  24.13200 52.48400 31.84600
C  24.30900 53.40600 33.00000
H  30.47100 48.41800 28.94600
H  29.86100 49.25900 22.52300
H  24.47900 52.35300 23.24300
H  27.21500 51.21700 31.04900
H  28.56200 48.73900 30.96300
H  29.62300 51.52000 31.05000
H  30.60600 50.15200 30.51200
H  29.80000 50.27000 32.13900
H  26.57600 48.34300 31.64300
H  25.31000 49.13900 30.72800
H  24.66200 50.13600 32.53600
H  26.29600 50.63600 33.12800
H  32.39100 46.56400 26.93100
H  32.27500 47.80500 28.10600
H  33.48900 48.00600 26.81900
H  33.86400 47.80200 24.60200
H  33.77000 46.73900 23.13500
H  32.97300 46.23000 24.68500
H  27.70100 49.80600 21.23100
H  26.35100 52.39300 21.43700
H  28.60300 51.12400 19.83100
H  29.80900 51.74300 21.01800
H  28.27100 52.58700 20.57200
H  25.02700 49.57500 21.89300
H  25.62200 49.89800 20.30100
H  23.79800 50.66600 19.63600
H  23.81100 52.14500 20.60700
H  22.99800 50.68700 21.14600
H  22.69600 54.14200 26.04000
H  21.73700 52.65800 25.69400
H  22.90600 53.32100 24.43400
H  23.98700 50.78500 30.19500
H  24.66100 54.34900 32.58100
H  25.03500 53.00000 33.70600
H  23.34000 53.51500 33.48600
Mg 5.99300 54.81500 40.53300
C  3.32800 52.49000 40.40800
C  8.05800 52.37900 39.38100
C  8.34600 57.10300 40.21300
C  3.56500 57.33900 41.21800
N  5.64300 52.73700 39.79400
C  4.55000 51.97700 39.80600
C  4.69300 50.58400 39.15500
C  6.27400 50.52900 39.09200
C  6.68800 51.96300 39.46700
C  7.09400 49.49000 39.85600
C  4.02200 50.53700 37.72200
C  3.32200 49.12500 37.43500
H  3.90400 48.25100 36.39200
N  8.09200 54.71700 40.09400
C  8.69900 53.63300 39.58500
C  10.05700 54.03200 39.41900
C  10.06400 55.44000 39.34100
C  8.80900 55.82600 39.88500
C  11.17800 53.04800 39.12800
C  11.23500 56.32100 38.84200
O  12.27700 55.75700 38.49200
C  11.19500 57.77000 38.86700
N  5.85700 56.92900 40.42600
C  7.07400 57.59300 40.56300
C  6.92400 59.08500 40.96100
C  5.36300 59.17600 41.05300
C  4.89600 57.70600 40.89300
C  7.60500 59.23000 42.30700
C  4.80500 60.27600 40.05900
C  4.00900 59.79500 38.82400
N  3.87600 54.96600 40.87500
C  3.10300 56.02000 41.25200
C  1.82600 55.51400 41.68000
C  1.88900 54.20500 41.35900
C  3.15400 53.85800 40.89600
C  0.71600 56.24200 42.21200
C  1.14800 52.93900 41.30100
O  -0.00100 52.64700 41.59500
C  2.06200 51.85700 40.68100
C  1.32800 51.15200 39.64300
O  0.98200 51.59800 38.58000
O  1.03200 49.89500 40.13100
C  0.03400 49.20800 39.28900
H  8.77500 51.64800 39.00100
H  9.17900 57.80700 40.26000
H  3.01100 58.22900 41.52300
H  4.29600 49.90500 39.91000
H  6.53700 50.38300 38.04500
H  7.58500 48.96900 39.03400
H  6.50800 48.81000 40.47400
H  7.74800 49.93100 40.61000
H  4.84900 50.73500 37.04000
H  3.28600 51.31700 37.52900
H  2.28700 49.31100 37.14500
H  3.34100 48.52400 38.34400
H  10.84400 52.01400 39.21900
H  11.94600 53.16900 39.89100
H  11.66500 53.27200 38.17900
H  10.32400 58.14900 38.33300
H  11.94200 58.17500 38.18400
H  11.22200 58.18100 39.87600
H  7.46100 59.64600 40.19800
H  4.93700 59.45900 42.01600
H  6.89900 59.81300 42.89800
H  8.51800 59.81700 42.20700
H  7.87600 58.29500 42.79800
H  5.55800 60.96900 39.68400
H  4.06100 60.90100 40.55500
H  2.94400 59.95300 38.99300
H  4.22200 58.75500 38.57900
H  4.27600 60.37000 37.93700
H  1.02700 56.77600 43.11000
H  -0.11000 55.53900 42.32100
H  0.44200 57.02200 41.50200
H  2.27500 51.20900 41.53100
H  -0.56000 48.45700 39.81000
H  0.53600 48.79400 38.41400
H  -0.82800 49.82200 39.02800

