158

Mg 40.23500 9.84500 29.07600
C  42.23800 11.05100 31.78400
C  38.07800 8.58700 31.38200
C  38.45100 8.75600 26.42200
C  42.84200 10.63700 26.88800
N  40.23000 9.74200 31.35600
C  41.06900 10.42600 32.24500
C  40.51800 10.28000 33.67100
C  39.17000 9.50900 33.52700
C  39.18600 9.25100 32.03100
C  39.00600 8.17800 34.34900
C  40.45000 11.67100 34.42300
C  39.49400 11.85100 35.66400
H  40.30600 12.42800 36.94700
N  38.47500 8.89200 28.92900
C  37.76900 8.36300 29.99600
C  36.56400 7.66000 29.49800
C  36.50400 7.82900 28.06300
C  37.81900 8.54000 27.73700
C  35.56600 7.00600 30.35800
C  35.55700 7.27800 27.02100
O  35.67000 7.52800 25.82800
C  34.40100 6.45900 27.60100
N  40.65000 9.54400 26.95300
C  39.71400 9.21000 26.08300
C  40.19700 9.39000 24.58700
C  41.61000 9.99300 24.84000
C  41.70900 10.09800 26.32500
C  40.07300 8.15200 23.72400
C  42.00500 11.34700 24.06400
C  41.52800 12.66500 24.62900
N  42.14600 10.54600 29.24200
C  43.06500 10.93700 28.25300
C  44.09700 11.77000 28.84900
C  43.76800 11.81200 30.14100
C  42.61200 11.04900 30.38000
C  45.30800 12.32300 28.27100
C  44.30500 12.31200 31.42600
O  45.38900 12.75400 31.68900
C  43.25400 11.93200 32.52200
C  43.92900 11.19600 33.58100
O  44.40100 10.08500 33.51100
O  44.02800 12.01700 34.66700
C  44.55900 11.39500 35.86800
H  37.25600 8.30900 32.04400
H  37.73400 8.62700 25.60900
H  43.59000 10.82700 26.11500
H  41.23900 9.59800 34.12100
H  38.33100 10.17500 33.72900
H  38.23600 8.27100 35.11500
H  39.95600 8.00900 34.85700
H  38.98500 7.26600 33.75200
H  40.06900 12.45000 33.76300
H  41.47000 12.02600 34.57400
H  39.03100 10.89400 35.90100
H  38.64200 12.49400 35.44100
H  34.54500 7.38700 30.37400
H  35.78600 7.08400 31.42200
H  35.55500 5.94300 30.11600
H  33.70500 6.97600 28.26200
H  34.85200 5.61300 28.12100
H  33.76900 6.10100 26.78900
H  39.49900 10.13200 24.20000
H  42.37800 9.27100 24.56200
H  41.06400 7.89000 23.35200
H  39.50300 8.34600 22.81600
H  39.72100 7.33400 24.35200
H  41.58200 11.26100 23.06300
H  43.09500 11.32500 24.08600
H  40.95300 12.51700 25.54300
H  40.96400 13.24700 23.90000
H  42.43800 13.23900 24.80400
H  45.52700 13.28700 28.73000
H  45.35000 12.38100 27.18400
H  46.10800 11.67700 28.63100
H  42.90600 12.92800 32.79700
H  44.32800 10.33900 36.00500
H  44.29900 11.99700 36.73900
H  45.64300 11.48600 35.79600
Mg 55.37300 23.80600 44.22400
C  53.01500 26.47500 43.42900
C  53.10700 21.58900 43.17800
C  57.87700 21.64100 44.45300
C  57.74500 26.49200 44.65800
N  53.23000 24.12400 43.20300
C  52.41100 25.19900 43.21800
C  51.03500 24.83400 42.68900
C  51.04900 23.26500 42.87500
C  52.53000 22.93900 43.17300
C  50.21200 22.73300 44.03900
C  50.74600 25.26100 41.22100
C  49.25100 25.22500 40.88500
H  49.08500 24.55800 39.45500
N  55.48600 21.86800 43.83600
C  54.39200 21.09300 43.56700
C  54.84800 19.74600 43.59100
C  56.26600 19.70700 43.88800
C  56.58700 21.13900 44.08100
C  53.88800 18.69300 43.26000
C  57.12800 18.50000 44.04300
O  56.65700 17.38200 43.77900
C  58.59300 18.47100 44.36500
N  57.48700 24.06500 44.30900
C  58.32100 22.98000 44.48800
C  59.69100 23.27400 44.89500
C  59.69300 24.90100 45.05000
C  58.24600 25.18600 44.61200
C  60.15100 22.70800 46.32400
C  60.83600 25.76800 44.24200
C  61.34300 27.12100 44.80200
N  55.42100 25.97600 44.15700
C  56.38400 26.92500 44.43100
C  55.82500 28.21700 44.44500
C  54.53300 28.05900 44.05400
C  54.33200 26.71300 43.83400
C  56.41400 29.47600 44.90300
C  53.39300 28.80600 43.86100
O  53.14100 29.99100 44.12800
C  52.35900 27.83200 43.23700
C  52.21900 28.17000 41.81300
O  52.98600 27.68800 40.96400
O  51.13800 29.00200 41.59400
C  51.05600 29.43900 40.14200
H  52.39600 20.80900 42.89500
H  58.71000 20.97800 44.69100
H  58.45200 27.29100 44.89100
H  50.24600 25.23500 43.32600
H  50.66000 22.76000 41.99100
H  50.89400 22.46300 44.84500
H  49.71100 21.84700 43.64600
H  49.48500 23.41900 44.47300
H  51.41600 24.63800 40.62900
H  50.98100 26.29400 40.96100
H  48.83700 26.21900 41.05100
H  48.78200 24.54900 41.60000
H  53.39000 18.16200 44.07100
H  54.38600 18.01100 42.57100
H  53.01200 18.93800 42.66100
H  59.27300 18.76500 43.56500
H  58.87700 17.45600 44.64400
H  58.74300 19.04000 45.28300
H  60.39500 23.04300 44.09500
H  59.61400 25.30500 46.05900
H  59.93600 23.33900 47.18600
H  61.20500 22.43100 46.29300
H  59.62200 21.76100 46.43200
H  60.45700 25.95700 43.23800
H  61.74000 25.16100 44.18500
H  62.43100 27.11600 44.73900
H  61.09500 27.12500 45.86300
H  61.04200 28.02900 44.27800
H  55.66500 30.26100 44.80200
H  57.23900 29.76700 44.25400
H  56.72400 29.40600 45.94600
H  51.39200 27.95000 43.72500
H  50.81000 28.48500 39.67400
H  52.02200 29.83100 39.82400
H  50.21800 30.08200 39.87200

