158

Mg 42.30700 41.13000 26.53100
C  41.86900 43.64200 28.96700
C  42.85300 38.86700 29.05800
C  43.48100 38.87200 24.28300
C  42.21300 43.51000 24.01800
N  42.39100 41.29000 28.79600
C  42.03600 42.33900 29.53200
C  42.01000 42.07800 31.05900
C  42.44400 40.53100 31.04300
C  42.46100 40.15000 29.56000
C  43.65900 40.07600 31.82700
C  40.61500 42.46600 31.71700
C  40.04500 41.58000 32.79200
H  39.42100 42.21000 34.00100
N  42.93900 39.04300 26.68200
C  43.17600 38.35100 27.81000
C  43.65200 36.98100 27.46700
C  43.86000 36.98000 26.05400
C  43.46100 38.30200 25.60800
C  43.89400 35.86100 28.48100
C  44.36300 35.92700 25.17600
O  44.56900 36.13700 23.97200
C  44.79000 34.63600 25.85500
N  42.67500 41.10600 24.47100
C  43.18900 40.14200 23.74500
C  43.39600 40.49200 22.20800
C  43.05300 41.97800 22.25100
C  42.58200 42.22900 23.69900
C  44.78900 40.19800 21.51600
C  41.85900 42.24800 21.27100
C  40.59300 41.49800 21.56700
N  42.09100 43.15100 26.45400
C  42.06100 44.00300 25.32900
C  41.89800 45.32500 25.82000
C  41.82200 45.20000 27.20600
C  41.96000 43.88500 27.55200
C  41.56800 46.57600 25.03400
C  41.48600 45.99900 28.40100
O  41.16800 47.24400 28.55800
C  41.56700 44.97900 29.59100
C  42.69000 45.27700 30.50900
O  43.81900 45.02200 30.26200
O  42.30100 45.86700 31.65400
C  43.25900 45.90300 32.71800
H  42.95100 38.14400 29.87000
H  43.91600 38.24000 23.50600
H  42.20500 44.26500 23.22800
H  42.72600 42.74500 31.53900
H  41.63100 39.97000 31.50400
H  44.26500 39.42700 31.19400
H  43.47300 39.48500 32.72400
H  44.22300 40.94500 32.16600
H  39.93200 42.42800 30.86800
H  40.69700 43.44800 32.18200
H  40.77000 40.89400 33.23000
H  39.28100 40.95700 32.32700
H  43.41700 36.13000 29.42400
H  44.94100 35.64600 28.69500
H  43.29800 35.02100 28.12500
H  43.89400 34.11500 26.19100
H  45.43400 34.71700 26.73100
H  45.23400 33.92500 25.15800
H  42.67500 39.94300 21.60300
H  43.93300 42.55400 21.96500
H  44.95800 40.81700 20.63500
H  44.89400 39.13500 21.30100
H  45.57100 40.30100 22.26900
H  42.08200 41.94500 20.24900
H  41.63000 43.31400 21.29500
H  39.81500 42.24900 21.70400
H  40.61500 40.74100 22.35100
H  40.24600 40.89200 20.73000
H  40.59300 46.93900 25.35800
H  41.44600 46.32600 23.98000
H  42.37600 47.30800 25.04700
H  40.66500 45.03700 30.20000
H  43.69200 46.90300 32.68800
H  44.07900 45.18600 32.75900
H  42.75400 45.67400 33.65700
Mg -11.65800 38.40600 42.85300
C  -9.61900 35.80300 41.73900
C  -9.46100 40.60400 41.43600
C  -13.82000 40.99600 43.56300
C  -14.28700 36.11500 43.41300
N  -9.82800 38.11800 41.46900
C  -9.14100 36.96800 41.24800
C  -7.88500 37.18900 40.49100
C  -7.78400 38.77100 40.64700
C  -9.09500 39.20600 41.20300
C  -6.55600 39.31600 41.33400
C  -8.01300 36.80100 38.92900
C  -7.11600 35.65100 38.48600
H  -6.03000 35.82100 37.39400
N  -11.67500 40.53500 42.60400
C  -10.63600 41.21800 42.01500
C  -10.89200 42.64600 42.23200
C  -12.13000 42.84300 42.84900
C  -12.56800 41.43500 43.03200
C  -10.10100 43.74800 41.67100
C  -12.78600 44.15800 43.27000
O  -12.24500 45.25700 43.09400
C  -14.00300 44.13300 44.01200
N  -13.85200 38.49600 43.38000
C  -14.43800 39.74300 43.62300
C  -15.91700 39.57800 44.03600
C  -16.09400 37.95100 43.99200
C  -14.68000 37.45800 43.50800
C  -16.32200 40.04800 45.44200
C  -17.22500 37.57900 42.98800
C  -18.43600 36.92100 43.56900
N  -11.91200 36.34200 42.65700
C  -13.02000 35.55700 42.98300
C  -12.67500 34.20500 42.64200
C  -11.31100 34.27000 42.35100
C  -10.93800 35.59600 42.24900
C  -13.56700 33.05200 42.77100
C  -10.14900 33.44000 41.85500
O  -10.08400 32.27600 41.67400
C  -9.03700 34.44700 41.39800
C  -7.86600 34.17400 42.23400
O  -7.72800 34.42300 43.42400
O  -7.04000 33.33700 41.58900
C  -5.99000 32.60300 42.30500
H  -8.64200 41.27000 41.15700
H  -14.61400 41.69700 43.82800
H  -15.12900 35.45200 43.62200
H  -7.04900 36.71600 41.00500
H  -7.72300 39.19800 39.64600
H  -5.88900 39.91700 40.71600
H  -6.08300 38.47400 41.83900
H  -6.86800 39.95100 42.16400
H  -7.72800 37.69300 38.37000
H  -9.05800 36.58100 38.71500
H  -7.87800 34.95300 38.14000
H  -6.57200 35.33400 39.37600
H  -10.85900 44.20700 41.03600
H  -9.31300 43.46600 40.97200
H  -9.75100 44.51700 42.35900
H  -13.96400 43.46700 44.87400
H  -14.72300 43.82700 43.25400
H  -14.32500 45.14200 44.27100
H  -16.53200 40.16500 43.35300
H  -16.26800 37.47400 44.95600
H  -16.81800 39.41000 46.17400
H  -16.94500 40.93700 45.33900
H  -15.41200 40.33700 45.96700
H  -16.90000 36.89400 42.20600
H  -17.62500 38.50800 42.58300
H  -18.34200 35.83900 43.66000
H  -19.26600 37.15400 42.90200
H  -18.61100 37.34700 44.55700
H  -13.34400 32.54900 43.71200
H  -13.45700 32.30500 41.98500
H  -14.60300 33.38400 42.69600
H  -8.87600 34.33100 40.32600
H  -5.26100 33.25400 42.78700
H  -5.36200 32.24100 41.49100
H  -6.40600 31.91300 43.03900

