158

Mg 42.54800 41.69600 25.55700
C  41.66400 43.75600 28.08500
C  44.01200 39.58400 27.90600
C  43.55600 39.46900 23.06400
C  41.92400 44.07000 23.20500
N  42.68200 41.61400 27.81000
C  42.17800 42.57800 28.63500
C  42.30400 42.23800 30.15200
C  43.29400 40.94700 29.95500
C  43.46000 40.74000 28.47700
C  44.59300 40.92700 30.73600
C  41.06600 41.98600 31.00700
C  41.21400 42.54600 32.39800
H  40.15000 42.28000 33.49600
N  43.66200 39.79200 25.51000
C  44.07900 39.08500 26.60400
C  44.70300 37.84600 26.16900
C  44.56500 37.81700 24.76900
C  43.91500 39.07600 24.41700
C  45.36000 36.86400 27.08500
C  45.02600 36.68200 23.88700
O  45.07000 36.87500 22.68700
C  45.34500 35.34300 24.48200
N  42.96400 41.86400 23.44400
C  43.12600 40.71900 22.65900
C  42.71500 40.99200 21.21000
C  42.28600 42.42200 21.27200
C  42.30600 42.82700 22.74000
C  43.82800 40.83000 20.15500
C  40.79200 42.60300 20.67800
C  40.58800 43.82400 19.80500
N  41.90900 43.49900 25.59600
C  41.69900 44.35400 24.59100
C  41.18700 45.62100 25.10700
C  41.11200 45.38200 26.48100
C  41.57500 44.07100 26.75000
C  40.86800 46.91900 24.39900
C  40.78200 46.04300 27.71500
O  40.38100 47.19300 27.99800
C  41.06800 44.95600 28.76900
C  42.04500 45.63900 29.65800
O  43.20900 45.90300 29.27700
O  41.43300 46.03100 30.85000
C  42.45200 46.54600 31.75300
H  44.36900 38.85000 28.63100
H  43.55200 38.78700 22.21100
H  41.70300 44.82700 22.45000
H  43.01900 42.96400 30.53900
H  42.76400 40.06000 30.30300
H  45.49200 41.48700 30.47900
H  44.81400 39.91300 31.07000
H  44.24600 41.41000 31.64900
H  40.97900 40.92300 31.23400
H  40.13900 42.42700 30.64100
H  41.27700 43.62500 32.25800
H  42.17900 42.23900 32.80200
H  44.69100 36.01900 27.24500
H  45.59200 37.35000 28.03300
H  46.31500 36.42600 26.79500
H  46.31100 35.49800 24.96300
H  45.40500 34.66000 23.63500
H  44.56300 35.17800 25.22300
H  41.96100 40.28700 20.86100
H  42.97900 43.13100 20.82000
H  43.71100 39.81800 19.76800
H  44.82400 40.80600 20.59600
H  43.69900 41.57900 19.37400
H  39.96000 42.54700 21.37900
H  40.58200 41.79000 19.98300
H  40.46900 43.48700 18.77500
H  41.49700 44.42400 19.77400
H  39.72100 44.43600 20.05300
H  39.79600 46.88800 24.20300
H  41.30100 47.07100 23.41000
H  40.97100 47.73800 25.11000
H  40.16500 44.69500 29.32000
H  41.93300 46.69400 32.70000
H  43.17600 47.29600 31.43500
H  43.22600 45.82500 32.01500
Mg 17.04900 52.06700 26.47700
C  19.08800 50.63100 28.89100
C  14.91300 53.06900 28.89400
C  15.09800 53.38000 24.09600
C  19.26700 50.84500 24.00500
N  17.06400 51.87900 28.67600
C  18.03300 51.32600 29.50700
C  17.61600 51.44200 31.00600
C  16.15200 51.96800 30.90100
C  16.03400 52.40300 29.41700
C  15.03300 51.01400 31.32800
C  18.70200 52.29700 31.76300
C  18.82500 52.10800 33.28100
H  17.69000 51.34000 33.96500
N  15.23000 53.12200 26.54700
C  14.49900 53.49900 27.65100
C  13.29800 54.17900 27.31900
C  13.37900 54.37600 25.87300
C  14.63200 53.61000 25.41400
C  12.26700 54.72900 28.17600
C  12.52700 55.22200 24.95200
O  12.76600 55.41700 23.75600
C  11.26500 55.93600 25.52300
N  17.27900 52.27600 24.32100
C  16.31600 52.84100 23.57200
C  16.49400 52.45700 22.12900
C  17.98200 51.82900 22.16400
C  18.19200 51.58700 23.60100
C  15.40400 51.50100 21.70300
C  19.09500 52.77300 21.74000
C  19.19000 54.18900 22.29000
N  18.85200 50.94700 26.34800
C  19.67300 50.54500 25.29200
C  20.72500 49.71900 25.85600
C  20.51600 49.65700 27.23800
C  19.40700 50.48500 27.51200
C  21.77100 49.17400 25.01000
C  20.97600 49.09800 28.48300
O  21.86300 48.31100 28.66400
C  20.07800 49.73700 29.64500
C  19.42400 48.58900 30.26900
O  18.57000 47.84100 29.76700
O  19.80200 48.51500 31.55400
C  19.04000 47.61200 32.39600
H  14.27800 53.37600 29.72800
H  14.39700 53.72400 23.33300
H  20.04800 50.58100 23.28900
H  17.64300 50.44700 31.45000
H  16.01700 52.87000 31.49700
H  14.08500 51.51800 31.51400
H  15.44300 50.47300 32.18100
H  14.85700 50.25900 30.56200
H  18.40200 53.32500 31.56200
H  19.63400 52.26600 31.19700
H  18.72900 53.11000 33.69900
H  19.79800 51.71400 33.57500
H  11.25900 54.51600 27.81800
H  12.40300 55.80900 28.22800
H  12.33400 54.30800 29.17900
H  11.45700 56.60300 26.36300
H  10.60800 55.14800 25.89000
H  10.74900 56.41300 24.69000
H  16.55200 53.34000 21.49200
H  18.03300 50.83600 21.71700
H  14.60000 51.50700 22.43900
H  15.89100 50.53500 21.56300
H  15.08200 51.73400 20.68800
H  19.09800 52.65300 20.65700
H  20.02200 52.27000 22.01600
H  20.07000 54.34700 22.91400
H  18.30000 54.57000 22.79000
H  19.27600 54.75900 21.36500
H  22.37300 48.49300 25.61000
H  22.35800 49.95200 24.52000
H  21.20000 48.72700 24.19600
H  20.68100 50.29300 30.36300
H  18.01900 47.53900 32.02100
H  18.95100 47.90200 33.44300
H  19.47800 46.62000 32.29300

