158

Mg 46.91300 24.53100 28.42600
C  47.48900 26.82900 31.15800
C  46.12400 22.16800 30.68500
C  46.57100 22.38600 25.78800
C  48.76400 26.68900 26.40900
N  46.91800 24.55100 30.66600
C  46.96300 25.57000 31.54300
C  46.50500 25.18400 32.98800
C  46.32100 23.63800 32.78400
C  46.55500 23.38100 31.29900
C  47.17600 22.80600 33.84500
C  45.26400 26.05900 33.48900
C  45.44900 26.69800 34.88900
H  46.19600 25.93600 35.99300
N  46.31100 22.65600 28.26400
C  46.01000 21.85800 29.30900
C  45.66600 20.52900 28.77700
C  45.65300 20.54500 27.37400
C  46.19900 21.89500 27.03900
C  45.43500 19.29900 29.67400
C  45.20400 19.56200 26.36600
O  45.31700 19.68300 25.12500
C  44.54400 18.39700 26.81300
N  47.61500 24.50800 26.39900
C  47.31400 23.55300 25.48100
C  47.80500 23.87400 24.03300
C  48.57500 25.18200 24.35500
C  48.26600 25.55000 25.83100
C  48.72000 22.74800 23.51000
C  48.24900 26.26100 23.27600
C  46.86100 26.92300 23.30200
N  47.97700 26.28500 28.65900
C  48.66500 27.09800 27.74900
C  49.13100 28.32500 28.32000
C  48.53800 28.26200 29.59600
C  47.95200 27.03100 29.82400
C  49.92500 29.48400 27.68300
C  48.37500 29.02200 30.77100
O  48.77100 30.23900 30.89100
C  47.70800 28.12700 31.89000
C  48.65400 27.92500 33.02100
O  49.65600 27.27100 33.02400
O  48.17000 28.72800 34.05100
C  49.00300 28.75000 35.27000
H  45.68800 21.47400 31.40600
H  46.36900 21.66900 24.98900
H  49.37300 27.29900 25.73800
H  47.40200 25.27800 33.60000
H  45.28700 23.33600 32.95400
H  48.10900 22.40500 33.44800
H  46.56500 22.01900 34.28700
H  47.36700 23.40300 34.73700
H  44.35200 25.46600 33.55500
H  45.11600 26.86500 32.77000
H  44.42800 26.80400 35.25500
H  45.83900 27.71500 34.87300
H  44.42400 18.93300 29.49700
H  45.56600 19.40700 30.75000
H  46.06800 18.50800 29.27200
H  43.77300 18.65200 27.54100
H  45.23900 17.68900 27.26400
H  43.99800 17.95100 25.98200
H  46.93900 24.15100 23.43200
H  49.65700 25.07600 24.27200
H  48.24400 22.27600 22.65100
H  48.98300 22.16800 24.39500
H  49.64800 23.15200 23.10500
H  48.51500 25.76000 22.34500
H  49.03100 27.01900 23.30400
H  46.94100 27.99900 23.45800
H  46.27200 26.45500 24.09100
H  46.28300 26.68000 22.41000
H  50.12300 29.28500 26.62900
H  50.83600 29.70700 28.23700
H  49.19900 30.29600 27.71900
H  46.81700 28.67300 32.20300
H  48.48700 28.52100 36.20200
H  49.37100 29.76400 35.42600
H  49.89400 28.12200 35.25100
Mg 9.31100 48.20800 26.08200
C  6.87000 48.71600 28.57300
C  11.52400 49.83500 28.11300
C  11.50400 48.03800 23.58700
C  6.65500 47.76000 23.77100
N  9.13400 49.26300 28.03900
C  8.17900 49.16400 28.92000
C  8.61700 49.44600 30.33000
C  9.93000 50.31300 30.04100
C  10.22800 49.73000 28.61300
C  9.88800 51.85000 30.10800
C  8.86000 48.18700 31.24300
C  8.05100 48.16900 32.54600
H  8.00700 46.77100 33.36000
N  11.32600 48.72100 25.92300
C  12.03700 49.40700 26.84700
C  13.39700 49.41400 26.37400
C  13.42400 48.80300 25.08100
C  12.06000 48.52700 24.77400
C  14.51600 49.82400 27.29000
C  14.58000 48.54200 24.15700
O  14.45300 48.25000 22.93700
C  16.02600 48.67700 24.64900
N  9.06700 48.15300 23.86200
C  10.14500 47.79400 23.13500
C  9.72800 47.20500 21.71100
C  8.12400 47.31600 21.79900
C  7.91700 47.75200 23.27100
C  10.39500 47.96400 20.50500
C  7.35500 46.05600 21.37700
C  6.71800 46.06600 19.95500
N  7.20000 48.09700 26.13300
C  6.28800 47.95600 25.14600
C  4.95300 47.92400 25.67400
C  5.16100 48.10100 27.10300
C  6.54900 48.19500 27.30000
C  3.74000 47.75000 24.90100
C  4.52200 48.28000 28.29600
O  3.32700 48.35100 28.63400
C  5.62400 48.60700 29.34800
C  5.56700 47.40100 30.22400
O  6.31100 46.43300 30.25400
O  4.48900 47.56700 31.08400
C  4.35900 46.47800 32.01500
H  12.17800 50.54000 28.63100
H  12.30000 47.71500 22.91300
H  5.81400 47.41300 23.16800
H  7.88300 50.15000 30.72100
H  10.85000 50.00900 30.54000
H  8.84800 52.13800 30.26400
H  10.26500 52.31700 29.19800
H  10.50700 52.11800 30.96300
H  9.91800 48.14200 31.50300
H  8.66800 47.27800 30.67300
H  7.02600 48.30900 32.20200
H  8.44200 49.03600 33.07900
H  14.12500 50.23500 28.22100
H  15.21700 50.56200 26.90100
H  15.01100 48.91800 27.64100
H  16.12500 48.14900 25.59800
H  16.24000 49.69100 24.98800
H  16.73900 48.36600 23.88600
H  10.01100 46.15200 21.71200
H  7.74500 48.09300 21.13500
H  10.87600 47.15900 19.94900
H  11.06800 48.75400 20.83900
H  9.53000 48.41200 20.01600
H  6.62000 45.90700 22.16800
H  8.02500 45.19700 21.35700
H  6.34300 47.07200 19.76700
H  5.87200 45.38600 19.85600
H  7.47300 45.82900 19.20500
H  3.79900 46.72200 24.54100
H  3.79800 48.48300 24.09600
H  2.83900 47.83600 25.50800
H  5.25900 49.48200 29.88600
H  3.50600 46.56200 32.68900
H  5.20200 46.42100 32.70400
H  4.34400 45.50600 31.52200

