158

Mg 40.42400 10.23400 29.42000
C  42.18400 11.35300 32.13500
C  38.07100 8.99200 31.53300
C  38.82000 8.92900 26.71600
C  42.96500 11.35200 27.17700
N  40.25800 10.04600 31.56700
C  40.99600 10.75700 32.45400
C  40.39500 10.68400 33.87500
C  39.23000 9.73200 33.67100
C  39.09900 9.63000 32.15600
C  39.43600 8.29200 34.24000
C  39.93300 12.00400 34.57900
C  39.53800 12.07100 36.12300
H  40.44900 12.52200 37.27300
N  38.61100 9.16800 29.16000
C  37.78800 8.77400 30.19000
C  36.57400 8.20800 29.54200
C  36.82400 8.14800 28.17900
C  38.09300 8.79200 27.99000
C  35.32900 7.94400 30.34200
C  35.98000 7.40700 27.17000
O  36.40900 7.07400 26.07600
C  34.53300 7.07100 27.59000
N  40.83200 10.13700 27.17400
C  39.97300 9.61800 26.27000
C  40.47800 9.75800 24.81400
C  41.66000 10.83100 25.01400
C  41.93100 10.74100 26.52300
C  40.93100 8.44700 24.13700
C  41.37300 12.37200 24.75000
C  39.94000 12.89700 24.71800
N  42.22500 10.98000 29.57700
C  43.18800 11.39300 28.62800
C  44.32200 11.96200 29.33900
C  43.97300 12.00700 30.72200
C  42.68000 11.41300 30.82600
C  45.59600 12.45300 28.75100
C  44.50800 12.40700 31.99700
O  45.60200 12.91300 32.25300
C  43.30700 12.02300 32.99700
C  43.81600 11.08100 34.01500
O  43.89600 9.86400 33.89100
O  44.13500 11.74500 35.13200
C  44.69000 10.96700 36.21000
H  37.33800 8.61400 32.24900
H  38.37000 8.55700 25.79400
H  43.67800 11.91500 26.57200
H  41.20100 10.34800 34.52600
H  38.35000 10.13700 34.17200
H  38.97200 8.15700 35.21700
H  40.48000 7.98100 34.25400
H  39.03000 7.54900 33.55400
H  39.10300 12.48900 34.06400
H  40.76400 12.70900 34.56900
H  39.39600 11.01900 36.37000
H  38.59300 12.60900 36.18100
H  35.41600 8.04000 31.42400
H  35.18100 6.86600 30.28400
H  34.47500 8.56500 30.07200
H  34.18500 6.69800 26.62600
H  34.00800 8.00600 27.78400
H  34.41200 6.30700 28.35700
H  39.75400 10.27200 24.18100
H  42.58100 10.57800 24.48900
H  40.49500 8.35900 23.14200
H  40.74200 7.62600 24.82900
H  42.00300 8.64300 24.16800
H  41.74500 12.57400 23.74600
H  42.04900 12.97700 25.35600
H  39.46500 12.87200 23.73700
H  40.00800 13.90700 25.12400
H  39.41700 12.47500 25.57500
H  45.96000 13.17200 29.48500
H  45.51400 13.07800 27.86200
H  46.22700 11.58500 28.55800
H  42.91000 12.90300 33.50300
H  45.13700 10.02800 35.88400
H  43.84200 10.67000 36.82700
H  45.32000 11.67000 36.75600
Mg -5.90300 24.87800 26.16800
C  -4.37300 26.14700 28.94600
C  -7.92600 22.89900 28.17400
C  -6.87400 23.04300 23.40000
C  -3.54600 26.48000 24.23300
N  -5.99300 24.41700 28.25400
C  -5.34900 25.14300 29.25500
C  -5.90300 24.75500 30.66400
C  -6.78100 23.49100 30.42400
C  -6.97500 23.61100 28.88800
C  -6.16800 22.14800 30.92600
C  -6.67500 25.95500 31.24700
C  -6.35400 26.28600 32.71800
H  -5.79400 25.26100 33.75300
N  -7.32000 23.29700 25.80900
C  -8.17700 22.73800 26.77600
C  -9.16900 21.95900 26.12500
C  -8.83100 21.94900 24.73700
C  -7.63100 22.80400 24.59400
C  -10.22600 21.24300 26.90900
C  -9.49500 21.23700 23.57000
O  -8.97600 21.08900 22.49500
C  -10.84400 20.66600 23.79200
N  -5.42400 24.77800 24.02100
C  -5.83000 23.90800 23.06200
C  -5.08500 24.06400 21.74300
C  -4.26500 25.40300 22.02900
C  -4.50600 25.65600 23.46600
C  -4.24200 22.78000 21.42100
C  -4.52900 26.73000 21.27400
C  -4.23600 26.58700 19.78900
N  -4.36300 26.20600 26.43100
C  -3.45500 26.80100 25.59600
C  -2.49100 27.66700 26.30700
C  -2.95000 27.53000 27.65400
C  -3.99400 26.52600 27.69200
C  -1.32200 28.46400 25.69700
C  -2.62400 27.87100 29.00900
O  -1.84900 28.66900 29.51400
C  -3.61600 27.01400 29.87700
C  -2.68500 26.25700 30.72000
O  -1.73200 25.62400 30.34200
O  -2.97100 26.39900 32.09100
C  -1.87000 26.01000 33.01100
H  -8.43500 22.25200 28.89100
H  -7.03100 22.46200 22.48800
H  -2.85800 26.95200 23.52900
H  -5.01800 24.47700 31.23600
H  -7.77700 23.56600 30.86000
H  -5.77800 21.58600 30.07800
H  -6.95600 21.55600 31.39200
H  -5.40900 22.38100 31.67200
H  -7.74100 25.73400 31.17800
H  -6.43300 26.82400 30.63500
H  -7.22200 26.78000 33.15400
H  -5.53300 26.99500 32.61500
H  -10.34700 21.80100 27.83700
H  -9.94000 20.20200 27.05900
H  -11.22100 21.30400 26.46700
H  -11.23600 20.32000 22.83500
H  -11.47400 21.51300 24.06200
H  -10.87400 19.85700 24.52200
H  -5.88200 24.24300 21.02200
H  -3.21800 25.16000 21.84800
H  -3.26100 23.01000 21.00500
H  -4.76700 22.11800 20.73300
H  -4.08200 22.14900 22.29500
H  -3.86400 27.51000 21.64300
H  -5.54400 27.03900 21.52500
H  -3.29000 26.99500 19.43100
H  -5.03100 27.09600 19.24400
H  -4.30300 25.53600 19.50400
H  -1.74900 29.43400 25.43900
H  -0.81900 28.05200 24.82200
H  -0.52300 28.66400 26.41100
H  -4.12000 27.82200 30.40600
H  -1.44400 25.04600 32.73500
H  -2.24800 26.08100 34.03100
H  -1.13400 26.80900 32.92000

