158

Mg 43.84600 3.46400 47.02800
C  41.94200 6.42400 46.76400
C  40.98500 1.53200 46.66600
C  45.77900 0.69400 47.05800
C  46.72800 5.39800 46.19300
N  41.72500 3.95100 46.64600
C  41.14700 5.26500 46.91700
C  39.61600 5.08900 47.03100
C  39.36100 3.53900 46.83200
C  40.78800 2.94200 46.68700
C  38.60400 2.88100 48.01100
C  38.78200 5.92400 46.01300
C  39.32500 6.29500 44.57800
H  38.76300 5.49200 43.38100
N  43.44500 1.40000 46.92000
C  42.18000 0.80000 46.78100
C  42.31700 -0.58100 46.65100
C  43.66800 -0.96200 46.80500
C  44.38100 0.41200 46.92300
C  41.12800 -1.58000 46.46800
C  44.21800 -2.41200 46.82400
O  43.56100 -3.47100 46.87400
C  45.64200 -2.60300 46.95900
N  45.97200 3.06700 46.62700
C  46.53900 1.87400 46.95000
C  48.10700 1.98500 46.84500
C  48.32600 3.43000 46.37500
C  46.88000 4.00000 46.38700
C  48.64000 1.75800 48.31500
C  49.08400 3.49600 45.03100
C  50.50600 3.92400 45.12400
N  44.33400 5.49000 46.66400
C  45.47800 6.08800 46.25600
C  45.33100 7.51700 46.15500
C  43.96900 7.73300 46.33000
C  43.37400 6.43500 46.65000
C  46.32900 8.60500 45.94200
C  42.93200 8.77000 46.44100
O  42.98900 9.95400 46.30200
C  41.52400 7.94400 46.65500
C  40.82600 8.56800 47.84200
O  41.16100 8.43100 49.02400
O  39.66600 9.18300 47.43500
C  38.72400 9.51800 48.53000
H  40.01200 1.03800 46.63300
H  46.33100 -0.19600 47.36900
H  47.49800 6.04800 45.77300
H  39.38800 5.48200 48.02100
H  38.74500 3.29700 45.96500
H  38.26500 3.47900 48.85700
H  39.31000 2.18700 48.46800
H  37.74300 2.31900 47.64700
H  38.50800 6.81400 46.57900
H  37.85500 5.40200 45.77600
H  40.37600 6.00700 44.55600
H  39.19400 7.36700 44.43300
H  41.20300 -1.87400 45.42100
H  40.20200 -1.06400 46.71900
H  41.16100 -2.51800 47.02200
H  46.13000 -2.21800 47.85500
H  46.17300 -1.95700 46.26100
H  45.89800 -3.62100 46.66700
H  48.22600 1.14700 46.15900
H  48.94200 3.90000 47.14200
H  47.89200 1.67400 49.10400
H  49.37300 2.51800 48.58400
H  49.11100 0.77500 48.33400
H  48.52800 4.16000 44.36800
H  48.98800 2.50300 44.59200
H  50.75700 4.43200 46.05500
H  50.77400 4.63500 44.34200
H  51.03400 2.97700 45.01900
H  46.72200 8.83200 44.95100
H  47.21200 8.29000 46.49900
H  46.08100 9.46000 46.57200
H  40.91000 8.09100 45.76700
H  38.83400 8.68000 49.21900
H  37.69900 9.50500 48.15800
H  39.03600 10.36600 49.13900
Mg 47.59300 16.39200 28.89600
C  45.42000 15.55200 31.60300
C  49.42500 18.32000 31.06800
C  49.93600 16.81300 26.39700
C  45.60500 14.50300 26.77000
N  47.32500 16.95300 30.96900
C  46.51700 16.35900 31.95900
C  46.95400 16.76600 33.32800
C  47.76700 18.04500 33.04200
C  48.24000 17.76300 31.57000
C  47.09800 19.41100 33.08200
C  47.70200 15.66100 34.06800
C  47.80000 15.83200 35.61900
H  49.11400 15.90200 36.28700
N  49.46000 17.41300 28.75500
C  50.02600 18.17600 29.78600
C  51.19900 18.81300 29.23400
C  51.43200 18.35300 27.95000
C  50.22800 17.58300 27.59600
C  52.14000 19.70600 30.01700
C  52.61600 18.53100 26.97600
O  52.53500 18.12600 25.81800
C  53.72300 19.46300 27.40000
N  47.69000 15.89900 26.77400
C  48.83100 15.96700 26.07300
C  48.76900 15.12400 24.77800
C  47.51700 14.30100 25.04700
C  46.85500 14.96800 26.26700
C  48.78200 16.08400 23.55700
C  47.76400 12.81400 25.32700
C  47.22200 11.81600 24.28200
N  45.78500 15.38800 29.01500
C  45.04300 14.71800 28.05800
C  43.90000 14.13900 28.69100
C  43.98900 14.38200 30.03500
C  45.10500 15.28400 30.23100
C  42.89900 13.28100 27.96900
C  43.47800 14.11700 31.38800
O  42.50700 13.47300 31.69600
C  44.28700 14.99000 32.40700
C  43.48600 16.01900 33.06300
O  42.82500 16.86400 32.45900
O  43.50700 15.83600 34.40500
C  42.54900 16.42200 35.35000
H  50.05800 18.98700 31.65700
H  50.66400 16.81700 25.58300
H  45.10900 13.75900 26.14300
H  46.04600 17.08800 33.83800
H  48.73000 18.07100 33.55400
H  46.01800 19.30800 32.97900
H  47.48100 20.05900 32.29300
H  47.39800 19.88400 34.01700
H  48.72600 15.56800 33.70700
H  47.07500 14.79300 33.86700
H  47.43100 14.84500 35.89700
H  47.15900 16.66300 35.91600
H  53.02800 19.17200 30.35300
H  51.63300 20.20800 30.84100
H  52.47400 20.47900 29.32500
H  53.35000 20.48700 27.40700
H  54.47900 19.39200 26.61800
H  54.16900 19.02000 28.29100
H  49.61400 14.46200 24.59000
H  46.93800 14.38100 24.12800
H  48.73500 17.10500 23.93600
H  47.86100 16.08800 22.97500
H  49.66600 15.87600 22.95400
H  47.09500 12.56000 26.14900
H  48.82300 12.64200 25.51700
H  46.42300 11.26200 24.77400
H  48.02100 11.12900 24.00300
H  46.90700 12.34100 23.38000
H  41.93100 13.73800 28.17400
H  43.00000 12.31800 28.47000
H  43.22000 13.23600 26.92800
H  44.71100 14.35200 33.18300
H  41.75300 16.95400 34.82700
H  43.09700 17.02400 36.07500
H  42.01800 15.63100 35.87900

