158

Mg 16.17900 -2.07700 28.05300
C  15.30400 0.22400 30.72800
C  18.05600 -3.81200 30.30600
C  17.16000 -3.84000 25.42900
C  14.57300 0.30600 25.81800
N  16.72700 -1.70600 30.29600
C  16.17800 -0.83600 31.16900
C  16.77600 -0.97700 32.58700
C  17.75300 -2.26600 32.34400
C  17.46200 -2.65000 30.87600
C  19.26700 -2.02100 32.51100
C  15.67500 -1.09400 33.76800
C  15.95200 -0.35800 35.10700
H  17.40400 0.01500 35.40500
N  17.49200 -3.67800 27.86800
C  18.07800 -4.28900 28.91100
C  18.59100 -5.54000 28.40200
C  18.35300 -5.53900 26.95400
C  17.65500 -4.32800 26.67300
C  19.27900 -6.48700 29.29900
C  18.76500 -6.57500 25.99000
O  18.54300 -6.50800 24.75800
C  19.39600 -7.81500 26.44400
N  15.97400 -1.68800 25.89000
C  16.46800 -2.64200 25.04100
C  16.22100 -2.13400 23.55000
C  15.58900 -0.69200 23.64500
C  15.25400 -0.72000 25.15600
C  17.52200 -2.22400 22.66800
C  14.31200 -0.59800 22.79100
C  13.91900 0.85900 22.51200
N  14.98600 -0.30000 28.19700
C  14.49100 0.54500 27.19400
C  13.81400 1.60500 27.87700
C  14.15700 1.58800 29.22000
C  14.91600 0.38200 29.34000
C  12.90300 2.58600 27.27700
C  13.97000 2.25000 30.49100
O  13.22200 3.19300 30.71600
C  14.80400 1.44700 31.49100
C  15.81700 2.46700 31.96900
O  16.47900 3.18100 31.23500
O  15.73500 2.56800 33.35200
C  16.50500 3.74900 33.91900
H  18.53100 -4.48200 31.02500
H  17.51100 -4.39100 24.55400
H  14.08900 1.08900 25.23100
H  17.33700 -0.07000 32.81200
H  17.50700 -3.12700 32.96500
H  19.59400 -1.40200 33.34700
H  19.68400 -1.61900 31.58700
H  19.63400 -3.03900 32.64100
H  15.32600 -2.12300 33.86100
H  14.81100 -0.55800 33.37800
H  15.67500 -0.91300 36.00400
H  15.39700 0.57900 35.06400
H  20.00300 -7.21300 28.92800
H  18.65200 -7.05600 29.98600
H  19.86600 -5.91100 30.01400
H  18.76700 -8.26600 27.21200
H  20.43600 -7.71100 26.75200
H  19.31900 -8.54100 25.63500
H  15.49900 -2.82300 23.11100
H  16.19800 0.19900 23.49500
H  17.81700 -1.24200 22.29900
H  17.30700 -2.81200 21.77600
H  18.39600 -2.59400 23.20400
H  13.55200 -1.04100 23.43500
H  14.42200 -1.20900 21.89600
H  12.93100 1.09500 22.90600
H  13.95700 0.87700 21.42200
H  14.63000 1.64800 22.75500
H  13.46600 3.31400 26.69400
H  12.26800 2.95000 28.08500
H  12.19800 2.05800 26.63400
H  14.15400 1.12300 32.30400
H  15.93100 4.02100 34.80600
H  16.64200 4.67800 33.36500
H  17.51200 3.41700 34.17000
Mg -12.12500 16.27100 42.43900
C  -9.29300 14.32500 42.30700
C  -10.50300 18.88900 40.92700
C  -15.04000 17.82500 42.19300
C  -13.91400 13.40000 43.63700
N  -10.17800 16.47400 41.58200
C  -9.12000 15.61900 41.70500
C  -7.94400 16.04400 40.97700
C  -8.26300 17.55700 40.69400
C  -9.79400 17.64400 40.99700
C  -7.41600 18.68200 41.33100
C  -7.79300 15.20400 39.65600
C  -6.44100 14.67100 39.23200
H  -5.93200 15.04000 37.82400
N  -12.71900 18.10800 41.71800
C  -11.93200 19.03900 41.16200
C  -12.70300 20.24800 40.82300
C  -14.03600 19.95600 41.28900
C  -13.99900 18.54400 41.75600
C  -12.09600 21.46500 40.17700
C  -15.23600 20.89900 41.17800
O  -15.04700 21.99100 40.68700
C  -16.55000 20.47900 41.57700
N  -14.25300 15.59300 42.74900
C  -15.24500 16.51300 42.65800
C  -16.53200 15.92400 43.19000
C  -16.21200 14.44800 43.64200
C  -14.77000 14.43800 43.28200
C  -17.18700 16.78700 44.33100
C  -17.05600 13.30300 43.02200
C  -17.37500 12.10600 43.91300
N  -11.70400 14.24800 42.90800
C  -12.50800 13.28200 43.43200
C  -11.73500 12.09100 43.72300
C  -10.43200 12.47500 43.32900
C  -10.53100 13.76800 42.79700
C  -12.29000 10.84700 44.29400
C  -9.06100 11.92800 43.15700
O  -8.49800 10.87200 43.34800
C  -8.33600 13.15800 42.48200
C  -7.14400 13.50700 43.28000
O  -7.17300 13.90100 44.43500
O  -6.04600 13.40900 42.45400
C  -4.74700 13.91600 42.98400
H  -9.99800 19.69400 40.38900
H  -16.02500 18.27400 42.05400
H  -14.44700 12.53900 44.04600
H  -7.01000 16.01200 41.53700
H  -8.26000 17.78600 39.62800
H  -8.07900 19.18700 42.03400
H  -6.96800 19.31900 40.56900
H  -6.53500 18.28000 41.83100
H  -8.11300 15.79700 38.79900
H  -8.48600 14.36600 39.58100
H  -6.40500 13.59000 39.37100
H  -5.63600 15.06500 39.85300
H  -12.80700 21.91800 39.48500
H  -11.11600 21.28800 39.73300
H  -11.89500 22.30600 40.84100
H  -16.44200 20.28300 42.64400
H  -16.93900 19.71900 40.89900
H  -17.28400 21.26400 41.39700
H  -17.27300 15.87800 42.39200
H  -16.20500 14.33000 44.72600
H  -18.16400 17.09500 43.96100
H  -16.51600 17.63900 44.44700
H  -17.40200 16.14400 45.18400
H  -16.66200 13.02000 42.04600
H  -17.96000 13.89200 42.86600
H  -18.43200 12.22200 44.15000
H  -16.82000 12.12200 44.85100
H  -17.16200 11.23700 43.29100
H  -12.25900 11.10700 45.35200
H  -11.73400 9.96100 43.98600
H  -13.32100 10.77200 43.94800
H  -7.98100 12.73000 41.54500
H  -4.77300 14.93300 43.37700
H  -4.05500 13.88700 42.14200
H  -4.36300 13.26900 43.77200

