158

Mg 35.56800 48.91500 24.67600
C  35.74300 47.08600 27.78800
C  34.40600 51.59100 26.49900
C  35.18000 50.36400 21.85000
C  36.60100 45.98800 23.06600
N  35.16900 49.26200 26.83900
C  35.34900 48.42200 27.93700
C  35.07900 49.12700 29.24000
C  34.43900 50.53100 28.75400
C  34.70000 50.46000 27.27500
C  32.95700 50.91300 29.05300
C  36.32600 49.47400 30.15300
C  36.21000 48.95300 31.53400
H  34.78400 49.07400 32.26300
N  34.95100 50.71300 24.22500
C  34.47700 51.71500 25.07000
C  34.38200 52.92500 24.25600
C  34.55100 52.59800 22.88900
C  34.90300 51.13700 22.94700
C  34.20100 54.36700 24.88500
C  34.38900 53.42700 21.55300
O  34.42400 52.96300 20.40800
C  34.10200 54.91400 21.84000
N  35.90600 48.28500 22.73700
C  35.69900 49.14500 21.70900
C  36.06500 48.52000 20.33500
C  36.64400 47.12100 20.77400
C  36.34600 47.08200 22.26900
C  34.86400 48.44700 19.33400
C  38.11400 46.86900 20.35200
C  39.13400 47.75700 20.96600
N  36.12400 46.95900 25.20600
C  36.47700 45.85700 24.45700
C  36.84800 44.76400 25.30900
C  36.51000 45.14000 26.57100
C  36.09100 46.47500 26.47400
C  37.33800 43.46500 24.84000
C  36.48000 44.76000 28.03100
O  36.73200 43.68900 28.62300
C  36.06500 46.01400 28.87100
C  34.78500 45.61100 29.44500
O  33.63300 45.47200 29.01400
O  35.17600 45.13700 30.63400
C  34.16800 44.37600 31.40400
H  34.14800 52.51100 27.02800
H  35.24700 50.79000 20.84700
H  36.97800 45.15400 22.47100
H  34.33500 48.52700 29.76500
H  34.96800 51.39600 29.15300
H  32.92600 51.71800 29.78700
H  32.57400 50.06500 29.62100
H  32.31100 51.10300 28.19600
H  36.38400 50.54000 30.36900
H  37.20500 49.04500 29.67200
H  37.04100 49.37900 32.09600
H  36.44700 47.88900 31.55300
H  33.35700 54.94700 24.51200
H  35.07000 55.00200 24.71400
H  34.11100 54.34300 25.97100
H  33.84700 55.50000 20.95800
H  34.99000 55.31200 22.33100
H  33.22800 54.95500 22.49000
H  36.74900 49.22700 19.86500
H  36.07300 46.34900 20.25800
H  34.27000 47.58400 19.63600
H  35.14400 48.50100 18.28200
H  34.25200 49.34000 19.46400
H  38.10300 46.89100 19.26200
H  38.46100 45.89200 20.68900
H  39.27900 48.58900 20.27700
H  39.99500 47.26100 21.41400
H  38.78500 48.08600 21.94600
H  37.93000 43.06500 25.66400
H  37.93600 43.55600 23.93300
H  36.53200 42.78600 24.56200
H  36.86400 46.28800 29.56000
H  33.60100 45.03800 32.05800
H  34.71500 43.73700 32.09700
H  33.53400 43.74400 30.78200
Mg 17.04100 52.69000 26.86100
C  18.96000 51.08600 29.24900
C  14.76200 53.50000 29.22400
C  15.17300 53.96200 24.47000
C  19.22300 51.27100 24.41000
N  16.84800 52.26500 29.02400
C  17.80300 51.69400 29.84400
C  17.49200 51.84300 31.24000
C  15.99000 52.47000 31.20900
C  15.83200 52.75700 29.71300
C  14.89200 51.55400 31.67600
C  18.49200 52.89400 31.82600
C  18.26000 53.54900 33.17300
H  17.38900 52.78200 34.13700
N  15.22800 53.59400 26.85300
C  14.49500 53.90500 27.95100
C  13.34200 54.74100 27.55300
C  13.33800 54.83400 26.14800
C  14.63800 54.15000 25.78100
C  12.39900 55.27600 28.54000
C  12.26500 55.58400 25.29500
O  12.31500 55.59900 24.04400
C  11.05200 56.25900 25.95300
N  17.12700 52.51600 24.70600
C  16.26400 53.19200 23.96100
C  16.64700 53.19500 22.50100
C  17.91300 52.29600 22.43400
C  18.15300 52.02900 23.93300
C  15.51800 52.54300 21.58900
C  19.10600 52.89000 21.68800
C  19.10400 52.54900 20.17500
N  18.67500 51.37600 26.79400
C  19.46600 50.92700 25.73200
C  20.58000 50.18700 26.20200
C  20.37800 50.11600 27.59800
C  19.22500 50.90300 27.90300
C  21.60100 49.50600 25.36800
C  20.97100 49.68600 28.87200
O  21.90100 48.90200 29.11600
C  20.07100 50.26800 30.03300
C  19.48800 49.19500 30.85700
O  18.91800 48.20100 30.45600
O  19.61100 49.51500 32.19400
C  19.26800 48.44000 33.18400
H  14.01100 53.75000 29.97600
H  14.59100 54.47600 23.70200
H  19.88000 50.83900 23.65200
H  17.54000 50.85200 31.69200
H  15.92200 53.38900 31.79300
H  14.71800 51.85100 32.71100
H  15.34800 50.56900 31.57900
H  14.01400 51.61200 31.03300
H  18.57100 53.69500 31.09200
H  19.42200 52.33900 31.94900
H  17.80900 54.53500 33.06500
H  19.21300 53.83100 33.62100
H  12.48400 56.36200 28.51600
H  12.71300 55.05400 29.56000
H  11.37700 54.98000 28.30200
H  10.47000 55.56500 26.55800
H  10.41400 56.55100 25.11800
H  11.27000 57.13400 26.56400
H  16.84400 54.25600 22.34500
H  17.74600 51.28500 22.06400
H  14.82100 52.03500 22.25600
H  15.89500 51.78000 20.90800
H  14.99600 53.31200 21.01900
H  20.07400 52.51500 22.01800
H  19.13000 53.95500 21.92300
H  19.29900 53.46300 19.61300
H  18.09700 52.27000 19.86400
H  19.85200 51.80500 19.90200
H  21.01400 48.65000 25.03500
H  22.44200 49.06000 25.89800
H  21.89100 50.25600 24.63100
H  20.77300 50.66700 30.76600
H  19.58800 48.89400 34.12100
H  19.72000 47.46500 33.00200
H  18.18200 48.34300 33.19100

