158

Mg 25.88000 0.02700 29.00300
C  27.91400 -0.23300 31.83900
C  23.23100 0.26300 31.01900
C  23.87600 0.43700 26.16900
C  28.50900 -0.60400 26.88100
N  25.64000 0.05400 31.21400
C  26.58600 0.04200 32.17500
C  26.00100 0.37600 33.55500
C  24.47200 0.51600 33.26300
C  24.40600 0.30400 31.74900
C  23.35000 -0.13700 34.10500
C  26.72800 1.55400 34.26000
C  26.82400 1.39200 35.79400
H  26.37200 2.41400 36.78000
N  23.85200 0.24700 28.68200
C  22.91000 0.28700 29.66700
C  21.62000 0.40600 29.06300
C  21.80000 0.59200 27.65200
C  23.23000 0.44400 27.43900
C  20.33700 0.47400 29.94900
C  20.76700 0.85300 26.61600
O  20.92600 0.84800 25.38700
C  19.37800 1.24500 26.97600
N  26.16500 0.05500 26.88800
C  25.18600 0.22300 25.92800
C  25.84800 0.14300 24.53800
C  27.29000 -0.30500 24.80200
C  27.31700 -0.25400 26.30600
C  25.04800 -0.77800 23.51100
C  28.32300 0.53200 24.07100
C  28.77900 1.83600 24.74000
N  27.72100 -0.51200 29.27500
C  28.76200 -0.72200 28.30000
C  30.03300 -0.91600 28.98300
C  29.74100 -0.79500 30.37800
C  28.35800 -0.47500 30.50400
C  31.33700 -1.21100 28.38900
C  30.32300 -0.75600 31.70200
O  31.49100 -0.83400 32.05200
C  29.18100 -0.27300 32.66300
C  29.02300 -1.24500 33.83600
O  28.28300 -2.17000 33.81200
O  29.71700 -0.85400 34.99100
C  29.37600 -1.48800 36.25500
H  22.31900 0.44200 31.59200
H  23.13000 0.31200 25.38200
H  29.34100 -0.84100 26.21500
H  26.21600 -0.46700 34.21200
H  24.14000 1.54300 33.41700
H  22.77800 -0.89000 33.56300
H  22.69100 0.59400 34.57300
H  23.70000 -0.68600 34.97900
H  26.23800 2.51000 34.07400
H  27.65400 1.85200 33.76700
H  27.88600 1.15800 35.86800
H  26.33200 0.46200 36.07700
H  19.42700 0.05800 29.51800
H  20.12400 1.51200 30.20700
H  20.40700 0.04100 30.94700
H  19.24500 1.88000 27.85200
H  18.85800 0.29700 27.10900
H  18.91700 1.67900 26.08900
H  25.88600 1.14500 24.11100
H  27.50900 -1.33400 24.52000
H  24.04100 -0.96400 23.88400
H  25.54900 -1.73700 23.37900
H  25.05300 -0.28300 22.53900
H  27.81500 0.88000 23.17100
H  29.19600 -0.07200 23.82300
H  28.46800 1.99500 25.77300
H  28.27800 2.64000 24.20000
H  29.85300 2.02200 24.74200
H  32.00200 -0.38400 28.63900
H  31.23200 -1.32000 27.30900
H  31.69600 -2.17900 28.73800
H  29.50400 0.71200 33.00000
H  30.29700 -1.76300 36.76900
H  28.68600 -2.33200 36.27500
H  28.80600 -0.73800 36.80400
Mg -10.53100 40.15500 43.17000
C  -9.94400 36.91500 42.29600
C  -7.63500 41.25000 41.58900
C  -11.65900 43.43600 43.21400
C  -13.87700 39.27900 44.15700
N  -9.02900 39.20300 42.01800
C  -8.91600 37.80100 41.82100
C  -7.68300 37.49700 41.02000
C  -6.87900 38.85400 41.00700
C  -7.90300 39.84100 41.60100
C  -5.47800 38.86100 41.69900
C  -7.93800 36.84400 39.59100
C  -6.90000 35.83600 39.17400
H  -5.73500 36.29200 38.35800
N  -9.68400 42.06900 42.60600
C  -8.49300 42.27600 42.00100
C  -8.34300 43.67300 41.73400
C  -9.49900 44.33100 42.14300
C  -10.32800 43.27700 42.69200
C  -7.04700 44.26000 41.08300
C  -9.75400 45.84400 42.14600
O  -8.89300 46.54500 41.64000
C  -10.92000 46.52000 42.69300
N  -12.50700 41.17200 43.78800
C  -12.62300 42.51900 43.70900
C  -14.04000 42.95700 43.98900
C  -14.82500 41.61000 44.53800
C  -13.71300 40.61600 44.10500
C  -14.26700 44.20400 44.84900
C  -16.28200 41.30000 43.91900
C  -16.37900 40.53400 42.68300
N  -11.69800 38.47200 43.32000
C  -12.96800 38.27500 43.74900
C  -13.32100 36.82200 43.62200
C  -12.11600 36.28800 43.04800
C  -11.19400 37.30500 42.81800
C  -14.62600 36.27200 44.00900
C  -11.42100 35.02200 42.72600
O  -11.87000 33.88100 42.79300
C  -10.06000 35.45400 42.00700
C  -8.98400 34.64000 42.60700
O  -8.34100 34.82800 43.62200
O  -8.80300 33.58200 41.75600
C  -7.64900 32.68100 42.02100
H  -6.79000 41.60000 40.99200
H  -12.20700 44.37900 43.16700
H  -14.88200 39.04500 44.51300
H  -7.12100 36.81300 41.65700
H  -6.69500 39.12700 39.96800
H  -4.83800 38.01800 41.43900
H  -5.42800 39.05000 42.77100
H  -5.09700 39.72500 41.15400
H  -8.02700 37.67800 38.89500
H  -8.93800 36.41200 39.64200
H  -7.40800 35.04400 38.62400
H  -6.47200 35.36100 40.05700
H  -6.25800 44.57300 41.76700
H  -7.35300 45.08300 40.43700
H  -6.59500 43.61900 40.32600
H  -10.79800 47.60300 42.68400
H  -11.09100 46.27700 43.74200
H  -11.73600 46.24000 42.02600
H  -14.50600 43.15100 43.02200
H  -14.93700 41.54800 45.62000
H  -13.40600 44.48200 45.45600
H  -14.88800 43.88700 45.68700
H  -14.75100 45.04300 44.34700
H  -16.81300 42.23200 43.72800
H  -16.98700 40.84500 44.61600
H  -17.02000 41.07500 41.98700
H  -16.75300 39.57300 43.03700
H  -15.48700 40.25700 42.12200
H  -14.87400 35.29800 43.58800
H  -15.41400 37.00700 43.84300
H  -14.58100 36.11600 45.08700
H  -10.08800 35.23800 40.93900
H  -7.53200 31.96700 41.20600
H  -7.86800 32.04100 42.87600
H  -6.69300 33.15900 42.23500

