158

Mg 2.61200 -1.52900 43.81600
C  6.12700 -0.72800 43.32100
C  1.85300 1.16600 41.87700
C  -0.55200 -2.56600 43.80600
C  3.78700 -4.57500 45.15000
N  3.87900 -0.04800 42.71600
C  5.25700 0.16200 42.67200
C  5.63800 1.47100 42.01200
C  4.26300 2.12700 41.74100
C  3.22700 1.01000 42.08100
C  4.15600 3.61500 42.46500
C  6.43300 1.22400 40.69900
C  7.76500 1.94300 40.51500
H  8.32200 2.23100 39.16100
N  0.87600 -0.72400 43.07300
C  0.79600 0.33600 42.30100
C  -0.63000 0.68000 42.07400
C  -1.38200 -0.39500 42.70300
C  -0.34200 -1.31000 43.20500
C  -1.08100 1.87500 41.27300
C  -2.92800 -0.47900 42.68500
O  -3.69700 0.43600 42.45200
C  -3.63900 -1.74500 43.02500
N  1.76200 -3.42300 44.15800
C  0.43000 -3.45000 44.27500
C  0.08800 -4.91200 44.95100
C  1.48000 -5.48600 45.43300
C  2.36400 -4.36600 44.93200
C  -1.10100 -5.13100 45.94200
C  1.77000 -6.85400 44.73800
C  2.41400 -7.96000 45.69600
N  4.56700 -2.49800 44.27900
C  4.82700 -3.71300 44.89100
C  6.25600 -3.88100 45.04100
C  6.81100 -2.72500 44.44800
C  5.72100 -1.94600 43.95700
C  6.99900 -5.02300 45.61400
C  8.07800 -2.00700 44.11000
O  9.22400 -2.37000 44.30600
C  7.67200 -0.65400 43.45000
C  7.99500 0.42200 44.33900
O  8.04500 0.36600 45.57000
O  8.36100 1.54700 43.58500
C  8.79700 2.78100 44.40900
H  1.59000 2.02000 41.24900
H  -1.53300 -3.00100 44.01100
H  3.92800 -5.52900 45.66300
H  6.23300 2.00000 42.75600
H  4.13200 2.26000 40.66700
H  4.15900 4.39800 41.70700
H  4.97500 3.90200 43.12500
H  3.23200 3.61100 43.04400
H  5.89400 1.32300 39.75700
H  6.68300 0.16500 40.64500
H  8.46700 1.23700 40.96000
H  7.72100 2.86600 41.09400
H  -0.74100 1.78100 40.24200
H  -0.59800 2.78200 41.63700
H  -2.15400 2.05300 41.34200
H  -4.70600 -1.72700 42.80500
H  -3.44000 -1.99600 44.06700
H  -3.29900 -2.54000 42.36100
H  -0.18900 -5.43900 44.03800
H  1.43500 -5.39500 46.51800
H  -0.64700 -5.74500 46.72000
H  -1.98500 -5.56100 45.47200
H  -1.38400 -4.19500 46.42600
H  2.47700 -6.66000 43.93200
H  0.86500 -7.30500 44.33200
H  2.76600 -7.35400 46.53100
H  3.36200 -8.32400 45.30000
H  1.71900 -8.77500 45.89800
H  7.97100 -4.91700 45.13200
H  6.50100 -5.95500 45.34600
H  7.00600 -4.78100 46.67700
H  8.17700 -0.58300 42.48700
H  7.93800 3.42200 44.60800
H  9.55100 3.31900 43.83500
H  9.30200 2.44600 45.31500
Mg 36.31400 1.74700 30.15200
C  34.22900 2.85000 32.92100
C  38.90700 1.52600 32.27900
C  38.10700 0.81900 27.54200
C  33.33800 2.08700 28.17600
N  36.42900 1.91300 32.40700
C  35.52800 2.39000 33.32600
C  36.17300 2.46800 34.70100
C  37.75800 2.31700 34.39000
C  37.70000 1.91100 32.91400
C  38.62500 3.52600 34.84800
C  35.52400 1.58300 35.74300
C  35.21200 2.29100 37.12000
H  36.29200 3.15900 37.75500
N  38.25900 1.17300 29.95400
C  39.18900 1.14700 30.93600
C  40.42200 0.62700 30.44100
C  40.24400 0.46000 29.03800
C  38.82600 0.78900 28.78800
C  41.59200 0.32600 31.37900
C  41.28000 0.05400 27.89900
O  41.00500 -0.09200 26.71800
C  42.71000 -0.21100 28.37200
N  35.85700 1.79900 28.11500
C  36.76600 1.20900 27.23000
C  36.10700 0.88500 25.87400
C  34.56100 0.97400 26.18300
C  34.59300 1.73700 27.56500
C  36.59600 1.74000 24.69000
C  33.67000 -0.34800 26.18300
C  32.24400 -0.07900 25.73500
N  34.24400 2.42100 30.39800
C  33.17500 2.53500 29.53500
C  31.98800 2.99600 30.20100
C  32.39000 3.19000 31.50500
C  33.74500 2.77200 31.56500
C  30.71000 3.35100 29.58100
C  31.89900 3.64300 32.74900
O  30.78800 4.03000 33.03500
C  33.06200 3.39000 33.76100
C  33.32400 4.71800 34.45000
O  34.18000 5.50400 34.14900
O  32.38700 4.89300 35.50100
C  32.37500 6.25400 36.02500
H  39.80900 1.56700 32.89300
H  38.63000 0.54400 26.62300
H  32.49000 1.99100 27.49500
H  36.00800 3.50100 35.00800
H  38.12300 1.47000 34.97200
H  39.36500 3.21600 35.58500
H  37.94000 4.28400 35.22700
H  39.23000 3.91500 34.02800
H  36.08100 0.64800 35.68300
H  34.60200 1.19300 35.31200
H  35.04200 1.52600 37.87700
H  34.26200 2.80700 36.98200
H  42.27600 -0.42600 30.98400
H  41.46700 0.11400 32.44100
H  42.14700 1.24900 31.21200
H  42.74200 -0.98600 29.13800
H  43.03500 0.70700 28.86100
H  43.34300 -0.39400 27.50400
H  36.30500 -0.14700 25.58300
H  34.09100 1.59500 25.42000
H  37.28900 2.50100 25.05000
H  35.74300 2.12600 24.13200
H  37.19600 1.07400 24.07100
H  33.47500 -0.82900 27.14200
H  34.25000 -1.03100 25.56200
H  31.90000 0.93200 25.51700
H  31.54100 -0.53300 26.43400
H  32.06100 -0.57800 24.78200
H  30.08100 2.54200 29.20900
H  30.77600 4.11600 28.80700
H  30.03600 3.73200 30.34800
H  32.56000 2.68100 34.42000
H  32.25300 6.98800 35.22700
H  33.34700 6.31200 36.51600
H  31.61400 6.32700 36.80100

