158

Mg 49.89300 35.30100 28.52500
C  47.91000 34.06600 31.10100
C  50.03200 38.41200 30.35100
C  51.55400 36.79900 26.00100
C  49.19800 32.57600 26.63200
N  49.02400 36.17300 30.47000
C  48.46400 35.35400 31.37700
C  48.61600 35.92100 32.81900
C  49.01300 37.37400 32.59200
C  49.39700 37.32200 31.01700
C  48.06400 38.55200 32.95900
C  49.76800 35.12200 33.57600
C  49.79500 35.48300 35.09100
H  48.84400 36.39300 35.87400
N  50.64600 37.34600 28.29800
C  50.57300 38.42900 29.08300
C  51.17900 39.53900 28.42800
C  51.76400 39.07900 27.25100
C  51.37900 37.68200 27.15400
C  51.07000 40.95700 28.96600
C  52.63400 39.81100 26.23200
O  52.83500 39.33900 25.11300
C  53.20400 41.10900 26.67800
N  50.30300 34.84600 26.56800
C  51.04300 35.54100 25.68600
C  51.39200 34.68600 24.43700
C  50.81200 33.30100 24.81700
C  49.99200 33.58900 26.05600
C  50.98600 35.22600 23.08000
C  51.88200 32.12000 25.05400
C  51.57400 30.88100 24.22700
N  48.84000 33.62400 28.73800
C  48.62600 32.60100 27.94400
C  47.95700 31.52600 28.60500
C  47.61100 32.02800 29.83500
C  48.14700 33.34500 29.86200
C  47.63700 30.19100 27.99100
C  46.96400 31.80800 31.11300
O  46.28800 30.85000 31.41300
C  47.03900 33.07100 31.94800
C  47.17600 32.84800 33.46300
O  47.89600 32.09400 34.12300
O  46.11100 33.52500 34.06200
C  45.74200 33.12300 35.38600
H  50.21400 39.35300 30.87500
H  52.13900 37.02800 25.10800
H  49.09400 31.67500 26.02300
H  47.62600 35.91000 33.27400
H  49.97600 37.64400 33.02400
H  47.57300 38.15900 33.84900
H  47.33400 38.86100 32.21100
H  48.67900 39.40100 33.25800
H  50.70200 35.45800 33.12600
H  49.68900 34.03800 33.65500
H  50.77800 35.88100 35.34300
H  49.70000 34.55500 35.65500
H  50.51400 41.08100 29.89500
H  50.64700 41.62300 28.21300
H  52.08200 41.26200 29.23100
H  52.52900 41.91000 26.38000
H  54.12200 41.26300 26.11000
H  53.53000 41.05400 27.71700
H  52.46700 34.52100 24.50900
H  50.04200 33.08000 24.07900
H  51.93400 35.53100 22.63700
H  50.32900 36.09100 23.17200
H  50.51100 34.42800 22.51000
H  51.91600 31.99300 26.13600
H  52.87600 32.50900 24.83300
H  50.91100 30.22400 24.79100
H  52.49500 30.39800 23.90000
H  51.06200 30.92900 23.26600
H  47.06900 30.29300 27.06600
H  46.98700 29.65000 28.67800
H  48.57800 29.68500 27.77600
H  46.02800 33.45600 31.81700
H  44.86100 33.70400 35.65700
H  46.44900 33.45200 36.14800
H  45.53300 32.05400 35.34900
Mg -2.00200 33.77200 26.33300
C  -3.48900 32.25700 28.94000
C  -0.30300 35.78900 28.50600
C  -0.41800 35.15600 23.72300
C  -3.83800 31.84500 24.14100
N  -2.06400 34.05200 28.44400
C  -2.58500 33.28700 29.31900
C  -2.35400 33.62500 30.82400
C  -1.49000 34.92000 30.60300
C  -1.29400 34.96100 29.07000
C  -2.16100 36.24600 31.05800
C  -1.75900 32.44600 31.60900
C  -2.43700 32.12900 32.98500
H  -1.61500 31.91300 34.22400
N  -0.60700 35.39200 26.12200
C  0.07500 36.01200 27.15900
C  1.01400 36.96900 26.58900
C  0.92700 36.86100 25.11300
C  -0.05100 35.78800 24.94300
C  1.92400 37.86700 27.36600
C  1.58200 37.70000 23.98200
O  1.63000 37.33600 22.77800
C  2.28600 39.03100 24.39600
N  -2.16500 33.62900 24.25300
C  -1.39700 34.23600 23.40400
C  -1.70500 33.79200 21.95100
C  -2.48500 32.50600 22.17900
C  -2.87300 32.66500 23.63700
C  -2.35100 34.97600 21.18100
C  -1.56000 31.27000 21.94500
C  -2.26100 30.19700 21.07800
N  -3.44100 32.34000 26.43300
C  -4.11900 31.63500 25.45200
C  -4.97800 30.63900 26.14000
C  -4.82400 30.95000 27.51500
C  -3.85700 31.87600 27.61900
C  -5.94400 29.69600 25.41000
C  -5.23800 30.57600 28.81800
O  -6.13900 29.85300 29.20000
C  -4.44200 31.43800 29.83900
C  -5.39800 32.42200 30.52600
O  -5.68500 33.57900 30.18500
O  -5.97300 31.79800 31.61000
C  -6.64100 32.69200 32.47300
H  0.30800 36.41100 29.16400
H  0.28200 35.36200 22.91100
H  -4.22000 31.09900 23.44200
H  -3.29600 33.85500 31.32100
H  -0.58300 34.88500 31.20700
H  -1.57500 36.68500 31.86500
H  -3.13700 36.04600 31.49900
H  -2.21900 36.97800 30.25200
H  -0.69800 32.58000 31.82200
H  -1.69800 31.60300 30.92000
H  -2.99900 31.23300 32.72200
H  -3.18000 32.85400 33.31800
H  1.63700 38.91800 27.34000
H  2.91300 37.69800 26.93900
H  1.98600 37.49300 28.38800
H  2.68800 39.45200 23.47400
H  3.08800 38.97300 25.13200
H  1.44600 39.63900 24.73200
H  -0.77100 33.68200 21.39900
H  -3.37200 32.40800 21.55200
H  -3.36700 34.77100 20.84300
H  -1.81200 35.23300 20.26900
H  -2.39600 35.85600 21.82300
H  -1.39300 30.78500 22.90700
H  -0.60800 31.51400 21.47300
H  -2.09100 29.22000 21.53100
H  -1.93400 30.02200 20.05300
H  -3.33100 30.34300 20.93400
H  -6.17800 30.27900 24.51900
H  -6.76900 29.50400 26.09600
H  -5.53700 28.69900 25.24300
H  -4.05500 30.62500 30.45300
H  -7.53900 33.18100 32.09500
H  -6.10400 33.49000 32.98500
H  -7.11500 32.01600 33.18500

