158

Mg -0.46600 6.98600 24.44600
C  0.54600 9.03700 27.17500
C  0.19800 4.30200 26.31200
C  -1.29000 5.20500 21.75200
C  -0.43000 9.86400 22.45700
N  0.54700 6.77400 26.41400
C  0.54800 7.69900 27.42900
C  0.55800 6.99900 28.87900
C  0.43200 5.53600 28.51000
C  0.41200 5.54200 26.96100
C  1.46400 4.50700 28.99000
C  -0.63100 7.39500 29.76100
C  -0.25300 7.79800 31.23200
H  1.08400 7.32000 31.76100
N  -0.54800 4.92900 24.09400
C  -0.21800 4.03100 24.98200
C  -0.47500 2.71300 24.37300
C  -0.96100 2.91700 23.03900
C  -0.97500 4.41800 22.89100
C  -0.13900 1.44400 25.17400
C  -1.23200 1.89100 21.94700
O  -1.62800 2.18600 20.82500
C  -0.89000 0.40600 22.13000
N  -0.81800 7.44000 22.45700
C  -1.18600 6.57400 21.49600
C  -1.35900 7.11200 20.13400
C  -1.26900 8.63400 20.43400
C  -0.75900 8.70600 21.90400
C  -0.31000 6.61700 19.11400
C  -2.57400 9.29200 20.37000
C  -2.66900 10.34100 19.19900
N  -0.03500 8.99600 24.66700
C  -0.02700 10.05800 23.78000
C  0.33300 11.33600 24.38600
C  0.46100 10.96900 25.72500
C  0.32100 9.56700 25.89500
C  0.41800 12.73000 23.79500
C  0.69200 11.49600 27.06400
O  0.90100 12.65700 27.42300
C  0.70600 10.23500 28.09800
C  2.05500 10.36300 28.80500
O  3.17900 10.23400 28.35200
O  1.79000 10.92000 30.07800
C  2.82200 11.22300 31.03200
H  0.24100 3.43000 26.96700
H  -1.50400 4.53700 20.91500
H  -0.52100 10.82800 21.95200
H  1.49100 7.36200 29.30900
H  -0.48400 5.06800 28.87100
H  2.14700 4.98200 29.69400
H  2.11700 4.28600 28.14600
H  1.01000 3.61700 29.42600
H  -1.40200 6.62700 29.81700
H  -1.15900 8.20100 29.25100
H  -1.04400 7.34900 31.83200
H  -0.42400 8.86600 31.36700
H  -0.42000 1.48300 26.22700
H  0.92900 1.22500 25.20200
H  -0.66400 0.62400 24.68400
H  -1.69900 -0.03900 22.70900
H  0.12700 0.47300 22.51700
H  -0.84600 -0.13300 21.18400
H  -2.29900 6.68400 19.78700
H  -0.50200 9.17900 19.88300
H  0.66500 6.34100 19.51600
H  -0.15700 7.50600 18.50200
H  -0.69400 5.78500 18.52500
H  -2.82600 9.78100 21.31100
H  -3.34300 8.54600 20.16800
H  -3.44200 10.05000 18.48700
H  -1.73300 10.44400 18.65000
H  -2.94500 11.29900 19.63900
H  -0.23200 12.90000 22.93700
H  1.44300 12.89800 23.46500
H  0.08400 13.46400 24.52800
H  -0.03300 10.44500 28.87100
H  3.04000 12.28900 30.96300
H  3.72300 10.62500 30.89100
H  2.38300 11.04500 32.01300
Mg 44.96100 4.27900 47.09600
C  42.87500 6.98200 47.23200
C  42.23100 2.20300 47.10300
C  47.01200 1.77200 46.34000
C  47.75700 6.49000 46.81800
N  42.83400 4.56600 47.10100
C  42.13100 5.76500 47.06200
C  40.66600 5.58700 46.97300
C  40.55800 4.04900 47.34200
C  41.98100 3.54900 47.20700
C  39.79200 3.68500 48.67600
C  39.93700 5.86600 45.60200
C  40.71000 5.74400 44.27400
H  40.58200 6.73600 43.10500
N  44.64500 2.24500 46.70500
C  43.47200 1.55100 46.83300
C  43.65400 0.19700 46.58600
C  45.03800 0.10800 46.19100
C  45.61700 1.39500 46.43100
C  42.61200 -0.86800 46.55200
C  45.66000 -1.05200 45.52500
O  45.01000 -2.06300 45.22000
C  47.13900 -1.17200 45.13500
N  47.10600 4.21600 46.30900
C  47.72300 2.99500 46.52400
C  49.24800 3.09700 46.38100
C  49.47300 4.64300 46.61200
C  48.02800 5.18500 46.56100
C  49.97300 2.27400 47.50200
C  50.36700 5.19300 45.52400
C  49.70400 5.23800 44.11500
N  45.35300 6.34600 47.08000
C  46.49600 7.07500 46.93700
C  46.17200 8.47600 47.00700
C  44.77000 8.45600 47.20300
C  44.35400 7.14900 47.21500
C  47.09900 9.69400 46.88800
C  43.57100 9.31000 47.41000
O  43.47400 10.54800 47.51000
C  42.31100 8.36300 47.37800
C  41.39100 8.60200 48.51000
O  41.41200 7.96400 49.53900
O  40.47000 9.60500 48.24000
C  39.32100 9.67000 49.10200
H  41.39600 1.50100 47.07800
H  47.72000 0.94400 46.27500
H  48.63300 7.13100 46.93500
H  40.20100 6.13800 47.79100
H  39.96000 3.48400 46.62600
H  38.74300 3.59000 48.39600
H  39.96300 4.50200 49.37600
H  40.14500 2.79200 49.19100
H  39.65400 6.91800 45.65200
H  38.99600 5.33200 45.47000
H  40.38100 4.72700 44.05700
H  41.75300 5.59800 44.55700
H  42.30100 -0.99100 45.51500
H  41.73500 -0.62100 47.15000
H  42.92900 -1.88500 46.78000
H  47.72000 -1.24600 46.05500
H  47.39100 -0.40400 44.40400
H  47.29700 -2.13600 44.65100
H  49.38400 2.70200 45.37400
H  50.01400 4.83500 47.53900
H  50.11800 1.19700 47.41100
H  49.24700 2.27300 48.31500
H  50.93100 2.72000 47.77000
H  51.26400 4.57400 45.49700
H  50.73500 6.16800 45.84100
H  50.37100 4.84100 43.34900
H  49.64000 6.31500 43.96100
H  48.72700 4.76100 44.03300
H  47.38900 9.81700 45.84400
H  48.00200 9.67500 47.49800
H  46.51100 10.57500 47.14200
H  41.71000 8.73500 46.54800
H  38.61000 8.85600 48.95900
H  38.88100 10.63700 48.85800
H  39.56600 9.73400 50.16200

