158

Mg 47.83400 24.49300 28.21000
C  48.76500 26.91000 30.55400
C  47.46900 22.18900 30.78700
C  47.03800 22.18500 25.89100
C  48.80500 26.70600 25.66800
N  48.10400 24.52800 30.36700
C  48.35000 25.65700 31.11400
C  48.01900 25.45200 32.58700
C  47.88500 23.89600 32.72700
C  47.78300 23.44300 31.23300
C  48.91700 23.19900 33.56000
C  46.75900 26.29900 32.91400
C  46.84300 27.26300 34.12500
H  45.80800 27.14500 35.25500
N  47.27600 22.47500 28.29900
C  47.18200 21.72600 29.46200
C  46.75200 20.38500 29.11200
C  46.60400 20.36700 27.66200
C  46.98600 21.70800 27.22600
C  46.56000 19.23100 30.04200
C  46.07000 19.23100 26.73300
O  45.80000 19.46100 25.58300
C  45.65800 17.97000 27.32600
N  47.87300 24.44700 26.04200
C  47.42000 23.40100 25.34900
C  47.39300 23.75700 23.78900
C  47.77400 25.29300 23.81600
C  48.21000 25.52600 25.28000
C  48.29700 22.93100 22.92100
C  46.66600 26.20000 23.23100
C  45.47000 26.45500 24.20900
N  48.67000 26.40900 28.08800
C  48.95900 27.16100 27.00900
C  49.41000 28.48200 27.46400
C  49.28600 28.48700 28.85600
C  48.87600 27.16500 29.16800
C  50.06800 29.57400 26.68000
C  49.50000 29.20800 30.08000
O  49.82800 30.33900 30.25000
C  49.12100 28.21600 31.26200
C  50.24700 28.10600 32.14100
O  51.13100 27.18600 32.13300
O  50.16300 29.05500 33.11000
C  51.05500 28.79200 34.30400
H  47.47300 21.51800 31.64800
H  46.69500 21.59300 25.04000
H  49.03000 27.55400 25.01800
H  48.82800 25.92500 33.14400
H  46.94300 23.66500 33.22500
H  49.58200 23.90900 34.05200
H  49.47700 22.61600 32.82800
H  48.54600 22.51900 34.32700
H  45.93500 25.58700 32.88000
H  46.57500 27.00100 32.10100
H  46.77800 28.28000 33.73900
H  47.78100 27.09300 34.65400
H  47.03400 19.47300 30.99400
H  47.11200 18.37900 29.64600
H  45.52700 18.92200 30.19900
H  44.96800 18.23000 28.12900
H  46.49100 17.32200 27.60100
H  45.09700 17.42100 26.57000
H  46.38500 23.52500 23.44600
H  48.67300 25.52500 23.24500
H  47.89600 21.94400 22.68700
H  49.36800 22.99900 23.11000
H  48.15500 23.44300 21.97000
H  46.33800 25.93700 22.22600
H  47.16800 27.16800 23.20900
H  44.63500 25.94500 23.72900
H  45.28400 27.52100 24.34300
H  45.70000 26.12000 25.22000
H  49.82600 30.55600 27.08600
H  49.67000 29.50700 25.66700
H  51.15800 29.54900 26.69500
H  48.31900 28.65300 31.85600
H  50.42400 28.20100 34.96800
H  51.39000 29.75400 34.69100
H  51.93700 28.18100 34.10900
Mg 35.06700 48.33000 25.01400
C  35.69400 46.69200 27.97600
C  33.69800 51.01000 26.89400
C  34.08200 49.79000 22.12100
C  35.96800 45.53300 23.27300
N  34.58600 48.73200 27.20500
C  35.04600 47.92600 28.24300
C  34.79700 48.61300 29.71500
C  33.97600 49.90400 29.23600
C  33.99600 49.87800 27.65600
C  32.49400 50.15600 29.76800
C  36.11500 49.03200 30.38300
C  36.05800 48.85400 31.82700
H  34.75800 49.03000 32.58700
N  34.16600 50.19900 24.48800
C  33.71200 51.14200 25.42400
C  33.44600 52.33000 24.68400
C  33.42200 52.02200 23.29100
C  33.89500 50.60100 23.25300
C  33.25200 53.66400 25.25400
C  32.99600 52.85700 22.09800
O  33.16800 52.50400 20.97500
C  32.39000 54.27400 22.27300
N  35.10100 47.77700 22.93300
C  34.66200 48.55400 21.94400
C  34.77300 47.80900 20.55600
C  35.40500 46.43400 20.95800
C  35.57100 46.57500 22.47800
C  33.39600 47.70900 19.71500
C  36.81800 46.23500 20.31100
C  37.95600 47.23700 20.65300
N  35.59100 46.44200 25.47500
C  36.08300 45.43600 24.64900
C  36.53900 44.34800 25.46200
C  36.41100 44.80300 26.84200
C  35.91500 46.11700 26.74100
C  36.90300 43.02800 25.03000
C  36.56500 44.42200 28.32400
O  37.04800 43.43700 28.83700
C  36.09700 45.68300 29.07100
C  35.01000 45.31700 29.94800
O  33.90000 44.96100 29.49900
O  35.39600 45.35700 31.27900
C  34.25000 45.12400 32.17500
H  33.31400 51.89900 27.39800
H  33.73800 50.24600 21.19100
H  36.46100 44.74900 22.69300
H  34.15800 48.05200 30.39700
H  34.54100 50.76800 29.58900
H  31.84100 50.07400 28.89900
H  32.38600 51.13100 30.24400
H  32.19400 49.44800 30.54100
H  36.27000 50.09800 30.21600
H  36.94600 48.48500 29.93700
H  36.76800 49.46500 32.38400
H  36.34800 47.81300 31.97000
H  32.21200 53.97500 25.16500
H  33.85500 54.38500 24.70300
H  33.61300 53.68300 26.28200
H  31.87100 54.55000 21.35600
H  33.24500 54.91100 22.50200
H  31.59600 54.27900 23.02000
H  35.51300 48.40700 20.02400
H  34.84100 45.56900 20.60800
H  33.67500 47.67300 18.66200
H  32.75900 48.57400 19.90000
H  32.83200 46.85300 20.08500
H  36.67200 46.28200 19.23200
H  37.20800 45.25600 20.59100
H  38.00300 48.10900 19.99900
H  38.92300 46.74400 20.75100
H  37.79600 47.62200 21.66000
H  37.95100 43.11700 24.74200
H  36.33300 42.57500 24.21900
H  36.84000 42.37100 25.89700
H  36.92600 45.97500 29.71600
H  33.49900 45.91000 32.08500
H  34.63700 45.21500 33.19000
H  33.86300 44.11400 32.04400

