158

Mg 49.42400 45.37600 43.00000
C  45.88000 45.47300 42.44700
C  49.28200 42.03500 42.13000
C  52.64700 45.42500 42.77400
C  49.22100 48.87800 43.46300
N  47.79000 43.94900 42.38100
C  46.42700 44.11900 42.27200
C  45.69100 42.86800 42.07600
C  46.77700 41.77100 42.44700
C  48.06600 42.63500 42.29400
C  46.66200 41.05500 43.77900
C  44.97400 42.57500 40.78200
C  45.30600 43.39100 39.48400
H  45.09600 42.74900 38.07800
N  50.85800 43.91300 42.52900
C  50.60000 42.60100 42.26500
C  51.88900 41.90900 42.26100
C  52.85200 42.89700 42.20400
C  52.14800 44.16000 42.49700
C  52.03500 40.40500 42.16400
C  54.27400 42.68300 41.96800
O  54.70500 41.64300 41.58900
C  55.36200 43.67200 42.12700
N  50.70200 46.93800 43.10500
C  52.04400 46.71300 42.95400
C  52.87000 48.03400 42.95500
C  51.67300 49.11800 43.15000
C  50.46500 48.25900 43.34700
C  53.92600 48.17900 44.14900
C  51.51900 50.11700 41.95000
C  52.40700 51.38600 41.99600
N  47.89400 46.91400 43.07900
C  47.97600 48.31500 43.24000
C  46.67500 48.91000 43.11100
C  45.82600 47.85500 42.80800
C  46.60900 46.63200 42.82300
C  46.39800 50.33500 43.13200
C  44.49200 47.52700 42.36600
O  43.56100 48.24600 42.19200
C  44.49400 46.04900 42.03400
C  43.32300 45.46100 42.71100
O  42.49600 44.67400 42.29000
O  43.33400 45.93900 44.03200
C  42.10500 45.71300 44.83400
H  49.17700 40.95100 42.05300
H  53.72900 45.56300 42.82900
H  49.16000 49.95100 43.65800
H  44.91800 42.83400 42.84300
H  46.80400 40.97400 41.70400
H  46.74800 39.98200 43.60800
H  45.74600 41.21900 44.34600
H  47.46600 41.37500 44.44200
H  43.94400 42.74700 41.09100
H  45.08000 41.52100 40.52400
H  46.36700 43.62300 39.57500
H  44.73700 44.32000 39.44000
H  53.08100 40.09800 42.17600
H  51.68800 39.99500 41.21500
H  51.58400 39.98300 43.06100
H  55.28000 44.46900 41.38700
H  56.35300 43.22600 42.20500
H  55.22500 44.30200 43.00600
H  53.27600 48.32800 41.98700
H  51.91500 49.72600 44.02200
H  54.39800 49.15700 44.04800
H  54.69100 47.40700 44.07000
H  53.48700 48.18300 45.14700
H  50.48200 50.41500 41.79500
H  51.62900 49.61000 40.99200
H  52.86800 51.42600 41.00900
H  53.19600 51.40100 42.74800
H  51.73600 52.24000 42.08800
H  47.12500 50.94100 42.59200
H  46.44600 50.60400 44.18800
H  45.37600 50.50800 42.79600
H  44.42700 45.83900 40.96700
H  42.31800 46.04400 45.85000
H  41.63000 44.73200 44.85800
H  41.35600 46.31200 44.31600
Mg 7.49300 52.95800 40.90700
C  6.95300 49.43500 40.87200
C  10.67100 52.22400 39.66500
C  7.98400 56.21300 40.51300
C  4.14900 53.48800 41.49700
N  8.63000 51.05800 40.32800
C  8.20700 49.74800 40.41200
C  9.29000 48.79400 39.88500
C  10.54500 49.68800 39.92600
C  9.88000 51.11600 39.85800
C  11.38400 49.44100 41.17700
C  9.05400 48.24500 38.48600
C  8.54200 49.20900 37.41800
H  8.03200 48.53200 36.14900
N  9.10700 54.10000 40.15000
C  10.32100 53.53200 39.84100
C  11.19600 54.68700 39.50700
C  10.47200 55.91300 39.82100
C  9.11800 55.41200 40.11700
C  12.60800 54.54100 38.90400
C  11.04800 57.29000 39.72000
O  12.06400 57.53200 39.04400
C  10.42600 58.43400 40.38700
N  6.17600 54.71000 40.76100
C  6.66100 55.93400 40.86700
C  5.65800 56.91400 41.47500
C  4.41800 56.00300 41.47400
C  4.89400 54.65400 41.28600
C  6.07500 57.48700 42.80400
C  3.32800 56.34000 40.34700
C  2.33900 57.38700 40.71100
N  5.86200 51.79300 41.15900
C  4.57800 52.12900 41.53500
C  3.82100 50.93000 41.82800
C  4.71800 49.83600 41.54900
C  5.95200 50.40800 41.17100
C  2.31300 50.84400 42.14300
C  4.82900 48.40600 41.54600
O  3.91400 47.66600 41.85600
C  6.35500 48.06000 41.12800
C  6.16400 47.19200 39.92800
O  5.83600 47.55400 38.86800
O  6.67400 45.88900 40.15400
C  6.56500 44.89600 39.08100
H  11.69500 52.02400 39.34400
H  8.06700 57.29400 40.64100
H  3.12300 53.60700 41.85300
H  9.32300 47.96600 40.59300
H  11.23900 49.64000 39.08700
H  12.39500 49.26200 40.81200
H  11.26200 48.45600 41.62600
H  11.35000 50.27300 41.88000
H  8.56400 47.27600 38.39300
H  10.08900 48.05300 38.20100
H  9.30400 49.94200 37.15100
H  7.75200 49.84300 37.82200
H  12.82400 55.02700 37.95300
H  12.93600 53.50200 38.88500
H  13.32300 55.02900 39.56600
H  9.68500 58.97500 39.79800
H  11.23800 59.12300 40.61800
H  9.94900 58.11700 41.31500
H  5.61400 57.74700 40.77400
H  3.97500 56.03300 42.47000
H  6.95800 56.94700 43.14800
H  5.30800 57.46900 43.57700
H  6.29000 58.55100 42.70600
H  2.82700 55.48800 39.88700
H  3.96300 56.84800 39.62100
H  2.20400 57.38100 41.79300
H  1.41200 57.33200 40.14000
H  2.64900 58.37300 40.36500
H  2.32700 50.57700 43.20000
H  1.84600 50.07000 41.53400
H  1.93400 51.86400 42.08700
H  6.85000 47.48900 41.91300
H  7.23000 45.08700 38.23800
H  5.52400 44.74900 38.79200
H  6.89400 43.95300 39.51800

