158

Mg 25.33700 1.32600 29.17800
C  27.41100 1.34500 32.13500
C  22.60000 1.35100 31.27400
C  23.52000 1.35300 26.43600
C  28.29500 0.73900 27.28400
N  25.08100 1.37200 31.47200
C  26.06200 1.55000 32.45800
C  25.40000 1.77700 33.79800
C  23.83800 1.61300 33.47800
C  23.83500 1.36300 31.99400
C  23.13800 0.37900 34.19200
C  25.72800 3.12700 34.48500
C  26.66100 3.10300 35.68300
H  26.20800 3.89200 36.87600
N  23.39200 1.26000 28.86500
C  22.39500 1.31600 29.82800
C  21.10500 1.36200 29.15500
C  21.28200 1.29000 27.77100
C  22.80700 1.36100 27.63300
C  19.81500 1.44400 29.99700
C  20.23900 1.37200 26.64200
O  20.54300 1.34000 25.42800
C  18.81500 1.45200 26.86700
N  25.85700 1.14200 27.16700
C  24.88000 1.32400 26.20100
C  25.54400 1.35000 24.75300
C  27.07900 1.09200 25.05200
C  27.13900 1.01800 26.56900
C  25.10700 0.36200 23.66800
C  27.93100 2.18100 24.31900
C  27.86100 3.60200 24.97300
N  27.39400 1.09100 29.60500
C  28.45200 0.84900 28.71800
C  29.69100 0.67200 29.48600
C  29.37700 0.85400 30.90900
C  27.98000 1.11700 30.83800
C  31.09800 0.44600 28.89800
C  29.81800 0.94800 32.23000
O  30.91800 0.76500 32.66200
C  28.60300 1.26900 33.14500
C  28.47300 0.20200 34.17200
O  27.93500 -0.89900 34.03900
O  29.02700 0.66300 35.31200
C  28.92000 -0.18600 36.46600
H  21.74700 1.44600 31.94900
H  22.88600 1.30600 25.54800
H  29.18800 0.44300 26.72900
H  25.64200 0.99300 34.51500
H  23.29000 2.54100 33.64400
H  22.09200 0.62100 34.37600
H  23.69700 0.36100 35.12700
H  23.06800 -0.54500 33.61800
H  24.80200 3.60500 34.80700
H  26.25900 3.63700 33.68200
H  27.54700 3.62500 35.32200
H  26.95800 2.11400 36.03200
H  18.86500 1.19600 29.52400
H  19.74800 2.42800 30.46100
H  19.87900 0.79700 30.87100
H  18.75000 2.42700 27.34800
H  18.50500 0.64200 27.52700
H  18.25200 1.49100 25.93400
H  25.34300 2.33700 24.33700
H  27.33300 0.09500 24.69100
H  24.44600 -0.37800 24.11900
H  25.98000 -0.14600 23.26000
H  24.49600 0.76000 22.85800
H  27.58600 2.21300 23.28600
H  28.95300 1.80200 24.33100
H  28.80600 3.90300 25.42300
H  27.03500 3.52100 25.68000
H  27.53100 4.44200 24.36200
H  31.26400 0.94200 27.94200
H  31.29500 -0.62300 28.81300
H  31.89700 0.79300 29.55400
H  28.74000 2.26300 33.57100
H  28.03300 0.18700 36.97800
H  29.74600 -0.17800 37.17700
H  28.76300 -1.26000 36.36900
Mg 17.22700 52.67400 25.26400
C  18.99300 51.53000 28.17100
C  14.60600 53.21600 27.37600
C  15.47200 53.37600 22.55800
C  19.92600 51.52800 23.30800
N  16.88900 52.50600 27.58900
C  17.74900 52.00500 28.51000
C  17.26300 52.34100 29.90700
C  15.72800 52.62300 29.66400
C  15.69800 52.76300 28.14100
C  14.73700 51.54500 30.10300
C  18.03800 53.51100 30.51900
C  17.95900 53.84000 31.96400
H  17.00900 53.01100 32.84500
N  15.46600 53.39900 25.00600
C  14.46400 53.55300 25.97800
C  13.23200 53.98800 25.38500
C  13.47200 54.10900 23.99600
C  14.85800 53.63600 23.80100
C  12.02300 54.45700 26.14700
C  12.49100 54.65700 22.90800
O  12.90300 54.81900 21.78400
C  11.05500 55.07900 23.21300
N  17.72400 52.57400 23.17200
C  16.81300 52.96100 22.25200
C  17.38100 52.93600 20.82000
C  18.89400 52.42900 21.09800
C  18.83400 52.00600 22.60100
C  16.58300 51.93200 19.98100
C  19.96400 53.51200 20.89400
C  21.33700 52.91900 20.43200
N  18.92100 51.51100 25.60500
C  19.91600 51.17500 24.68800
C  21.02000 50.54700 25.43800
C  20.67600 50.74000 26.78300
C  19.41600 51.29700 26.82700
C  22.26500 49.97500 24.86100
C  21.19400 50.47800 28.15000
O  22.30500 50.08600 28.54300
C  20.09200 51.01300 29.09400
C  19.62200 49.84800 29.99000
O  18.94200 48.90400 29.65000
O  20.08600 50.01400 31.32600
C  19.38500 49.28100 32.35500
H  13.76600 53.39200 28.05200
H  14.77300 53.60200 21.75000
H  20.82500 51.21200 22.77500
H  17.40800 51.40500 30.44700
H  15.41800 53.57300 30.10100
H  14.08100 51.17400 29.31600
H  14.13100 51.94100 30.91800
H  15.22200 50.70200 30.59500
H  17.70100 54.45900 30.10000
H  19.08800 53.45500 30.23300
H  17.79600 54.91000 32.09300
H  18.96700 53.73200 32.36400
H  12.04300 55.54100 26.03200
H  12.03200 54.14200 27.19000
H  11.13200 54.06600 25.65400
H  10.47900 54.20500 23.51600
H  10.66300 55.41900 22.25500
H  11.11300 55.88600 23.94400
H  17.26900 53.94400 20.42200
H  19.19600 51.53900 20.54700
H  15.54500 52.02100 20.30200
H  16.87800 50.89100 20.11400
H  16.72100 52.08400 18.91100
H  19.98500 54.11700 21.80000
H  19.54400 54.10900 20.08400
H  22.09000 53.05200 21.20900
H  21.66400 53.34000 19.48100
H  21.22200 51.87400 20.14400
H  22.76100 50.74600 24.27200
H  22.10000 49.04200 24.32300
H  22.98800 49.74100 25.64200
H  20.53300 51.79400 29.71300
H  19.31900 48.19500 32.28700
H  18.32900 49.54500 32.30800
H  19.87200 49.63000 33.26500

