158

Mg 35.25300 2.71000 29.15200
C  33.06400 3.69600 31.76500
C  37.97200 2.78300 31.34100
C  37.31300 1.95300 26.61400
C  32.61600 3.12600 27.01700
N  35.41000 3.11300 31.26600
C  34.42400 3.41000 32.11500
C  34.86400 3.36900 33.57600
C  36.43900 3.27400 33.38000
C  36.67300 3.06100 31.90100
C  37.29100 4.40000 34.09100
C  34.28900 2.10900 34.34800
C  34.11900 2.16100 35.81600
H  34.64200 3.28400 36.60900
N  37.36800 2.28600 29.02800
C  38.25400 2.40900 30.00700
C  39.60300 2.06700 29.50000
C  39.47900 1.95000 28.17300
C  38.00600 2.07000 27.83700
C  40.78200 1.88200 30.43800
C  40.53800 1.74000 27.12800
O  40.26300 1.86900 25.92700
C  41.96100 1.61600 27.50100
N  35.02600 2.49200 27.15200
C  35.96600 2.16000 26.24000
C  35.38000 1.82600 24.91000
C  33.87600 1.95100 25.02000
C  33.79600 2.54600 26.46600
C  35.92700 2.66800 23.64800
C  33.13900 0.64800 24.97300
C  33.33800 -0.26900 23.69200
N  33.25000 3.43300 29.25900
C  32.29200 3.48400 28.32500
C  31.06400 3.96100 28.83700
C  31.27200 4.07200 30.21500
C  32.61100 3.63000 30.42300
C  29.83700 4.20700 28.04900
C  30.77100 4.52800 31.41200
O  29.69000 5.12600 31.65000
C  31.80900 4.04600 32.56700
C  32.03900 5.21900 33.59800
O  32.90000 6.13200 33.46100
O  31.14600 5.02700 34.66500
C  31.40600 5.98800 35.71700
H  38.81000 2.72400 32.03900
H  37.92300 1.62600 25.77000
H  31.79500 3.14100 26.29700
H  34.61300 4.32900 34.02700
H  36.81600 2.40400 33.91700
H  37.50100 4.00000 35.08300
H  36.69500 5.30700 34.18400
H  38.22200 4.51300 33.53500
H  35.01200 1.37100 34.00100
H  33.39200 1.88400 33.77100
H  34.55900 1.21900 36.14200
H  33.08800 1.97500 36.11500
H  40.79700 0.79200 30.39500
H  40.58700 2.20100 31.46200
H  41.63100 2.32600 29.92100
H  42.58300 1.26700 26.67600
H  41.94900 0.91000 28.33200
H  42.28600 2.61700 27.78200
H  35.58800 0.76900 24.74400
H  33.46000 2.52000 24.18800
H  36.86700 3.03900 24.05700
H  35.30600 3.54200 23.45100
H  36.08100 2.05200 22.76200
H  32.06500 0.72600 25.14500
H  33.55600 0.02900 25.76700
H  33.49900 -1.30100 24.00300
H  34.22200 0.02100 23.12300
H  32.39500 -0.28700 23.14600
H  29.50700 3.20000 27.79600
H  30.01600 4.73600 27.11300
H  29.07900 4.55200 28.75100
H  31.43400 3.17500 33.10400
H  31.92500 6.91100 35.45600
H  31.84000 5.62600 36.64800
H  30.41400 6.27000 36.06900
Mg -1.37300 34.64100 26.79800
C  -3.14500 33.06700 29.19900
C  -0.42600 37.06300 29.10700
C  -0.45600 36.70700 24.27600
C  -2.66900 32.28700 24.49700
N  -1.80000 35.05600 28.87500
C  -2.45300 34.14800 29.69500
C  -2.30000 34.54300 31.20600
C  -1.66000 35.92500 31.13500
C  -1.28300 36.00600 29.63900
C  -2.62400 37.14900 31.60000
C  -1.44200 33.50200 32.01000
C  -2.21700 32.73200 33.10800
H  -1.34400 32.62900 34.47200
N  -0.49500 36.55500 26.75300
C  -0.05000 37.34900 27.76700
C  0.64100 38.42400 27.26500
C  0.61300 38.45300 25.84200
C  -0.14000 37.16900 25.54000
C  1.38100 39.37600 28.25200
C  1.05700 39.45600 24.84300
O  0.99700 39.40900 23.62100
C  1.70400 40.65700 25.41100
N  -1.51900 34.52700 24.71000
C  -0.98500 35.44600 23.82600
C  -1.05600 34.96600 22.32600
C  -1.57600 33.42900 22.48100
C  -2.03200 33.41100 23.97200
C  -1.99900 35.98700 21.52100
C  -0.56600 32.29500 22.05500
C  0.50100 31.95600 23.02100
N  -2.54800 32.97700 26.82400
C  -3.02100 32.11600 25.80300
C  -3.83500 31.06600 26.34200
C  -3.90700 31.34100 27.72800
C  -3.18400 32.59800 27.92500
C  -4.60500 30.07000 25.54800
C  -4.41300 31.02400 28.97500
O  -5.04300 29.98000 29.27300
C  -3.99600 32.07200 29.94200
C  -5.17100 32.66300 30.68800
O  -5.91900 33.51200 30.26200
O  -5.30300 32.11600 31.91500
C  -6.53100 32.39800 32.65400
H  -0.07500 37.75400 29.87600
H  -0.06500 37.21000 23.38900
H  -3.18200 31.64100 23.78200
H  -3.29800 34.62000 31.63800
H  -0.79900 36.04400 31.79300
H  -3.67800 36.97700 31.81800
H  -2.58300 37.93300 30.84300
H  -2.19700 37.64900 32.46900
H  -0.52500 33.85900 32.47900
H  -1.01700 32.71800 31.38300
H  -2.43600 31.69200 32.86500
H  -3.13400 33.28900 33.29600
H  2.32000 39.66200 27.77700
H  1.58000 39.14800 29.30000
H  0.77300 40.27900 28.28300
H  1.64900 41.34800 24.57000
H  2.72600 40.33400 25.61300
H  1.15400 40.96700 26.30000
H  -0.09800 35.08300 21.82000
H  -2.43500 33.27900 21.82700
H  -2.90900 35.39400 21.43600
H  -1.57400 36.09300 20.52300
H  -2.21800 36.90600 22.06700
H  -0.11200 32.70300 21.15200
H  -1.13700 31.39000 21.84500
H  0.38000 32.50700 23.95400
H  1.43600 32.29000 22.57200
H  0.55000 30.88200 23.19700
H  -4.13000 29.76100 24.61700
H  -5.52800 30.55700 25.23500
H  -4.88100 29.24400 26.20300
H  -3.34300 31.70800 30.73500
H  -6.28400 32.94100 33.56600
H  -6.97700 31.53900 33.15500
H  -7.31300 32.78000 31.99700

