158

Mg -1.62400 16.66700 26.13000
C  -1.83800 14.50200 28.93000
C  -2.20100 19.31400 28.28500
C  -1.20400 18.75100 23.54700
C  -1.84400 13.97100 24.14400
N  -2.16500 16.87700 28.31700
C  -2.09200 15.89500 29.27100
C  -2.28400 16.55900 30.60100
C  -2.77500 17.93400 30.39700
C  -2.40600 18.05500 28.87500
C  -4.28200 18.11900 30.61700
C  -1.10300 16.44200 31.56800
C  -1.48300 15.76300 32.90000
H  -2.13000 16.53700 34.06000
N  -1.51400 18.82400 25.92100
C  -1.83800 19.64100 26.95500
C  -1.64300 20.98100 26.44000
C  -1.26900 20.87600 25.06200
C  -1.33000 19.45100 24.75100
C  -1.81400 22.25400 27.20600
C  -0.82200 21.97000 24.15800
O  -0.40800 21.64400 23.04200
C  -0.86200 23.44500 24.57500
N  -1.91000 16.40700 24.08600
C  -1.54700 17.36200 23.19500
C  -1.57600 16.86100 21.75900
C  -1.65400 15.33000 22.07400
C  -1.70700 15.19100 23.55800
C  -2.82600 17.23000 20.88800
C  -0.35800 14.58500 21.48400
C  0.74400 14.17800 22.35600
N  -1.83100 14.69300 26.39800
C  -1.87500 13.66700 25.45800
C  -1.93800 12.44000 26.09100
C  -1.88600 12.69800 27.44900
C  -1.77400 14.08600 27.55900
C  -2.00900 11.17400 25.45800
C  -1.82500 12.04400 28.78200
O  -1.71500 10.86200 29.15100
C  -1.95000 13.27400 29.80700
C  -0.99400 13.17800 31.00300
O  0.20000 13.42400 30.91300
O  -1.59700 12.49000 31.99800
C  -0.73000 12.14900 33.09000
H  -2.47500 20.23300 28.80700
H  -1.07100 19.43800 22.70800
H  -1.95200 13.04900 23.56900
H  -3.09900 15.94500 30.98500
H  -2.38200 18.75000 31.00400
H  -4.46000 19.17200 30.83500
H  -4.64900 17.36500 31.31400
H  -4.77200 17.92000 29.66400
H  -0.80600 17.45900 31.82500
H  -0.23200 16.00500 31.07900
H  -0.56400 15.32200 33.28700
H  -2.15100 14.91300 32.76100
H  -2.60600 22.78600 26.67900
H  -0.88300 22.81700 27.26700
H  -2.22800 22.04900 28.19300
H  -1.89900 23.65800 24.83400
H  -0.61600 23.91200 23.62200
H  -0.09300 23.40600 25.34700
H  -0.61900 17.12900 21.31100
H  -2.46500 14.84100 21.53500
H  -2.65200 17.02500 19.83100
H  -3.07200 18.28700 20.98700
H  -3.71700 16.75300 21.29500
H  0.01000 15.24600 20.70000
H  -0.78200 13.77800 20.88500
H  0.60000 14.62400 23.34100
H  1.64100 14.68100 21.99600
H  0.81100 13.09800 22.48900
H  -0.98200 10.83200 25.33500
H  -2.46500 11.07300 24.47300
H  -2.50600 10.43000 26.08100
H  -2.94100 13.20000 30.25500
H  0.24800 11.75200 32.81800
H  -1.17000 11.42000 33.77000
H  -0.57900 13.04200 33.69800
Mg 40.41000 41.62400 27.57900
C  39.95400 44.06100 30.02000
C  41.10800 39.35000 29.97900
C  41.47500 39.37300 25.16500
C  40.43100 44.08700 25.19100
N  40.65200 41.80400 29.77100
C  40.27300 42.84100 30.58800
C  40.05400 42.42100 32.07800
C  40.67000 40.98300 32.07100
C  40.83000 40.66600 30.50300
C  41.92100 40.81500 33.01400
C  38.60600 42.52600 32.61200
C  38.44300 41.70700 33.85800
H  37.84800 42.36800 35.09900
N  41.16000 39.64500 27.54500
C  41.27800 38.83800 28.63300
C  41.60700 37.51000 28.33600
C  41.80000 37.43900 26.88200
C  41.44100 38.88600 26.45400
C  41.79600 36.44200 29.37800
C  42.14000 36.34700 25.95500
O  42.20300 36.50000 24.74100
C  42.35800 34.98200 26.39000
N  41.15900 41.78300 25.43900
C  41.33700 40.72700 24.64700
C  41.37500 41.08100 23.21400
C  40.80300 42.56700 23.22200
C  40.79700 42.82600 24.74400
C  42.66600 40.80300 22.43400
C  39.48100 42.59600 22.34200
C  38.09500 42.11900 22.97900
N  40.21400 43.67300 27.52600
C  40.19600 44.59100 26.47400
C  39.84600 45.90700 26.96100
C  39.77400 45.78000 28.36900
C  40.02700 44.40000 28.63000
C  39.87100 47.13400 26.09600
C  39.47400 46.46200 29.54100
O  39.24100 47.67400 29.76800
C  39.49400 45.42500 30.72400
C  40.48200 46.05600 31.70100
O  41.63500 46.37100 31.54900
O  39.90700 46.26400 32.89700
C  40.70500 46.61800 34.02900
H  41.23900 38.62900 30.78900
H  41.73800 38.67000 24.37200
H  40.20700 44.92500 24.52700
H  40.64500 43.13400 32.65400
H  39.99100 40.17500 32.34300
H  41.90500 39.94500 33.67100
H  42.06500 41.71800 33.60700
H  42.80300 40.77600 32.37400
H  37.90700 42.32900 31.79900
H  38.43500 43.57300 32.86200
H  39.34900 41.21000 34.20600
H  37.67600 40.97600 33.59900
H  42.84600 36.20600 29.54800
H  41.24800 35.55700 29.05400
H  41.40400 36.74200 30.35000
H  43.08100 34.91900 27.20300
H  42.76700 34.41600 25.55400
H  41.44000 34.44300 26.62400
H  40.60500 40.43800 22.78800
H  41.61600 43.21600 22.89500
H  43.37100 40.24800 23.05200
H  43.11900 41.77100 22.22000
H  42.42800 40.24600 21.52800
H  39.51400 42.02200 21.41600
H  39.32300 43.60700 21.96600
H  38.33400 42.10800 24.04300
H  37.88600 41.06100 22.81800
H  37.31000 42.83500 22.73600
H  38.85700 47.40200 25.79800
H  40.47200 47.04200 25.19100
H  40.30200 48.05800 26.48200
H  38.54000 45.36700 31.24800
H  41.51300 45.90000 34.16400
H  40.19500 46.65500 34.99200
H  41.19200 47.58300 33.88700

