158

Mg 52.40000 24.55600 45.23100
C  49.71900 26.59200 44.25900
C  50.47100 21.75700 44.43700
C  55.24600 22.72400 45.19000
C  54.25600 27.43900 45.91200
N  50.42800 24.21900 44.14300
C  49.46900 25.22200 44.04200
C  48.08700 24.69000 43.70600
C  48.26000 23.16000 44.31700
C  49.83900 23.00900 44.26500
C  47.58700 22.86200 45.69300
C  47.74100 24.65600 42.19300
C  48.82600 24.17700 41.18300
H  48.94700 24.95600 39.87900
N  52.88400 22.47100 44.84500
C  51.83600 21.50800 44.63800
C  52.51000 20.22800 44.59300
C  53.93100 20.42500 44.76900
C  54.10800 21.91800 44.98200
C  51.70100 18.95400 44.14300
C  55.01900 19.33900 44.83800
O  54.75100 18.11900 44.76300
C  56.35000 19.68900 44.96000
N  54.48900 25.03900 45.48900
C  55.44800 24.06900 45.45300
C  56.79800 24.67400 45.53800
C  56.52300 26.18500 45.67300
C  54.95400 26.29800 45.65500
C  57.74200 24.04900 46.58400
C  57.40000 27.12100 44.74700
C  58.23000 28.23300 45.52900
N  52.06900 26.55100 45.30400
C  52.88600 27.59100 45.71000
C  52.11900 28.79500 45.76100
C  50.90100 28.47500 45.16000
C  50.88200 27.09800 44.87600
C  52.38400 30.11600 46.36700
C  49.66300 28.98500 44.70700
O  49.19600 30.16000 44.72600
C  48.80900 27.75000 44.22000
C  48.16800 28.14700 42.92100
O  48.80500 28.18000 41.84100
O  46.82000 28.14800 43.03600
C  45.97900 28.39800 41.91100
H  49.85600 20.85500 44.45400
H  56.18400 22.16700 45.15400
H  54.84200 28.35200 46.04200
H  47.32000 25.17100 44.31200
H  47.80700 22.48300 43.59300
H  46.99500 23.71300 46.03200
H  48.42000 22.55500 46.32500
H  46.87500 22.08000 45.42900
H  47.45600 25.66700 41.90300
H  46.83200 24.07500 42.03800
H  48.51800 23.15300 40.97000
H  49.82100 24.13600 41.62500
H  51.26600 18.48100 45.02400
H  52.37700 18.24600 43.66400
H  50.88600 19.11100 43.43800
H  56.97900 18.87200 44.60500
H  56.69400 19.87400 45.97800
H  56.64300 20.44800 44.23400
H  57.31300 24.47600 44.59800
H  56.75900 26.35300 46.72400
H  58.39400 24.81300 47.00800
H  58.43400 23.32300 46.15800
H  57.16900 23.64300 47.41800
H  56.81000 27.67500 44.01700
H  58.05000 26.37500 44.29000
H  59.26400 28.17200 45.18900
H  58.13600 28.22400 46.61500
H  57.89700 29.15900 45.06100
H  53.15200 29.91400 47.11300
H  51.50000 30.39200 46.94100
H  52.70300 30.72400 45.52000
H  47.91300 27.59200 44.82100
H  44.96500 27.99900 41.94700
H  46.40400 28.03700 40.97400
H  45.87000 29.48000 41.84100
Mg 6.46400 56.90800 42.14500
C  5.50700 53.46400 42.57800
C  9.34100 55.64500 40.80000
C  7.08100 59.86000 41.22200
C  3.10600 57.64300 43.03300
N  7.29200 54.73300 41.50800
C  6.73100 53.50800 41.82900
C  7.62800 52.38400 41.30000
C  8.99500 53.16300 41.19800
C  8.54200 54.61800 41.24700
C  10.13800 52.83200 42.20300
C  7.19700 51.97500 39.89900
C  7.73000 50.60300 39.46300
H  6.97100 49.82100 38.43300
N  8.12900 57.71300 41.41900
C  9.17400 57.04400 40.89700
C  10.16000 58.03800 40.47700
C  9.54700 59.34200 40.54000
C  8.17700 59.04300 41.11700
C  11.62800 57.69000 40.07600
C  10.15300 60.65400 40.07400
O  11.21600 60.66600 39.48100
C  9.41200 61.90300 40.36500
N  5.25000 58.53600 42.10600
C  5.76700 59.67000 41.69200
C  4.66800 60.78100 41.76800
C  3.41000 60.06800 42.43000
C  3.89800 58.65900 42.49700
C  5.21200 62.16300 42.26800
C  2.11500 60.35000 41.66900
C  0.93500 60.78500 42.55300
N  4.64800 55.84900 42.71400
C  3.43500 56.35800 43.20500
C  2.66500 55.23100 43.75400
C  3.48800 54.05600 43.56500
C  4.61900 54.50100 42.89900
C  1.24200 55.30900 44.33300
C  3.62100 52.63700 43.85100
O  2.90600 51.81300 44.45200
C  4.93200 52.23700 43.18200
C  4.69800 51.23000 42.17700
O  4.21000 51.47300 41.08900
O  5.15100 50.00900 42.67000
C  5.02700 48.83600 41.82400
H  10.25000 55.26100 40.33200
H  7.21400 60.87100 40.83200
H  2.17000 57.93400 43.51400
H  7.65700 51.55300 42.00400
H  9.42900 53.12900 40.19800
H  9.98900 51.81800 42.57500
H  10.14300 53.51700 43.05100
H  11.07400 52.95900 41.66000
H  7.66900 52.65000 39.18500
H  6.11600 52.01000 39.76400
H  7.76800 49.96300 40.34500
H  8.76600 50.73600 39.15200
H  12.24900 58.44000 40.56600
H  11.85200 57.83000 39.01900
H  11.91900 56.66300 40.29700
H  9.10600 61.95600 41.41000
H  8.59000 62.02300 39.65900
H  10.17900 62.63500 40.11300
H  4.49500 60.93900 40.70300
H  3.45400 60.55900 43.40200
H  6.13000 62.00800 42.83500
H  4.54800 62.68900 42.95400
H  5.33100 62.76200 41.36400
H  1.86600 59.47700 41.06600
H  2.34500 61.13300 40.94600
H  1.07500 60.54400 43.60700
H  0.01400 60.26100 42.29700
H  0.94200 61.87500 42.55300
H  0.97300 56.31900 44.64200
H  1.31500 54.72300 45.24900
H  0.48200 54.89100 43.67300
H  5.65800 51.78700 43.85900
H  4.11600 48.76000 41.23000
H  5.09100 47.93300 42.43100
H  5.86100 48.72200 41.13300

