158

Mg 7.32700 3.05600 27.59200
C  8.87900 1.98600 30.52100
C  5.38500 5.24400 29.50700
C  5.58000 3.86900 24.68500
C  9.14400 0.74900 25.75300
N  7.18500 3.55500 29.79200
C  8.01700 3.06200 30.76600
C  7.67800 3.73700 32.08000
C  6.48000 4.70400 31.75100
C  6.29000 4.49500 30.23800
C  5.15700 4.62000 32.53100
C  8.94900 4.45500 32.70700
C  8.69000 5.36200 33.97900
H  9.60300 5.11200 35.21600
N  5.79700 4.46400 27.13700
C  5.09500 5.20900 28.11600
C  4.10100 5.98500 27.42700
C  4.26900 5.73600 26.03000
C  5.18900 4.61600 25.87100
C  3.16400 7.01000 28.16800
C  3.67900 6.41300 24.79500
O  4.06300 6.20000 23.65300
C  2.89500 7.69100 25.05900
N  7.33900 2.38600 25.51800
C  6.54900 2.81900 24.53300
C  6.70700 2.04300 23.24500
C  7.85900 1.01000 23.52200
C  8.18900 1.41400 25.03500
C  5.43400 1.36000 22.71700
C  9.07700 1.20800 22.63800
C  9.64600 -0.10800 22.05600
N  8.80800 1.72100 27.97900
C  9.42900 0.87800 27.11900
C  10.31200 0.08900 27.98200
C  10.15600 0.45800 29.29500
C  9.23300 1.47800 29.21600
C  11.21900 -1.05400 27.57700
C  10.49200 0.14700 30.70100
O  11.17500 -0.73600 31.19000
C  9.67300 1.18800 31.57200
C  8.93400 0.54500 32.70800
O  7.77100 0.04100 32.60700
O  9.56700 0.80900 33.85800
C  8.91300 0.73500 35.12300
H  4.71500 5.86400 30.10600
H  4.91600 4.01900 23.83100
H  9.73900 -0.06000 25.32200
H  7.42400 3.05300 32.89100
H  6.84800 5.72700 31.81400
H  4.44700 4.15300 31.84900
H  4.76600 5.60900 32.77000
H  5.27700 4.02800 33.43900
H  9.41800 5.04200 31.91700
H  9.66600 3.68100 32.98300
H  7.63200 5.53100 34.17700
H  8.99000 6.40000 33.84000
H  3.50200 8.01800 27.92700
H  3.16500 6.92400 29.25500
H  2.16100 7.01600 27.74100
H  3.50800 8.28000 25.74100
H  1.89100 7.50200 25.43700
H  2.79800 8.27700 24.14500
H  7.02200 2.74000 22.46800
H  7.56900 -0.03800 23.44800
H  4.57000 1.87500 23.13700
H  5.43900 0.30700 22.99800
H  5.25300 1.58300 21.66500
H  9.85100 1.82600 23.09200
H  8.90200 1.78900 21.73200
H  10.36200 0.10700 21.26200
H  8.76200 -0.65400 21.72900
H  10.21000 -0.61900 22.83600
H  12.29200 -0.86000 27.54400
H  10.93500 -1.55100 26.64900
H  10.99100 -1.84300 28.29300
H  10.44300 1.78300 32.06400
H  9.35400 -0.01100 35.78500
H  7.86100 0.46000 35.04700
H  9.01500 1.67000 35.67500
Mg 29.19600 57.53700 41.52500
C  26.40100 55.75000 40.25700
C  31.14600 55.26700 39.66100
C  31.90500 59.48500 42.05000
C  27.02500 59.86700 42.81800
N  28.80800 55.75700 40.08700
C  27.63400 55.28200 39.77200
C  27.74900 54.16700 38.71800
C  29.18500 53.69800 38.96100
C  29.79800 54.94300 39.59100
C  29.36200 52.42400 39.88400
C  27.48600 54.71600 37.25700
C  26.63600 53.77500 36.37400
H  27.06600 53.74300 34.93400
N  31.24700 57.41100 40.98100
C  31.79100 56.38600 40.30000
C  33.27500 56.49200 40.31900
C  33.51800 57.74500 40.88300
C  32.23500 58.28500 41.31900
C  34.27700 55.48400 39.73000
C  34.89200 58.28900 41.09000
O  35.83900 57.62600 40.71500
C  35.21000 59.65900 41.66500
N  29.38500 59.41400 42.18600
C  30.61700 60.02700 42.38400
C  30.44900 61.45400 42.97100
C  28.90900 61.48100 43.28700
C  28.38400 60.17000 42.70800
C  31.42200 61.88700 44.15000
C  28.27500 62.86900 42.77300
C  27.69500 62.85400 41.37000
N  27.10400 57.68800 41.70000
C  26.34000 58.66200 42.36500
C  24.98100 58.29600 42.35300
C  24.93300 57.10000 41.60200
C  26.23400 56.80400 41.18300
C  23.89200 58.95500 43.09700
C  24.12900 56.06500 41.08500
O  22.94400 55.86600 41.32400
C  25.02700 55.10700 40.04300
C  24.93900 53.63200 40.34300
O  25.20300 53.08700 41.40400
O  24.32200 52.92900 39.26600
C  24.35300 51.44600 39.40700
H  31.86500 54.54000 39.27800
H  32.79300 60.07000 42.29900
H  26.44300 60.60500 43.37500
H  27.09800 53.32300 38.94300
H  29.76400 53.60500 38.04200
H  29.45800 52.74900 40.92000
H  30.28000 51.95000 39.53800
H  28.48200 51.78100 39.85000
H  28.42400 54.90000 36.73200
H  26.99400 55.68400 37.35600
H  25.61800 54.15300 36.27000
H  26.54900 52.76000 36.76000
H  33.85100 54.48400 39.65000
H  35.20300 55.36800 40.29400
H  34.55100 55.65000 38.68800
H  34.70600 60.38200 41.02300
H  36.29600 59.75100 41.68300
H  34.84400 59.68700 42.69100
H  30.51200 62.12300 42.11300
H  28.66600 61.39500 44.34600
H  32.30100 61.24300 44.18200
H  30.93500 61.92400 45.12500
H  31.78800 62.86600 43.84100
H  28.94000 63.71600 42.94400
H  27.41800 63.05400 43.42100
H  27.44000 61.88200 40.94800
H  28.46800 63.30800 40.75000
H  26.80900 63.48800 41.41200
H  22.96400 58.38600 43.02700
H  23.71200 59.89800 42.58200
H  24.16300 59.14300 44.13600
H  24.66700 55.43200 39.06800
H  23.30300 51.18200 39.28800
H  24.77600 51.08100 40.34300
H  25.00500 50.95400 38.68500

