158

Mg -3.18000 17.09100 26.60300
C  -3.45200 14.96800 29.42200
C  -3.81800 19.75600 28.66200
C  -2.93000 18.96700 23.89900
C  -2.90900 14.22600 24.61900
N  -3.67900 17.29800 28.80000
C  -3.67900 16.30800 29.71200
C  -3.84000 16.90500 31.17200
C  -3.98400 18.44000 30.87100
C  -3.79300 18.51200 29.32600
C  -5.32900 19.06200 31.33300
C  -2.70700 16.42300 32.11300
C  -2.09700 17.42900 33.07400
H  -1.58700 16.89600 34.47000
N  -3.25700 19.08000 26.32300
C  -3.52600 20.05300 27.30800
C  -3.32000 21.35400 26.74100
C  -2.91600 21.11100 25.35500
C  -3.01100 19.65400 25.11500
C  -3.62000 22.61000 27.53000
C  -2.34500 22.02300 24.38000
O  -2.00700 21.78000 23.23900
C  -2.07100 23.44200 24.78700
N  -3.09400 16.58900 24.47100
C  -3.00300 17.61400 23.61700
C  -2.80100 17.07900 22.23500
C  -2.41700 15.54600 22.44200
C  -2.82600 15.39000 23.88500
C  -3.87300 17.47600 21.21500
C  -0.97800 15.13800 21.98500
C  0.21600 15.57900 22.85900
N  -3.32200 15.06200 26.84200
C  -3.09900 13.99200 25.97300
C  -3.31100 12.67300 26.58800
C  -3.37700 13.02200 27.96400
C  -3.40700 14.48200 28.08200
C  -3.17600 11.29100 25.96800
C  -3.49900 12.52900 29.34900
O  -3.61800 11.34600 29.73000
C  -3.53500 13.75600 30.32800
C  -2.44800 13.47200 31.38300
O  -1.20400 13.59900 31.30200
O  -2.98000 13.05200 32.54500
C  -2.14900 13.07400 33.75200
H  -3.98700 20.54400 29.39800
H  -2.59800 19.58100 23.05900
H  -2.65100 13.28800 24.12300
H  -4.74100 16.40400 31.52500
H  -3.22500 19.05600 31.35400
H  -6.05000 18.36800 31.76500
H  -5.90800 19.44400 30.49200
H  -5.09900 19.86900 32.02900
H  -1.83300 16.05900 31.57300
H  -3.13400 15.66100 32.76400
H  -2.80500 18.21400 33.33900
H  -1.17800 17.92900 32.77000
H  -4.29900 22.35100 28.34300
H  -4.22000 23.21100 26.84700
H  -2.69300 23.09400 27.83800
H  -3.05600 23.86400 24.98300
H  -1.55500 23.98100 23.99200
H  -1.33600 23.50000 25.59000
H  -1.90500 17.60200 21.90100
H  -3.08600 14.92800 21.84300
H  -4.40300 18.37100 21.53900
H  -4.56500 16.67700 20.94800
H  -3.48500 17.77900 20.24200
H  -0.72300 15.73500 21.10900
H  -0.97400 14.06800 21.77500
H  -0.22400 15.78100 23.83600
H  0.79900 16.43100 22.51100
H  0.95300 14.77900 22.92300
H  -2.95900 11.36000 24.90200
H  -4.05700 10.66900 26.12700
H  -2.39700 10.76000 26.51600
H  -4.54200 13.80700 30.74000
H  -2.14100 14.07900 34.17300
H  -1.11400 12.79800 33.55100
H  -2.68300 12.42500 34.44600
Mg 1.42100 -1.87000 44.36100
C  4.54000 -0.80600 43.60500
C  0.13700 0.72600 42.34900
C  -1.73900 -3.33000 44.42600
C  2.77000 -4.77900 45.82300
N  2.33100 -0.21900 43.15500
C  3.59400 0.03400 42.99800
C  3.82900 1.25400 42.11500
C  2.39800 1.88000 42.02000
C  1.52900 0.72000 42.47900
C  2.13300 3.26800 42.65200
C  4.50700 0.95000 40.71900
C  5.72200 1.77500 40.38300
H  5.91000 2.27000 38.89800
N  -0.53800 -1.23900 43.65100
C  -0.82400 -0.14800 42.89500
C  -2.25700 -0.05400 42.72600
C  -2.83200 -1.15300 43.49600
C  -1.71900 -2.00300 43.91600
C  -2.86800 1.11700 41.83600
C  -4.34600 -1.40100 43.59700
O  -5.14100 -0.61800 43.10000
C  -4.90700 -2.57600 44.27100
N  0.61400 -3.82400 45.13300
C  -0.68500 -4.16100 44.97300
C  -0.93400 -5.61300 45.52200
C  0.52600 -6.10300 45.79800
C  1.35600 -4.88300 45.57100
C  -1.92400 -5.77800 46.67000
C  0.96300 -7.34000 44.93800
C  1.19800 -8.64400 45.64400
N  3.26800 -2.56600 44.91300
C  3.66000 -3.72100 45.56000
C  5.09300 -3.77400 45.58800
C  5.54700 -2.67100 44.83200
C  4.34400 -1.95900 44.43300
C  5.99800 -4.91500 46.01700
C  6.63300 -1.97500 44.20500
O  7.84200 -2.11700 44.18100
C  6.01300 -0.64700 43.56400
C  6.55100 0.57800 44.25400
O  6.29500 1.00300 45.37100
O  7.42100 1.15900 43.42200
C  8.12500 2.33600 43.92700
H  -0.01900 1.67300 41.82900
H  -2.69300 -3.86200 44.42300
H  3.25300 -5.68400 46.19600
H  4.53700 1.82900 42.71200
H  2.18900 2.02000 40.95900
H  3.00800 3.69000 43.14700
H  1.27900 3.23200 43.32800
H  1.92200 3.93800 41.81900
H  3.89600 1.16500 39.84200
H  4.71700 -0.11700 40.64300
H  6.58100 1.12300 40.54300
H  5.72100 2.65300 41.02900
H  -3.35200 0.78000 40.91900
H  -2.12600 1.80900 41.43600
H  -3.66300 1.68600 42.31500
H  -4.98600 -3.43200 43.60000
H  -5.83300 -2.24200 44.73900
H  -4.34400 -2.85700 45.16100
H  -1.34900 -6.13000 44.65700
H  0.52800 -6.48800 46.81800
H  -2.48700 -4.85200 46.78000
H  -1.34700 -5.83100 47.59400
H  -2.60300 -6.62700 46.58500
H  1.92700 -7.12700 44.47700
H  0.22000 -7.51000 44.16000
H  2.25400 -8.91300 45.68100
H  0.76000 -9.33400 44.92200
H  0.68500 -8.66400 46.60500
H  6.26400 -5.41800 45.08700
H  5.34300 -5.60900 46.54500
H  6.89000 -4.49800 46.48400
H  6.41800 -0.65500 42.55200
H  7.42700 3.16700 44.03200
H  8.83200 2.72600 43.19500
H  8.62700 2.18000 44.88200

