158

Mg 35.29900 48.32400 25.82200
C  35.83400 46.45600 28.70600
C  34.06900 50.81000 27.76000
C  34.67800 49.99300 23.00800
C  36.25100 45.39800 23.90800
N  34.87400 48.50900 27.99200
C  35.38000 47.74800 29.01200
C  35.15400 48.38800 30.42000
C  34.29900 49.59000 30.05800
C  34.45300 49.65100 28.48400
C  32.85800 49.54100 30.62200
C  36.47800 48.63100 31.10200
C  36.41100 48.46700 32.69400
H  35.06200 48.59100 33.37000
N  34.62100 50.24500 25.44500
C  34.15100 51.13000 26.32400
C  33.94700 52.37000 25.68900
C  34.07300 52.13900 24.28200
C  34.38100 50.70800 24.19400
C  33.72100 53.62200 26.45000
C  33.90200 53.14900 23.09400
O  33.97000 52.82700 21.90400
C  33.59600 54.57000 23.40400
N  35.39200 47.75100 23.85700
C  35.16400 48.68300 22.82700
C  35.16000 48.01500 21.44600
C  35.99200 46.71900 21.77600
C  35.81300 46.57000 23.26500
C  33.75800 47.70700 20.84500
C  37.52000 46.89300 21.42700
C  38.08700 45.72400 20.62400
N  35.88200 46.33000 26.20900
C  36.30300 45.30400 25.33300
C  36.79200 44.23400 26.13800
C  36.62300 44.56300 27.47200
C  36.02300 45.87600 27.47200
C  37.40300 42.93800 25.69700
C  36.84100 44.14000 28.83500
O  37.20100 43.05800 29.28800
C  36.28500 45.30300 29.72200
C  35.26600 44.75700 30.60000
O  34.06800 44.75300 30.31100
O  35.72200 44.57100 31.84400
C  34.80200 44.42500 32.95500
H  33.67700 51.62200 28.37700
H  34.35100 50.49400 22.09400
H  36.80000 44.60600 23.39500
H  34.59800 47.67800 31.03100
H  34.67500 50.53100 30.46000
H  32.04800 49.45600 29.89800
H  32.57500 50.43500 31.17800
H  32.74800 48.73300 31.34600
H  36.89200 49.53500 30.65400
H  37.13200 47.84600 30.72400
H  36.96400 49.29000 33.14700
H  36.84600 47.51400 32.99200
H  34.48600 54.31400 26.09800
H  33.81300 53.42700 27.51800
H  32.76200 54.05600 26.17000
H  33.62900 55.21400 22.52600
H  34.32500 54.88200 24.15200
H  32.57900 54.45000 23.78000
H  35.64400 48.68000 20.73000
H  35.53700 45.81800 21.36500
H  33.72000 46.61900 20.80500
H  33.53400 48.15600 19.87700
H  32.93600 48.02000 21.48800
H  38.09100 46.85900 22.35500
H  37.64600 47.90100 21.03200
H  37.59100 45.71800 19.65300
H  37.81800 44.75800 21.05000
H  39.14400 45.97400 20.52800
H  36.71100 42.09600 25.69300
H  38.30500 42.67600 26.25000
H  37.73800 43.03800 24.66500
H  37.13300 45.55000 30.36100
H  35.24800 45.08000 33.70400
H  34.91700 43.39000 33.27500
H  33.73800 44.63200 32.83900
Mg 0.34100 43.72500 26.15700
C  2.47600 43.98000 28.91800
C  -2.26400 43.22700 28.24700
C  -1.56900 43.40200 23.48200
C  3.07700 44.33800 24.09900
N  0.16600 43.75200 28.37100
C  1.16700 43.87300 29.31800
C  0.64400 43.66200 30.76800
C  -0.84700 43.18000 30.46100
C  -1.00000 43.34300 28.92200
C  -1.16500 41.69600 30.91800
C  0.91800 44.86400 31.72000
C  0.95400 44.50500 33.26000
H  0.52600 43.07000 33.69000
N  -1.64100 43.34800 25.92000
C  -2.57900 43.22800 26.83300
C  -3.84600 42.92700 26.21100
C  -3.64200 42.95500 24.81900
C  -2.22500 43.20800 24.70500
C  -5.15000 42.76200 26.95700
C  -4.66600 42.64500 23.71800
O  -4.33500 42.57000 22.53800
C  -6.07300 42.45000 23.97800
N  0.71100 43.90000 24.07400
C  -0.24400 43.68900 23.15100
C  0.24000 43.94300 21.77200
C  1.59200 44.47300 21.99500
C  1.80300 44.26100 23.46300
C  0.07200 42.68900 20.83300
C  1.88600 45.93900 21.71600
C  2.10000 46.38300 20.25200
N  2.34600 43.99800 26.38200
C  3.35700 44.22100 25.44400
C  4.58000 44.35300 26.16500
C  4.30700 44.15700 27.50200
C  2.95800 44.00300 27.60400
C  5.83300 44.58500 25.38400
C  4.84300 44.03400 28.85000
O  6.00800 43.98800 29.21400
C  3.72500 44.01900 29.83000
C  3.84500 42.90400 30.80700
O  3.71800 41.74000 30.47500
O  4.17000 43.36900 32.08700
C  4.19000 42.32400 33.09500
H  -3.06000 42.89600 28.91800
H  -2.32900 43.36400 22.69900
H  3.99500 44.41800 23.51400
H  1.12500 42.74800 31.11500
H  -1.63800 43.77800 30.91300
H  -1.37200 40.93100 30.16900
H  -1.93000 41.72300 31.69400
H  -0.26500 41.32500 31.40700
H  0.15700 45.60700 31.48200
H  1.92200 45.22700 31.50200
H  0.29500 45.28900 33.63200
H  1.89900 44.73500 33.75200
H  -5.78500 43.64300 26.86000
H  -5.05800 42.42600 27.99000
H  -5.79200 41.97800 26.55600
H  -6.21600 41.54300 24.56400
H  -6.58300 42.34800 23.02000
H  -6.50200 43.34900 24.42000
H  -0.34500 44.76100 21.35300
H  2.23700 43.76700 21.47300
H  -0.94700 42.30300 20.87700
H  0.82600 41.94600 21.09300
H  0.21700 42.87100 19.76800
H  2.81200 46.23600 22.20600
H  1.08600 46.53600 22.15400
H  3.03000 46.93700 20.12300
H  1.35100 47.15100 20.06100
H  2.11000 45.52200 19.58400
H  6.54600 44.74000 26.19400
H  5.77200 45.33600 24.59700
H  6.12700 43.68000 24.85300
H  3.81600 44.93700 30.41100
H  5.19600 41.96700 33.31400
H  3.47300 41.52200 32.91700
H  3.87000 42.73600 34.05200

