158

Mg 47.65600 15.14100 28.33400
C  45.34000 15.14700 31.07000
C  49.67400 17.02200 30.33600
C  49.47200 15.34900 25.77000
C  45.07300 13.58700 26.36300
N  47.46100 15.96100 30.51200
C  46.53000 15.77200 31.42100
C  46.84400 16.45200 32.78500
C  48.12700 17.20300 32.36200
C  48.44300 16.70800 30.99800
C  48.13400 18.74400 32.53200
C  47.05900 15.40200 34.01100
C  46.31500 15.59200 35.27100
H  46.24200 17.08200 35.68000
N  49.31800 16.11500 28.13300
C  50.07700 16.72000 29.02000
C  51.40000 16.97500 28.44400
C  51.32400 16.50000 27.08300
C  49.97900 15.93900 26.94700
C  52.54600 17.69800 29.15000
C  52.40800 16.54900 25.99800
O  52.24900 16.18700 24.86600
C  53.87500 17.10600 26.33400
N  47.21600 14.71000 26.29400
C  48.29200 14.77600 25.44900
C  47.97100 14.20400 24.05300
C  46.66300 13.46700 24.35500
C  46.20900 13.99500 25.67500
C  47.89600 15.45600 23.02300
C  46.76500 11.90600 24.42600
C  47.73500 11.20600 25.41700
N  45.64300 14.54300 28.62900
C  44.76400 13.86600 27.76000
C  43.59600 13.45300 28.47600
C  43.73100 14.03800 29.74500
C  45.00900 14.65300 29.82600
C  42.44400 12.63800 27.94400
C  43.13800 14.02500 31.06600
O  42.09000 13.59500 31.58600
C  44.14600 14.84300 31.95200
C  43.55800 16.00500 32.53700
O  43.76800 17.18200 32.24800
O  42.85000 15.69300 33.67900
C  42.23200 16.70200 34.53300
H  50.49200 17.44200 30.92500
H  50.12200 15.20500 24.90400
H  44.40100 12.99800 25.73500
H  46.08200 17.18900 33.03900
H  49.02700 16.85700 32.87000
H  47.12000 19.09100 32.73100
H  48.40900 19.26500 31.61400
H  48.79500 18.94500 33.37500
H  48.12800 15.32900 34.21300
H  46.58100 14.50100 33.62700
H  46.83100 14.98600 36.01600
H  45.26500 15.30300 35.32400
H  52.34500 18.07100 30.15400
H  52.84300 18.55500 28.54500
H  53.44600 17.08800 29.22500
H  53.77200 18.19100 26.35100
H  54.37000 16.81900 25.40600
H  54.28500 16.62600 27.22200
H  48.77300 13.51600 23.78500
H  45.95700 13.64200 23.54200
H  48.36700 15.23900 22.06500
H  48.27100 16.41200 23.38900
H  46.82400 15.48500 22.82800
H  47.14800 11.74000 23.41900
H  45.79900 11.40100 24.43000
H  47.02600 10.85700 26.16800
H  48.47000 11.92800 25.77400
H  48.25300 10.39500 24.90500
H  41.87200 12.28700 28.80300
H  42.80900 11.75100 27.42400
H  41.84600 13.23500 27.25600
H  44.47700 14.11500 32.69200
H  41.35600 17.08600 34.01000
H  42.96600 17.38900 34.95700
H  41.86900 16.22900 35.44500
Mg -11.11700 16.54600 43.25900
C  -7.61000 17.47600 42.83400
C  -11.76300 19.94300 42.88200
C  -14.27500 15.70500 42.65600
C  -10.16700 13.21200 43.04400
N  -9.84800 18.41000 42.82300
C  -8.47300 18.56600 42.69200
C  -7.98500 19.94200 42.52700
C  -9.23800 20.68700 42.99700
C  -10.38300 19.64100 42.92000
C  -9.09600 21.46200 44.33700
C  -7.54400 20.24100 41.07200
C  -6.19000 20.63400 40.90100
H  -5.15800 19.72800 40.18600
N  -12.81800 17.66600 42.98400
C  -12.86000 18.99000 42.77600
C  -14.20800 19.45600 42.65100
C  -15.01300 18.24600 42.62200
C  -14.06000 17.11400 42.69400
C  -14.69000 20.80900 42.41500
C  -16.48300 18.20900 42.42800
O  -17.14800 19.23800 42.27800
C  -17.23300 16.82900 42.41000
N  -12.07400 14.73500 42.77100
C  -13.42800 14.60700 42.71300
C  -13.95500 13.12700 42.66900
C  -12.60300 12.35100 42.88900
C  -11.56400 13.45600 42.93200
C  -14.93800 12.80900 43.89700
C  -12.39600 11.26400 41.79600
C  -11.66300 11.68700 40.52600
N  -9.34100 15.51500 43.12800
C  -9.13300 14.19700 43.17200
C  -7.71000 13.89800 43.08900
C  -7.07100 15.14200 43.05500
C  -8.07400 16.12400 43.01800
C  -7.08800 12.54200 43.05400
C  -5.79300 15.83600 42.92000
O  -4.67400 15.38600 42.89800
C  -6.14600 17.40600 42.86500
C  -5.54400 18.00400 44.09500
O  -5.37600 17.39700 45.13900
O  -5.06900 19.25700 43.91000
C  -4.46600 19.86700 45.06500
H  -11.94700 21.02000 42.88600
H  -15.29700 15.32100 42.65800
H  -9.88800 12.15600 43.05700
H  -7.20600 20.14800 43.26100
H  -9.51800 21.51500 42.34500
H  -8.33100 21.14000 45.04400
H  -10.00800 21.15800 44.85000
H  -9.02300 22.54300 44.22000
H  -8.13500 21.00100 40.56200
H  -7.62800 19.31900 40.49700
H  -5.71000 20.89700 41.84300
H  -6.05400 21.57700 40.37100
H  -13.84800 21.36400 42.00000
H  -15.01900 21.26400 43.34800
H  -15.41600 20.84800 41.60300
H  -18.25800 17.14100 42.20800
H  -17.03800 16.35800 43.37300
H  -16.78200 16.23500 41.61600
H  -14.38700 12.92800 41.68800
H  -12.45300 11.95500 43.89300
H  -15.30700 13.77500 44.24300
H  -14.59400 12.20100 44.73400
H  -15.78400 12.27900 43.46000
H  -13.35300 10.78300 41.59000
H  -11.81000 10.46200 42.24500
H  -11.62000 12.77400 40.45000
H  -12.12600 11.39000 39.58500
H  -10.65500 11.28300 40.43100
H  -6.10100 12.55400 43.51600
H  -7.02100 12.14900 42.04000
H  -7.77100 11.87100 43.57700
H  -5.80500 17.86100 41.93500
H  -3.92900 20.76700 44.76500
H  -3.66500 19.22000 45.42300
H  -5.17300 20.18200 45.83300

