158

Mg 0.92600 7.64700 25.74900
C  1.75200 9.46000 28.50100
C  0.62500 4.84600 27.70300
C  -0.01900 6.00000 22.95500
C  1.45600 10.52700 23.70000
N  1.29200 7.24500 27.78700
C  1.50000 8.13300 28.79300
C  1.54400 7.39900 30.19000
C  1.55400 5.92700 29.74500
C  1.11700 5.99800 28.29700
C  2.82800 5.11400 29.85800
C  0.28600 7.86800 30.95500
C  0.33500 8.02900 32.52100
H  1.52500 7.38900 33.23000
N  0.38500 5.64500 25.39000
C  0.23700 4.64600 26.38800
C  -0.44400 3.50600 25.80800
C  -0.55200 3.84400 24.38300
C  -0.09600 5.18500 24.18300
C  -0.76600 2.26700 26.61500
C  -1.20400 2.94900 23.26300
O  -1.31700 3.28000 22.09800
C  -1.57900 1.51700 23.52900
N  0.93100 8.20200 23.59600
C  0.54600 7.25100 22.64100
C  0.46600 7.94300 21.22200
C  1.07500 9.31400 21.46100
C  1.15100 9.40100 22.97700
C  1.19700 7.11800 20.16700
C  0.22800 10.50100 20.87200
C  -0.94400 11.03300 21.75700
N  1.54000 9.59000 26.00500
C  1.56200 10.65600 25.12500
C  1.83500 11.83300 25.95200
C  1.88300 11.46500 27.25300
C  1.67100 10.06100 27.24300
C  2.09300 13.23000 25.39600
C  2.10300 11.84800 28.58100
O  2.40100 12.93300 28.96700
C  1.92800 10.57600 29.44100
C  3.07900 10.65000 30.41600
O  4.20600 10.33700 30.19200
O  2.58100 11.23700 31.56300
C  3.51500 11.16500 32.63000
H  0.49700 4.04700 28.43600
H  -0.41500 5.61100 22.01500
H  1.65700 11.30000 22.95500
H  2.44800 7.85200 30.59800
H  0.70900 5.54800 30.32000
H  3.32800 4.84100 28.92800
H  2.77400 4.16400 30.39000
H  3.51100 5.66600 30.50400
H  -0.42600 7.04700 30.87100
H  0.10800 8.87000 30.56600
H  -0.61300 7.71400 32.95500
H  0.35700 9.09100 32.76600
H  -1.79500 1.97000 26.41100
H  -0.53800 2.39200 27.67400
H  -0.10900 1.42600 26.39900
H  -2.30600 1.41000 24.33400
H  -0.64800 0.97000 23.68100
H  -2.06700 1.19500 22.61000
H  -0.60000 7.93300 20.99300
H  2.10400 9.32900 21.10000
H  0.62000 6.19600 20.08900
H  2.20400 6.84900 20.48500
H  1.15800 7.69700 19.24400
H  -0.24200 10.25400 19.92000
H  0.99900 11.25500 20.71200
H  -1.87100 10.94000 21.19200
H  -0.62700 12.07200 21.84900
H  -1.13200 10.49400 22.68600
H  1.92400 13.18900 24.32000
H  3.02700 13.67500 25.74000
H  1.25000 13.85600 25.69000
H  0.97500 10.73200 29.94600
H  3.81200 10.14400 32.87300
H  3.08500 11.39800 33.60500
H  4.34100 11.83200 32.38600
Mg 27.02000 50.18200 27.34600
C  24.82400 51.07600 29.98900
C  29.43000 49.71800 29.76500
C  29.12400 49.83000 24.90900
C  24.43100 51.04600 25.10300
N  27.08400 50.32400 29.68900
C  26.03700 50.60200 30.52000
C  26.49100 50.35800 31.99300
C  28.05900 50.23100 31.86900
C  28.22900 50.07300 30.33600
C  28.80700 51.35600 32.48900
C  25.84400 49.11000 32.79600
C  24.64800 49.46000 33.76600
H  24.58300 48.85400 35.16300
N  28.99400 49.74000 27.29700
C  29.86000 49.54400 28.38400
C  31.13800 49.20400 27.84500
C  31.07200 49.40900 26.40400
C  29.70700 49.71200 26.16000
C  32.35600 49.09100 28.80300
C  32.14600 49.27800 25.37600
O  31.94700 49.51600 24.17200
C  33.50300 48.94300 25.77800
N  26.81200 50.46400 25.26600
C  27.79500 50.07800 24.45400
C  27.41600 50.04600 22.95000
C  25.87400 50.30500 23.10300
C  25.64600 50.58600 24.55500
C  28.12900 51.00000 22.00600
C  24.89600 49.26100 22.53600
C  24.67400 49.48800 21.02000
N  25.04800 51.00200 27.45700
C  24.13800 51.30500 26.47500
C  22.96400 51.79300 27.05600
C  23.17100 51.70100 28.44300
C  24.45400 51.16500 28.63500
C  21.78600 52.45200 26.40700
C  22.59300 52.01500 29.78000
O  21.48600 52.41400 30.07700
C  23.71000 51.56000 30.80100
C  24.23900 52.78300 31.56400
O  24.95900 53.70600 31.14300
O  23.78700 52.70500 32.86300
C  24.33600 53.61500 33.85100
H  30.22500 49.61500 30.50700
H  29.68500 49.58400 24.00500
H  23.72300 51.22900 24.29300
H  26.22700 51.26800 32.53200
H  28.47400 49.28900 32.22800
H  29.49500 51.04000 33.27300
H  28.09300 52.01100 32.98700
H  29.41000 51.84400 31.72300
H  26.70900 48.60500 33.22700
H  25.49000 48.46100 31.99500
H  23.79200 49.04400 33.23400
H  24.41600 50.52400 33.80600
H  32.08300 49.77300 29.60900
H  33.33300 49.36100 28.40300
H  32.35700 48.03800 29.08300
H  33.81100 49.82500 26.34000
H  34.00700 48.78700 24.82500
H  33.61900 48.16500 26.53300
H  27.51600 49.03800 22.54700
H  25.59000 51.26600 22.67500
H  28.93700 51.45900 22.57700
H  27.51900 51.81800 21.62300
H  28.54200 50.46300 21.15200
H  23.92900 49.07400 23.00500
H  25.44200 48.32200 22.62900
H  25.38300 50.12800 20.49600
H  23.67500 49.86500 20.79800
H  24.78200 48.48100 20.61700
H  20.91900 52.03800 26.92000
H  21.92000 52.16700 25.36400
H  21.86400 53.50200 26.68900
H  23.40300 50.90700 31.61700
H  25.27300 54.02800 33.47500
H  24.71700 53.06100 34.70900
H  23.68400 54.46400 34.05600

