158

Mg 2.37700 -1.67600 43.88500
C  5.75800 -1.29000 43.09500
C  1.73200 1.08900 41.89100
C  -0.82100 -2.33100 44.25700
C  3.10000 -4.86100 45.13000
N  3.53200 -0.43500 42.42200
C  4.92500 -0.40400 42.43400
C  5.49800 0.72100 41.65800
C  4.21000 1.64700 41.36700
C  3.09700 0.76400 41.98900
C  4.19200 2.96300 42.17700
C  6.05400 0.23100 40.36200
C  7.18100 1.18100 39.81000
H  6.84500 1.98600 38.57600
N  0.65600 -0.70500 43.27400
C  0.57000 0.37300 42.46600
C  -0.79700 0.75300 42.28100
C  -1.62500 -0.27900 42.85600
C  -0.65000 -1.17800 43.49600
C  -1.27300 1.88800 41.41200
C  -3.17100 -0.38300 42.75700
O  -3.82900 0.48500 42.24800
C  -3.83900 -1.61100 43.13200
N  1.27800 -3.41100 44.51500
C  -0.06500 -3.36500 44.71600
C  -0.57500 -4.72500 45.08400
C  0.73600 -5.50400 45.51400
C  1.76900 -4.51300 45.04100
C  -1.80800 -4.71400 46.12000
C  0.80700 -6.86000 44.75900
C  1.26400 -8.12200 45.53900
N  4.07400 -2.87300 44.19700
C  4.18800 -4.07200 44.83800
C  5.64100 -4.29400 45.11400
C  6.34500 -3.15500 44.47200
C  5.33700 -2.37900 43.85900
C  6.25700 -5.30000 45.94900
C  7.61800 -2.52600 44.27900
O  8.72200 -2.72100 44.68000
C  7.26300 -1.31300 43.33900
C  7.78000 -0.03200 44.00300
O  7.36300 0.33700 45.08600
O  8.70600 0.58900 43.26800
C  9.08600 1.94400 43.72200
H  1.50900 2.02400 41.37300
H  -1.87300 -2.47100 44.51400
H  3.47200 -5.80800 45.52900
H  6.30200 1.20400 42.21300
H  3.95700 1.76600 40.31300
H  3.76300 3.78800 41.60900
H  5.25300 3.18000 42.30300
H  3.83200 2.76800 43.18700
H  5.20700 0.18100 39.67700
H  6.32100 -0.81600 40.50300
H  7.93300 0.46200 39.48600
H  7.52700 1.90500 40.54700
H  -2.03700 1.47800 40.75300
H  -0.47900 2.20300 40.73600
H  -1.82000 2.67700 41.92800
H  -4.87900 -1.76900 42.84800
H  -3.87200 -1.64500 44.22000
H  -3.24400 -2.46800 42.81600
H  -1.02300 -5.17700 44.19800
H  0.78000 -5.58300 46.60100
H  -1.81600 -5.45800 46.91600
H  -2.73000 -4.70000 45.53900
H  -1.95900 -3.76600 46.63500
H  1.53400 -6.76200 43.95300
H  -0.13900 -7.17300 44.31900
H  0.48200 -8.88100 45.55500
H  1.61100 -7.97500 46.56200
H  2.00900 -8.64800 44.94300
H  5.62400 -5.41800 46.82900
H  7.27800 -5.13700 46.29600
H  6.26700 -6.21200 45.35200
H  7.70700 -1.51300 42.36400
H  10.00300 2.32500 43.27300
H  9.41900 1.86600 44.75800
H  8.34000 2.67800 43.42100
Mg -10.35300 39.51400 43.14700
C  -8.98900 36.53600 41.74300
C  -7.83100 41.21000 41.35100
C  -11.92500 42.36000 43.33200
C  -13.07100 37.70000 44.34400
N  -8.71700 38.92100 41.53700
C  -8.25000 37.64400 41.29500
C  -6.92600 37.56500 40.56800
C  -6.46600 39.10700 40.67700
C  -7.77700 39.80900 41.18300
C  -5.23500 39.50100 41.46000
C  -6.97600 37.03600 39.08200
C  -5.85300 35.95500 38.77200
H  -4.91800 36.21600 37.49500
N  -9.86400 41.60000 42.68200
C  -8.84100 42.04600 41.93200
C  -8.76900 43.47500 42.01000
C  -9.90500 43.84500 42.78400
C  -10.64500 42.60200 42.92800
C  -7.70400 44.37200 41.41200
C  -10.35100 45.29800 43.23700
O  -9.66300 46.27000 42.89600
C  -11.57500 45.54200 44.11100
N  -12.31900 39.92300 43.66200
C  -12.66100 41.17900 43.73000
C  -14.01000 41.27400 44.49000
C  -14.46700 39.79900 44.80100
C  -13.24900 39.04700 44.17900
C  -14.12300 42.25200 45.67200
C  -15.76800 39.41900 44.03700
C  -16.62100 38.39300 44.81500
N  -10.91700 37.47900 43.10600
C  -12.02400 36.90900 43.75800
C  -11.88100 35.41400 43.56700
C  -10.69600 35.22700 42.79500
C  -10.20700 36.53200 42.48400
C  -12.88400 34.35100 43.96100
C  -9.77600 34.25700 42.25300
O  -9.87600 33.01700 42.31800
C  -8.69700 35.07200 41.49500
C  -7.37400 34.58100 42.08900
O  -6.85500 34.97100 43.10600
O  -6.97300 33.52700 41.33900
C  -5.78000 32.77300 41.76700
H  -6.96300 41.76800 40.99200
H  -12.61000 43.20300 43.44700
H  -13.83500 37.08800 44.82800
H  -6.24100 36.97000 41.17100
H  -6.27600 39.53400 39.69300
H  -4.87500 38.69200 42.09600
H  -5.58900 40.31100 42.09800
H  -4.39700 39.82200 40.84200
H  -6.85400 37.85600 38.37400
H  -7.95600 36.63500 38.82300
H  -6.16700 34.91200 38.73800
H  -5.06100 35.92800 39.52000
H  -8.26300 44.95300 40.67900
H  -6.85900 43.91100 40.90200
H  -7.29900 45.06700 42.14700
H  -12.44900 45.41300 43.47300
H  -11.61600 46.51900 44.59200
H  -11.69300 44.72000 44.81700
H  -14.70900 41.67500 43.75500
H  -14.38500 39.47900 45.84000
H  -14.41700 41.79200 46.61600
H  -15.02300 42.85900 45.57500
H  -13.22500 42.83000 45.89200
H  -15.43600 38.91200 43.13100
H  -16.32400 40.33800 43.85700
H  -16.07800 38.02600 45.68600
H  -16.72800 37.54400 44.14000
H  -17.57500 38.81800 45.12800
H  -13.61500 34.13800 43.18100
H  -13.32600 34.68900 44.89800
H  -12.34700 33.44000 44.22200
H  -8.77900 34.89200 40.42300
H  -5.75800 31.84800 41.18900
H  -5.78200 32.57800 42.83900
H  -4.92100 33.37700 41.47600

