158

Mg 24.65600 -4.33600 45.48200
C  26.76600 -1.97800 43.95200
C  22.19500 -3.48600 43.17600
C  22.92600 -7.22600 46.35400
C  27.41300 -5.54800 47.17700
N  24.58000 -2.84200 43.83700
C  25.50400 -1.95900 43.38900
C  25.05100 -1.04000 42.27100
C  23.47000 -1.44100 42.19500
C  23.36300 -2.68200 43.13900
C  22.59200 -0.24000 42.73800
C  25.81300 -1.42300 40.93200
C  26.53100 -0.28300 40.17000
H  26.20500 -0.32400 38.70800
N  22.71400 -5.14300 44.94700
C  21.87900 -4.61900 43.97700
C  20.70300 -5.47000 43.92300
C  20.81800 -6.49600 44.89700
C  22.16400 -6.37500 45.48600
C  19.46100 -5.15100 43.12800
C  19.81300 -7.57000 45.16900
O  18.72800 -7.62400 44.51300
C  19.96400 -8.58500 46.24300
N  25.02400 -6.06500 46.65200
C  24.16400 -7.08500 46.91000
C  24.85100 -8.25500 47.64600
C  26.29600 -7.77800 47.79900
C  26.25000 -6.37400 47.20200
C  24.07800 -8.82700 48.89000
C  27.47200 -8.67800 47.24700
C  28.54000 -9.07800 48.35600
N  26.66600 -3.86200 45.69600
C  27.67100 -4.31500 46.47300
C  28.90700 -3.59900 46.30300
C  28.58600 -2.72700 45.28300
C  27.19600 -2.86500 45.02700
C  30.21100 -3.86500 47.03300
C  29.14700 -1.72300 44.34900
O  30.29900 -1.21500 44.22200
C  27.93800 -1.20100 43.57300
C  27.86700 0.22900 43.97600
O  27.52400 0.70300 45.02300
O  28.35400 1.02500 42.90200
C  28.86200 2.42300 43.12200
H  21.44500 -3.26100 42.41400
H  22.49000 -8.21800 46.49200
H  28.31500 -6.09900 47.45100
H  25.23600 0.00200 42.53100
H  23.10900 -1.74100 41.21100
H  23.25000 0.62200 42.84700
H  22.16800 -0.43200 43.72400
H  21.76300 0.06500 42.10000
H  25.03700 -1.86000 40.30400
H  26.54800 -2.20200 41.14000
H  27.60400 -0.17700 40.32900
H  26.08400 0.65200 40.50600
H  19.47600 -4.20000 42.59500
H  18.61900 -5.15100 43.81900
H  19.21400 -5.96700 42.44800
H  18.97100 -8.79100 46.64300
H  20.56500 -8.26000 47.09200
H  20.34100 -9.53200 45.85600
H  24.75100 -9.07700 46.93700
H  26.52400 -7.55800 48.84200
H  24.01800 -9.91500 48.91600
H  23.08100 -8.38800 48.94000
H  24.67200 -8.69800 49.79500
H  28.02100 -8.23500 46.41500
H  27.08000 -9.59900 46.81500
H  29.49300 -8.57800 48.18300
H  28.47400 -10.16600 48.36600
H  28.12900 -8.92200 49.35400
H  30.03000 -4.23400 48.04200
H  30.84100 -2.98000 47.12600
H  30.76200 -4.57000 46.41100
H  28.17100 -1.21000 42.50900
H  28.37400 3.02000 42.35200
H  29.93200 2.54300 42.95300
H  28.63700 2.76000 44.13400
Mg 1.39700 42.61600 25.83500
C  3.54100 42.74200 28.51200
C  -1.22400 42.40800 28.05900
C  -0.71500 42.31900 23.22200
C  4.06900 42.66000 23.63300
N  1.19900 42.61800 28.06100
C  2.24900 42.67900 28.94100
C  1.66600 42.71700 30.39000
C  0.18800 42.41800 30.26500
C  0.00800 42.53600 28.72400
C  -0.14800 40.98400 30.65500
C  2.06000 44.08600 31.12300
C  2.03600 43.95800 32.63200
H  0.74100 44.00200 33.38800
N  -0.73500 42.60500 25.65100
C  -1.59000 42.44300 26.70400
C  -2.97100 42.31800 26.17300
C  -2.84800 42.35800 24.71800
C  -1.40500 42.38800 24.46400
C  -4.10700 42.01200 27.13000
C  -3.95600 42.38400 23.67600
O  -3.69700 42.35200 22.42200
C  -5.42300 42.37000 24.05500
N  1.57100 42.62900 23.70700
C  0.61400 42.36900 22.86900
C  1.15800 41.99300 21.51800
C  2.60300 42.55000 21.59400
C  2.77600 42.68000 23.07300
C  1.04300 40.45800 21.11100
C  2.90900 43.85500 20.79200
C  2.95700 43.94300 19.29900
N  3.42400 42.67000 25.98800
C  4.38700 42.79000 25.02900
C  5.67100 42.97200 25.62000
C  5.40200 42.87000 27.04900
C  4.01600 42.73400 27.19400
C  7.02400 43.13800 25.08400
C  6.04900 42.78900 28.30000
O  7.20900 42.67400 28.56700
C  4.89700 42.72100 29.35400
C  4.95100 41.49000 30.28000
O  4.71100 40.35900 30.02200
O  5.49300 41.87000 31.45500
C  5.86200 40.74300 32.24700
H  -2.04300 42.41300 28.78100
H  -1.35000 42.07700 22.36700
H  4.89000 42.66300 22.91200
H  2.13900 41.87400 30.89400
H  -0.32600 43.21900 30.79600
H  -0.36700 40.31600 29.82200
H  -1.04300 40.87800 31.26800
H  0.65900 40.53000 31.23000
H  1.19500 44.73600 30.99400
H  2.97000 44.51300 30.70100
H  2.63800 44.79900 32.97600
H  2.64000 43.14700 33.03900
H  -3.97900 41.02700 27.57800
H  -4.99700 41.85300 26.52200
H  -4.19700 42.73900 27.93800
H  -6.05600 42.51800 23.18000
H  -5.52200 43.13100 24.83000
H  -5.84700 41.47900 24.51700
H  0.57400 42.61900 20.84300
H  3.26400 41.77200 21.21100
H  0.69800 40.36700 20.08200
H  0.29800 39.94000 21.71500
H  2.00400 39.95800 21.23300
H  3.95300 44.10200 20.98600
H  2.33800 44.68600 21.20600
H  2.24300 44.68600 18.94500
H  2.71500 42.96400 18.88600
H  3.95100 44.13800 18.89600
H  7.51700 43.77000 25.82200
H  6.99200 43.74100 24.17700
H  7.59700 42.23500 24.87300
H  4.88900 43.67700 29.87700
H  5.08000 40.00400 32.42500
H  6.20400 40.96300 33.25800
H  6.74900 40.30000 31.79500

