158

Mg 47.20200 16.98200 28.62400
C  44.95100 16.48600 31.43800
C  48.96200 19.19800 30.50100
C  48.66900 17.89900 25.74600
C  44.87400 15.19000 26.74700
N  46.95900 17.73900 30.78700
C  46.10600 17.30000 31.77400
C  46.45500 17.84800 33.16900
C  47.62600 18.75100 32.73300
C  47.91000 18.58400 31.26200
C  47.35600 20.28700 32.92500
C  46.75100 16.65000 34.05600
C  46.11200 16.61900 35.46500
H  45.81700 18.00400 36.13900
N  48.55900 18.40200 28.22100
C  49.17600 19.21400 29.10800
C  50.09800 20.03300 28.32200
C  50.07600 19.60200 27.00300
C  49.02300 18.64900 26.94000
C  51.09400 20.92300 29.00000
C  50.95300 19.97300 25.78800
O  50.87300 19.43100 24.69700
C  52.00500 20.95100 25.86500
N  46.73800 16.61900 26.62200
C  47.58600 17.04800 25.64700
C  47.38200 16.39400 24.33500
C  46.13200 15.46800 24.56300
C  45.86500 15.78600 26.03300
C  47.30500 17.30500 23.03500
C  46.41500 14.02900 24.11700
C  45.41300 13.36400 23.11300
N  45.30800 15.94000 28.96000
C  44.50900 15.24400 28.09900
C  43.39300 14.69500 28.83100
C  43.50900 15.15000 30.16500
C  44.72700 15.91600 30.18000
C  42.20100 13.99000 28.29500
C  42.84800 15.22800 31.43300
O  41.83100 14.70200 31.92800
C  43.78700 16.00200 32.41100
C  42.98700 17.14800 32.94400
O  42.39700 17.99200 32.28400
O  42.84300 17.00400 34.30900
C  42.12000 18.14700 34.88300
H  49.62000 19.78900 31.14100
H  49.31700 17.89700 24.86700
H  44.33900 14.56500 26.02900
H  45.60100 18.43400 33.50900
H  48.50800 18.49000 33.31800
H  46.43400 20.52500 33.45600
H  47.25800 20.70900 31.92500
H  48.18100 20.71000 33.49900
H  47.81800 16.54100 34.24800
H  46.37100 15.75100 33.57000
H  46.77900 16.04100 36.10400
H  45.11000 16.19400 35.39700
H  51.06600 21.13600 30.06900
H  51.06100 21.87100 28.46300
H  52.03700 20.43000 28.76600
H  51.56800 21.88400 26.21900
H  52.40800 21.15400 24.87300
H  52.84600 20.60800 26.46800
H  48.21300 15.74000 24.07000
H  45.36100 16.02100 24.02800
H  46.36800 17.26400 22.47900
H  48.16300 17.00200 22.43500
H  47.44800 18.37400 23.19100
H  46.70600 13.35300 24.92100
H  47.38100 14.04400 23.61200
H  44.46200 13.86200 23.30200
H  45.29900 12.29400 23.28800
H  45.75100 13.61300 22.10700
H  42.39200 13.65300 27.27600
H  41.29300 14.59200 28.27300
H  42.01000 13.04900 28.81200
H  44.10600 15.34000 33.21600
H  42.70700 19.03000 34.63300
H  42.03300 18.08000 35.96800
H  41.12700 18.23700 34.44400
Mg 10.27400 47.67900 26.66100
C  8.11300 47.95900 29.49300
C  12.89700 48.61300 28.47900
C  12.01900 47.43600 23.88300
C  7.21900 47.19900 24.79500
N  10.40800 48.31600 28.66800
C  9.48000 48.31100 29.69200
C  10.14600 48.55300 31.03700
C  11.50300 49.22100 30.60900
C  11.62800 48.70800 29.17000
C  11.70700 50.76500 30.72400
C  10.32200 47.26800 31.85600
C  10.27000 47.47800 33.36700
H  10.20700 46.22500 34.31500
N  12.24500 47.96400 26.24600
C  13.22600 48.26100 27.16800
C  14.50900 48.08300 26.46800
C  14.22200 47.78200 25.13900
C  12.76300 47.72900 25.02200
C  15.77100 48.27500 27.10700
C  15.14600 47.55400 24.05400
O  14.73300 47.40700 22.88300
C  16.65600 47.63100 24.18200
N  9.64400 47.55700 24.55200
C  10.61000 47.32500 23.62500
C  9.95000 47.03100 22.32000
C  8.44300 46.86500 22.60600
C  8.37100 47.14000 24.09500
C  10.29100 48.01600 21.16000
C  7.81100 45.52300 22.26700
C  6.30800 45.64100 21.92400
N  8.05400 47.58300 26.98800
C  6.99900 47.33800 26.19100
C  5.71700 47.32600 26.97500
C  6.13300 47.59800 28.23700
C  7.57000 47.62100 28.22000
C  4.30900 47.02500 26.39500
C  5.67600 47.87600 29.62800
O  4.56900 47.92900 30.17700
C  6.99700 47.82900 30.44000
C  7.15000 46.50800 31.10800
O  7.59300 45.48800 30.58700
O  6.72300 46.63500 32.38700
C  6.63700 45.39400 32.97700
H  13.76500 48.87600 29.08700
H  12.60800 47.18000 23.00000
H  6.32000 47.25500 24.17700
H  9.63300 49.24800 31.70300
H  12.30500 48.92900 31.28700
H  11.58800 51.22100 29.74100
H  12.65400 50.91700 31.24400
H  10.88300 51.17100 31.31100
H  11.32800 46.88600 31.68100
H  9.63100 46.48300 31.54800
H  9.31600 47.97500 33.54700
H  11.15100 48.07200 33.60900
H  15.81800 48.24400 28.19600
H  15.98500 49.33000 26.93800
H  16.59100 47.61800 26.81700
H  17.07100 47.66500 23.17400
H  16.84400 46.70800 24.73100
H  16.86300 48.55600 24.71800
H  10.36500 46.05700 22.06100
H  7.99700 47.77100 22.19700
H  10.75400 48.92600 21.53900
H  9.36900 48.32500 20.66600
H  10.91300 47.43300 20.48100
H  7.84300 44.74700 23.03100
H  8.32900 45.08500 21.41400
H  6.00900 46.66300 22.15700
H  5.70300 44.92900 22.48500
H  6.15500 45.54500 20.84900
H  3.87200 47.95700 26.03500
H  3.73300 46.49000 27.15000
H  4.47400 46.34700 25.55800
H  6.85000 48.51400 31.27500
H  6.27600 45.57700 33.98800
H  7.58800 44.86100 32.98300
H  5.82300 44.88200 32.46300

