158

Mg -0.48500 7.69500 27.21100
C  -0.21500 10.15900 29.70200
C  0.07700 5.33800 29.68700
C  -0.55200 5.52400 24.77000
C  -0.55700 10.35800 24.78500
N  -0.13900 7.70400 29.47000
C  -0.31100 8.89000 30.21300
C  -0.48700 8.51900 31.66300
C  -0.02000 6.98800 31.74800
C  -0.07500 6.59600 30.24800
C  1.36700 6.71900 32.39100
C  -1.91200 8.81300 32.27200
C  -2.19200 8.53500 33.75700
H  -0.93000 8.31200 34.66800
N  -0.31100 5.73100 27.20000
C  -0.08700 4.90700 28.30800
C  0.02100 3.54000 27.80000
C  -0.25300 3.53300 26.40600
C  -0.43000 5.00600 26.05700
C  0.32000 2.33400 28.67200
C  -0.31500 2.36400 25.40900
O  -0.67300 2.64500 24.28300
C  -0.17500 0.97800 25.79300
N  -0.62600 7.94200 25.07100
C  -0.70000 6.88300 24.26200
C  -0.89500 7.32200 22.75200
C  -1.08500 8.87700 22.86200
C  -0.70000 9.06900 24.32700
C  0.15900 6.80300 21.74600
C  -2.47300 9.36500 22.57000
C  -2.62900 10.68500 21.85600
N  -0.26100 9.79100 27.16700
C  -0.39500 10.75500 26.14200
C  -0.20600 12.07600 26.73200
C  -0.03700 11.88700 28.08100
C  -0.09300 10.45700 28.34600
C  -0.26200 13.32200 25.94200
C  0.14300 12.57400 29.29300
O  0.30700 13.79800 29.58300
C  -0.03800 11.50000 30.42800
C  1.04800 11.49300 31.46300
O  2.13100 10.98800 31.25300
O  0.64100 12.04400 32.62600
C  1.62400 12.09400 33.70200
H  0.20100 4.47500 30.34500
H  -0.51200 4.95600 23.83800
H  -0.73900 11.19600 24.10900
H  0.12600 9.17700 32.27900
H  -0.84700 6.49900 32.26200
H  1.13000 6.14800 33.28900
H  1.75700 7.70900 32.62800
H  1.99100 6.19100 31.67000
H  -2.53200 8.13000 31.69100
H  -2.17900 9.87000 32.24100
H  -2.71700 7.58000 33.76900
H  -2.76800 9.33400 34.22500
H  -0.60700 1.76200 28.68600
H  0.69900 2.58100 29.66400
H  1.07100 1.74100 28.14800
H  0.73100 0.75200 26.35500
H  -0.04000 0.35900 24.90600
H  -1.05900 0.73500 26.38300
H  -1.82900 6.83400 22.47100
H  -0.33100 9.47300 22.34800
H  0.50900 7.36500 20.88000
H  -0.18100 5.81600 21.43400
H  1.04300 6.49600 22.30500
H  -2.95400 9.35500 23.54800
H  -2.95900 8.69100 21.86400
H  -1.67300 11.20400 21.78700
H  -3.35600 11.26500 22.42400
H  -3.01500 10.63200 20.83800
H  -1.27900 13.30700 25.55000
H  0.54200 13.50800 25.23100
H  -0.10100 13.99300 26.78600
H  -0.93000 11.76100 30.99800
H  1.03200 11.67900 34.51700
H  2.03400 13.07300 33.95000
H  2.42600 11.37400 33.54000
Mg 54.81900 25.15200 43.58100
C  52.05300 27.37500 43.22600
C  52.95200 22.76500 41.97900
C  57.62400 23.42800 43.08000
C  56.67200 27.98000 44.72000
N  52.72100 25.09500 42.85300
C  51.83300 26.09000 42.69700
C  50.49000 25.65600 42.01900
C  50.73300 24.08000 42.02300
C  52.19300 23.99800 42.26100
C  49.93200 23.22600 43.09000
C  50.20500 26.24800 40.62000
C  51.25700 27.02900 39.86300
H  51.92800 26.15100 38.74100
N  55.24600 23.38200 42.63100
C  54.29800 22.46300 42.11200
C  54.97500 21.15700 41.91800
C  56.30900 21.30500 42.39200
C  56.47600 22.73700 42.70800
C  54.28300 19.94600 41.27300
C  57.28300 20.13600 42.33300
O  56.90600 19.03300 42.02800
C  58.64300 20.21600 42.87900
N  56.91400 25.64100 43.75100
C  57.87600 24.74200 43.54900
C  59.32100 25.40900 43.70400
C  58.93200 26.84700 44.22100
C  57.44700 26.89600 44.24500
C  60.27500 24.63800 44.61300
C  59.36300 28.00500 43.22300
C  60.26800 29.14100 43.69000
N  54.46600 27.22000 44.10100
C  55.27100 28.16200 44.65700
C  54.48300 29.32200 44.99700
C  53.19200 29.03200 44.46300
C  53.28000 27.81800 43.85300
C  54.88600 30.38300 45.81000
C  51.85500 29.51300 44.25500
O  51.37700 30.56000 44.52800
C  50.99500 28.46900 43.40600
C  50.67600 29.27500 42.14300
O  51.45200 29.99800 41.52600
O  49.33700 29.06900 41.84400
C  48.72400 29.96000 40.74800
H  52.29200 22.13300 41.38100
H  58.51300 22.79700 43.13800
H  57.27700 28.76200 45.18300
H  49.63100 25.84200 42.66300
H  50.56800 23.58900 41.06400
H  49.65100 22.25200 42.68900
H  48.99300 23.74900 43.27300
H  50.51300 23.12100 44.00600
H  49.32200 26.88700 40.64200
H  49.98400 25.47000 39.88900
H  52.10600 27.38600 40.44500
H  50.69100 27.86100 39.44400
H  54.81800 19.42400 40.48000
H  53.50400 20.39600 40.65700
H  53.75000 19.29500 41.96500
H  59.14900 19.33700 43.27800
H  58.48900 20.90000 43.71400
H  59.23100 20.72500 42.11500
H  59.81500 25.50100 42.73700
H  59.25400 27.13500 45.22100
H  60.48900 25.13500 45.55900
H  61.19500 24.27400 44.15700
H  59.71400 23.74500 44.88700
H  58.50800 28.42400 42.69300
H  59.97000 27.57600 42.42600
H  61.31600 29.08700 43.39300
H  60.29600 29.27500 44.77100
H  59.88100 29.99000 43.12700
H  55.33000 31.20600 45.25100
H  55.54600 30.07700 46.62200
H  53.94300 30.81300 46.14900
H  50.07100 28.11600 43.86300
H  47.73000 30.09900 41.17100
H  48.55600 29.43100 39.81000
H  49.18300 30.93800 40.60300

