158

Mg -10.00500 40.06300 43.15200
C  -8.69300 37.11500 42.12500
C  -7.87800 41.74100 41.02200
C  -11.91500 42.95400 43.40000
C  -12.67400 38.33500 44.61800
N  -8.60500 39.45400 41.56600
C  -8.09600 38.18900 41.41500
C  -6.98400 38.08800 40.42200
C  -6.66600 39.62500 40.15000
C  -7.72900 40.35700 40.97700
C  -5.18400 40.09700 40.56100
C  -7.49500 37.33800 39.16200
C  -6.65600 36.18600 38.58000
H  -5.56400 36.62000 37.58500
N  -9.80100 42.17000 42.48200
C  -8.78100 42.62900 41.63200
C  -9.01000 44.02900 41.40200
C  -10.20300 44.43400 42.07900
C  -10.72100 43.14400 42.74700
C  -8.21200 44.90200 40.41900
C  -10.83700 45.83700 41.93700
O  -10.25300 46.66700 41.22800
C  -12.06600 46.33000 42.66400
N  -12.02800 40.65600 43.85000
C  -12.53400 41.83100 43.92100
C  -14.02000 41.71700 44.46700
C  -14.20100 40.27100 44.81100
C  -12.87600 39.68000 44.41200
C  -14.30300 42.65900 45.70100
C  -15.39100 39.56600 44.08600
C  -16.23800 38.56000 44.91800
N  -10.49100 38.05600 43.54400
C  -11.58000 37.50700 44.13500
C  -11.42300 36.05200 44.20300
C  -10.16200 35.83000 43.40500
C  -9.75000 37.11700 43.00700
C  -12.39500 35.04300 44.76100
C  -9.24800 34.82200 42.82500
O  -9.25100 33.62700 42.85700
C  -8.11100 35.63900 42.16100
C  -6.89200 35.56900 43.04000
O  -6.52600 36.23100 43.99600
O  -6.28600 34.36300 42.78500
C  -4.98100 34.18400 43.40600
H  -7.07200 42.37200 40.64200
H  -12.59300 43.80800 43.34000
H  -13.45800 37.81300 45.17100
H  -6.14400 37.52200 40.82700
H  -6.81000 39.86500 39.09600
H  -5.32100 40.34900 41.61200
H  -4.76200 40.98300 40.08800
H  -4.50600 39.25200 40.44100
H  -7.61100 38.01500 38.31600
H  -8.47700 36.90700 39.35900
H  -7.14900 35.27100 38.25200
H  -5.98000 35.88100 39.37900
H  -8.72400 45.14800 39.48800
H  -7.29900 44.41100 40.08100
H  -7.79800 45.78100 40.91300
H  -12.28900 47.38400 42.49400
H  -11.89700 46.20400 43.73300
H  -12.92700 45.80700 42.24800
H  -14.59600 42.05100 43.60400
H  -14.25400 40.04100 45.87500
H  -14.85100 42.09500 46.45600
H  -14.97300 43.47700 45.43800
H  -13.40200 43.15300 46.06300
H  -14.98700 39.08600 43.19400
H  -16.11800 40.36300 43.93200
H  -15.59600 38.02900 45.62100
H  -16.75200 37.81700 44.30700
H  -17.06400 39.05600 45.42700
H  -12.30000 34.94300 45.84200
H  -12.40200 34.11900 44.18200
H  -13.42700 35.36900 44.63100
H  -7.96400 35.38700 41.11100
H  -5.03400 33.44300 44.20400
H  -4.61300 35.13600 43.78800
H  -4.39000 33.82500 42.56300
Mg -5.75500 24.90000 27.33800
C  -4.09800 26.83900 29.76400
C  -6.54500 22.74500 29.82900
C  -7.23700 22.97100 24.96900
C  -4.54700 26.99400 24.77400
N  -5.34900 24.96000 29.56400
C  -4.71000 25.80400 30.34100
C  -4.75800 25.41500 31.84800
C  -5.56600 24.06200 31.79000
C  -5.88800 23.94600 30.28900
C  -4.99000 22.76300 32.35300
C  -5.27900 26.51400 32.84700
C  -6.43400 26.26800 33.69300
H  -6.19000 25.35400 34.85700
N  -6.72000 23.10000 27.34100
C  -6.90500 22.35600 28.49300
C  -7.54600 21.09900 28.13200
C  -7.74300 21.14600 26.66400
C  -7.28600 22.45100 26.20100
C  -7.90700 19.97800 29.20000
C  -8.33700 20.10100 25.72200
O  -8.52000 20.24900 24.52500
C  -8.50800 18.69900 26.27000
N  -5.80200 24.99800 25.11700
C  -6.59600 24.09100 24.44300
C  -6.87400 24.63100 23.02600
C  -5.89400 25.88900 22.90100
C  -5.34600 25.95500 24.32000
C  -6.58700 23.64100 21.92400
C  -6.64200 27.24000 22.41700
C  -6.22400 27.77300 21.04400
N  -4.47200 26.54600 27.17200
C  -4.01700 27.25000 26.13200
C  -3.13500 28.25600 26.56800
C  -3.13400 28.14800 27.98800
C  -3.91200 27.06400 28.34400
C  -2.44300 29.25900 25.65200
C  -2.68600 28.72100 29.23600
O  -2.09300 29.72400 29.43500
C  -3.22200 27.86700 30.41200
C  -2.15200 27.22700 31.14700
O  -1.46300 26.25400 30.86200
O  -2.00600 27.87000 32.39300
C  -0.80400 27.48800 33.18100
H  -6.84900 22.06500 30.62800
H  -7.75900 22.37200 24.21900
H  -4.25700 27.54800 23.87800
H  -3.73700 25.15600 32.12600
H  -6.57700 24.15000 32.19000
H  -5.78200 22.26400 32.91200
H  -4.12700 22.93100 32.99900
H  -4.57600 22.08300 31.60900
H  -5.39900 27.46100 32.32200
H  -4.48700 26.63200 33.58700
H  -7.27000 25.81500 33.15900
H  -6.83000 27.24000 33.98700
H  -8.90700 19.62600 28.94700
H  -8.04400 20.38800 30.20100
H  -7.18600 19.16200 29.16600
H  -7.53400 18.35600 26.61800
H  -8.88500 18.07800 25.45800
H  -9.37800 18.64700 26.92400
H  -7.91100 24.96600 23.03600
H  -5.11000 25.64300 22.18500
H  -6.49400 22.62300 22.30200
H  -5.89900 23.89300 21.11700
H  -7.52400 23.55000 21.37400
H  -6.32400 28.02800 23.10000
H  -7.73100 27.20900 22.40500
H  -5.79900 26.94800 20.47300
H  -5.39800 28.46200 21.21900
H  -7.09600 28.07800 20.46500
H  -2.89800 29.11100 24.67200
H  -1.40600 29.00800 25.43200
H  -2.57000 30.30700 25.92300
H  -3.78100 28.49100 31.11000
H  -0.82700 28.14400 34.05100
H  0.08200 27.68500 32.57600
H  -0.83900 26.41200 33.35200

