158

Mg 48.03200 35.85900 27.89200
C  46.16300 33.90500 30.16900
C  48.29800 38.18400 30.29100
C  49.56900 37.66100 25.43100
C  47.46300 33.35200 25.42400
N  47.29700 36.02300 29.99100
C  46.65200 35.09600 30.76700
C  46.75600 35.45400 32.31500
C  47.13300 36.95500 32.19300
C  47.50300 37.12800 30.65400
C  46.15300 37.97700 32.71800
C  47.85800 34.53500 33.03000
C  48.00600 34.86200 34.45600
H  46.96700 35.56300 35.20500
N  48.75000 37.71200 27.85100
C  48.93000 38.51700 28.95700
C  49.71700 39.69700 28.58800
C  50.01200 39.55200 27.18600
C  49.45900 38.24200 26.75900
C  50.13500 40.68900 29.64200
C  50.67400 40.56700 26.21300
O  50.68800 40.44800 24.96500
C  51.31100 41.81100 26.83200
N  48.21200 35.63400 25.62600
C  48.92900 36.50800 24.89500
C  49.17300 36.06100 23.45600
C  48.64200 34.59500 23.47300
C  48.03700 34.54700 24.87800
C  48.44900 36.86700 22.32900
C  49.74700 33.45000 23.22700
C  49.31800 32.47700 22.06600
N  47.05600 33.95200 27.78300
C  46.88900 33.07300 26.70700
C  46.21800 31.91900 27.18800
C  45.81300 32.26100 28.48800
C  46.36100 33.48500 28.83400
C  45.77000 30.77100 26.33900
C  45.02600 31.79300 29.62200
O  44.43900 30.70900 29.77400
C  45.14100 32.89800 30.76900
C  45.32000 32.33200 32.12500
O  45.95600 31.35500 32.52200
O  44.52300 33.07600 32.93200
C  44.43100 32.73700 34.31600
H  48.28300 39.01500 30.99900
H  50.21300 38.15600 24.70200
H  47.48400 32.53600 24.70000
H  45.74800 35.40500 32.72800
H  48.03500 37.07100 32.79300
H  46.64100 38.71900 33.35000
H  45.35100 37.59400 33.34900
H  45.59900 38.49800 31.93800
H  48.78700 34.70300 32.48500
H  47.69300 33.46200 32.93400
H  48.90100 35.48000 34.52700
H  48.15000 33.89300 34.93400
H  51.20900 40.55200 29.76900
H  49.68800 40.44200 30.60500
H  49.80600 41.69300 29.37300
H  51.55700 41.88900 27.89100
H  50.78300 42.65700 26.39200
H  52.33200 41.88000 26.45800
H  50.23200 36.02500 23.19700
H  47.86800 34.52100 22.70900
H  49.16000 37.59100 21.93100
H  47.58300 37.42900 22.68100
H  48.16600 36.26300 21.46700
H  49.93200 32.87800 24.13600
H  50.62000 34.00900 22.89200
H  49.95900 32.46400 21.18500
H  48.30900 32.74800 21.75400
H  49.41000 31.43900 22.38800
H  46.71300 30.58700 25.82600
H  44.98300 30.93900 25.60300
H  45.46900 29.95600 26.99700
H  44.14400 33.33800 30.76100
H  43.75200 33.40800 34.84200
H  45.44900 32.70700 34.70400
H  43.96900 31.75500 34.42800
Mg -4.62900 24.80400 25.33300
C  -3.41300 26.13300 28.35300
C  -6.67600 22.58700 27.30500
C  -5.39000 22.99000 22.59300
C  -2.48400 26.74200 23.64800
N  -4.95400 24.28800 27.62000
C  -4.36200 25.09100 28.62500
C  -5.00300 24.74100 29.92600
C  -5.98100 23.45300 29.62200
C  -5.84900 23.43100 28.09700
C  -5.53600 22.05900 30.18500
C  -5.81200 25.93900 30.56500
C  -5.62000 26.14600 32.11400
H  -4.94300 25.09800 33.01400
N  -5.96000 23.19900 24.97200
C  -6.69900 22.49400 25.88900
C  -7.57000 21.64000 25.15800
C  -7.14400 21.66100 23.79900
C  -6.14400 22.66300 23.74900
C  -8.79300 20.99700 25.80200
C  -7.64100 20.79900 22.59500
O  -7.21300 20.90500 21.42200
C  -8.75300 19.80100 22.89100
N  -4.12900 24.90900 23.30500
C  -4.42600 23.96800 22.39200
C  -3.56000 24.21800 21.13700
C  -2.85200 25.54800 21.44900
C  -3.19800 25.82800 22.88300
C  -2.63400 23.06400 20.62100
C  -3.36300 26.80200 20.66700
C  -2.34700 27.48500 19.74700
N  -3.20400 26.17100 25.81900
C  -2.47800 27.04600 25.04200
C  -1.70900 27.93700 25.76900
C  -2.05500 27.66700 27.11500
C  -2.98300 26.53900 27.09800
C  -0.70300 29.02300 25.23100
C  -1.68400 27.98500 28.49600
O  -0.93000 28.75100 29.07300
C  -2.65200 27.05800 29.29200
C  -1.87500 26.23200 30.31200
O  -1.39000 25.11400 30.10400
O  -1.89100 26.89200 31.55500
C  -1.18400 26.19600 32.64700
H  -7.33300 21.94800 27.89800
H  -5.60100 22.42100 21.68600
H  -1.73100 27.29500 23.08200
H  -4.23500 24.45300 30.64400
H  -6.98800 23.67700 29.97400
H  -5.06700 21.55300 29.34100
H  -6.34200 21.45700 30.60500
H  -4.85200 22.17800 31.02500
H  -6.89900 25.85100 30.57300
H  -5.76200 26.83100 29.94100
H  -6.59900 26.18200 32.59300
H  -5.09700 27.09500 32.23000
H  -8.99300 21.38700 26.80000
H  -8.80500 19.91400 25.92400
H  -9.54200 21.52500 25.21200
H  -9.08800 19.26800 22.00100
H  -9.53600 20.46700 23.25400
H  -8.39100 19.05700 23.60000
H  -4.33100 24.41400 20.39200
H  -1.78200 25.48400 21.25100
H  -3.03000 22.67500 19.68400
H  -2.68100 22.29200 21.38900
H  -1.61100 23.37400 20.40700
H  -3.78000 27.54200 21.35000
H  -4.26100 26.51800 20.11800
H  -2.21900 28.54300 19.97900
H  -2.74700 27.42900 18.73500
H  -1.38600 26.97300 19.77200
H  -0.12300 28.51400 24.46100
H  -0.11200 29.47600 26.02700
H  -1.25600 29.84600 24.77900
H  -3.31100 27.70000 29.87800
H  -0.19300 26.65000 32.63100
H  -0.95900 25.12900 32.62300
H  -1.60300 26.51600 33.60100

