158

Mg 7.87400 2.20200 27.87100
C  9.72700 0.83800 30.60200
C  6.11700 4.14300 30.05500
C  6.23300 3.44400 25.14300
C  9.40300 -0.31800 25.78900
N  7.94600 2.44400 30.04500
C  8.85000 1.94400 30.91300
C  8.70900 2.54400 32.28200
C  7.34400 3.32900 32.18800
C  7.04800 3.25700 30.62800
C  6.17700 2.68500 33.01800
C  9.89400 3.42400 32.68500
C  10.34500 3.05400 34.14300
H  10.35500 4.25200 35.09100
N  6.37000 3.66400 27.65200
C  5.80200 4.37100 28.67200
C  4.99900 5.42100 28.13100
C  4.88300 5.07100 26.75800
C  5.87500 4.04400 26.42500
C  4.18800 6.36000 28.98200
C  3.91000 5.67900 25.69100
O  3.90400 5.39800 24.51200
C  2.95800 6.71900 26.17400
N  7.75300 1.57600 25.76500
C  7.07800 2.42800 24.84000
C  7.37800 1.84100 23.48000
C  8.53000 0.81000 23.64600
C  8.54800 0.67600 25.16900
C  6.06400 1.28600 22.77300
C  9.93200 1.26700 23.23100
C  10.83400 0.18200 22.60700
N  9.20300 0.54300 28.07400
C  9.79100 -0.35800 27.17300
C  10.60400 -1.29000 27.90800
C  10.78200 -0.83400 29.23900
C  9.83200 0.25800 29.29900
C  11.22800 -2.40700 27.32000
C  11.42600 -0.92100 30.52100
O  12.39600 -1.65000 30.77900
C  10.81200 0.13500 31.47400
C  10.30000 -0.51200 32.63900
O  9.19800 -1.03900 32.58400
O  10.97100 -0.13200 33.73300
C  10.44700 -0.54800 35.08000
H  5.52500 4.71000 30.77800
H  5.82900 3.96700 24.27400
H  9.94500 -0.99000 25.11900
H  8.57100 1.84200 33.10400
H  7.47000 4.33400 32.59200
H  6.61500 1.90300 33.63900
H  5.49000 2.13600 32.37400
H  5.67200 3.43900 33.62100
H  9.76000 4.50200 32.59900
H  10.71200 3.17900 32.00700
H  11.38700 2.78800 33.96800
H  9.79700 2.26100 34.65200
H  3.15000 6.06400 29.13400
H  4.21800 7.39800 28.64900
H  4.59600 6.34700 29.99200
H  2.32700 6.97200 25.32200
H  3.55200 7.61000 26.37700
H  2.44600 6.34000 27.05800
H  7.72100 2.71800 22.93000
H  8.31900 -0.20300 23.30200
H  6.00900 0.20700 22.91600
H  5.97700 1.56900 21.72400
H  5.13400 1.62400 23.23100
H  10.40900 1.79500 24.05700
H  9.80500 1.98500 22.42100
H  11.34100 0.59900 21.73700
H  10.29700 -0.72000 22.31100
H  11.62600 -0.10500 23.29800
H  11.90100 -2.93000 27.99900
H  11.89400 -2.00200 26.55800
H  10.43000 -3.01800 26.89600
H  11.63100 0.83400 31.64100
H  11.25700 -0.95300 35.68800
H  9.74800 -1.38100 35.15800
H  10.00200 0.24200 35.68400
Mg -5.24000 24.93000 25.62900
C  -3.99800 26.18600 28.50000
C  -7.13200 22.65900 27.55700
C  -6.42300 23.49100 22.78900
C  -2.96600 26.81100 23.82300
N  -5.47200 24.41700 27.81000
C  -4.84200 25.14300 28.82600
C  -5.31000 24.66900 30.20500
C  -6.11300 23.38000 29.81500
C  -6.22100 23.42200 28.31500
C  -5.38400 21.99000 30.21200
C  -6.17300 25.75600 30.97200
C  -5.96400 25.88100 32.58500
H  -5.21400 24.78700 33.22300
N  -6.50600 23.33600 25.21200
C  -7.27000 22.60700 26.14200
C  -8.30400 21.81500 25.48100
C  -7.93600 21.83500 24.11200
C  -6.87900 22.89200 23.98900
C  -9.43600 21.21700 26.17300
C  -8.48000 21.07600 22.99600
O  -7.89600 21.07800 21.90700
C  -9.59600 19.96100 23.14800
N  -4.61000 24.97100 23.52700
C  -5.42100 24.40200 22.58600
C  -5.00300 24.87600 21.24700
C  -3.97900 26.09000 21.49400
C  -3.76100 25.92300 23.04600
C  -4.31500 23.77700 20.45300
C  -4.67200 27.45300 21.11300
C  -3.86500 28.29400 20.10900
N  -3.72800 26.20600 26.02900
C  -2.97100 27.00000 25.20000
C  -2.11600 27.83100 25.96600
C  -2.52700 27.56700 27.26400
C  -3.56800 26.58900 27.23800
C  -1.01500 28.81200 25.48700
C  -2.29400 27.90200 28.67600
O  -1.53100 28.73200 29.17200
C  -3.21100 27.06600 29.50900
C  -2.32400 26.18200 30.28500
O  -1.69800 25.22600 29.84900
O  -2.25800 26.59900 31.58900
C  -1.28000 25.91900 32.43900
H  -7.86600 22.04800 28.08700
H  -6.78700 23.08100 21.84400
H  -2.39500 27.53600 23.24000
H  -4.39500 24.42800 30.74700
H  -7.04200 23.40600 30.38500
H  -5.48400 21.29300 29.38000
H  -5.71800 21.45500 31.10100
H  -4.30600 22.15000 30.21300
H  -7.19400 25.66500 30.60200
H  -5.90100 26.72100 30.54500
H  -6.91100 25.80000 33.11900
H  -5.57800 26.84900 32.90400
H  -9.32500 20.13300 26.19300
H  -10.33900 21.37500 25.58500
H  -9.65700 21.55400 27.18600
H  -9.78700 19.39800 22.23400
H  -10.45800 20.41600 23.63500
H  -9.14700 19.37300 23.94800
H  -5.93800 24.98500 20.69700
H  -3.06600 25.96400 20.91200
H  -4.39700 24.06300 19.40400
H  -4.84400 22.83000 20.56300
H  -3.28500 23.63600 20.78100
H  -4.94800 28.04800 21.98300
H  -5.59200 27.23300 20.57100
H  -3.58200 29.20800 20.63100
H  -4.42600 28.49400 19.19600
H  -2.86500 27.94900 19.84800
H  -1.43800 29.81300 25.40200
H  -0.65500 28.52500 24.49900
H  -0.15900 28.81200 26.16200
H  -3.87100 27.62400 30.17400
H  -1.75400 25.13400 33.02800
H  -0.93300 26.65100 33.16800
H  -0.37400 25.58200 31.93600

