158

Mg 17.50300 -1.29000 27.17500
C  16.53400 0.56700 29.93900
C  19.44000 -3.29800 29.12900
C  18.73300 -2.82200 24.39200
C  15.82000 1.04200 25.12000
N  17.97100 -1.30200 29.23400
C  17.38100 -0.52500 30.24800
C  17.84700 -0.92900 31.67800
C  18.88100 -2.08400 31.31800
C  18.80200 -2.18900 29.79200
C  20.33900 -1.69100 31.73000
C  16.73000 -1.35700 32.67900
C  16.75000 -0.77800 34.14400
H  18.02400 -0.34200 34.76500
N  18.74300 -3.00700 26.82300
C  19.43200 -3.68900 27.78600
C  20.10900 -4.82400 27.18100
C  19.87400 -4.77000 25.81900
C  19.09700 -3.47500 25.56400
C  21.12300 -5.74000 27.88100
C  20.23000 -5.77000 24.70000
O  19.88200 -5.64500 23.55000
C  21.04000 -7.06200 24.96500
N  17.32300 -0.86000 25.07800
C  17.91700 -1.72300 24.14200
C  17.80100 -0.96000 22.78300
C  16.54500 -0.06000 22.96200
C  16.60500 0.10200 24.45800
C  19.17300 -0.30300 22.41900
C  15.26600 -0.71500 22.37200
C  14.37500 0.34300 21.71500
N  16.34500 0.50600 27.40300
C  15.65400 1.27000 26.51900
C  14.97600 2.29200 27.24900
C  15.32600 2.09400 28.54100
C  16.09900 0.92400 28.64100
C  14.02300 3.35900 26.67300
C  15.03800 2.54200 29.93500
O  14.34100 3.46600 30.41700
C  15.88100 1.56200 30.85400
C  16.92300 2.45800 31.62800
O  17.96100 2.89600 31.12400
O  16.45000 2.58000 32.93200
C  17.31000 3.54400 33.69900
H  20.09900 -3.93900 29.72000
H  19.09200 -3.28800 23.47200
H  15.18900 1.70900 24.52800
H  18.40300 -0.11200 32.13800
H  18.65300 -3.04000 31.78900
H  20.40600 -0.95400 32.53000
H  21.03200 -1.43600 30.92900
H  20.86400 -2.49100 32.25200
H  16.64100 -2.43700 32.79700
H  15.78300 -1.08700 32.21300
H  16.31000 -1.53300 34.79600
H  16.10900 0.10300 34.09300
H  20.56700 -6.67700 27.90000
H  21.40800 -5.56400 28.91900
H  22.05000 -5.86000 27.32000
H  21.17300 -7.75800 24.13700
H  20.54200 -7.55900 25.79800
H  22.05700 -6.84100 25.28600
H  17.61200 -1.69500 22.00100
H  16.77000 0.87200 22.44500
H  19.06600 0.78100 22.46300
H  19.45900 -0.67800 21.43700
H  19.88000 -0.57800 23.20200
H  14.74900 -1.06000 23.26700
H  15.43100 -1.41600 21.55400
H  14.86400 1.31700 21.67600
H  13.37200 0.36700 22.14000
H  14.25600 0.14800 20.64900
H  14.40800 4.37200 26.79300
H  13.12100 3.26400 27.27800
H  13.67500 3.36400 25.64000
H  15.16900 1.07600 31.52100
H  17.16100 4.47400 33.15000
H  18.33500 3.17700 33.74100
H  17.03700 3.72400 34.73900
Mg 26.19400 50.69200 26.46600
C  24.00100 51.82800 29.04400
C  28.37200 49.83500 28.88300
C  28.42800 50.26300 24.05800
C  23.92700 52.25900 24.12300
N  26.27300 51.00100 28.82400
C  25.20700 51.29900 29.59700
C  25.57700 51.09600 31.14600
C  27.03100 50.40400 31.02200
C  27.27300 50.40300 29.50200
C  28.25200 51.05000 31.81600
C  24.54100 50.25900 31.93800
C  24.84400 49.86500 33.37900
H  24.16300 50.71200 34.46500
N  28.08600 49.98000 26.43700
C  28.84300 49.68200 27.55900
C  30.14500 49.10800 27.13900
C  30.24400 49.39400 25.75700
C  28.91500 49.89600 25.31500
C  31.08400 48.32900 28.00800
C  31.36400 49.18200 24.89800
O  31.34900 49.39800 23.71200
C  32.69700 48.73900 25.44500
N  26.15000 51.14500 24.40000
C  27.19000 50.83800 23.64200
C  27.08700 51.38900 22.18300
C  25.58400 51.85800 22.15500
C  25.16900 51.75500 23.62000
C  28.21600 52.47000 21.89200
C  24.62000 51.05800 21.22700
C  24.12400 49.63600 21.66600
N  24.33300 51.68600 26.53700
C  23.52700 52.24100 25.50300
C  22.29100 52.70300 26.10300
C  22.43900 52.57000 27.46600
C  23.65900 51.95000 27.69100
C  21.09000 53.21200 25.37100
C  21.79000 52.82900 28.77400
O  20.77800 53.43200 29.06700
C  22.82400 52.38500 29.83400
C  23.15000 53.58000 30.64900
O  23.98100 54.46700 30.46400
O  22.43600 53.56900 31.78400
C  22.59900 54.71600 32.78600
H  28.94500 49.21100 29.57300
H  29.12000 50.13200 23.22400
H  23.24800 52.60400 23.34000
H  25.77800 52.02600 31.67700
H  26.95300 49.35200 31.29600
H  29.13200 51.19600 31.19000
H  28.54200 50.25900 32.50700
H  28.00700 51.96900 32.35000
H  24.36900 49.37300 31.32700
H  23.60400 50.81400 31.97200
H  25.90500 49.99200 33.59600
H  24.61700 48.79900 33.36300
H  31.37900 47.33400 27.67400
H  30.63900 48.28400 29.00200
H  32.03300 48.85600 28.10900
H  32.65000 47.78300 25.96600
H  32.93900 49.52600 26.15900
H  33.44400 48.79700 24.65400
H  27.40200 50.52000 21.60600
H  25.56600 52.86600 21.74000
H  27.78200 53.28500 21.31400
H  28.95400 52.05600 21.20500
H  28.65100 52.96000 22.76300
H  25.07100 50.85400 20.25600
H  23.71700 51.64500 21.05800
H  24.24400 48.96600 20.81500
H  23.09900 49.53400 22.02400
H  24.69900 49.25500 22.51000
H  21.13100 53.16100 24.28300
H  20.91800 54.21300 25.76700
H  20.27200 52.54900 25.65400
H  22.39400 51.65300 30.51800
H  22.48900 55.65300 32.24000
H  23.53000 54.67500 33.35200
H  21.84100 54.83300 33.56100

