158

Mg 44.01100 3.59300 47.67100
C  41.87800 6.37200 47.09000
C  41.34800 1.55900 47.23500
C  46.13700 1.03300 47.72100
C  46.74600 5.88100 47.35500
N  41.84400 3.90300 47.17800
C  41.17600 5.12700 47.06700
C  39.69800 4.81400 46.84100
C  39.50100 3.41800 47.35200
C  40.98600 2.87100 47.36200
C  38.67300 3.14500 48.60700
C  39.29800 4.97500 45.35500
C  38.37500 6.14500 45.05300
H  37.64500 6.07800 43.63200
N  43.74700 1.54100 47.53300
C  42.59700 0.88900 47.44300
C  42.81200 -0.57300 47.57800
C  44.20600 -0.73800 47.75500
C  44.78300 0.63800 47.66100
C  41.70800 -1.65900 47.45900
C  44.93800 -2.08400 48.00300
O  44.30500 -3.13800 47.86100
C  46.46200 -2.22800 48.34700
N  46.13400 3.46500 47.40900
C  46.74100 2.22900 47.65000
C  48.23000 2.42500 47.80300
C  48.44600 3.92900 47.38100
C  47.03100 4.49300 47.48000
C  48.77400 2.15800 49.20000
C  49.09900 4.14600 46.02900
C  48.48500 3.36800 44.77100
N  44.32500 5.68000 47.22600
C  45.44000 6.47100 47.23500
C  45.05900 7.88100 47.16900
C  43.68700 7.83500 47.08500
C  43.25100 6.52300 47.10700
C  46.00000 9.01400 47.15900
C  42.47600 8.67300 47.03100
O  42.44900 9.85200 47.01100
C  41.29600 7.76000 46.94100
C  40.28400 8.14700 47.93700
O  40.40200 8.04700 49.14700
O  39.08300 8.50300 47.34400
C  37.87100 8.60100 48.22700
H  40.51200 0.85700 47.22700
H  46.83800 0.20400 47.84300
H  47.51200 6.65200 47.46200
H  39.18200 5.64800 47.31700
H  38.97700 2.81300 46.61100
H  39.38000 3.07300 49.43400
H  37.98200 2.30600 48.52300
H  38.03600 4.00400 48.81400
H  38.80000 4.11600 44.90400
H  40.24200 5.17300 44.84800
H  38.91800 7.05100 44.78200
H  37.74100 6.32400 45.92200
H  42.10500 -2.32200 46.69100
H  40.75500 -1.31100 47.06100
H  41.59400 -2.24200 48.37300
H  47.04900 -2.27100 47.43000
H  46.56700 -3.17700 48.87300
H  46.77600 -1.45900 49.05300
H  48.90400 1.82400 47.19200
H  49.00100 4.47100 48.14700
H  49.33300 1.22200 49.20700
H  48.00400 2.07900 49.96700
H  49.49200 2.93100 49.47500
H  50.11700 3.75900 46.07200
H  49.14500 5.18200 45.69500
H  48.98600 2.46000 44.43600
H  48.64600 3.99600 43.89500
H  47.41600 3.20700 44.90900
H  46.74500 9.05000 47.95400
H  45.37500 9.90700 47.14900
H  46.47400 8.88200 46.18600
H  40.79000 7.95000 45.99500
H  37.97900 7.85500 49.01400
H  37.01700 8.30600 47.61800
H  37.85700 9.62100 48.61100
Mg 36.34900 49.48800 24.99100
C  36.59400 47.92000 28.06400
C  36.01100 52.47600 26.58200
C  36.07200 50.92000 22.02100
C  37.04600 46.41900 23.52400
N  36.34900 50.17400 27.13400
C  36.40000 49.31400 28.23300
C  36.09200 50.01100 29.61400
C  35.78700 51.47100 29.04500
C  36.10800 51.38200 27.46400
C  34.35300 52.03200 29.34800
C  37.30700 49.97300 30.65200
C  36.89600 50.16600 32.13100
H  35.34700 50.15300 32.50700
N  36.10300 51.40200 24.39900
C  35.95400 52.49700 25.13800
C  35.86700 53.68000 24.37700
C  35.80400 53.27700 23.02300
C  36.01700 51.80100 23.08900
C  35.72600 55.07300 24.96000
C  35.45100 54.02000 21.83700
O  35.45300 53.50300 20.71500
C  35.13900 55.45900 21.90100
N  36.36100 48.74400 23.00600
C  36.31900 49.54300 21.92600
C  36.48700 48.80600 20.57200
C  36.92600 47.34400 21.06700
C  36.75400 47.49400 22.59300
C  35.08000 48.85500 19.93800
C  38.23400 46.89500 20.53800
C  39.44500 46.83300 21.46100
N  36.74900 47.50900 25.56100
C  36.91400 46.37600 24.90100
C  37.16800 45.28300 25.80300
C  37.04100 45.86100 27.03100
C  36.76800 47.18000 26.82200
C  37.62700 43.90000 25.47800
C  37.11700 45.59100 28.45000
O  37.45500 44.55600 29.02500
C  36.75500 46.86400 29.18300
C  35.55200 46.50800 29.97800
O  34.41000 46.57200 29.50500
O  35.85500 46.04300 31.17400
C  34.78100 45.61900 32.00000
H  35.82800 53.42100 27.09800
H  35.87900 51.32600 21.02600
H  37.25900 45.42900 23.11500
H  35.23100 49.49300 30.03600
H  36.55700 52.12600 29.45300
H  33.81600 51.44000 30.08900
H  33.77300 51.88100 28.43800
H  34.50300 53.07300 29.63400
H  38.00200 50.76500 30.37400
H  37.92100 49.09900 30.43500
H  37.39300 51.07500 32.46900
H  37.37300 49.41800 32.76400
H  34.80900 55.64200 24.80500
H  36.54500 55.65300 24.53700
H  35.79000 55.03900 26.04800
H  35.96400 56.01100 22.35100
H  34.34900 55.61900 22.63500
H  34.85600 55.90800 20.94900
H  37.27500 49.27700 19.98500
H  36.16500 46.62500 20.76200
H  34.94200 47.90900 19.41400
H  34.98800 49.54000 19.09600
H  34.33100 48.86400 20.73100
H  38.42000 47.42500 19.60400
H  38.05200 45.83800 20.34700
H  39.37000 47.73800 22.06500
H  40.25700 47.00200 20.75400
H  39.64900 45.92000 22.02000
H  36.94400 43.15200 25.88100
H  38.57000 43.66900 25.97400
H  37.79300 43.79400 24.40600
H  37.53800 47.19100 29.86700
H  35.05700 45.70400 33.05100
H  34.52600 44.60500 31.69000
H  33.91800 46.26500 31.84200

