158

Mg 8.70200 3.21000 27.47200
C  10.19400 1.72300 30.15500
C  6.76800 5.08300 29.61600
C  7.36600 4.58300 24.81300
C  10.32200 0.82500 25.48600
N  8.41400 3.25800 29.67500
C  9.31600 2.70000 30.61100
C  9.06900 3.28900 32.00600
C  7.85400 4.28200 31.80000
C  7.66200 4.25600 30.24800
C  6.60100 4.08400 32.62300
C  10.32200 3.89100 32.68300
C  10.15500 4.47700 34.09500
H  11.16300 4.11200 35.15600
N  7.29700 4.59200 27.28400
C  6.61200 5.35100 28.22300
C  5.75900 6.27800 27.64900
C  5.80500 6.09900 26.22800
C  6.87000 5.06000 26.05100
C  4.90700 7.23000 28.49800
C  5.02800 6.74200 25.13800
O  5.06500 6.40000 23.96200
C  4.06900 7.88800 25.40400
N  8.91400 2.78100 25.42800
C  8.32800 3.58000 24.54200
C  8.74100 3.24400 23.05900
C  9.66700 1.95200 23.24800
C  9.68600 1.86400 24.79100
C  7.49900 3.11900 22.11000
C  11.16600 2.04500 22.57400
C  11.55300 0.88500 21.54100
N  9.92600 1.50000 27.68300
C  10.52100 0.66200 26.77300
C  11.46600 -0.16700 27.49200
C  11.34600 0.20800 28.82600
C  10.35100 1.20400 28.86800
C  12.43100 -1.22800 26.88700
C  11.75400 -0.11700 30.17600
O  12.56800 -0.86600 30.58700
C  11.13100 0.91500 31.01700
C  10.52600 0.29300 32.22800
O  9.41100 -0.16000 32.34300
O  11.36200 0.44000 33.29200
C  10.84300 0.04500 34.61700
H  6.44000 5.80700 30.36400
H  6.89600 5.02200 23.93000
H  10.80200 0.14000 24.78400
H  8.67700 2.44100 32.56700
H  8.17300 5.30100 32.02100
H  6.42800 4.89400 33.33200
H  6.65500 3.22400 33.29000
H  5.72200 4.06400 31.97900
H  10.65500 4.69200 32.02300
H  11.15200 3.18900 32.59900
H  9.14100 4.44400 34.49300
H  10.32900 5.54400 33.96000
H  5.04500 7.14900 29.57600
H  3.83700 7.05400 28.39000
H  5.24000 8.24000 28.25900
H  4.59400 8.67800 25.94100
H  3.25400 7.58700 26.06300
H  3.54100 8.22200 24.51100
H  9.29300 4.16200 22.85800
H  9.18100 1.04500 22.88900
H  7.16500 2.09800 22.29400
H  7.82400 3.29500 21.08400
H  6.60900 3.67900 22.39900
H  11.92800 2.12200 23.34900
H  11.04700 2.96100 21.99600
H  12.17100 0.14600 22.05300
H  12.02600 1.35900 20.68100
H  10.61700 0.41400 21.24200
H  11.86000 -1.50900 26.00200
H  12.55000 -1.97800 27.66900
H  13.45500 -0.93100 26.65800
H  11.93200 1.51000 31.45600
H  10.69400 0.92100 35.24800
H  11.75700 -0.42900 34.97400
H  9.97800 -0.61400 34.69300
Mg 35.47000 1.20300 30.02000
C  33.17500 2.16700 32.42000
C  37.91700 1.06800 32.58600
C  37.92900 0.95300 27.78700
C  33.15200 1.94400 27.55600
N  35.50200 1.60900 32.27000
C  34.39400 1.89100 33.03200
C  34.75500 2.01600 34.48200
C  36.32400 1.91900 34.51200
C  36.60900 1.50700 33.07600
C  37.11700 3.21400 34.73700
C  34.02800 0.87100 35.29900
C  33.66300 1.25100 36.77500
H  34.81000 1.72600 37.71300
N  37.63600 0.88800 30.13500
C  38.40300 0.83700 31.25900
C  39.80400 0.43300 30.89300
C  39.81400 0.39900 29.46600
C  38.42700 0.85700 29.10200
C  40.96600 0.32500 31.88700
C  40.94600 0.04900 28.48600
O  40.73800 -0.07800 27.28600
C  42.36000 -0.32600 28.95000
N  35.55100 1.52300 27.98600
C  36.68700 1.19900 27.23100
C  36.31300 1.12700 25.68400
C  34.86400 1.66600 25.61500
C  34.44700 1.65800 27.13600
C  37.35000 1.84700 24.81100
C  33.88100 0.88300 24.60000
C  33.62400 1.41700 23.15800
N  33.46800 1.78500 29.97000
C  32.68500 2.07800 28.88100
C  31.37900 2.37800 29.36900
C  31.56300 2.51200 30.74400
C  32.84300 2.13200 31.06300
C  30.13000 2.70900 28.54000
C  30.85800 2.89900 31.99100
O  29.68000 3.30300 32.16700
C  31.98900 2.70600 33.16900
C  32.23400 4.00200 33.76000
O  32.70100 4.97600 33.15700
O  31.89300 4.12600 35.08100
C  32.43200 5.25100 35.82800
H  38.71300 0.93200 33.32100
H  38.60400 0.61500 26.99800
H  32.52800 2.13800 26.68000
H  34.51000 3.02900 34.80000
H  36.77000 1.11100 35.09100
H  37.56100 3.68000 33.85800
H  37.95400 3.08200 35.42200
H  36.60200 4.01100 35.27300
H  34.60200 -0.05500 35.34000
H  33.11900 0.54800 34.79000
H  33.10000 0.49700 37.32500
H  32.97200 2.08300 36.64300
H  40.65600 -0.13700 32.82400
H  41.40300 1.32200 31.94000
H  41.82700 -0.26700 31.57500
H  42.56300 0.34700 29.78300
H  43.17600 -0.26800 28.22900
H  42.24100 -1.34100 29.33000
H  36.27100 0.07900 25.38800
H  34.96500 2.64500 25.14600
H  38.02100 2.47600 25.39600
H  36.92500 2.57400 24.11900
H  37.93400 1.18200 24.17500
H  32.86800 0.87200 25.00200
H  34.25400 -0.14000 24.53900
H  33.68900 2.50300 23.09300
H  32.61100 1.11400 22.89600
H  34.42300 0.99500 22.54800
H  30.32000 2.49100 27.48900
H  29.94300 3.78000 28.61900
H  29.26600 2.23400 29.00500
H  31.60600 2.02600 33.92900
H  32.36800 6.18900 35.27600
H  33.44600 5.00200 36.14100
H  31.62900 5.33300 36.56200

