158

Mg 34.46700 3.28200 30.12500
C  32.37600 3.91000 32.81100
C  37.21000 3.11800 32.43200
C  36.60200 2.77700 27.54900
C  31.87600 3.73500 28.00100
N  34.76400 3.48300 32.26100
C  33.67700 3.57700 33.21000
C  34.13100 3.42100 34.71400
C  35.70200 3.45000 34.59600
C  35.95900 3.42700 33.03900
C  36.31500 4.72700 35.25300
C  33.52900 2.16300 35.37600
C  32.67300 2.54100 36.65800
H  33.38000 3.44500 37.72200
N  36.54100 2.88100 30.00100
C  37.47900 2.87400 31.06400
C  38.75000 2.41500 30.57600
C  38.67500 2.38800 29.12800
C  37.22400 2.68400 28.83400
C  40.00600 2.07700 31.41200
C  39.76400 2.11000 28.10800
O  39.62000 2.00100 26.94100
C  41.22000 1.94800 28.64200
N  34.28900 3.40800 27.99000
C  35.31900 3.10400 27.17000
C  34.79300 2.93900 25.70800
C  33.23700 2.81200 25.88100
C  33.08100 3.31300 27.37400
C  35.23100 3.96500 24.64600
C  32.69800 1.37100 25.80400
C  31.43400 1.24300 24.89600
N  32.49700 3.92000 30.27300
C  31.55000 4.11300 29.32000
C  30.25900 4.37000 29.97700
C  30.60900 4.34100 31.36800
C  31.88300 4.04200 31.46900
C  28.94300 4.41700 29.39600
C  29.98300 4.42000 32.63700
O  28.86400 4.70200 33.00900
C  31.13000 4.19200 33.66900
C  31.27200 5.38200 34.47500
O  31.85500 6.42200 34.13600
O  30.58100 5.26700 35.68800
C  30.67200 6.45800 36.53800
H  38.05700 2.99400 33.11100
H  37.30200 2.62100 26.72500
H  30.96300 3.77400 27.40400
H  33.60800 4.25700 35.17900
H  36.12900 2.58300 35.10100
H  35.51000 5.26500 35.75300
H  36.97000 5.28700 34.58600
H  36.95300 4.35900 36.05800
H  34.29700 1.43500 35.63800
H  32.79400 1.70800 34.71200
H  32.30900 1.59600 37.06400
H  31.83700 3.09200 36.22800
H  40.28100 1.02500 31.33500
H  39.76100 2.14400 32.47200
H  40.81500 2.79500 31.27500
H  41.60300 2.81400 29.18200
H  41.75000 1.74600 27.71200
H  41.14300 1.04500 29.24600
H  35.13100 1.99900 25.27100
H  32.78400 3.49700 25.16500
H  34.36000 4.57000 24.39300
H  35.61700 3.48100 23.74900
H  35.93200 4.64500 25.13100
H  32.51700 0.90700 26.77400
H  33.47800 0.76500 25.34200
H  30.72500 0.69500 25.51700
H  31.55200 0.60400 24.02000
H  30.95400 2.18100 24.61800
H  28.95700 4.44100 28.30600
H  28.33300 5.24200 29.76500
H  28.35100 3.56400 29.72700
H  30.80600 3.36700 34.30400
H  31.70600 6.57400 36.86300
H  30.13400 6.12400 37.42600
H  30.24900 7.40700 36.20900
Mg 47.50400 25.06500 29.32800
C  48.77300 27.23200 31.67500
C  46.30400 23.05800 31.82800
C  46.85600 22.77000 26.92200
C  48.95300 27.10800 26.85600
N  47.44000 25.19200 31.53300
C  48.07000 26.13400 32.33500
C  47.66000 25.94000 33.77800
C  47.01200 24.56700 33.76400
C  46.86900 24.23400 32.28400
C  47.65300 23.40700 34.63400
C  46.63600 27.05300 34.37100
C  47.00800 27.73200 35.61400
H  45.88300 27.95600 36.63700
N  46.55800 23.21800 29.34000
C  46.15100 22.59700 30.46600
C  45.57500 21.29300 29.96500
C  45.64800 21.28900 28.53300
C  46.37100 22.47400 28.18600
C  45.05300 20.19000 30.91300
C  45.05300 20.22600 27.60200
O  45.25800 20.31200 26.41000
C  44.07800 19.09100 28.15600
N  47.96700 24.83300 27.17500
C  47.64700 23.76300 26.41000
C  47.94400 23.98300 24.98200
C  48.39200 25.50900 24.90600
C  48.44300 25.83700 26.39900
C  48.97400 22.96200 24.49300
C  47.51600 26.54700 24.21200
C  48.13000 27.29300 23.02200
N  48.60900 26.83500 29.25700
C  49.15900 27.55700 28.15900
C  49.98500 28.66300 28.68300
C  49.72200 28.66500 30.05900
C  48.98700 27.42800 30.34600
C  50.93600 29.63500 27.93400
C  49.99400 29.34900 31.27100
O  50.65600 30.36500 31.47200
C  49.37000 28.46600 32.37200
C  50.42800 28.18600 33.32200
O  51.42000 27.51400 33.02800
O  50.08500 28.74300 34.54800
C  51.11400 28.53300 35.55600
H  46.01100 22.37100 32.62400
H  46.73400 22.07300 26.09000
H  49.24600 27.82700 26.08800
H  48.49800 25.92900 34.47600
H  46.04500 24.52900 34.26500
H  48.08900 22.60200 34.04200
H  46.86600 22.92700 35.21500
H  48.54600 23.84500 35.08000
H  45.64400 26.60100 34.39300
H  46.54200 27.83800 33.62100
H  47.47500 28.65400 35.26800
H  47.82500 27.17000 36.06500
H  45.15600 20.53600 31.94200
H  45.60000 19.24900 30.96800
H  44.05000 20.11900 30.49300
H  44.52800 18.47800 28.93600
H  43.76200 18.49300 27.30200
H  43.17600 19.61000 28.48000
H  47.04100 23.87600 24.38100
H  49.39000 25.67100 24.50100
H  49.15800 22.28400 25.32700
H  49.88600 23.23300 23.96200
H  48.48700 22.28000 23.79600
H  47.24700 27.30200 24.95100
H  46.71400 25.95000 23.77800
H  47.61600 27.20600 22.06500
H  49.15300 26.95200 22.86200
H  48.11400 28.36200 23.23500
H  51.02900 29.28500 26.90600
H  51.92900 29.56600 28.38000
H  50.48400 30.62600 27.92900
H  48.50900 28.96600 32.81700
H  51.61300 27.56900 35.46200
H  50.76500 28.78600 36.55700
H  51.96900 29.20600 35.48800

