158

Mg 23.85600 -5.66800 46.35400
C  26.26000 -3.78800 44.59600
C  21.55800 -4.75200 44.03900
C  21.97700 -8.31100 47.24200
C  26.56400 -7.11300 48.09300
N  23.92600 -4.46300 44.52500
C  24.96500 -3.70500 44.10100
C  24.61300 -2.81600 42.90800
C  23.01700 -2.95200 42.91400
C  22.82200 -4.11200 43.88100
C  22.15200 -1.70700 43.21100
C  25.32400 -3.17000 41.62100
C  26.07100 -2.02100 40.94200
H  25.24800 -1.29700 39.81500
N  21.93800 -6.42500 45.82300
C  21.12000 -5.82800 44.88700
C  19.80300 -6.45100 44.92100
C  19.86100 -7.50900 45.89400
C  21.32400 -7.50900 46.34200
C  18.71100 -6.00000 43.96200
C  18.67400 -8.37100 46.30400
O  17.54500 -8.16600 45.90100
C  18.81500 -9.49400 47.27400
N  24.27200 -7.56600 47.33000
C  23.23200 -8.31500 47.72600
C  23.61100 -9.55500 48.51700
C  25.09100 -9.09100 48.92800
C  25.36100 -7.77700 48.17900
C  22.63200 -10.01500 49.66900
C  26.19000 -10.17600 48.55500
C  26.83500 -10.16000 47.18700
N  25.99600 -5.40200 46.48400
C  26.97600 -6.04600 47.26200
C  28.26200 -5.44300 47.08800
C  28.02400 -4.50800 46.05400
C  26.65000 -4.58300 45.74000
C  29.52800 -5.86200 47.74100
C  28.70100 -3.47500 45.26000
O  29.82200 -2.99800 45.27200
C  27.55500 -3.00700 44.24300
C  27.41400 -1.53600 44.43800
O  26.73300 -1.02300 45.29800
O  28.15300 -0.86400 43.47600
C  28.02200 0.57000 43.57800
H  20.89000 -4.31100 43.29700
H  21.35200 -9.12400 47.61600
H  27.36000 -7.52800 48.71500
H  24.75900 -1.78900 43.24200
H  22.60400 -3.27700 41.95900
H  21.74400 -1.96100 44.19000
H  21.40400 -1.61000 42.42400
H  22.72400 -0.81000 43.44600
H  24.60100 -3.48300 40.86800
H  26.09200 -3.93500 41.73100
H  27.06600 -2.27400 40.57700
H  26.19400 -1.25000 41.70300
H  18.41100 -6.93300 43.48500
H  19.13500 -5.33600 43.20900
H  17.82100 -5.62600 44.46800
H  17.85100 -9.75100 47.71400
H  19.39400 -9.26900 48.16900
H  19.38000 -10.23600 46.71100
H  23.74100 -10.34200 47.77500
H  25.28000 -8.84300 49.97200
H  22.15600 -10.97400 49.46500
H  21.85300 -9.25700 49.74900
H  23.15800 -10.21900 50.60200
H  25.80300 -11.18400 48.70200
H  27.03400 -10.08400 49.23900
H  27.89500 -9.91100 47.23100
H  26.34700 -9.49400 46.47600
H  26.78800 -11.19200 46.83900
H  29.52100 -6.41900 48.67800
H  30.15100 -4.97200 47.82900
H  29.95900 -6.55000 47.01300
H  27.91700 -3.11800 43.22100
H  27.37700 0.95600 42.78900
H  28.98300 1.05800 43.41600
H  27.61000 0.97000 44.50400
Mg -5.29800 24.61500 26.26000
C  -3.71000 26.23200 29.00300
C  -7.35300 22.92400 28.36100
C  -6.52100 23.12600 23.55500
C  -3.17400 26.54700 24.17500
N  -5.53700 24.59800 28.34700
C  -4.80000 25.31800 29.30300
C  -5.26300 24.88300 30.67400
C  -6.23900 23.73300 30.48500
C  -6.40000 23.75500 28.97300
C  -5.90000 22.39000 31.15800
C  -5.89400 26.08700 31.44500
C  -5.66300 26.19800 32.98000
H  -5.05100 25.05900 33.70000
N  -6.68600 23.11300 26.06300
C  -7.53600 22.60700 27.03200
C  -8.54300 21.75700 26.36500
C  -8.24600 21.70900 24.99600
C  -7.08400 22.62900 24.78800
C  -9.62100 21.01900 27.18100
C  -8.87000 20.85200 23.83200
O  -8.59300 20.91300 22.65200
C  -9.77200 19.79200 24.26000
N  -4.72600 24.60800 24.17600
C  -5.46100 24.07300 23.23400
C  -5.10000 24.44800 21.82500
C  -4.16500 25.65900 22.09400
C  -3.93200 25.58600 23.56700
C  -4.57200 23.23400 21.01700
C  -4.81600 26.98300 21.61200
C  -4.15700 27.63300 20.48400
N  -3.82000 26.20600 26.46300
C  -3.05000 26.87300 25.53100
C  -2.22200 27.85500 26.17700
C  -2.43800 27.63300 27.56700
C  -3.36100 26.55700 27.64600
C  -1.29600 28.91600 25.52300
C  -2.17000 28.08300 28.92100
O  -1.62000 29.10600 29.34600
C  -2.85400 27.12900 29.85700
C  -1.73900 26.48400 30.68400
O  -0.81000 25.79500 30.25300
O  -1.82600 26.79300 32.00800
C  -0.92100 26.25500 32.95900
H  -8.10400 22.52800 29.04800
H  -7.06700 22.86300 22.64600
H  -2.70600 27.29300 23.53000
H  -4.38700 24.57400 31.24400
H  -7.24000 24.04900 30.78100
H  -5.70800 21.59000 30.44400
H  -6.69400 22.12600 31.85700
H  -4.94300 22.40200 31.67800
H  -6.95400 26.09200 31.19200
H  -5.53000 27.00900 30.99200
H  -6.59700 26.54000 33.42800
H  -4.95500 27.01500 33.11300
H  -9.35100 19.98700 27.40500
H  -10.57800 21.23300 26.70500
H  -9.79400 21.40700 28.18500
H  -9.79400 19.04300 23.46900
H  -10.73900 20.16500 24.60000
H  -9.33100 19.27300 25.11100
H  -6.04300 24.77500 21.38700
H  -3.21700 25.44700 21.60100
H  -5.16300 23.16400 20.10400
H  -4.58400 22.34800 21.65100
H  -3.53400 23.44700 20.76100
H  -4.84000 27.65000 22.47400
H  -5.82300 26.87100 21.20800
H  -4.85000 27.52400 19.65000
H  -3.21200 27.17400 20.19300
H  -3.85900 28.67100 20.63000
H  -1.77500 29.84200 25.84000
H  -1.06800 28.85600 24.45900
H  -0.38300 29.01100 26.11200
H  -3.42100 27.77700 30.52500
H  0.07200 26.07700 32.54400
H  -1.24300 25.34800 33.47100
H  -0.85700 26.88500 33.84600

