158

Mg 47.25900 24.99700 28.29400
C  48.37700 27.19400 30.85100
C  46.21600 22.88600 30.84100
C  46.42600 22.70900 25.95300
C  48.75700 27.02200 25.88800
N  47.31000 25.07700 30.55900
C  47.73900 26.03400 31.36700
C  47.60900 25.74100 32.87000
C  46.78800 24.36300 32.85500
C  46.72500 24.06800 31.31500
C  47.33600 23.19100 33.74300
C  46.68000 26.87500 33.41700
C  46.99300 27.63300 34.75600
H  45.96900 27.74400 35.82600
N  46.29400 23.11200 28.33200
C  46.02700 22.44400 29.49100
C  45.37500 21.17500 29.08500
C  45.31500 21.11400 27.68000
C  46.02800 22.34800 27.22800
C  44.93500 20.13100 30.08100
C  44.64200 20.12900 26.80000
O  44.69700 20.27100 25.58800
C  43.72600 19.02100 27.35500
N  47.61500 24.86700 26.17300
C  47.20800 23.74200 25.46600
C  47.70000 23.89200 24.01800
C  48.11200 25.43400 23.98800
C  48.23800 25.80700 25.42300
C  48.86100 22.96800 23.68700
C  47.03900 26.36500 23.25900
C  47.32100 26.75000 21.78400
N  48.41100 26.61000 28.30900
C  48.81300 27.39600 27.28200
C  49.56500 28.53000 27.73800
C  49.28300 28.51700 29.12900
C  48.59800 27.34400 29.45100
C  50.47900 29.53000 26.99500
C  49.61300 29.21700 30.34000
O  50.23600 30.24900 30.59800
C  48.94700 28.33200 31.54100
C  50.07200 27.87000 32.34800
O  50.75300 26.92500 32.01200
O  50.26900 28.74600 33.34900
C  51.30100 28.58400 34.47100
H  45.92400 22.23600 31.66800
H  46.27400 21.94700 25.18500
H  49.26100 27.67700 25.17400
H  48.56800 25.77200 33.38800
H  45.72100 24.40800 33.07600
H  48.14200 22.79900 33.12200
H  46.53500 22.46200 33.86300
H  47.52600 23.57200 34.74700
H  45.70000 26.41300 33.53900
H  46.40400 27.59000 32.64200
H  47.43100 28.61600 34.58500
H  47.81200 27.00900 35.11400
H  45.44000 19.18300 29.89800
H  43.88500 19.85000 30.00300
H  45.08900 20.48700 31.10000
H  42.83300 19.46200 27.79700
H  44.21800 18.45400 28.14500
H  43.44200 18.42500 26.48800
H  46.81900 23.75600 23.39100
H  49.09300 25.62200 23.55300
H  48.50800 22.32100 22.88400
H  49.07200 22.43300 24.61300
H  49.82700 23.36000 23.36700
H  46.98400 27.22900 23.92100
H  46.04700 25.91300 23.25600
H  47.13100 27.81400 21.64400
H  46.60700 26.23000 21.14500
H  48.33400 26.47100 21.49300
H  49.88500 30.13300 26.30800
H  51.16800 28.99700 26.33900
H  51.08400 30.16500 27.64300
H  48.18000 28.88800 32.08000
H  52.30700 28.89400 34.18800
H  51.32600 27.56900 34.86600
H  51.06600 29.26900 35.28500
Mg 28.33300 58.21700 43.07800
C  25.84000 56.40200 41.36300
C  30.70400 56.42600 41.19900
C  30.55700 60.71900 43.65700
C  25.82600 60.19300 44.51200
N  28.26300 56.68000 41.51000
C  27.16200 56.01300 41.04400
C  27.59400 54.91400 39.96100
C  29.07700 54.72400 40.22800
C  29.34300 56.05000 40.98700
C  29.50200 53.45500 41.03300
C  27.31100 55.39900 38.54000
C  26.83400 54.26600 37.53900
H  27.59300 54.15100 36.13800
N  30.40900 58.46800 42.54200
C  31.18900 57.58600 41.93300
C  32.52600 58.11000 41.93600
C  32.54400 59.30400 42.66100
C  31.11900 59.57200 42.96700
C  33.65200 57.41700 41.15700
C  33.78800 60.22700 42.83000
O  34.96200 59.95300 42.77600
C  33.59200 61.70000 43.19900
N  28.28300 60.25000 43.76000
C  29.26400 61.03200 44.09000
C  28.86800 62.26200 44.97300
C  27.36900 62.00600 45.15800
C  27.11300 60.72000 44.41100
C  29.68600 62.38600 46.33900
C  26.43100 63.22900 44.83600
C  25.80000 63.21200 43.51700
N  26.24800 58.14800 43.12200
C  25.38900 59.08800 43.69400
C  24.02000 58.65500 43.47200
C  24.22200 57.54900 42.55600
C  25.55700 57.33200 42.30500
C  22.78300 59.24000 44.02800
C  23.38900 56.57600 41.78300
O  22.18700 56.42900 41.75200
C  24.47500 55.79800 40.88800
C  24.33000 54.31300 41.05200
O  24.85600 53.68500 41.95500
O  23.55200 53.71800 39.99500
C  23.60000 52.25100 39.94900
H  31.44100 55.80200 40.68800
H  31.30600 61.36900 44.11600
H  25.09800 60.78300 45.07300
H  26.98700 54.05300 40.24200
H  29.60200 54.58600 39.28300
H  30.06700 53.70900 41.93000
H  30.02500 52.73800 40.40000
H  28.73800 52.79300 41.44100
H  28.18700 55.84800 38.07300
H  26.65100 56.26700 38.53500
H  25.85900 54.66500 37.26100
H  26.70100 53.28900 38.00300
H  33.55000 56.33500 41.24800
H  34.58400 57.73200 41.62400
H  33.67900 57.77900 40.12900
H  32.69300 62.11700 42.74600
H  34.44500 62.32100 42.92500
H  33.41400 61.67600 44.27400
H  29.06700 63.12100 44.33200
H  27.16500 61.83100 46.21400
H  30.50700 63.08800 46.19100
H  30.12400 61.40600 46.52600
H  28.96100 62.63600 47.11300
H  27.04800 64.12800 44.84700
H  25.63800 63.42600 45.55800
H  25.82000 64.20600 43.06900
H  24.72100 63.08400 43.60100
H  26.23200 62.40800 42.92100
H  22.26200 59.80600 43.25600
H  22.89200 59.81600 44.94700
H  22.19900 58.34000 44.22300
H  24.28500 56.07100 39.84900
H  24.67100 52.09800 39.81800
H  23.04800 51.78100 39.13500
H  23.29400 51.80000 40.89200

