158

Mg 43.10100 3.69100 47.70600
C  41.58200 6.76100 47.78300
C  40.03500 2.11000 47.31100
C  44.71900 0.83000 47.00200
C  46.29500 5.53000 47.57600
N  41.04400 4.40500 47.47600
C  40.60900 5.65700 47.65800
C  39.03400 5.77900 47.74900
C  38.63500 4.27700 47.64300
C  39.95800 3.54200 47.47100
C  37.66500 3.81000 48.72700
C  38.36000 6.70400 46.67700
C  39.12300 6.73800 45.27000
H  38.25800 6.46700 44.02700
N  42.44700 1.77300 47.25700
C  41.18700 1.31500 47.22100
C  41.14400 -0.13300 46.96700
C  42.50600 -0.48500 46.86600
C  43.30700 0.71800 47.07100
C  39.84500 -1.00400 46.79000
C  43.01700 -1.90200 46.52300
O  42.20500 -2.81200 46.19500
C  44.43700 -2.29800 46.72400
N  45.16600 3.27500 47.33200
C  45.55500 1.95400 47.20700
C  47.12700 1.90300 47.13500
C  47.60200 3.35300 47.21900
C  46.28900 4.11700 47.53100
C  47.80200 0.82400 48.07000
C  48.40900 3.89000 46.03500
C  49.76000 4.45700 46.51100
N  43.81400 5.70100 47.65500
C  45.10500 6.29700 47.62400
C  44.96700 7.73100 47.78200
C  43.59200 7.99000 47.86200
C  42.94400 6.75400 47.77900
C  46.08100 8.69600 47.85400
C  42.58800 9.03000 48.12600
O  42.61600 10.21600 48.41800
C  41.25200 8.23900 47.94200
C  40.46200 8.41300 49.10600
O  40.46900 7.70800 50.15400
O  39.47900 9.33400 48.79600
C  38.39600 9.38300 49.78000
H  39.09000 1.56900 47.39700
H  45.39400 -0.00200 46.79200
H  47.22700 6.09800 47.55500
H  38.66900 6.23600 48.66900
H  38.16000 4.33200 46.66400
H  37.46900 4.61000 49.44100
H  38.14900 2.98700 49.25400
H  36.73700 3.60200 48.19400
H  38.21400 7.72200 47.03900
H  37.36000 6.42700 46.34300
H  39.84900 5.93600 45.14100
H  39.63500 7.69300 45.15600
H  39.41400 -0.92800 45.79200
H  39.09800 -0.69300 47.52000
H  39.97100 -2.07500 46.94600
H  45.00600 -1.88700 47.55800
H  44.96900 -2.12500 45.78800
H  44.36900 -3.38200 46.81400
H  47.34700 1.60900 46.10900
H  48.14500 3.39700 48.16300
H  48.70200 1.16700 48.58000
H  47.92700 -0.04900 47.43000
H  46.98800 0.61200 48.76300
H  47.92100 4.72700 45.53500
H  48.57300 3.07900 45.32500
H  50.46100 3.79000 46.00900
H  49.97500 4.46300 47.57900
H  49.79800 5.46400 46.09400
H  46.38200 8.88800 48.88400
H  45.70900 9.65200 47.48600
H  46.85100 8.47800 47.11400
H  40.78800 8.67900 47.06000
H  38.23500 8.42800 50.28100
H  37.53200 9.58400 49.14700
H  38.66100 10.20900 50.44000
Mg 1.19000 42.94000 26.05000
C  3.50800 42.75600 28.61400
C  -1.21100 41.99900 28.22900
C  -0.87100 42.27400 23.42500
C  3.82500 43.22400 23.77600
N  1.30400 42.28300 28.15600
C  2.25200 42.49600 29.10300
C  1.73900 42.32700 30.57400
C  0.36700 41.71300 30.26400
C  0.15200 42.07900 28.80200
C  0.11700 40.24300 30.67800
C  1.67200 43.70700 31.38400
C  1.93500 43.64500 32.94100
H  1.59500 42.28300 33.65100
N  -0.81400 42.35400 25.88800
C  -1.66700 42.14300 26.94600
C  -2.95100 41.85000 26.43400
C  -2.84400 41.83200 25.02400
C  -1.38400 42.13800 24.71900
C  -4.12300 41.45900 27.31800
C  -3.97400 41.58600 24.05400
O  -3.79700 41.73700 22.85800
C  -5.37300 41.26100 24.47800
N  1.44500 42.82000 23.87300
C  0.41700 42.58600 23.05600
C  0.88300 42.56100 21.59300
C  2.36400 42.78300 21.70300
C  2.59500 43.01600 23.18100
C  0.27700 41.29700 20.85100
C  2.90000 44.03900 20.91500
C  2.72200 45.41700 21.54600
N  3.26800 43.15100 26.09300
C  4.26900 43.15900 25.11000
C  5.57900 43.18300 25.67500
C  5.31000 43.10600 27.08000
C  3.92800 42.98700 27.28800
C  6.89200 43.27200 24.97200
C  5.91900 42.99500 28.38100
O  7.09600 43.07300 28.68800
C  4.76200 42.96500 29.45200
C  5.02800 41.86900 30.41300
O  5.04000 40.68500 30.16200
O  5.26000 42.45500 31.68300
C  5.76000 41.59600 32.72700
H  -1.90200 41.86300 29.06400
H  -1.57900 42.04000 22.62800
H  4.75200 43.37700 23.21900
H  2.38700 41.64000 31.11900
H  -0.45100 42.18400 30.80800
H  -0.81000 40.24000 31.25100
H  0.92400 39.86300 31.30500
H  0.03000 39.65600 29.76400
H  0.66900 44.11000 31.24000
H  2.32600 44.36700 30.81500
H  1.29700 44.38700 33.42100
H  2.99200 43.86100 33.10200
H  -3.89600 41.58000 28.37800
H  -4.41400 40.42400 27.14000
H  -4.96400 42.13600 27.16400
H  -5.77000 42.06600 25.09700
H  -5.25900 40.27300 24.92500
H  -6.10200 41.31200 23.66900
H  0.62700 43.53500 21.17600
H  2.95100 41.88000 21.53500
H  -0.47800 40.69800 21.36000
H  1.07800 40.60200 20.60300
H  -0.14400 41.59800 19.89100
H  2.40300 44.01400 19.94500
H  3.96300 43.83700 20.78300
H  2.02000 45.41600 22.38000
H  2.22000 46.01100 20.78200
H  3.61400 45.89200 21.95300
H  6.85500 42.66300 24.06800
H  7.65700 42.82200 25.60400
H  7.30000 44.25100 24.71900
H  4.74500 43.96200 29.89400
H  4.99300 41.05100 33.27700
H  6.47200 42.07700 33.39800
H  6.28700 40.78900 32.21800

