158

Mg 36.08000 1.13800 30.68000
C  33.53600 2.46500 32.78600
C  38.29100 1.44500 33.10800
C  38.42100 0.37200 28.45100
C  33.63600 1.21900 28.09100
N  35.87700 1.84700 32.73100
C  34.73300 2.14900 33.43600
C  34.98600 2.31200 34.98800
C  36.58400 2.28900 35.03100
C  36.98300 1.89100 33.52500
C  37.18800 3.66800 35.38300
C  34.36900 1.11300 35.81500
C  33.79900 1.45000 37.16900
H  34.29500 2.69800 37.99200
N  38.08400 0.94900 30.76700
C  38.88200 1.03000 31.88600
C  40.18600 0.43300 31.66900
C  40.23200 0.25800 30.23400
C  38.89700 0.56000 29.75000
C  41.28200 0.20300 32.79200
C  41.36400 -0.20600 29.38200
O  41.25200 -0.46700 28.19100
C  42.74800 -0.35100 29.99600
N  36.10000 1.06400 28.49600
C  37.15100 0.56600 27.85900
C  36.81200 0.50700 26.38800
C  35.33000 0.40100 26.34000
C  34.96600 0.87700 27.73700
C  37.46600 1.55200 25.56200
C  34.67000 -1.04700 26.06600
C  33.43800 -0.93000 25.16000
N  33.98500 1.73800 30.38100
C  33.20700 1.73000 29.32200
C  31.91800 2.23800 29.64400
C  31.93300 2.45100 30.98500
C  33.27700 2.25000 31.40600
C  30.75500 2.44800 28.68600
C  31.20700 2.89300 32.14500
O  30.12700 3.39600 32.26300
C  32.17700 2.81900 33.38600
C  32.20800 4.07700 34.10400
O  32.95400 5.01000 33.82900
O  31.28900 4.06300 35.15500
C  31.17300 5.27900 35.97700
H  39.00900 1.47900 33.93000
H  39.06900 -0.04000 27.67500
H  32.91700 1.11300 27.27600
H  34.47800 3.18800 35.39100
H  37.08100 1.53800 35.64500
H  37.99600 3.64700 36.11500
H  36.38200 4.24700 35.83400
H  37.58300 4.19800 34.51700
H  35.15200 0.35500 35.80700
H  33.57100 0.65800 35.22700
H  33.91200 0.63700 37.88600
H  32.75300 1.60700 36.90600
H  42.12200 0.89600 32.76100
H  41.68100 -0.80600 32.68900
H  40.82400 0.12300 33.77800
H  43.45300 -0.58100 29.19700
H  42.83100 -1.06200 30.81800
H  43.04200 0.57000 30.50000
H  37.16200 -0.48200 26.09200
H  34.86000 1.19900 25.76600
H  38.20800 2.09200 26.15100
H  36.78500 2.32700 25.21100
H  37.97600 1.17700 24.67400
H  34.24900 -1.35300 27.02400
H  35.42200 -1.75600 25.72100
H  33.17300 0.09800 24.91600
H  32.61400 -1.35300 25.73600
H  33.57700 -1.43300 24.20300
H  31.03100 2.60500 27.64400
H  30.33400 3.42600 28.91700
H  29.92100 1.75000 28.76700
H  31.88400 1.95000 33.97600
H  32.11700 5.60000 36.41800
H  30.44300 5.10400 36.76700
H  30.82000 6.11800 35.37700
Mg 41.38000 7.44500 29.89600
C  42.94000 9.05400 32.46700
C  38.88900 6.55400 32.08900
C  39.89100 5.74000 27.36400
C  44.18100 8.10700 27.74200
N  41.03100 7.80000 32.04700
C  41.74800 8.56100 32.87800
C  41.10000 8.64300 34.22100
C  39.93000 7.59100 34.15300
C  39.87800 7.30700 32.67500
C  40.01900 6.26700 35.11000
C  40.57300 10.08000 34.74200
C  39.98100 9.99700 36.18500
H  40.50700 10.93300 37.28600
N  39.54800 6.51800 29.72000
C  38.66500 6.19300 30.77000
C  37.50900 5.55900 30.20100
C  37.72600 5.39200 28.77100
C  39.09600 5.88500 28.54200
C  36.36600 5.24000 31.11100
C  36.76700 4.85700 27.71100
O  37.01500 4.72100 26.53500
C  35.32600 4.49500 28.20600
N  41.94900 7.03400 27.77800
C  41.18100 6.26100 27.00400
C  41.71800 6.10800 25.59600
C  43.13200 6.83700 25.67900
C  43.09200 7.38100 27.13200
C  41.76100 4.65500 25.10000
C  43.35200 8.00300 24.64800
C  42.79800 9.38600 25.13700
N  43.11200 8.39900 30.02000
C  44.12100 8.64000 29.02400
C  45.18100 9.43300 29.61100
C  44.74400 9.64500 30.98700
C  43.52400 8.97200 31.16200
C  46.46600 9.84200 29.02000
C  45.10000 10.25100 32.24300
O  46.04800 10.96900 32.50400
C  43.96600 9.87400 33.27200
C  44.58500 9.19200 34.40500
O  45.22100 8.11600 34.34000
O  44.28900 9.77800 35.58500
C  44.81000 9.16400 36.81100
H  38.22700 6.17900 32.87300
H  39.37600 5.11400 26.63100
H  45.02200 8.41600 27.11800
H  41.75800 8.27900 35.01000
H  38.94700 8.05700 34.20900
H  40.65100 6.49100 35.97000
H  40.36500 5.40900 34.53400
H  39.04200 6.10600 35.56500
H  39.67500 10.39700 34.21200
H  41.32900 10.86300 34.69100
H  40.20700 9.01500 36.60100
H  38.89200 10.04000 36.14400
H  35.81700 6.18000 31.18000
H  36.70300 4.87300 32.08100
H  35.69300 4.50000 30.67800
H  34.82000 5.27600 28.77300
H  35.60400 3.63200 28.81000
H  34.72700 4.10000 27.38500
H  41.12300 6.76500 24.96000
H  43.84900 6.02000 25.61000
H  42.73000 4.20000 24.89500
H  41.10400 4.51900 24.24100
H  41.49000 3.93200 25.86900
H  42.90100 7.78100 23.68100
H  44.42200 8.16500 24.51500
H  42.43000 9.82900 24.21200
H  43.64000 10.04300 25.35300
H  41.99300 9.49300 25.86400
H  46.34200 10.67600 28.33000
H  47.03500 8.98500 28.65900
H  46.99500 10.34700 29.82900
H  43.53300 10.81100 33.62200
H  43.90100 9.01900 37.39500
H  45.52800 9.85500 37.25400
H  45.24100 8.17300 36.67200

