158

Mg 7.79100 2.68400 27.58300
C  9.06100 0.97900 30.34200
C  5.58500 4.47800 29.77600
C  6.02700 3.65200 24.90100
C  9.31800 0.11900 25.54600
N  7.32800 2.67800 29.82100
C  8.14100 2.00000 30.73000
C  7.85700 2.43400 32.17400
C  6.67500 3.54500 31.95700
C  6.52000 3.59000 30.46400
C  5.39400 3.21500 32.77400
C  9.23900 3.01800 32.72500
C  9.47800 2.75500 34.16000
H  9.37900 3.89800 35.12800
N  6.25700 4.07000 27.34900
C  5.45500 4.63200 28.33800
C  4.66600 5.66800 27.67100
C  4.79100 5.47300 26.26800
C  5.74200 4.35600 26.08000
C  3.75700 6.59400 28.50600
C  4.19600 6.28200 25.04400
O  4.32400 5.98500 23.81500
C  3.32400 7.48800 25.32600
N  7.55200 1.79100 25.46100
C  6.81300 2.52000 24.58800
C  7.08400 2.04700 23.08300
C  8.17100 0.89400 23.36300
C  8.42300 0.94000 24.87500
C  5.86500 1.61500 22.29400
C  9.49500 0.97200 22.60800
C  9.86600 -0.17600 21.73100
N  9.01600 0.98800 27.80300
C  9.56000 0.03700 26.88800
C  10.34100 -0.87600 27.62600
C  10.19600 -0.54600 28.98700
C  9.39500 0.59500 29.02300
C  11.02000 -1.99300 27.00000
C  10.58800 -0.91100 30.34300
O  11.30400 -1.74600 30.82700
C  9.90400 0.09300 31.18200
C  9.09300 -0.66300 32.19200
O  8.12800 -1.32500 31.91500
O  9.68900 -0.47500 33.41400
C  8.76700 -1.04900 34.48100
H  4.99400 5.13300 30.42000
H  5.55200 4.09000 24.02100
H  9.88400 -0.61800 24.97200
H  7.52300 1.47600 32.57300
H  7.06000 4.55300 32.10600
H  4.68400 2.78800 32.06600
H  5.03900 4.13400 33.24100
H  5.59400 2.49100 33.56400
H  9.18600 4.10700 32.69400
H  10.07000 2.75300 32.07200
H  10.48100 2.36600 34.33200
H  8.73200 2.03200 34.49100
H  4.14600 6.87800 29.48400
H  2.85600 5.99900 28.65000
H  3.42000 7.50300 28.00700
H  3.92100 8.04500 26.04800
H  2.36200 7.19700 25.74700
H  3.38700 8.19300 24.49800
H  7.55900 2.78400 22.43500
H  7.64100 -0.04800 23.22300
H  4.95600 1.69200 22.89000
H  6.02900 0.58100 21.99100
H  5.61600 2.32400 21.50300
H  10.36500 1.15200 23.23900
H  9.54900 1.89500 22.03100
H  10.38400 0.20700 20.85200
H  9.03600 -0.80000 21.40100
H  10.59400 -0.83200 22.20800
H  11.57900 -2.45500 27.81300
H  11.70600 -1.56900 26.26600
H  10.28900 -2.71300 26.63300
H  10.71100 0.65600 31.64900
H  7.70300 -1.19000 34.29100
H  8.93200 -0.38400 35.32900
H  9.22300 -1.98400 34.80800
Mg -2.14500 34.06700 26.64200
C  -3.52400 32.33000 29.33400
C  -0.30700 36.03300 28.92900
C  -0.83000 35.74500 24.09400
C  -4.07800 32.23300 24.48000
N  -2.07500 34.15700 28.81300
C  -2.70800 33.38200 29.77800
C  -2.09900 33.61100 31.19700
C  -1.39200 35.06000 30.98300
C  -1.29400 35.16000 29.46000
C  -2.19100 36.22400 31.47300
C  -1.16900 32.48100 31.65900
C  -1.02700 32.26300 33.19700
H  -1.70600 33.16100 34.21900
N  -0.62700 35.57800 26.54300
C  -0.02200 36.22400 27.59700
C  0.94900 37.17300 26.99800
C  0.69800 37.19600 25.58000
C  -0.33200 36.14100 25.33500
C  1.97400 37.92800 27.93500
C  1.40100 38.00600 24.46300
O  1.13600 37.96400 23.28300
C  2.54900 38.84100 24.96000
N  -2.41400 34.06900 24.57500
C  -1.78400 34.87900 23.68500
C  -2.12400 34.59500 22.21700
C  -3.03200 33.31000 22.43600
C  -3.24600 33.23000 23.94500
C  -2.99000 35.78200 21.60300
C  -2.40100 31.95000 21.87700
C  -1.28600 31.31900 22.69800
N  -3.64300 32.66400 26.76300
C  -4.23300 31.93400 25.80300
C  -5.04300 30.88100 26.42000
C  -4.76200 30.99600 27.77700
C  -3.88800 32.08600 27.94100
C  -5.89700 29.89800 25.70200
C  -5.10900 30.44600 29.01300
O  -5.94100 29.55200 29.27900
C  -4.24400 31.27500 30.09500
C  -5.22800 31.75800 31.10600
O  -6.08900 32.58500 30.88500
O  -5.14000 31.03900 32.22000
C  -6.07600 31.34500 33.26900
H  0.25200 36.66200 29.62500
H  -0.16900 36.10300 23.30200
H  -4.65000 31.71600 23.70600
H  -2.83300 33.63300 32.00200
H  -0.40300 35.04400 31.44100
H  -1.64100 36.79800 32.21900
H  -3.05800 35.77700 31.96000
H  -2.44600 36.90700 30.66300
H  -0.15800 32.78700 31.38900
H  -1.24700 31.49600 31.19800
H  0.04000 32.37400 33.38600
H  -1.19600 31.25100 33.56500
H  3.02700 37.66600 27.83300
H  1.57700 37.96500 28.94900
H  1.91900 38.99600 27.72700
H  3.33600 38.24600 25.42400
H  2.08400 39.54500 25.65000
H  3.07600 39.24200 24.09400
H  -1.27800 34.54300 21.53100
H  -3.98900 33.45100 21.93200
H  -4.05400 35.73000 21.83600
H  -2.77400 35.57400 20.55500
H  -2.54000 36.69100 22.00200
H  -1.91500 32.24100 20.94600
H  -3.12000 31.18000 21.59600
H  -1.47200 30.24700 22.63200
H  -1.28300 31.57500 23.75700
H  -0.28200 31.58100 22.36600
H  -6.83000 29.56900 26.16000
H  -5.28500 29.06500 25.35600
H  -6.11800 30.34300 24.73200
H  -3.52900 30.67500 30.65700
H  -6.98100 31.92400 33.08200
H  -5.55400 31.89900 34.04900
H  -6.50900 30.42700 33.66500

