158

Mg 2.40200 -2.00000 44.35300
C  5.79800 -0.91300 44.03500
C  1.44000 0.74900 42.46700
C  -0.61000 -3.21100 44.18800
C  3.66200 -5.04100 45.61100
N  3.49900 -0.24100 43.39800
C  4.83700 -0.01500 43.44700
C  5.22100 1.25500 42.56500
C  3.79200 1.80700 42.31200
C  2.82100 0.75500 42.81300
C  3.36100 3.22800 42.73500
C  6.02700 0.85400 41.24500
C  7.13200 1.88500 40.80700
H  6.56300 3.08700 39.99100
N  0.57700 -1.22500 43.55200
C  0.37900 -0.12300 42.82500
C  -1.01300 0.05100 42.47200
C  -1.66800 -1.09900 43.10700
C  -0.59000 -1.93600 43.65700
C  -1.55800 1.31700 41.79900
C  -3.17200 -1.38900 43.01300
O  -3.90200 -0.62400 42.34500
C  -3.81300 -2.32600 43.86700
N  1.68200 -3.79000 44.85300
C  0.33600 -4.08400 44.73700
C  0.01200 -5.53900 45.10300
C  1.41500 -6.02700 45.63900
C  2.33500 -4.88500 45.33600
C  -1.17300 -5.62800 46.10300
C  1.97600 -7.28200 44.90200
C  2.56800 -8.44900 45.76400
N  4.31800 -2.87200 44.82000
C  4.62900 -4.09500 45.35000
C  6.08200 -4.03100 45.69900
C  6.56900 -2.80300 45.22600
C  5.48600 -2.14000 44.62000
C  6.87300 -5.23400 46.30200
C  7.74400 -1.96600 45.03700
O  8.88600 -2.11300 45.37300
C  7.34400 -0.74200 44.16100
C  7.64600 0.48800 44.92800
O  7.31900 0.72700 46.09100
O  8.37300 1.37500 44.14700
C  8.81200 2.62900 44.74900
H  1.18200 1.62600 41.87000
H  -1.60800 -3.65100 44.23200
H  4.06600 -5.91800 46.11900
H  5.91200 1.89400 43.11400
H  3.61000 1.69600 41.24300
H  4.23300 3.78300 43.08200
H  2.74600 3.28400 43.63200
H  2.92800 3.76100 41.88800
H  5.33300 0.73000 40.41400
H  6.68000 -0.01400 41.33800
H  7.95000 1.29700 40.39100
H  7.54700 2.34000 41.70600
H  -1.74900 1.05100 40.76000
H  -0.94600 2.21200 41.90100
H  -2.51800 1.66400 42.18100
H  -4.87300 -2.14600 43.68600
H  -3.46800 -2.37300 44.90000
H  -3.52400 -3.35000 43.63400
H  -0.21500 -6.08700 44.18800
H  1.46900 -6.20700 46.71200
H  -0.95800 -5.09300 47.02700
H  -1.29100 -6.64200 46.48400
H  -2.09100 -5.32200 45.60100
H  2.62700 -6.79100 44.17800
H  1.16500 -7.75000 44.34500
H  3.64100 -8.57500 45.61700
H  2.19500 -9.46300 45.62000
H  2.38500 -8.35000 46.83400
H  6.79000 -6.12300 45.67700
H  6.57300 -5.26800 47.34900
H  7.92200 -4.93800 46.31100
H  7.83000 -0.67800 43.18800
H  9.62200 2.90300 44.07400
H  9.35700 2.42400 45.67100
H  8.23100 3.51500 45.00600
Mg 9.04200 4.24300 27.93500
C  10.23200 2.41300 30.55000
C  7.09100 6.19000 29.99200
C  7.92300 6.00700 25.14200
C  10.46000 1.82200 25.74800
N  8.67100 4.29200 30.04700
C  9.37100 3.49800 30.94400
C  8.93400 3.94100 32.42300
C  7.80000 5.03200 32.21300
C  7.84700 5.17400 30.63600
C  6.38900 4.58100 32.72000
C  10.16300 4.41600 33.29300
C  9.83500 5.08800 34.70900
H  10.28200 4.37900 36.00300
N  7.65700 5.93000 27.63700
C  7.05900 6.64200 28.58200
C  6.33300 7.74500 28.02200
C  6.51700 7.70500 26.63200
C  7.43800 6.55100 26.37400
C  5.58800 8.72100 28.83100
C  5.94800 8.65100 25.61700
O  6.24400 8.62600 24.44000
C  4.93500 9.70000 25.95100
N  9.02700 3.88200 25.82100
C  8.61400 4.74200 24.89700
C  9.05700 4.35600 23.47200
C  9.57400 2.99600 23.69800
C  9.73000 2.87300 25.22500
C  7.91300 4.40500 22.45600
C  10.79600 2.61500 22.83100
C  10.65100 1.36600 21.93900
N  10.05800 2.51200 28.05400
C  10.65700 1.68300 27.10700
C  11.45900 0.66100 27.71900
C  11.46400 0.99300 29.08300
C  10.54800 2.08100 29.24400
C  12.17600 -0.55900 26.99600
C  11.94500 0.55500 30.38100
O  12.70100 -0.30400 30.68400
C  11.20500 1.49500 31.36900
C  10.51100 0.73600 32.46000
O  9.42000 0.13500 32.40800
O  11.27700 0.81600 33.56600
C  10.60300 0.33200 34.73600
H  6.53400 6.63900 30.81800
H  7.70500 6.71800 24.34200
H  10.87000 1.13000 25.01000
H  8.41100 3.07100 32.82200
H  7.99100 6.04600 32.56300
H  6.41900 3.55000 33.07100
H  5.65900 4.68300 31.91700
H  6.05000 5.25400 33.50900
H  10.69900 5.03900 32.57700
H  10.81900 3.55000 33.37700
H  8.79300 5.39500 34.79200
H  10.29500 6.07600 34.75500
H  5.74400 9.75200 28.51400
H  5.85900 8.70000 29.88700
H  4.54300 8.42800 28.73600
H  4.57600 10.05900 24.98600
H  5.44900 10.48200 26.51100
H  4.16800 9.24500 26.57700
H  9.94400 4.95900 23.28000
H  8.73800 2.36700 23.39100
H  7.17300 5.18600 22.63200
H  7.45700 3.47800 22.10900
H  8.39500 4.73100 21.53400
H  11.64200 2.48700 23.50600
H  10.93900 3.45900 22.15700
H  11.34700 0.56200 22.17900
H  10.62200 1.63400 20.88300
H  9.68900 0.87800 22.09900
H  12.95500 -1.03300 27.59300
H  12.47700 -0.16600 26.02500
H  11.38500 -1.30100 26.88100
H  11.99700 2.12800 31.77100
H  9.74100 0.87300 35.12600
H  11.22900 0.48000 35.61500
H  10.34800 -0.72700 34.71600

