158

Mg 45.01800 4.10900 48.59500
C  43.11900 6.89100 48.01300
C  42.25700 2.11800 47.96500
C  47.06700 1.43000 48.09000
C  47.89000 6.16000 48.37300
N  42.99300 4.51900 47.91200
C  42.36200 5.71700 47.74300
C  40.92800 5.56900 47.29400
C  40.62300 4.04600 47.66800
C  42.07600 3.50900 47.90400
C  39.56400 3.85900 48.88600
C  40.72900 5.95100 45.76300
C  39.53000 6.94700 45.43000
H  38.85800 6.71700 44.23700
N  44.68700 2.04800 48.37300
C  43.44600 1.44000 48.11800
C  43.68500 0.03200 47.95900
C  45.12600 -0.24600 47.99600
C  45.65900 1.12600 48.04100
C  42.58500 -0.91600 47.61800
C  45.80900 -1.58400 47.75800
O  45.05300 -2.55600 47.62000
C  47.33500 -1.81000 47.85100
N  47.19200 3.85900 48.44000
C  47.75500 2.60800 48.28600
C  49.27900 2.68100 48.13500
C  49.58200 4.20600 48.18400
C  48.14400 4.82100 48.33000
C  50.11100 1.98300 49.22500
C  50.32800 4.79300 46.99600
C  51.45000 4.03100 46.22400
N  45.43500 6.10400 48.40000
C  46.64200 6.78400 48.40100
C  46.36200 8.21700 48.35000
C  44.95000 8.27000 48.33900
C  44.50100 6.99200 48.31500
C  47.27700 9.42900 48.34100
C  43.81300 9.23000 48.22800
O  43.84700 10.46900 48.12400
C  42.54700 8.35800 47.94700
C  41.53700 8.63900 49.06700
O  41.32400 7.98200 50.09200
O  40.78600 9.71300 48.62500
C  39.45100 9.88400 49.23500
H  41.34700 1.51600 47.91400
H  47.77900 0.69300 47.71100
H  48.75600 6.81300 48.49900
H  40.39700 6.25100 47.95900
H  40.28300 3.45300 46.81900
H  39.19700 4.80100 49.29400
H  40.15900 3.28400 49.59500
H  38.72100 3.20800 48.65600
H  40.66500 5.12200 45.05900
H  41.53300 6.63400 45.48800
H  39.92200 7.95900 45.53200
H  38.75300 6.77500 46.17500
H  42.74000 -1.14800 46.56400
H  41.55100 -0.60700 47.76700
H  42.61900 -1.77400 48.28900
H  47.68400 -1.67000 46.82800
H  47.56100 -2.85900 48.04400
H  47.79100 -1.12700 48.56800
H  49.49800 2.15000 47.20900
H  50.06500 4.54800 49.09900
H  50.59400 1.06400 48.89200
H  49.43300 1.60900 49.99300
H  50.90200 2.59900 49.65300
H  50.65000 5.77800 47.33500
H  49.55900 4.97300 46.24400
H  51.69300 3.07800 46.69300
H  52.33800 4.66300 46.26600
H  51.11500 3.93200 45.19200
H  46.70200 10.19900 48.85600
H  47.39100 9.54700 47.26300
H  48.25200 9.36900 48.82300
H  42.14700 8.72500 47.00100
H  38.68000 9.58100 48.52600
H  39.14800 10.90100 49.48200
H  39.36400 9.37600 50.19500
Mg 47.27300 24.16900 28.97700
C  47.97900 26.70100 31.40600
C  46.46200 22.20500 31.48800
C  47.15400 21.75200 26.65300
C  48.44100 26.47800 26.41800
N  47.31500 24.45400 31.22100
C  47.52100 25.54900 32.01600
C  47.09600 25.33000 33.46600
C  46.70500 23.84200 33.44300
C  46.76200 23.45700 31.92000
C  47.57800 22.92100 34.28900
C  45.92700 26.34900 33.90500
C  46.36900 27.25400 35.03800
H  45.33400 27.45200 36.11200
N  46.82100 22.22600 29.05300
C  46.52500 21.55500 30.19900
C  46.34500 20.15800 29.91600
C  46.43300 20.05700 28.51900
C  46.83300 21.36100 28.01500
C  46.01700 19.20700 31.13400
C  46.07600 18.83500 27.65000
O  46.01700 18.87500 26.43800
C  45.69700 17.50500 28.21700
N  47.80800 24.12100 26.91100
C  47.56700 22.98300 26.14400
C  47.94600 23.14300 24.69600
C  48.38100 24.62300 24.68400
C  48.15100 25.13900 26.08500
C  49.06300 22.07300 24.24700
C  47.60200 25.43400 23.52500
C  46.09700 25.70700 23.88300
N  48.05300 26.16000 28.91300
C  48.36200 26.94400 27.78000
C  48.86900 28.21600 28.27900
C  48.71800 28.16500 29.69900
C  48.12400 26.90900 30.02900
C  49.50300 29.31400 27.52000
C  48.91600 28.91900 30.89800
O  49.39500 30.03200 31.16200
C  48.42900 28.00600 32.10600
C  49.65300 27.69300 32.90700
O  50.41700 26.76100 32.68000
O  49.72600 28.58000 33.95800
C  50.46400 28.12700 35.13900
H  46.14800 21.62800 32.36100
H  47.28700 20.87500 26.01600
H  48.92200 27.06600 25.63300
H  47.96000 25.36000 34.13000
H  45.64500 23.72300 33.66500
H  47.03700 22.04100 34.63600
H  48.13800 23.34900 35.12100
H  48.32800 22.51900 33.60800
H  45.07300 25.77100 34.25900
H  45.66000 26.96700 33.04800
H  46.74400 28.23900 34.76200
H  47.28000 26.80900 35.43800
H  45.92600 18.16300 30.83500
H  45.10100 19.41500 31.68600
H  46.78400 19.12700 31.90400
H  46.63400 17.20200 28.68600
H  45.46600 16.74500 27.47100
H  44.94700 17.54200 29.00700
H  47.05200 22.84400 24.14800
H  49.42400 24.49400 24.39500
H  49.83500 22.46700 23.58500
H  48.70600 21.17200 23.74900
H  49.63500 21.73800 25.11200
H  47.59500 24.85100 22.60400
H  48.12400 26.36400 23.29700
H  45.55300 25.26200 23.05000
H  46.02100 26.79300 23.94700
H  45.81500 25.15300 24.77800
H  48.88600 29.39200 26.62500
H  50.57300 29.14900 27.39100
H  49.34900 30.18000 28.16300
H  47.68300 28.49800 32.73100
H  50.90700 29.01200 35.59600
H  51.28700 27.42900 34.98900
H  49.72900 27.65500 35.79000

