158

Mg 40.95600 9.66400 30.17800
C  42.92200 10.84800 32.76300
C  38.53200 8.71900 32.52200
C  39.11900 8.47800 27.68000
C  43.54800 10.34200 27.86900
N  40.82700 9.51800 32.43700
C  41.73900 10.27900 33.28400
C  41.10300 10.41700 34.73500
C  39.86300 9.47900 34.59600
C  39.67000 9.29000 33.08300
C  39.91300 8.15700 35.42900
C  40.77600 11.89400 35.12200
C  40.03500 12.07400 36.49700
H  40.58600 13.01700 37.61600
N  39.16400 8.74000 30.14600
C  38.29200 8.49500 31.17300
C  37.04000 7.88100 30.63700
C  37.21500 7.84500 29.18300
C  38.47900 8.39100 28.93300
C  35.88800 7.33600 31.51000
C  36.26300 7.25100 28.10000
O  36.43900 7.24400 26.88700
C  35.02600 6.53200 28.65400
N  41.30400 9.51100 28.12100
C  40.42900 8.93000 27.31200
C  40.92100 8.90200 25.81900
C  42.26200 9.65900 25.86700
C  42.40000 9.92900 27.41200
C  40.93800 7.50500 25.27600
C  42.35600 10.97200 25.02400
C  41.14400 11.97700 25.13800
N  42.86500 10.35900 30.27500
C  43.78200 10.67100 29.23400
C  44.91600 11.32200 29.88200
C  44.57600 11.44200 31.24000
C  43.34900 10.82800 31.36600
C  46.14500 11.77200 29.14100
C  45.06100 11.95900 32.55200
O  46.12600 12.52500 32.90500
C  43.99200 11.57100 33.54100
C  44.57600 10.74800 34.72000
O  45.20400 9.68000 34.66600
O  44.33300 11.42200 35.92300
C  44.97300 10.84300 37.07500
H  37.68100 8.60600 33.19700
H  38.63200 8.16500 26.75500
H  44.17500 10.54000 26.99700
H  41.92300 10.13300 35.39500
H  38.98600 9.99500 34.98600
H  40.14700 7.30800 34.78700
H  38.90700 8.09000 35.84300
H  40.62800 8.17300 36.25100
H  40.11500 12.33400 34.37400
H  41.72400 12.42600 35.20200
H  39.80000 11.07600 36.86800
H  39.05600 12.51600 36.31400
H  35.90900 7.56900 32.57500
H  35.79400 6.26600 31.32400
H  35.01900 7.89100 31.15600
H  35.45200 5.77000 29.30600
H  34.49300 6.13300 27.79000
H  34.44900 7.23100 29.25900
H  40.19100 9.44300 25.21700
H  43.08500 8.98000 25.64500
H  40.61200 6.75400 25.99600
H  41.94600 7.22300 24.97300
H  40.20500 7.18600 24.53500
H  42.38400 10.53000 24.02800
H  43.28500 11.50300 25.22700
H  41.46100 12.96700 25.46400
H  40.44200 11.63900 25.90100
H  40.61300 12.05900 24.19000
H  46.01600 11.83900 28.06100
H  46.95500 11.08000 29.36900
H  46.36900 12.77000 29.51900
H  43.68500 12.53900 33.93800
H  44.45800 11.30600 37.91600
H  46.04500 11.02700 37.14300
H  44.88700 9.76200 37.19000
Mg 1.56900 42.28500 25.23500
C  2.96600 42.19200 28.52400
C  -1.43000 41.07300 26.61200
C  0.37700 41.79600 22.06400
C  4.62000 43.14900 23.96200
N  0.86200 41.69500 27.30000
C  1.53300 41.88100 28.46700
C  0.60900 41.62300 29.71900
C  -0.66500 40.97600 29.02500
C  -0.37500 41.13500 27.53400
C  -1.04300 39.54800 29.52100
C  0.35900 43.02400 30.48800
C  0.27800 42.99200 32.05500
H  0.09200 41.67500 32.80800
N  -0.29900 41.65700 24.44600
C  -1.39500 41.30900 25.18300
C  -2.44900 40.93300 24.28900
C  -2.04700 41.05600 22.97400
C  -0.61000 41.56500 23.06900
C  -3.78400 40.41100 24.80000
C  -2.74000 40.74000 21.68900
O  -2.18300 40.84100 20.55100
C  -4.23400 40.27800 21.77300
N  2.42300 42.53300 23.21200
C  1.74400 42.21500 22.08200
C  2.61100 42.60500 20.86200
C  3.92900 43.22700 21.46000
C  3.68400 42.96800 22.99000
C  2.93200 41.31400 20.08200
C  4.23400 44.66200 20.99300
C  4.42000 44.85300 19.48400
N  3.40600 42.62400 25.99900
C  4.58700 42.87900 25.31300
C  5.68200 42.96000 26.25100
C  5.07100 42.81400 27.52200
C  3.71600 42.49000 27.33100
C  7.16000 43.28100 25.90900
C  5.30300 42.71200 28.95000
O  6.37400 42.68000 29.56500
C  3.97000 42.34800 29.68600
C  4.29800 41.01300 30.35300
O  4.42100 39.92800 29.78500
O  4.28900 41.18800 31.71400
C  4.14600 40.06900 32.63400
H  -2.37300 40.92500 27.14200
H  0.05600 41.55300 21.04900
H  5.61800 43.44300 23.62800
H  0.92200 40.86500 30.43700
H  -1.47900 41.68500 29.17700
H  -0.92000 38.96600 28.60800
H  -2.09900 39.66800 29.76600
H  -0.46900 39.08000 30.32100
H  -0.51300 43.60100 30.17800
H  1.22500 43.63200 30.22600
H  -0.47200 43.70500 32.39900
H  1.19900 43.37600 32.49200
H  -4.69300 40.86900 24.41200
H  -3.85400 40.50300 25.88400
H  -3.82500 39.32700 24.69200
H  -4.26000 39.36500 22.36700
H  -4.43800 40.01900 20.73400
H  -4.91700 41.07500 22.06700
H  1.98700 43.20800 20.20200
H  4.86400 42.76400 21.14400
H  2.79100 40.42100 20.69200
H  3.94900 41.29500 19.69000
H  2.30900 41.08600 19.21800
H  5.16700 45.01100 21.43400
H  3.51800 45.34500 21.45100
H  4.64200 44.00400 18.83800
H  5.36300 45.38700 19.36400
H  3.52300 45.31400 19.07000
H  7.18000 44.32100 25.58400
H  7.24400 42.61000 25.05300
H  7.80900 43.00500 26.74000
H  3.57100 42.93300 30.51400
H  5.13900 39.85200 33.02800
H  3.82100 39.23000 32.01900
H  3.52500 40.33800 33.48800

