158

Mg 52.80000 24.09400 44.62700
C  49.87800 25.98700 43.76200
C  51.11300 21.34600 43.26400
C  55.70000 22.38200 44.93600
C  54.39300 27.07400 45.58800
N  50.74900 23.78500 43.57600
C  49.80700 24.71200 43.24600
C  48.62500 24.04800 42.59100
C  48.84500 22.52500 43.09500
C  50.33900 22.52600 43.33900
C  47.91700 22.10500 44.28800
C  48.75400 24.40600 41.09300
C  47.45800 24.47600 40.27100
H  47.45100 23.66500 38.94800
N  53.37900 22.18700 44.09100
C  52.54700 21.20700 43.54000
C  53.24400 19.91300 43.52800
C  54.53600 20.18600 44.03100
C  54.62700 21.64000 44.36300
C  52.70400 18.63200 42.98700
C  55.66500 19.16300 44.17800
O  55.45500 17.97000 44.00800
C  57.14600 19.59200 44.47500
N  55.00800 24.70900 44.85100
C  55.93200 23.76900 45.11800
C  57.13000 24.44400 45.82900
C  56.83600 25.92300 45.80900
C  55.28400 25.94600 45.43800
C  57.45900 23.85600 47.23400
C  57.64300 26.82600 44.75000
C  58.74200 27.59500 45.35400
N  52.26200 26.05000 44.85700
C  52.99100 27.13100 45.29600
C  52.11800 28.22800 45.28000
C  50.92500 27.83100 44.76400
C  51.04400 26.48300 44.44500
C  52.41200 29.60200 45.75600
C  49.61500 28.23100 44.46700
O  49.10600 29.33000 44.56400
C  48.85800 27.10300 43.73700
C  48.49400 27.61800 42.39900
O  49.11800 28.22200 41.58300
O  47.14700 27.30700 42.24800
C  46.51800 27.84200 41.03400
H  50.57800 20.45600 42.92600
H  56.49100 21.67700 45.20000
H  54.74200 28.02800 45.98900
H  47.70300 24.28700 43.12200
H  48.57200 21.86300 42.27300
H  46.92000 22.54300 44.24400
H  48.42800 22.44600 45.18700
H  47.84000 21.01800 44.32000
H  49.42900 23.72900 40.56900
H  49.18900 25.40400 41.02900
H  47.24300 25.51800 40.03500
H  46.63700 24.06700 40.86100
H  53.56600 18.24800 42.44100
H  51.85600 18.73100 42.30900
H  52.53800 17.94500 43.81700
H  57.49500 20.38500 43.81200
H  57.84300 18.77100 44.30600
H  57.25400 19.68700 45.55500
H  57.93300 24.19500 45.13600
H  56.86500 26.27800 46.84000
H  58.52700 23.65700 47.32600
H  56.97500 22.88900 47.37100
H  57.13300 24.46800 48.07500
H  56.92100 27.35500 44.12800
H  58.09700 26.20600 43.97800
H  59.04000 26.90500 46.14200
H  58.22100 28.49900 45.66900
H  59.57300 27.73800 44.66200
H  52.09500 30.27500 44.95900
H  53.48100 29.74500 45.91600
H  51.88200 29.82800 46.68200
H  48.07800 26.83500 44.45000
H  46.34900 28.90500 41.20800
H  45.52600 27.42100 40.87200
H  47.17000 27.69800 40.17300
Mg 46.28100 45.26100 42.93300
C  43.09200 43.98900 42.94400
C  47.35500 41.98600 42.27800
C  49.53300 46.40800 42.67800
C  45.12200 48.43300 43.24700
N  45.33200 43.22600 42.69600
C  43.97800 42.96700 42.72300
C  43.64000 41.44400 42.53800
C  45.04700 40.86200 42.70500
C  45.99800 42.06500 42.53200
C  45.31300 40.08200 44.06100
C  43.01900 41.18000 41.13800
C  43.82900 41.70900 39.89800
H  43.99300 40.80200 38.71400
N  48.11100 44.35200 42.40100
C  48.35000 43.01700 42.24300
C  49.75800 42.88500 41.88300
C  50.36200 44.17600 41.72200
C  49.34200 45.06500 42.28500
C  50.45800 41.54500 41.61200
C  51.67500 44.56200 41.11200
O  52.46600 43.75100 40.65000
C  52.13600 45.93500 40.99200
N  47.16600 47.13500 42.82400
C  48.50700 47.29900 42.98600
C  48.84900 48.71400 43.49700
C  47.48600 49.45800 43.21700
C  46.50500 48.27000 43.10400
C  49.25600 48.63000 45.02100
C  47.39300 50.49100 42.02400
C  46.88900 51.90600 42.48300
N  44.48700 46.11200 43.22900
C  44.15600 47.43100 43.38900
C  42.68900 47.57100 43.56500
C  42.22000 46.25700 43.41300
C  43.34500 45.38900 43.23400
C  41.90300 48.81900 43.75600
C  41.12600 45.34700 43.41500
O  39.91700 45.51200 43.64100
C  41.59200 43.85100 43.19700
C  41.35800 43.16700 44.50900
O  41.99300 43.26900 45.56100
O  40.14400 42.43500 44.46400
C  39.61200 42.02200 45.79700
H  47.74200 40.96900 42.17600
H  50.53400 46.65000 43.03900
H  44.84000 49.47700 43.39400
H  42.93400 41.18700 43.32700
H  45.21900 40.10700 41.93700
H  44.66100 40.27800 44.91200
H  46.22800 40.48200 44.50000
H  45.46600 39.02800 43.82800
H  42.03800 41.65600 41.14800
H  42.93100 40.09900 41.02500
H  44.87400 41.95100 40.09000
H  43.29900 42.63400 39.67100
H  50.24200 41.23000 40.59200
H  50.18100 40.83600 42.39300
H  51.53600 41.68700 41.67900
H  51.35900 46.55000 40.53800
H  53.14800 46.02300 40.59700
H  52.18400 46.35200 41.99800
H  49.69600 49.10100 42.93200
H  47.15700 49.99000 44.11000
H  48.94900 47.71000 45.51800
H  48.85500 49.51600 45.51300
H  50.33700 48.75200 45.09300
H  46.66300 50.11100 41.30900
H  48.41800 50.49900 41.65500
H  47.83300 52.44700 42.54800
H  46.29500 51.81500 43.39200
H  46.35800 52.43300 41.69000
H  42.19400 49.22800 44.72400
H  40.83200 48.63000 43.81900
H  42.02500 49.49200 42.90600
H  41.13300 43.37100 42.33300
H  39.04100 41.14600 45.48800
H  39.17200 42.83100 46.38100
H  40.40300 41.57400 46.39900

