158

Mg 47.48300 16.80300 28.31300
C  45.25600 16.35700 31.06500
C  49.53600 18.52200 30.22700
C  49.25500 17.49500 25.54100
C  45.34200 14.85800 26.42200
N  47.27200 17.46300 30.39700
C  46.38100 17.08400 31.36500
C  46.91500 17.50800 32.77400
C  48.23400 18.27100 32.41100
C  48.41400 18.12200 30.94600
C  48.15000 19.81300 32.80500
C  47.03900 16.34100 33.85000
C  46.57300 16.53000 35.30500
H  46.23600 17.86900 35.86200
N  49.29300 17.77700 27.93900
C  49.97200 18.43700 28.86800
C  51.09700 19.06000 28.28600
C  51.09100 18.75100 26.87600
C  49.85300 17.99400 26.68900
C  52.09700 19.79900 29.14900
C  52.02600 19.07500 25.85900
O  51.93900 18.68000 24.71400
C  53.25400 19.89000 26.27500
N  47.27800 16.25200 26.28200
C  48.16000 16.60900 25.34900
C  47.68600 16.20900 23.99400
C  46.47800 15.28200 24.22500
C  46.39500 15.36000 25.74100
C  47.29000 17.42800 23.13100
C  46.66400 13.78000 23.70000
C  45.43700 12.99900 23.18700
N  45.67100 15.91900 28.55600
C  44.87400 15.21000 27.70100
C  43.60900 14.76100 28.30400
C  43.76200 15.25700 29.57600
C  44.95000 15.91300 29.70700
C  42.48000 13.92700 27.69900
C  43.07900 15.16800 30.84400
O  42.06900 14.58000 31.18100
C  44.09200 15.84700 31.89500
C  43.22700 16.80600 32.60700
O  42.78800 17.87100 32.19600
O  42.92300 16.32600 33.87200
C  42.04100 17.14100 34.76300
H  50.25100 18.96800 30.92200
H  49.70100 17.76500 24.58200
H  44.50600 14.31300 25.97700
H  46.17500 18.18200 33.20600
H  49.01000 17.71100 32.93300
H  48.65900 20.39800 32.03900
H  48.91400 19.94900 33.57000
H  47.17200 20.19400 33.09800
H  48.07800 16.05600 33.68400
H  46.41900 15.51700 33.49500
H  47.18400 16.07400 36.08400
H  45.68300 15.90200 35.30600
H  52.29000 19.26500 30.07900
H  51.78800 20.81800 29.38600
H  53.10400 19.66500 28.75400
H  53.57300 20.38300 25.35700
H  54.04400 19.29100 26.72700
H  52.90100 20.75400 26.83900
H  48.46500 15.63600 23.49200
H  45.54000 15.70800 23.86800
H  47.04100 18.29100 23.74700
H  46.43900 17.17800 22.49700
H  48.09700 17.54900 22.40800
H  47.04400 13.07900 24.44300
H  47.36000 13.78200 22.86100
H  45.66600 12.72300 22.15800
H  44.54100 13.61900 23.20700
H  45.24200 12.08600 23.75000
H  42.82400 13.40800 26.80500
H  41.61000 14.49600 27.37300
H  42.04700 13.26600 28.45000
H  44.54900 15.22600 32.66600
H  41.08400 16.69400 35.03300
H  41.88600 18.14000 34.35600
H  42.58300 17.24400 35.70200
Mg 30.87000 58.07400 39.74500
C  27.96500 55.98800 38.96700
C  32.84500 55.40400 39.03100
C  33.44100 60.31200 39.75400
C  28.58000 60.77300 40.22600
N  30.45800 55.92900 39.04900
C  29.21700 55.30900 38.88700
C  29.43100 53.81600 38.44700
C  30.87600 53.58700 38.85300
C  31.49100 55.06400 38.88800
C  31.22500 52.87600 40.19100
C  29.18700 53.71200 36.94500
C  28.16400 52.79500 36.40100
H  27.26000 53.35700 35.33000
N  32.79700 57.87400 39.37300
C  33.46300 56.67800 39.20600
C  34.92000 56.96700 39.08600
C  35.10400 58.37700 39.16600
C  33.76600 58.91700 39.42400
C  35.93300 55.94200 38.96500
C  36.43900 59.19600 39.14000
O  37.52500 58.55400 39.26300
C  36.47100 60.74000 39.10800
N  30.99900 60.22900 39.99200
C  32.19000 60.87000 40.01400
C  32.08100 62.36100 40.46600
C  30.51200 62.44300 40.60900
C  29.94000 61.05900 40.15000
C  32.89500 62.73400 41.80500
C  29.93900 63.56200 39.74600
C  29.98300 63.24400 38.26000
N  28.71000 58.39100 39.73800
C  27.96600 59.52300 39.91200
C  26.49700 59.17600 39.75100
C  26.50300 57.82800 39.34700
C  27.84400 57.37900 39.42700
C  25.34300 60.10000 39.89800
C  25.59800 56.67700 38.92500
O  24.41200 56.62100 38.78100
C  26.56400 55.45600 38.72800
C  26.18300 54.31500 39.56200
O  26.33400 54.24700 40.76700
O  25.50800 53.34200 38.89800
C  24.99700 52.16800 39.71500
H  33.54900 54.57200 39.09800
H  34.18000 61.11600 39.74400
H  27.91300 61.60600 40.45500
H  28.65500 53.20200 38.90500
H  31.41600 53.06600 38.06200
H  32.17700 52.34500 40.18100
H  30.40900 52.23100 40.51600
H  31.29000 53.56900 41.02900
H  30.05900 53.37100 36.38700
H  28.84900 54.66800 36.54500
H  27.42900 52.46500 37.13500
H  28.57800 51.88400 35.96800
H  35.55400 55.13700 38.33500
H  36.28700 55.51400 39.90200
H  36.86700 56.32400 38.55300
H  36.09500 60.98400 40.10200
H  35.89800 61.08200 38.24600
H  37.49100 61.08700 38.94600
H  32.49600 62.89400 39.61100
H  30.11100 62.54400 41.61700
H  33.41800 61.88900 42.25500
H  32.37600 63.18900 42.64900
H  33.70200 63.41000 41.52500
H  30.73400 64.28000 39.94600
H  28.94500 63.87400 40.06400
H  29.00000 62.89400 37.94300
H  30.62600 62.38600 38.06600
H  30.22700 64.17600 37.75000
H  25.54000 60.97400 39.27700
H  25.16000 60.33900 40.94600
H  24.48800 59.59600 39.44900
H  26.53100 55.07500 37.70800
H  24.16100 52.43900 40.36000
H  25.76800 51.76600 40.37200
H  24.49900 51.47700 39.03400

