158

Mg 48.33400 25.07700 30.01200
C  49.27000 27.32100 32.35100
C  46.65900 23.27600 32.69200
C  47.53200 22.46700 27.97200
C  50.22500 26.35200 27.54300
N  47.94900 25.26200 32.23900
C  48.41800 26.33300 32.95900
C  48.09200 26.18500 34.48700
C  47.33100 24.79300 34.53200
C  47.30100 24.41500 33.08600
C  47.98600 23.75600 35.49200
C  47.21600 27.37100 34.92600
C  47.40300 27.77500 36.41400
H  46.20100 27.65500 37.42900
N  47.09000 23.24200 30.28200
C  46.47700 22.71400 31.42500
C  45.83900 21.41900 31.04200
C  45.94500 21.25100 29.63300
C  46.85200 22.36900 29.21200
C  44.91800 20.62200 32.00600
C  45.29400 20.26600 28.65500
O  45.45500 20.28800 27.45800
C  44.36100 19.28000 29.17800
N  48.75700 24.51800 27.95000
C  48.38000 23.40700 27.35400
C  48.85100 23.23800 25.90600
C  49.81300 24.48400 25.86200
C  49.52000 25.21600 27.13000
C  49.53200 21.86000 25.48700
C  49.70100 25.42500 24.60000
C  50.97600 25.45400 23.85600
N  49.59700 26.52300 29.93200
C  50.24900 27.04300 28.81500
C  50.87000 28.28500 29.33400
C  50.54800 28.41000 30.67300
C  49.72400 27.31200 30.98300
C  51.69500 29.23600 28.40700
C  50.75100 29.23600 31.83900
O  51.41000 30.28100 32.05500
C  50.09100 28.43000 33.00400
C  51.13100 28.00000 34.01400
O  51.99800 27.25200 33.79400
O  51.05400 28.68400 35.15900
C  52.09700 28.59500 36.22000
H  46.14100 22.68100 33.44700
H  47.31900 21.59600 27.35000
H  50.92900 26.84300 26.86800
H  49.04600 26.09500 35.00800
H  46.30200 24.86600 34.88500
H  48.50800 22.95000 34.97800
H  47.23200 23.25600 36.09900
H  48.66000 24.32100 36.13700
H  46.21100 26.96100 34.82600
H  47.26800 28.25400 34.29000
H  47.74900 28.80500 36.32200
H  48.26300 27.23400 36.81000
H  43.90900 20.82900 31.64900
H  44.98800 21.06000 33.00100
H  45.02700 19.53800 32.04700
H  43.46000 19.82400 29.46000
H  44.70000 18.74000 30.06200
H  44.11100 18.43900 28.53100
H  48.01300 23.38400 25.22400
H  50.85100 24.17000 25.75900
H  50.58400 22.07300 25.67700
H  49.51300 21.50600 24.45600
H  49.28800 21.05800 26.18300
H  49.40000 26.45900 24.77100
H  48.95200 24.94800 23.96800
H  51.79500 25.89700 24.42200
H  50.73700 26.03800 22.96700
H  51.35400 24.50400 23.47700
H  51.12300 29.95900 27.82600
H  52.24400 28.64500 27.67400
H  52.36500 29.78100 29.07100
H  49.47100 29.14900 33.54000
H  51.68300 28.02900 37.05400
H  52.34200 29.60300 36.55300
H  53.05000 28.17600 35.89500
Mg 2.00700 41.89500 24.97900
C  3.84300 41.86200 27.89700
C  -0.89900 41.32900 26.85800
C  0.31800 41.36900 22.07300
C  4.87800 42.35300 23.20600
N  1.54800 41.77300 27.16400
C  2.46100 41.86800 28.15300
C  1.75400 41.75000 29.52000
C  0.26000 41.52800 29.16800
C  0.28300 41.53800 27.65100
C  -0.24200 40.21000 29.76300
C  2.14300 43.06800 30.31700
C  2.57000 42.93800 31.77100
H  1.58900 43.04600 32.93900
N  -0.04300 41.40100 24.56300
C  -1.01800 41.20500 25.43900
C  -2.22800 40.88700 24.68300
C  -1.92500 40.93100 23.30100
C  -0.48200 41.20000 23.24900
C  -3.48600 40.31900 25.40200
C  -2.88300 40.73400 22.09600
O  -2.51600 40.80000 20.93400
C  -4.33900 40.69700 22.32700
N  2.51500 41.77400 22.96000
C  1.70300 41.58400 21.90900
C  2.45100 41.66300 20.57800
C  3.65100 42.47500 20.99800
C  3.72300 42.22300 22.51800
C  2.90000 40.20500 20.08400
C  3.55300 44.05300 20.90700
C  4.13200 44.64800 19.63300
N  3.95300 41.99700 25.36400
C  5.01800 42.29700 24.56600
C  6.26100 42.27600 25.38900
C  5.77700 42.01600 26.67200
C  4.40900 42.05000 26.64200
C  7.68500 42.35100 24.91700
C  6.25100 41.90300 27.94300
O  7.38400 41.77200 28.38200
C  5.07300 41.87700 28.83700
C  5.14300 40.72600 29.69200
O  4.66600 39.60600 29.56900
O  5.80200 41.08500 30.87200
C  5.71100 40.14100 31.96300
H  -1.83500 41.31600 27.42000
H  -0.20600 41.22700 21.12600
H  5.67600 42.60500 22.50400
H  2.11100 40.87500 30.06400
H  -0.33800 42.36200 29.53400
H  -0.43500 39.51000 28.95000
H  -1.12900 40.47500 30.33900
H  0.45800 39.78100 30.47900
H  1.19100 43.57100 30.48700
H  2.73800 43.74500 29.70400
H  3.24100 43.78400 31.91900
H  3.06600 41.97100 31.84000
H  -3.89200 39.41300 24.95300
H  -4.27600 41.06300 25.30000
H  -3.17300 40.11700 26.42700
H  -4.86000 40.67700 21.37000
H  -4.55600 41.57200 22.94000
H  -4.45600 39.78700 22.91500
H  1.92100 42.21500 19.80200
H  4.55500 42.16400 20.47500
H  2.50000 40.01000 19.08900
H  2.58100 39.49700 20.84800
H  3.98200 40.15800 20.20200
H  4.12700 44.45800 21.74000
H  2.50300 44.28300 21.09300
H  3.57300 45.55700 19.41400
H  4.00300 43.90500 18.84500
H  5.19800 44.81600 19.78700
H  8.17700 43.20900 25.37500
H  7.74300 42.40700 23.83000
H  8.14100 41.41600 25.24200
H  4.99600 42.78400 29.43500
H  5.47300 39.11800 31.67100
H  4.85200 40.34100 32.60400
H  6.55300 40.12800 32.65400

