158

Mg 46.10700 25.06600 28.11800
C  46.78200 27.23400 30.88000
C  45.15600 22.71500 30.38800
C  46.02100 22.84600 25.57800
C  47.82500 27.20900 26.09000
N  45.90300 25.08800 30.33800
C  46.11700 26.09300 31.27700
C  45.66700 25.74500 32.75300
C  45.37200 24.21300 32.55000
C  45.51500 23.97700 31.00200
C  46.31200 23.35200 33.32800
C  44.47400 26.57000 33.32400
C  44.63300 27.26700 34.68200
H  43.61600 27.13600 35.84500
N  45.55700 23.05300 27.99300
C  45.06600 22.25800 28.99900
C  44.67700 20.88100 28.52700
C  45.11200 20.86700 27.09200
C  45.62600 22.28500 26.83600
C  44.18500 19.80800 29.32600
C  45.09700 19.70900 26.15200
O  45.53800 19.77300 25.01500
C  44.67800 18.35300 26.63500
N  46.78800 25.04000 26.16200
C  46.47800 24.09100 25.23800
C  46.87600 24.57800 23.82900
C  47.14400 26.09900 24.02300
C  47.18300 26.18200 25.49600
C  48.09300 23.83500 23.20300
C  45.96500 27.02700 23.50500
C  46.32300 28.00200 22.33700
N  47.25900 26.77500 28.34800
C  47.87700 27.58600 27.39300
C  48.38300 28.82700 28.01900
C  47.94800 28.69100 29.37900
C  47.27000 27.51000 29.56900
C  49.04900 29.92400 27.30600
C  47.93700 29.30600 30.66200
O  48.48800 30.38900 30.94100
C  47.23700 28.36200 31.77400
C  48.19800 27.83500 32.85200
O  49.01100 26.98600 32.58400
O  48.11900 28.54300 34.05700
C  48.85800 28.06800 35.24900
H  44.76800 22.07900 31.18600
H  46.00600 22.07100 24.80900
H  48.22100 27.91000 25.35300
H  46.56800 25.91000 33.34300
H  44.36800 23.89100 32.82700
H  47.05400 22.87000 32.69200
H  45.75100 22.58700 33.86500
H  46.89900 23.87600 34.08200
H  43.58100 25.95000 33.40200
H  44.21200 27.29300 32.55200
H  44.77400 28.31100 34.40200
H  45.62900 26.96800 35.00900
H  43.36700 19.33600 28.78200
H  44.07200 20.19600 30.33800
H  44.97800 19.08300 29.50600
H  45.45000 18.03200 27.33500
H  44.53000 17.77500 25.72300
H  43.69900 18.38600 27.11200
H  46.09100 24.56000 23.07200
H  48.09900 26.48200 23.66200
H  48.32100 22.92900 23.76400
H  49.01200 24.41400 23.10800
H  47.77800 23.47200 22.22500
H  45.70200 27.64600 24.36300
H  45.03200 26.50100 23.30100
H  46.31300 28.99600 22.78300
H  45.47000 27.94800 21.66000
H  47.26200 27.76900 21.83400
H  48.38600 30.74100 27.02300
H  49.56900 29.52700 26.43400
H  49.86500 30.30300 27.92100
H  46.36100 28.83900 32.21200
H  48.49200 27.04600 35.35000
H  48.71400 28.58000 36.20000
H  49.91700 28.09200 34.99300
Mg 37.17600 50.14100 24.73200
C  36.86100 48.52400 27.91600
C  36.17000 53.08100 26.27300
C  37.29600 51.49600 21.72800
C  37.61600 46.96600 23.33600
N  36.53600 50.75500 26.89600
C  36.61400 49.93500 28.06100
C  36.24000 50.74000 29.34800
C  35.91400 52.19100 28.76300
C  36.19200 52.02700 27.21100
C  34.56000 52.75400 29.20200
C  37.34100 50.78800 30.39900
C  37.09500 50.01600 31.72100
H  35.80300 50.32900 32.36100
N  36.72200 52.02800 24.04100
C  36.41000 53.12400 24.80600
C  36.37700 54.27100 23.95500
C  36.76900 53.79600 22.67500
C  36.97900 52.38900 22.76500
C  36.02900 55.75200 24.40400
C  37.00300 54.61400 21.34300
O  37.58800 54.14700 20.35900
C  36.62300 56.04600 21.21000
N  37.34700 49.31700 22.87600
C  37.50900 50.10700 21.83400
C  37.78400 49.25200 20.51900
C  38.07300 47.88300 21.08400
C  37.64000 48.01500 22.51900
C  36.62100 49.29800 19.40700
C  39.61000 47.49600 21.06400
C  40.15700 46.24600 20.43400
N  37.25700 48.13300 25.37800
C  37.48500 46.90100 24.72300
C  37.60300 45.78900 25.65100
C  37.34500 46.42200 26.86900
C  37.14800 47.80400 26.68600
C  37.75300 44.40800 25.36500
C  37.34200 46.09600 28.29800
O  37.57100 45.01400 28.93500
C  36.95300 47.43200 28.98700
C  35.62600 47.27900 29.62100
O  34.52300 47.57400 29.13700
O  35.81200 46.47600 30.79600
C  34.60100 45.97200 31.46400
H  35.88500 54.06800 26.64200
H  37.43700 51.93700 20.73900
H  37.82700 46.03300 22.80800
H  35.38600 50.26500 29.83100
H  36.57700 52.99600 29.07800
H  33.89900 52.01900 29.66100
H  34.03000 52.90900 28.26200
H  34.64400 53.65100 29.81400
H  37.51900 51.80600 30.74600
H  38.28500 50.35700 30.06500
H  37.85400 50.25600 32.46500
H  37.20300 48.94100 31.57400
H  35.68300 55.92300 25.42300
H  35.33900 56.11500 23.64200
H  36.94400 56.34400 24.37400
H  36.77400 56.63800 22.11300
H  35.53800 56.01800 21.11600
H  37.18500 56.52300 20.40700
H  38.67500 49.76700 20.16200
H  37.45300 47.11800 20.61700
H  36.90600 49.81600 18.49100
H  35.78400 49.87500 19.79900
H  36.18500 48.31800 19.21300
H  39.97600 47.43500 22.08900
H  40.23500 48.28600 20.64600
H  40.00300 45.44700 21.15900
H  41.21900 46.30500 20.19600
H  39.64700 46.19100 19.47200
H  38.40000 44.25400 24.50100
H  36.81900 43.89000 25.14900
H  38.18400 43.88400 26.21800
H  37.64400 47.72100 29.77900
H  34.05200 46.71900 32.03700
H  34.63800 45.10000 32.11600
H  33.81600 45.73500 30.74500

