158

Mg 25.83500 1.21400 29.66600
C  27.85800 1.06300 32.47200
C  23.04700 1.46000 31.67600
C  23.95000 1.72100 26.97200
C  28.70000 0.50600 27.62900
N  25.49700 1.08300 31.78200
C  26.49600 1.23600 32.73100
C  25.94300 1.32500 34.16500
C  24.34900 1.24800 34.00700
C  24.27300 1.25400 32.39400
C  23.63300 -0.02800 34.47400
C  26.38600 2.67200 34.80300
C  26.96000 2.53300 36.24400
H  26.62600 3.60800 37.28100
N  23.77800 1.47000 29.34400
C  22.82200 1.63700 30.30000
C  21.54700 1.90100 29.72400
C  21.72800 1.90200 28.32500
C  23.22900 1.74200 28.18800
C  20.29500 2.00900 30.45200
C  20.77800 2.01200 27.13400
O  21.15900 2.01600 25.96200
C  19.30100 2.01900 27.34200
N  26.26500 0.91300 27.57200
C  25.35000 1.36800 26.70800
C  25.91900 1.44800 25.20900
C  27.49600 1.19700 25.46900
C  27.50700 0.82700 26.95900
C  25.27100 0.59400 24.10600
C  28.45800 2.35300 25.11000
C  29.44800 2.06800 23.95400
N  27.79500 0.75900 29.93300
C  28.80300 0.54500 29.05600
C  30.05200 0.32300 29.81700
C  29.72200 0.57600 31.13400
C  28.37100 0.85900 31.18000
C  31.43400 0.12500 29.18300
C  30.29400 0.69700 32.48400
O  31.44200 0.50700 32.83200
C  29.11400 1.11500 33.41900
C  28.98800 0.09700 34.54800
O  28.41600 -0.94200 34.56600
O  29.57300 0.67900 35.69000
C  29.50200 -0.23100 36.80600
H  22.23500 1.46900 32.40700
H  23.47000 1.90800 26.00900
H  29.59400 0.34500 27.02300
H  26.20100 0.51500 34.84700
H  23.89800 2.17400 34.36300
H  22.81400 0.27000 35.12900
H  24.36000 -0.75800 34.82700
H  23.25500 -0.58000 33.61400
H  25.64000 3.45800 34.68200
H  27.29000 3.04600 34.32300
H  28.04100 2.41400 36.16600
H  26.67800 1.64400 36.80700
H  19.77300 2.77100 29.87400
H  20.50100 2.37800 31.45700
H  19.75400 1.06300 30.47100
H  19.08700 1.01400 27.70400
H  18.87300 1.96400 26.34100
H  18.80200 2.69700 28.03400
H  25.72900 2.50400 25.01300
H  27.83800 0.32100 24.91800
H  24.88900 1.21400 23.29500
H  24.41300 0.02800 24.47000
H  25.91800 -0.21600 23.76900
H  29.08100 2.62700 25.96200
H  27.81800 3.21400 24.92000
H  29.67800 2.82200 23.20200
H  29.08800 1.16700 23.45800
H  30.38400 1.80800 24.45000
H  32.29100 -0.04600 29.83400
H  31.82700 0.92900 28.56000
H  31.42600 -0.77600 28.57000
H  29.18700 2.06900 33.94200
H  30.16900 0.06500 37.61600
H  29.63900 -1.28000 36.54500
H  28.53300 0.00700 37.24300
Mg 17.13900 51.91100 25.89600
C  18.90600 50.56000 28.47300
C  14.72600 52.95700 27.97800
C  15.29500 52.84300 23.20200
C  19.82400 50.98400 23.72400
N  16.82900 51.62400 27.96200
C  17.71600 51.19600 28.88600
C  17.17900 51.22700 30.28700
C  15.69200 51.90200 30.12000
C  15.69000 52.16400 28.54500
C  14.45800 51.14300 30.69300
C  18.11300 52.03700 31.23900
C  17.71400 52.14400 32.67100
H  16.65300 51.25900 33.30700
N  15.33700 52.87000 25.66300
C  14.47600 53.27300 26.65000
C  13.35000 54.00800 26.12300
C  13.62200 54.00800 24.71300
C  14.72300 53.17300 24.43300
C  12.22000 54.57500 27.00000
C  12.83900 54.75900 23.68900
O  13.09200 54.69000 22.51200
C  11.51100 55.48300 24.09200
N  17.48400 52.05200 23.84800
C  16.61200 52.42700 22.83200
C  17.19100 52.39400 21.48200
C  18.68300 51.98300 21.74700
C  18.70000 51.63200 23.21400
C  16.43500 51.38500 20.64600
C  19.67900 53.09200 21.34500
C  19.92800 54.28400 22.24300
N  18.93300 50.94800 26.02700
C  19.88900 50.51900 25.03000
C  20.99500 49.77600 25.69500
C  20.64800 49.74400 27.05000
C  19.37500 50.43300 27.15600
C  22.21800 49.24000 24.99700
C  21.10900 49.40800 28.28500
O  22.17100 48.92300 28.69300
C  20.02800 49.89000 29.31700
C  19.54000 48.73000 30.11300
O  18.92700 47.75900 29.68400
O  19.85000 48.95500 31.46300
C  19.29100 47.93800 32.34300
H  14.05200 53.33400 28.75000
H  14.65200 53.07700 22.35000
H  20.68000 50.71400 23.10200
H  17.09700 50.19900 30.63800
H  15.62600 52.89000 30.57500
H  13.89700 51.79900 31.35900
H  14.91800 50.36200 31.29900
H  13.77600 50.69600 29.96900
H  17.93600 53.02700 30.81900
H  19.18400 51.85200 31.15200
H  17.44000 53.18700 32.83000
H  18.50400 51.87700 33.37200
H  12.22900 55.66100 26.90900
H  12.29400 54.22800 28.03100
H  11.23100 54.17800 26.77000
H  11.72300 56.37800 24.67700
H  10.75900 54.85600 24.57200
H  10.97300 55.59400 23.15100
H  17.08600 53.39100 21.05400
H  18.94500 51.05400 21.24100
H  16.74000 50.36600 20.88500
H  16.52200 51.56600 19.57400
H  15.37600 51.53400 20.85500
H  19.48000 53.38600 20.31500
H  20.60800 52.52700 21.26400
H  19.03500 54.42600 22.85200
H  20.11800 55.17700 21.64800
H  20.68300 54.11800 23.01200
H  22.34000 49.10500 23.92200
H  22.20400 48.16500 25.17800
H  23.10100 49.70800 25.43300
H  20.56100 50.61300 29.93300
H  19.67700 48.22200 33.32200
H  19.70500 46.97600 32.04100
H  18.20700 47.83500 32.29900

