158

Mg 25.78600 0.90000 29.58300
C  27.83700 0.83200 32.39200
C  23.12700 1.45500 31.53000
C  23.96200 1.21900 26.79900
C  28.57000 0.22600 27.49700
N  25.51600 1.00000 31.69600
C  26.48500 1.05500 32.70200
C  25.85700 1.23500 34.10200
C  24.32100 1.28700 33.75600
C  24.27700 1.16100 32.25000
C  23.30700 0.41600 34.53500
C  26.53500 2.47000 34.85400
C  25.66200 2.95500 36.08000
H  26.45300 3.16300 37.34400
N  23.79400 1.27300 29.16400
C  22.83600 1.48900 30.11100
C  21.62300 1.88500 29.49200
C  21.76300 1.65700 28.08600
C  23.22300 1.38400 27.94000
C  20.26600 2.07700 30.28500
C  20.75900 1.81900 26.97000
O  20.98300 1.68500 25.79000
C  19.33000 2.28800 27.26600
N  26.19400 0.76600 27.43500
C  25.30200 0.94600 26.47500
C  25.79200 0.86600 25.10200
C  27.26200 0.45700 25.27000
C  27.38100 0.55200 26.83700
C  24.95900 0.04100 24.06800
C  28.18400 1.46000 24.53700
C  29.50800 0.78100 23.96400
N  27.83400 0.43200 29.87300
C  28.79500 0.06500 28.91900
C  30.06000 -0.14000 29.65600
C  29.69800 0.22300 31.04800
C  28.35000 0.51300 31.08200
C  31.36600 -0.40200 29.00200
C  30.21300 0.46500 32.34700
O  31.36800 0.35000 32.69500
C  29.03800 0.87700 33.28700
C  28.91800 0.01200 34.39500
O  28.24700 -1.00900 34.40600
O  29.53700 0.59300 35.47800
C  29.39300 -0.13900 36.69200
H  22.23400 1.72800 32.09600
H  23.24900 1.15000 25.97500
H  29.40300 0.05500 26.81200
H  26.16400 0.37300 34.69500
H  24.05700 2.30500 34.04100
H  22.91500 -0.35600 33.87200
H  22.47600 0.99700 34.93600
H  23.79500 -0.04000 35.39600
H  26.57600 3.24600 34.08900
H  27.50900 2.18000 35.24900
H  24.89600 2.19000 36.20600
H  25.32600 3.95200 35.79500
H  19.75300 3.03700 30.22800
H  20.32100 2.04500 31.37300
H  19.60900 1.29500 29.90600
H  18.62100 1.97000 26.50100
H  19.34100 3.37700 27.24400
H  18.95100 1.81200 28.17100
H  25.63200 1.86100 24.68600
H  27.48200 -0.51600 24.83100
H  24.30500 -0.62500 24.63000
H  25.60500 -0.52700 23.39900
H  24.36300 0.69100 23.42800
H  28.28900 2.29700 25.22700
H  27.70600 1.83100 23.63000
H  30.41200 1.13100 24.46300
H  29.62900 1.01100 22.90600
H  29.48600 -0.30100 24.10000
H  31.69400 0.47700 28.44800
H  31.26900 -1.23700 28.30700
H  32.10800 -0.50800 29.79300
H  29.17200 1.94400 33.46300
H  30.26100 0.18400 37.26700
H  29.58000 -1.20800 36.59000
H  28.49600 0.21900 37.19800
Mg 16.52200 51.97300 25.97800
C  18.59300 50.66600 28.69200
C  14.31900 52.97900 28.27100
C  14.70700 53.04000 23.39500
C  18.88900 50.43700 23.71500
N  16.59800 51.91400 28.26100
C  17.48000 51.43200 29.19400
C  17.00700 51.59700 30.59200
C  15.56800 52.10500 30.43300
C  15.43000 52.34000 28.87400
C  14.47800 51.05700 31.01500
C  17.83100 52.61900 31.42800
C  17.81800 52.54600 32.95700
H  16.70900 51.74200 33.56600
N  14.77300 52.89100 25.84300
C  14.06300 53.35400 26.90700
C  13.01300 54.19000 26.43100
C  13.08800 54.16800 24.99300
C  14.23100 53.31700 24.69100
C  11.96000 54.82600 27.31600
C  12.26200 54.93200 23.93800
O  12.51600 55.07300 22.74600
C  11.12300 55.78500 24.39600
N  16.71200 51.65800 23.79700
C  15.88200 52.31300 23.01600
C  16.47600 52.24100 21.55500
C  17.71000 51.29800 21.59700
C  17.81100 51.13200 23.10000
C  15.50400 52.01700 20.42100
C  19.05700 51.89800 21.00600
C  19.87500 50.86100 20.26500
N  18.35900 50.73100 26.05500
C  19.08900 50.20200 25.06600
C  20.29200 49.55100 25.63100
C  20.10700 49.70800 27.04500
C  18.99100 50.46500 27.26600
C  21.39300 48.89200 24.87000
C  20.66400 49.34000 28.34200
O  21.76700 48.89700 28.64800
C  19.72100 49.91500 29.47100
C  19.26500 48.76000 30.28300
O  18.86000 47.64400 29.96300
O  19.42100 49.16500 31.55200
C  19.47600 48.20200 32.59500
H  13.56900 53.12600 29.05100
H  14.19100 53.43500 22.51800
H  19.75200 50.06100 23.16200
H  17.09400 50.60500 31.03400
H  15.42200 53.06300 30.93300
H  15.04500 50.28400 31.53400
H  13.84000 50.57500 30.27400
H  13.85400 51.46000 31.81300
H  17.55200 53.65200 31.22000
H  18.80900 52.41200 30.99400
H  17.88900 53.57000 33.32200
H  18.74300 52.02100 33.19400
H  11.95000 54.48700 28.35200
H  10.93800 54.72300 26.95000
H  12.14500 55.89700 27.23900
H  10.25800 55.12700 24.48200
H  10.88300 56.46000 23.57400
H  11.23800 56.33000 25.33300
H  16.76400 53.27100 21.34500
H  17.46900 50.34000 21.13600
H  14.86200 52.89600 20.48200
H  14.95100 51.08400 20.53400
H  16.02600 51.90700 19.47100
H  19.58200 52.09900 21.94000
H  18.88200 52.86000 20.52400
H  19.28500 49.94500 20.21900
H  20.85200 50.73200 20.73100
H  20.18400 51.27800 19.30700
H  21.68200 49.61100 24.10300
H  21.10800 47.95100 24.39900
H  22.19000 48.73400 25.59600
H  20.32200 50.60500 30.06300
H  19.61100 47.19400 32.20300
H  18.56300 48.25500 33.18800
H  20.25900 48.43400 33.31600

