158

Mg 35.43400 3.16000 29.29400
C  33.24900 4.22900 31.69300
C  38.01900 3.28700 31.58900
C  37.77200 2.74600 26.81100
C  32.91100 3.37700 26.92500
N  35.57200 3.67100 31.35400
C  34.50200 3.98300 32.18500
C  34.93200 4.20800 33.65000
C  36.50700 4.24800 33.50300
C  36.77300 3.65600 32.05800
C  37.09800 5.67100 33.81600
C  34.42500 2.99200 34.43300
C  33.89600 3.41800 35.81400
H  34.74700 4.46000 36.67700
N  37.60700 2.92200 29.23300
C  38.42600 2.94200 30.29400
C  39.77700 2.70000 29.88200
C  39.75600 2.50100 28.48700
C  38.34500 2.74800 28.10800
C  40.88000 2.65900 30.87000
C  40.97300 2.26700 27.51900
O  40.71800 2.03900 26.32400
C  42.36500 2.43000 27.84400
N  35.36500 3.07000 27.15500
C  36.49300 3.05200 26.34400
C  35.97000 3.15900 24.86800
C  34.42500 2.87900 24.92700
C  34.17200 3.12400 26.41300
C  36.21400 4.51700 24.13100
C  34.03900 1.43800 24.48700
C  33.27400 1.22200 23.10100
N  33.49900 3.68400 29.20800
C  32.56600 3.83100 28.22800
C  31.31300 4.37800 28.74800
C  31.63400 4.49000 30.11200
C  32.88700 4.04700 30.33900
C  30.02000 4.65800 28.10300
C  31.00300 4.91700 31.41400
O  29.91200 5.40100 31.62500
C  32.12000 4.70100 32.50400
C  32.33200 5.96400 33.23500
O  32.85600 7.00800 32.80200
O  31.77100 5.85600 34.48700
C  32.06600 7.10100 35.30700
H  38.80900 3.39400 32.33500
H  38.49200 2.63700 25.99800
H  32.16800 3.44700 26.12800
H  34.58900 5.14700 34.08400
H  37.10100 3.55100 34.09400
H  38.08700 5.70800 33.36100
H  37.09900 5.88500 34.88400
H  36.37900 6.29200 33.28000
H  35.24700 2.27600 34.46400
H  33.57700 2.65500 33.83800
H  34.00700 2.50900 36.40600
H  32.82400 3.61400 35.80900
H  41.82700 2.56300 30.33800
H  40.67900 1.74400 31.42700
H  40.82900 3.51800 31.53900
H  42.96900 2.16900 26.97500
H  42.65200 1.69500 28.59700
H  42.59400 3.45000 28.15400
H  36.47500 2.41600 24.25200
H  33.84100 3.64100 24.41000
H  36.80100 4.35900 23.22700
H  36.76900 5.14100 24.83200
H  35.30900 5.01600 23.78600
H  33.44300 0.93500 25.24700
H  34.92400 0.81900 24.34400
H  33.89100 0.60200 22.45000
H  33.02600 2.12100 22.53700
H  32.37300 0.69400 23.41400
H  30.12500 4.78100 27.02500
H  29.48600 5.52700 28.48700
H  29.34800 3.82000 28.28800
H  31.80200 3.84800 33.10300
H  31.28600 7.85400 35.19700
H  33.10500 7.41000 35.18900
H  32.03300 6.76800 36.34500
Mg 7.05200 52.79500 41.33000
C  6.61700 49.35700 41.15100
C  10.39900 52.39100 40.54400
C  7.26300 56.17900 41.13300
C  3.45200 53.10600 41.74000
N  8.34900 51.07900 40.88300
C  7.96000 49.72900 40.91900
C  9.27600 48.83100 40.96000
C  10.45500 49.84600 40.93000
C  9.65100 51.20400 40.77700
C  11.42900 49.85700 42.13700
C  9.39100 47.73500 39.81600
C  9.50500 48.21700 38.34700
H  8.25900 48.14100 37.38200
N  8.58300 54.17100 40.92100
C  9.89100 53.74400 40.69100
C  10.67700 54.93500 40.49300
C  9.90300 56.06200 40.67000
C  8.50700 55.53700 40.96200
C  12.13300 54.89800 40.10300
C  10.31400 57.45100 40.58400
O  11.43400 57.71400 40.18900
C  9.42100 58.62500 40.83000
N  5.48700 54.48700 41.33600
C  5.93100 55.74500 41.36700
C  4.70400 56.63200 41.62700
C  3.44800 55.69000 41.53400
C  4.15700 54.32700 41.53200
C  4.76400 57.47000 42.91600
C  2.66900 55.93900 40.26000
C  1.14400 56.07500 40.52900
N  5.31300 51.56400 41.35800
C  4.00000 51.76400 41.66000
C  3.36500 50.56100 41.80200
C  4.37300 49.59700 41.70000
C  5.50500 50.27400 41.35300
C  1.93100 50.28500 42.01600
C  4.50500 48.19000 41.87400
O  3.63900 47.30900 42.07800
C  6.00800 47.92900 41.46400
C  5.87300 47.05100 40.24500
O  5.41100 47.44800 39.20100
O  6.16100 45.69600 40.54000
C  5.65300 44.73500 39.55400
H  11.47300 52.30100 40.37200
H  7.27500 57.26600 41.23600
H  2.36900 53.21200 41.82900
H  9.37700 48.24500 41.87300
H  11.00700 50.03200 40.00900
H  11.17300 48.98300 42.73600
H  11.33200 50.72100 42.79400
H  12.44500 49.81100 41.74400
H  8.66300 46.92800 39.90100
H  10.25400 47.10900 40.04500
H  10.34100 47.64500 37.94700
H  9.76600 49.27000 38.45400
H  12.23700 55.48300 39.19000
H  12.62900 53.92900 40.04400
H  12.71100 55.38600 40.88800
H  8.55900 58.69100 40.16600
H  10.00200 59.53900 40.95100
H  9.00400 58.50200 41.83000
H  4.93700 57.34000 40.83200
H  2.79000 55.70500 42.40400
H  5.63900 57.27600 43.53600
H  3.86000 57.49000 43.52500
H  4.88900 58.54600 42.79400
H  2.70000 55.10800 39.55400
H  2.86200 56.93900 39.87100
H  0.71900 55.80200 41.49500
H  0.67700 55.26500 39.96800
H  0.83400 57.07100 40.21300
H  1.53700 50.31300 41.00000
H  1.32300 50.91600 42.66400
H  1.82200 49.27100 42.40200
H  6.52300 47.33900 42.22200
H  5.77400 43.74100 39.98500
H  6.45000 44.65500 38.81500
H  4.76900 45.02300 38.98700

