158

Mg 9.46400 47.97900 26.14200
C  7.51400 47.92500 29.08000
C  12.07400 49.30100 28.02800
C  11.18100 48.36500 23.33400
C  6.60900 47.42300 24.26800
N  9.67900 48.86700 28.27400
C  8.77800 48.52800 29.27700
C  9.45100 48.88700 30.68200
C  10.82600 49.56900 30.28700
C  10.88700 49.26500 28.79000
C  11.07300 51.04600 30.68700
C  9.58900 47.67900 31.57700
C  10.13900 47.87600 32.98100
H  9.78900 46.94100 34.11100
N  11.38300 48.56400 25.71900
C  12.35900 49.01200 26.64900
C  13.62100 49.16700 25.98900
C  13.32300 48.82500 24.61400
C  11.92800 48.65900 24.48200
C  14.91000 49.69800 26.63400
C  14.33400 48.87400 23.46600
O  14.05800 48.49200 22.33000
C  15.71300 49.14900 23.81200
N  8.94800 48.07500 24.16300
C  9.84000 48.14500 23.17900
C  9.20300 48.00500 21.78500
C  7.95100 47.25300 22.14300
C  7.78600 47.62100 23.61200
C  8.81600 49.38800 21.03400
C  8.01100 45.71700 21.80400
C  7.69300 44.61400 22.83100
N  7.48900 47.68200 26.49300
C  6.43200 47.40800 25.67700
C  5.18300 47.19800 26.44100
C  5.58700 47.34900 27.77800
C  6.98500 47.57300 27.77500
C  3.82800 46.89600 25.96800
C  5.12200 47.43400 29.14800
O  3.99800 47.39400 29.66400
C  6.43100 47.60100 30.01900
C  6.69500 46.26200 30.65700
O  6.99800 45.24200 30.11000
O  6.44100 46.42900 31.99300
C  6.74700 45.19200 32.75000
H  12.87500 49.66500 28.67500
H  11.78100 48.29800 22.42400
H  5.76600 47.07700 23.66600
H  8.92500 49.69700 31.18800
H  11.58400 48.94300 30.75700
H  11.78600 51.01100 31.51100
H  10.17800 51.54300 31.06100
H  11.56100 51.60300 29.88700
H  10.25700 46.96700 31.09200
H  8.57400 47.33400 31.77600
H  10.02900 48.92700 33.24700
H  11.20200 47.63700 32.95600
H  15.22700 50.62000 26.14700
H  15.77600 49.04500 26.53000
H  14.73800 49.81800 27.70400
H  16.29100 49.17500 22.88800
H  16.15100 48.48500 24.55800
H  15.69900 50.19000 24.13700
H  9.79700 47.47600 21.04100
H  7.13000 47.65800 21.55100
H  8.61600 50.12600 21.81000
H  7.89300 49.33700 20.45800
H  9.65200 49.74900 20.43400
H  9.05800 45.42400 21.72800
H  7.42600 45.56500 20.89700
H  7.06900 43.85900 22.35200
H  7.20000 45.08700 23.68100
H  8.65800 44.18600 23.10300
H  3.05100 47.23700 26.65200
H  3.80100 45.82700 25.75900
H  3.69500 47.43600 25.03000
H  6.18900 48.35300 30.77100
H  6.95100 45.65900 33.71300
H  7.72600 44.73100 32.61800
H  5.90300 44.50400 32.78300
Mg -12.42600 16.48900 42.15000
C  -9.29800 14.99500 41.88000
C  -11.29700 19.36100 40.81600
C  -15.69600 17.55600 42.02800
C  -13.72400 13.22300 42.76100
N  -10.50100 17.02200 41.25900
C  -9.28800 16.30700 41.29100
C  -8.09200 17.14700 40.79000
C  -8.72500 18.54400 40.68900
C  -10.27100 18.32600 40.92500
C  -8.04500 19.60600 41.63800
C  -7.50800 16.64000 39.53000
C  -6.03200 16.17900 39.72300
H  -5.51700 15.04400 38.83000
N  -13.34000 18.22900 41.49800
C  -12.67700 19.26400 40.97900
C  -13.55700 20.40700 40.90200
C  -14.83900 19.98400 41.25400
C  -14.70000 18.52300 41.65500
C  -13.15800 21.76600 40.36100
C  -16.05800 20.81100 41.16100
O  -16.08100 21.98600 40.81700
C  -17.38000 20.19000 41.53400
N  -14.44700 15.51500 42.37400
C  -15.60100 16.19400 42.26100
C  -16.80400 15.36700 42.44400
C  -16.19100 13.92600 42.52100
C  -14.72100 14.17200 42.40900
C  -17.63100 15.66300 43.67000
C  -16.66900 12.79400 41.43000
C  -17.01500 11.45600 42.13200
N  -11.74100 14.54500 42.43300
C  -12.35700 13.33300 42.71200
C  -11.36300 12.26500 42.76100
C  -10.15800 12.89000 42.51500
C  -10.44900 14.31500 42.29900
C  -11.59300 10.84600 43.09300
C  -8.65500 12.69000 42.38400
O  -7.96400 11.68300 42.50500
C  -8.12700 14.01900 41.97400
C  -7.16100 14.44900 42.96400
O  -7.35800 15.26200 43.84500
O  -5.94100 13.90000 42.69900
C  -4.79800 14.37500 43.48100
H  -10.83800 20.26700 40.41500
H  -16.72900 17.87000 41.86300
H  -14.21100 12.25300 42.88500
H  -7.31200 17.03100 41.54200
H  -8.59900 19.06400 39.74000
H  -8.56900 20.56100 41.60400
H  -7.05200 19.80400 41.23400
H  -8.21800 19.29700 42.66900
H  -7.39700 17.43400 38.79200
H  -8.15300 15.91600 39.03300
H  -5.78800 15.87200 40.74000
H  -5.37300 17.03400 39.57300
H  -13.75100 21.99100 39.47600
H  -12.17400 21.67100 39.90200
H  -13.11300 22.62200 41.03400
H  -17.60300 19.36100 40.86300
H  -18.17900 20.92100 41.41400
H  -17.48100 19.93300 42.58900
H  -17.31100 15.38400 41.47900
H  -16.44000 13.55700 43.51600
H  -17.50300 16.67900 44.04400
H  -17.40100 15.05500 44.54400
H  -18.67600 15.70400 43.36200
H  -15.82500 12.55000 40.78400
H  -17.46400 13.22700 40.82300
H  -16.65000 11.49300 43.15900
H  -16.48400 10.61600 41.68500
H  -18.09800 11.34400 42.08700
H  -10.71600 10.20100 43.13600
H  -12.28500 10.35400 42.41000
H  -11.92300 10.83100 44.13100
H  -7.58400 13.88800 41.03700
H  -4.25900 15.20000 43.01700
H  -4.17400 13.48200 43.45100
H  -5.07400 14.66800 44.49400

