158

Mg 40.48300 8.35400 29.65300
C  42.33400 9.62300 32.55000
C  38.22200 7.08900 31.83300
C  39.30700 6.45500 27.15000
C  43.28900 9.02800 27.67800
N  40.26900 8.46900 31.98300
C  41.07600 9.13300 32.96400
C  40.48200 9.10200 34.32500
C  39.19300 8.15300 34.06100
C  39.23900 7.75400 32.60800
C  39.02800 7.02300 35.08100
C  40.09900 10.44300 34.97800
C  39.22400 10.40600 36.22800
H  39.59600 11.32900 37.32600
N  38.90900 7.14500 29.52000
C  38.10300 6.77000 30.46700
C  36.99600 6.02500 29.90700
C  37.20400 5.97200 28.56200
C  38.51400 6.55500 28.31100
C  35.80900 5.48400 30.78900
C  36.30900 5.37200 27.49000
O  36.54500 5.40200 26.32300
C  35.02800 4.81300 27.78100
N  41.24100 7.64400 27.77300
C  40.56200 6.88600 26.86900
C  41.20400 6.89300 25.46100
C  42.23800 8.06200 25.52300
C  42.26800 8.26200 27.11500
C  41.93600 5.54200 25.03700
C  41.93200 9.31100 24.67600
C  40.71200 10.07900 25.12100
N  42.41500 9.16900 29.94400
C  43.41700 9.36900 29.05200
C  44.50500 10.10700 29.74600
C  44.09000 10.21400 31.06800
C  42.82600 9.57900 31.19800
C  45.85300 10.51000 29.12700
C  44.48900 10.73300 32.37100
O  45.52800 11.35200 32.62000
C  43.37700 10.38100 33.40000
C  43.96700 9.63300 34.51300
O  44.35700 8.47400 34.44800
O  43.99300 10.37300 35.62000
C  44.54600 9.81600 36.90300
H  37.43900 6.62900 32.44100
H  38.77500 5.83100 26.42800
H  44.11000 9.42200 27.07600
H  41.12800 8.50500 34.96800
H  38.24400 8.67500 34.18600
H  39.14400 6.00200 34.71700
H  38.07400 7.04500 35.60800
H  39.77300 7.15800 35.86500
H  39.53900 10.94400 34.18800
H  40.94600 11.06600 35.26600
H  39.28900 9.44000 36.72800
H  38.20500 10.56300 35.87600
H  34.88400 5.71400 30.26100
H  35.71100 5.96000 31.76500
H  36.00000 4.41800 30.90900
H  35.03900 4.13100 28.63100
H  34.74500 4.21500 26.91500
H  34.21100 5.53100 27.86100
H  40.40400 7.09600 24.74900
H  43.28200 7.86700 25.27900
H  41.56000 4.82900 25.77100
H  43.02000 5.62500 25.10300
H  41.78000 5.19100 24.01700
H  41.69000 9.01000 23.65700
H  42.85700 9.88800 24.65300
H  40.40300 9.79300 26.12600
H  39.89200 9.97300 24.41100
H  40.83400 11.15900 25.20000
H  46.39300 10.72700 30.04900
H  45.60000 11.35700 28.48900
H  46.27400 9.67600 28.56600
H  43.03200 11.34900 33.76300
H  45.41200 10.37700 37.25600
H  44.93600 8.82900 36.65000
H  43.88200 9.83400 37.76800
Mg -12.07200 38.89800 42.54200
C  -10.61400 35.85700 41.57800
C  -9.51500 40.49000 40.75700
C  -13.58500 41.80000 43.04700
C  -14.68200 37.09400 44.02600
N  -10.30100 38.22800 41.21300
C  -9.89900 36.92100 41.05900
C  -8.52200 36.86400 40.28200
C  -8.29400 38.42400 40.02400
C  -9.38100 39.11300 40.83300
C  -6.82400 38.84200 40.19800
C  -8.52900 36.07300 38.96500
C  -7.56500 34.82400 38.95200
H  -6.55200 34.86700 37.84300
N  -11.54600 40.90400 42.06600
C  -10.49100 41.34300 41.34900
C  -10.49600 42.77300 41.36300
C  -11.76200 43.20800 41.92200
C  -12.38400 41.95000 42.33000
C  -9.37500 43.63400 40.81100
C  -12.27400 44.63000 42.02400
O  -11.72500 45.51300 41.38100
C  -13.63500 45.08300 42.67100
N  -13.99900 39.36900 43.22200
C  -14.33900 40.70100 43.44500
C  -15.70900 40.77600 44.22400
C  -16.07000 39.27500 44.41300
C  -14.81900 38.51200 43.91900
C  -15.69900 41.61300 45.47900
C  -17.40400 38.73400 43.77000
C  -18.41800 38.03500 44.66200
N  -12.56200 36.88600 42.80900
C  -13.66300 36.29000 43.44900
C  -13.53300 34.81200 43.45600
C  -12.32700 34.67500 42.68900
C  -11.83400 35.89500 42.34000
C  -14.53600 33.77700 43.98600
C  -11.41000 33.61000 42.19000
O  -11.38100 32.41300 42.35200
C  -10.27000 34.38100 41.43800
C  -9.05500 34.01300 42.11900
O  -8.61500 34.59400 43.10000
O  -8.52900 32.95400 41.44000
C  -7.21600 32.56400 41.98300
H  -8.64500 40.99500 40.33300
H  -14.20600 42.67500 43.24800
H  -15.46300 36.49900 44.50500
H  -7.76800 36.45100 40.95200
H  -8.45500 38.77300 39.00400
H  -6.37300 39.08900 39.23700
H  -6.26800 37.95300 40.49600
H  -6.74600 39.72900 40.82700
H  -8.27400 36.70400 38.11300
H  -9.55000 35.74500 38.77300
H  -8.17700 33.95300 38.71700
H  -7.02900 34.73500 39.89700
H  -8.35700 43.36800 41.09500
H  -9.50800 44.54100 41.40100
H  -9.46100 43.87900 39.75200
H  -13.68300 44.59300 43.64400
H  -14.53000 44.71700 42.16700
H  -13.77200 46.16300 42.71400
H  -16.40800 41.16900 43.48600
H  -16.03600 39.02700 45.47400
H  -16.71000 41.99300 45.62700
H  -15.09800 42.49500 45.25900
H  -15.35600 41.10800 46.38200
H  -17.31400 37.97700 42.99000
H  -17.95800 39.58900 43.38300
H  -18.82100 37.15100 44.16900
H  -19.33300 38.60800 44.81200
H  -18.07000 37.70700 45.64100
H  -15.49100 33.76600 43.46200
H  -14.65000 33.83400 45.06900
H  -14.11100 32.80400 43.73800
H  -10.22800 33.98600 40.42300
H  -6.59500 33.39200 42.32500
H  -6.54800 32.02500 41.31100
H  -7.36300 31.88400 42.82300

