158

Mg -10.05200 39.22700 40.89700
C  -8.81300 35.96800 40.20900
C  -7.25000 40.44100 39.59900
C  -11.61100 42.10900 40.70700
C  -13.02800 37.59000 42.02000
N  -8.21200 38.28200 40.10900
C  -7.94900 36.96300 39.83000
C  -6.63800 36.83200 38.94700
C  -5.96400 38.15400 39.54100
C  -7.19800 39.05400 39.76000
C  -5.10600 38.02900 40.68400
C  -7.01000 36.92700 37.42200
C  -6.73400 35.61500 36.69000
H  -6.02000 36.01900 35.36200
N  -9.56600 41.05000 40.10700
C  -8.32700 41.37500 39.70200
C  -8.23600 42.78500 39.38300
C  -9.48100 43.36500 39.78400
C  -10.32500 42.13100 40.19500
C  -7.00400 43.42400 38.74100
C  -9.84500 44.71600 39.63500
O  -9.04700 45.57100 39.44800
C  -11.22500 45.19800 39.80500
N  -12.02700 39.71300 41.30100
C  -12.40400 41.07600 41.17500
C  -13.98500 41.24200 41.36200
C  -14.35700 39.76100 41.91000
C  -13.09300 38.94100 41.64300
C  -14.27700 42.34200 42.39800
C  -15.56000 39.11700 41.26900
C  -16.39800 38.25700 42.29400
N  -10.74500 37.15700 41.33700
C  -11.97400 36.71200 41.76600
C  -11.97300 35.31900 41.76700
C  -10.77900 34.93000 41.12600
C  -10.09600 36.05400 40.90900
C  -12.99700 34.46900 42.37600
C  -9.97500 33.80500 40.71100
O  -10.23000 32.63100 40.61800
C  -8.66800 34.46900 39.95700
C  -7.44500 33.80900 40.46300
O  -6.58800 33.19800 39.84700
O  -7.28700 34.13700 41.79900
C  -6.19100 33.49300 42.60300
H  -6.27900 40.77600 39.22700
H  -12.11300 43.07700 40.65700
H  -13.89100 37.07400 42.44700
H  -6.18200 35.87900 39.21700
H  -5.48500 38.54700 38.64300
H  -5.01500 37.04300 41.14000
H  -5.36300 38.82000 41.38800
H  -4.12200 38.17000 40.23600
H  -6.40400 37.71400 36.97200
H  -8.08500 37.08500 37.32800
H  -7.63900 35.01000 36.64300
H  -5.94300 35.05200 37.18500
H  -6.68600 42.90600 37.83600
H  -6.17900 43.64400 39.41900
H  -7.29500 44.43000 38.44000
H  -11.78300 44.57700 39.10300
H  -11.25900 46.23000 39.45500
H  -11.59300 45.17600 40.83000
H  -14.30200 41.43800 40.33800
H  -14.54500 39.81300 42.98300
H  -14.76500 41.84800 43.23800
H  -14.88500 43.19100 42.08700
H  -13.30100 42.68100 42.74700
H  -15.14500 38.51200 40.46400
H  -16.32300 39.81900 40.93300
H  -16.54900 37.26400 41.86800
H  -17.33600 38.80300 42.39700
H  -15.91800 38.18400 43.26900
H  -12.82300 33.46000 42.00200
H  -14.00900 34.83900 42.21400
H  -12.88000 34.56600 43.45600
H  -8.84600 34.33000 38.89100
H  -6.72400 33.11000 43.47300
H  -5.38500 34.12900 42.97100
H  -5.73400 32.62600 42.12600
Mg -5.34800 25.75800 26.12600
C  -4.33100 27.05200 29.17300
C  -6.96500 23.26700 27.59400
C  -5.90900 24.49200 23.07400
C  -2.87600 27.90500 24.64200
N  -5.37800 25.15800 28.07200
C  -5.10800 25.91900 29.19500
C  -5.68200 25.29800 30.45100
C  -6.17500 23.88200 29.92500
C  -6.15200 24.08400 28.37700
C  -5.33600 22.60400 30.34500
C  -6.85900 26.24200 31.16100
C  -6.62000 26.68500 32.57500
H  -6.15700 25.60900 33.64300
N  -6.34500 24.13000 25.43700
C  -7.13200 23.30400 26.22300
C  -7.94900 22.53600 25.37500
C  -7.60200 22.78000 24.06400
C  -6.53000 23.83300 24.12700
C  -8.99100 21.65100 25.94000
C  -8.12300 22.20100 22.84200
O  -7.60900 22.54500 21.76600
C  -9.25900 21.23500 22.86600
N  -4.52400 26.20700 24.17100
C  -5.01000 25.54400 23.05300
C  -4.04200 25.88300 21.85600
C  -3.40600 27.19400 22.31000
C  -3.58300 27.07400 23.79600
C  -3.06900 24.74600 21.60600
C  -4.10500 28.47100 21.74200
C  -4.34800 28.63200 20.25800
N  -3.93900 27.23700 26.70000
C  -2.99100 28.00300 26.01200
C  -2.29200 28.87100 26.92200
C  -2.80700 28.53900 28.14800
C  -3.74400 27.52600 27.94600
C  -1.33600 29.99200 26.61200
C  -2.80300 28.98100 29.59000
O  -2.10800 29.86000 30.15500
C  -3.80600 27.96300 30.33600
C  -3.04700 27.28300 31.51400
O  -2.44400 26.22400 31.37600
O  -3.08700 28.09700 32.61500
C  -2.37200 27.60500 33.87100
H  -7.55100 22.56000 28.18500
H  -6.15800 24.02000 22.12100
H  -2.18500 28.53400 24.07700
H  -4.93600 25.24600 31.24500
H  -7.19700 23.67200 30.24200
H  -4.54900 23.02600 30.96900
H  -4.84900 22.00000 29.58000
H  -5.90500 21.93500 30.99000
H  -7.82800 25.74200 31.14500
H  -6.82300 27.08300 30.46800
H  -7.58800 27.01100 32.95600
H  -5.86800 27.47000 32.49900
H  -9.94300 22.00400 25.54200
H  -9.07100 21.77700 27.02000
H  -8.77500 20.61900 25.66300
H  -8.82500 20.28700 23.18400
H  -9.71600 20.97900 21.91000
H  -9.97300 21.68200 23.55800
H  -4.67300 25.99700 20.97500
H  -2.33000 27.11300 22.15700
H  -2.14900 25.06900 21.11900
H  -3.57700 24.12200 20.87100
H  -2.86900 24.03200 22.40500
H  -3.42100 29.29000 21.96000
H  -5.07300 28.67100 22.20000
H  -5.33700 29.02300 20.02000
H  -4.03900 27.73000 19.73000
H  -3.69600 29.46700 20.00000
H  -1.64200 30.85300 27.20700
H  -1.37200 30.35700 25.58500
H  -0.28200 29.74700 26.74500
H  -4.56300 28.60500 30.78700
H  -2.99000 27.27100 34.70500
H  -1.81200 28.48500 34.18700
H  -1.69400 26.79700 33.59800

