158

Mg 1.23500 8.23000 25.30700
C  1.65900 10.30200 28.15600
C  1.17300 5.46800 27.55200
C  0.90200 6.25100 22.69400
C  1.11200 10.96700 23.37100
N  1.53900 7.91300 27.63200
C  1.55900 8.93500 28.58600
C  1.51000 8.37300 29.99900
C  1.58200 6.80100 29.75400
C  1.43800 6.72400 28.21300
C  2.80600 6.12600 30.36300
C  0.23100 8.86700 30.87000
C  0.50200 9.50100 32.26200
H  1.66700 8.88700 33.05000
N  1.16200 6.18100 25.10000
C  1.13900 5.19500 26.14000
C  0.99600 3.90000 25.57200
C  0.98000 4.12100 24.13900
C  0.97000 5.60200 23.92900
C  0.97300 2.52700 26.43700
C  0.98800 3.05400 23.08800
O  0.91300 3.30500 21.89400
C  1.00800 1.67000 23.44600
N  0.94500 8.58200 23.34200
C  0.85400 7.61000 22.36100
C  0.69700 8.25900 20.88700
C  0.70500 9.71200 21.24300
C  0.93200 9.78200 22.72300
C  1.79800 7.71500 19.89000
C  -0.62400 10.45700 20.77700
C  -0.52400 11.27800 19.55800
N  1.52100 10.19900 25.67500
C  1.32200 11.22200 24.75000
C  1.45700 12.50200 25.40100
C  1.73800 12.18000 26.70800
C  1.56600 10.77200 26.87500
C  1.28300 13.86000 24.74500
C  2.01100 12.69800 28.03600
O  2.23100 13.87900 28.43900
C  1.96400 11.47900 29.06200
C  3.19900 11.43100 29.90400
O  4.30600 11.02300 29.66600
O  2.93000 12.12300 31.03200
C  3.91300 12.16400 32.06600
H  1.18700 4.68900 28.31700
H  0.82000 5.58100 21.83600
H  1.03400 11.77000 22.63600
H  2.44600 8.81500 30.34000
H  0.67500 6.27600 30.05100
H  3.40300 5.70200 29.55600
H  2.59200 5.37800 31.12600
H  3.28700 7.00000 30.80400
H  -0.56000 8.11700 30.87700
H  -0.17900 9.67500 30.26500
H  -0.36700 9.67200 32.89900
H  0.83700 10.48600 31.93700
H  1.99900 2.16900 26.34400
H  0.26200 1.84800 25.96600
H  0.75800 2.63300 27.50000
H  -0.04300 1.44400 23.62500
H  1.61400 1.46200 24.32800
H  1.33600 1.03800 22.62000
H  -0.28100 8.00400 20.48000
H  1.56700 10.14700 20.73700
H  2.48200 7.02000 20.37700
H  2.36100 8.52400 19.42400
H  1.30200 7.19300 19.07300
H  -1.01200 11.21000 21.46300
H  -1.41600 9.74900 20.53300
H  -1.33700 10.93300 18.92000
H  0.47800 11.27000 19.12900
H  -0.74200 12.33100 19.73600
H  0.73000 14.53900 25.39400
H  0.85400 13.66500 23.76200
H  2.24400 14.33800 24.55100
H  1.09000 11.65100 29.69000
H  3.49900 12.07200 33.07000
H  4.20900 13.20800 31.96900
H  4.71500 11.43000 31.98400
Mg 47.10700 34.58100 28.05800
C  45.57000 32.82900 30.58500
C  47.33500 37.39500 30.35500
C  48.33300 36.57400 25.76200
C  46.27400 32.13700 25.83100
N  46.49300 35.00900 30.23900
C  45.96500 34.07400 31.03700
C  46.04800 34.65300 32.54100
C  46.23000 36.16700 32.38500
C  46.73800 36.17800 30.89200
C  44.91400 36.83300 32.42400
C  47.32400 34.03900 33.23600
C  47.24200 33.62000 34.75500
H  46.51200 34.66800 35.63600
N  47.80400 36.62700 28.12100
C  47.89100 37.56100 29.12700
C  48.57300 38.71700 28.72700
C  48.88300 38.54200 27.39000
C  48.24800 37.23200 27.00000
C  48.97300 39.85800 29.65000
C  49.72600 39.36000 26.53000
O  49.81100 39.10500 25.31200
C  50.42800 40.59400 27.07700
N  47.03400 34.49900 25.98200
C  47.80000 35.36000 25.29900
C  47.85600 34.77200 23.85800
C  47.58800 33.31200 24.04600
C  46.92900 33.30000 25.40700
C  46.83200 35.50700 22.84300
C  48.70400 32.25400 23.90900
C  48.58400 31.27000 22.66200
N  46.23400 32.77600 28.11800
C  45.89000 31.89400 27.14900
C  45.29000 30.63700 27.67200
C  45.09900 31.00400 29.06000
C  45.68100 32.25600 29.21700
C  44.98700 29.36600 26.93800
C  44.61300 30.58900 30.37100
O  44.20700 29.45900 30.73000
C  44.72700 31.80500 31.30100
C  45.30800 31.33800 32.59500
O  46.23100 30.51100 32.72400
O  44.63700 31.87300 33.62900
C  44.68800 31.14200 34.90000
H  47.53100 38.12300 31.14400
H  48.74300 37.03700 24.86200
H  46.15300 31.25700 25.19600
H  45.15800 34.32200 33.07600
H  46.90800 36.56300 33.14200
H  45.00800 37.90800 32.26600
H  44.41100 36.57300 33.35500
H  44.32600 36.46800 31.58200
H  48.18000 34.71100 33.18900
H  47.47400 33.09300 32.71500
H  48.25100 33.65300 35.16500
H  46.93100 32.58900 34.92100
H  49.77300 39.49300 30.29400
H  48.11100 39.99800 30.30200
H  49.22500 40.84000 29.24900
H  49.74000 41.43900 27.04100
H  51.19800 40.90300 26.37000
H  50.92800 40.37300 28.02000
H  48.89700 34.89700 23.56000
H  46.86800 33.02200 23.28200
H  47.40200 36.05600 22.09400
H  46.19200 36.21300 23.37200
H  46.22600 34.71600 22.40200
H  48.68900 31.58700 24.77100
H  49.67900 32.72900 23.79800
H  49.49900 31.47900 22.10800
H  47.74400 31.57000 22.03500
H  48.39200 30.24000 22.96100
H  44.01800 29.28400 26.44700
H  45.29900 28.47700 27.48600
H  45.67100 29.39500 26.09000
H  43.70400 32.13600 31.47600
H  43.80600 30.53600 35.10800
H  44.76100 31.91600 35.66500
H  45.53300 30.46100 35.00900

