158

Mg 24.20400 -4.43900 45.27800
C  26.57900 -2.04300 44.02200
C  21.93100 -3.09400 43.26400
C  22.52200 -7.29000 45.57400
C  27.13900 -6.03100 46.73300
N  24.23000 -2.73100 43.80000
C  25.27600 -1.86100 43.54900
C  24.85600 -0.80800 42.39700
C  23.25900 -0.95200 42.45100
C  23.07200 -2.30900 43.18500
C  22.55300 0.16800 43.20500
C  25.38100 -1.25800 40.98300
C  25.91500 -0.09000 39.92600
H  25.52400 -0.25900 38.37800
N  22.37400 -5.04800 44.69500
C  21.58300 -4.33300 43.84900
C  20.27700 -4.94100 43.88300
C  20.45000 -6.20400 44.51900
C  21.83500 -6.28500 44.94600
C  19.01600 -4.46700 43.09700
C  19.35800 -7.28800 44.66600
O  18.23400 -7.13600 44.16600
C  19.56800 -8.62600 45.41800
N  24.77200 -6.37500 46.00000
C  23.86200 -7.38100 46.04900
C  24.32800 -8.61300 46.82100
C  25.83800 -8.28000 47.06600
C  25.96600 -6.79400 46.58000
C  23.42300 -8.94200 48.05200
C  26.83300 -9.18400 46.32000
C  28.25100 -9.34600 46.87400
N  26.39100 -4.12600 45.48100
C  27.41000 -4.78600 46.18700
C  28.67300 -4.16500 46.06100
C  28.38900 -3.07100 45.23500
C  27.01100 -3.10100 44.85000
C  29.95600 -4.61200 46.68500
C  28.88100 -1.83200 44.62100
O  29.93800 -1.26200 44.70700
C  27.81700 -1.29900 43.65500
C  27.68800 0.21600 43.66900
O  27.14800 0.89400 44.58500
O  28.35100 0.74000 42.56100
C  28.18400 2.16800 42.28600
H  21.15600 -2.80500 42.55000
H  22.03200 -8.26100 45.66600
H  27.95100 -6.55800 47.23800
H  25.21700 0.20300 42.58400
H  22.85100 -1.04200 41.44500
H  22.58800 1.03100 42.53900
H  22.98700 0.24300 44.20200
H  21.49500 -0.07700 43.29400
H  24.54100 -1.73200 40.47500
H  26.16900 -2.01000 41.02800
H  27.00000 -0.12500 40.02500
H  25.48000 0.85000 40.26700
H  18.75000 -5.12500 42.26900
H  19.32900 -3.57000 42.56200
H  18.19200 -4.35000 43.80100
H  19.85700 -8.30800 46.42000
H  20.29600 -9.22800 44.87400
H  18.66800 -9.23300 45.51400
H  24.26100 -9.47300 46.15400
H  26.11500 -8.05800 48.09700
H  23.98800 -9.15500 48.96000
H  22.70600 -9.72600 47.80800
H  22.69700 -8.21400 48.41300
H  27.02700 -8.77300 45.32900
H  26.45100 -10.19200 46.15700
H  29.03900 -9.05600 46.17900
H  28.40200 -10.36200 47.23800
H  28.48500 -8.73000 47.74200
H  30.71700 -3.83200 46.69700
H  30.39500 -5.53400 46.30600
H  29.84100 -4.71900 47.76400
H  28.19000 -1.66100 42.69700
H  27.74800 2.80300 43.05600
H  27.54100 2.25200 41.40900
H  29.12600 2.69200 42.12600
Mg -6.56900 24.89700 25.90900
C  -5.34100 26.26800 29.05200
C  -8.46400 22.76200 27.75100
C  -7.24500 23.26600 23.05600
C  -4.46100 27.05600 24.28000
N  -6.79700 24.46800 28.15400
C  -6.32900 25.22300 29.18200
C  -6.95500 24.78500 30.52100
C  -7.78000 23.57000 30.16700
C  -7.69800 23.58000 28.62400
C  -7.34400 22.24200 30.88700
C  -7.73400 26.07300 31.17000
C  -7.84500 26.06900 32.70700
H  -7.38000 24.92700 33.71700
N  -7.73900 23.28000 25.43000
C  -8.50400 22.55600 26.33000
C  -9.26400 21.56500 25.65700
C  -8.93500 21.68700 24.24500
C  -7.93100 22.76300 24.18800
C  -10.24600 20.63400 26.29100
C  -9.48000 20.81800 22.95900
O  -9.08700 20.84200 21.82000
C  -10.61500 19.83400 23.24900
N  -5.82000 25.05200 23.95400
C  -6.23700 24.24800 22.93300
C  -5.43000 24.59100 21.69100
C  -4.94300 26.04400 21.97600
C  -5.14400 26.14000 23.50000
C  -4.45600 23.46900 21.37100
C  -5.57900 27.20300 21.15800
C  -4.66500 27.77500 20.06800
N  -5.08500 26.35500 26.52700
C  -4.39600 27.21100 25.71100
C  -3.63200 28.08900 26.54800
C  -3.96000 27.83200 27.86200
C  -4.91800 26.78300 27.79600
C  -2.80500 29.15900 26.05200
C  -3.76900 28.19200 29.22600
O  -3.03100 29.01200 29.72300
C  -4.73600 27.24600 30.12300
C  -3.84900 26.80200 31.24200
O  -3.10500 25.80800 31.27300
O  -3.95400 27.70900 32.29800
C  -3.10400 27.49100 33.52100
H  -9.10000 22.10300 28.34600
H  -7.66900 22.82300 22.15200
H  -3.83100 27.75900 23.73100
H  -6.08900 24.49100 31.11400
H  -8.78700 23.88800 30.43900
H  -6.56100 22.39700 31.62900
H  -7.02100 21.46900 30.18900
H  -8.18400 21.89100 31.48600
H  -8.72600 25.99300 30.72700
H  -7.43100 27.06800 30.84600
H  -8.93000 26.01700 32.79700
H  -7.66400 27.04100 33.16400
H  -10.81500 21.29400 26.94600
H  -9.79800 19.77200 26.78600
H  -10.99700 20.24600 25.60300
H  -10.45600 19.02500 23.96200
H  -10.89700 19.51900 22.24500
H  -11.44900 20.43300 23.61400
H  -6.10200 24.70600 20.84100
H  -3.85300 26.07800 21.97700
H  -4.36200 22.92300 22.31000
H  -3.51900 23.88400 21.00000
H  -4.86800 22.79300 20.62100
H  -5.81200 28.03800 21.81900
H  -6.56100 26.97600 20.74300
H  -5.25700 28.24100 19.28100
H  -4.03800 27.08500 19.50400
H  -4.04500 28.52900 20.55400
H  -2.52300 29.04200 25.00600
H  -1.95000 29.12500 26.72600
H  -3.39200 30.02700 26.35000
H  -5.46200 27.85700 30.65900
H  -2.08200 27.73400 33.23100
H  -3.09900 26.46300 33.88100
H  -3.52300 28.15300 34.27900

