158

Mg 10.00900 47.34400 26.19600
C  7.79600 47.34100 29.02800
C  12.30800 48.67500 28.29800
C  12.00400 47.57800 23.61700
C  7.25400 46.84200 24.18400
N  10.03200 47.87100 28.48900
C  9.04000 47.74300 29.44300
C  9.54300 48.19900 30.82300
C  10.73700 49.11700 30.32000
C  11.07500 48.56000 28.94600
C  10.41900 50.66800 30.19400
C  10.10700 46.98000 31.80700
C  9.58200 46.94400 33.29000
H  9.75400 45.72700 34.12000
N  11.89200 47.86400 25.93200
C  12.69100 48.28800 26.96200
C  14.09700 48.27600 26.45800
C  13.99500 47.90200 25.11700
C  12.61900 47.79100 24.83900
C  15.27300 48.71000 27.24100
C  15.11700 47.57200 24.09800
O  14.81300 47.34500 22.94100
C  16.47800 47.51000 24.54900
N  9.62500 47.37500 24.14400
C  10.64500 47.39400 23.27400
C  10.24100 47.19600 21.73900
C  8.70100 46.98000 22.01700
C  8.48600 47.12100 23.54600
C  10.58400 48.41200 20.82700
C  7.95800 45.75700 21.42700
C  8.19600 44.42700 22.08200
N  7.96400 47.04700 26.46400
C  6.99300 46.85700 25.54300
C  5.71000 46.73400 26.18200
C  6.00600 46.76000 27.50900
C  7.35700 47.10100 27.68100
C  4.38000 46.41700 25.49200
C  5.43400 46.62400 28.84200
O  4.27900 46.29700 29.18600
C  6.58500 47.02200 29.84700
C  6.88300 45.81600 30.73400
O  7.70800 44.99000 30.41400
O  5.97900 45.76700 31.77000
C  6.10900 44.59100 32.64500
H  13.16200 49.13700 28.79700
H  12.62700 47.53600 22.72100
H  6.41900 46.75700 23.48500
H  8.81500 48.76200 31.40800
H  11.64800 48.97100 30.90200
H  11.27300 51.17700 30.64200
H  9.50800 50.92800 30.73300
H  10.32900 51.02200 29.16800
H  11.18600 47.08800 31.92200
H  10.06900 45.98900 31.35500
H  8.51900 47.18200 33.23800
H  10.20200 47.72900 33.72200
H  15.06700 48.88600 28.29700
H  15.69900 49.66200 26.92600
H  16.02400 47.92500 27.16100
H  17.16000 47.32300 23.71900
H  16.51800 46.65400 25.22300
H  16.87500 48.39700 25.04200
H  10.63900 46.32800 21.21500
H  8.12200 47.80900 21.61100
H  11.17900 49.12800 21.39300
H  9.71200 48.99900 20.53700
H  11.22000 48.25700 19.95500
H  8.39700 45.62100 20.43900
H  6.89800 46.00200 21.36800
H  7.23900 44.05000 22.44300
H  8.84900 44.48600 22.95300
H  8.65300 43.68700 21.42600
H  4.62600 45.96200 24.53300
H  3.73400 47.29500 25.47300
H  3.88700 45.61200 26.03700
H  6.26700 47.80500 30.53500
H  6.41400 44.92600 33.63600
H  6.72900 43.75700 32.31800
H  5.09300 44.21200 32.75400
Mg 1.45000 42.13700 26.18000
C  3.52400 42.19000 28.90900
C  -1.13400 41.48700 28.37100
C  -0.56100 41.31800 23.48500
C  4.08400 42.66600 24.12600
N  1.25700 41.85300 28.36100
C  2.22200 42.10100 29.29100
C  1.63300 42.18000 30.67100
C  0.17100 41.57600 30.54400
C  0.05400 41.67800 29.00200
C  -0.02100 40.17900 31.16400
C  1.63800 43.60500 31.22300
C  1.26400 43.73500 32.69400
H  1.19000 42.52900 33.66500
N  -0.45500 41.54200 25.95800
C  -1.36200 41.34500 27.00100
C  -2.64200 40.82400 26.55700
C  -2.40300 40.53300 25.16400
C  -1.08700 41.14100 24.78500
C  -3.71800 40.48400 27.51600
C  -3.19400 39.65300 24.20500
O  -2.76500 39.43700 23.06400
C  -4.41900 38.91100 24.69500
N  1.73100 41.96100 24.05000
C  0.77400 41.66200 23.19100
C  1.41600 41.67800 21.66600
C  2.74400 42.44200 21.97900
C  2.87200 42.40700 23.47300
C  1.28800 40.38200 20.95600
C  2.81200 43.93500 21.57300
C  4.12800 44.37500 20.88700
N  3.44000 42.23800 26.34500
C  4.43800 42.46000 25.40900
C  5.67700 42.52500 26.03500
C  5.35300 42.38800 27.44200
C  4.00600 42.23600 27.56800
C  6.95900 42.85000 25.46600
C  5.92000 42.39100 28.81500
O  7.07900 42.35000 29.17700
C  4.75000 42.35300 29.73100
C  4.88500 41.10300 30.51400
O  4.99700 39.96100 30.10700
O  4.93700 41.42400 31.90100
C  4.98700 40.29700 32.76500
H  -1.94700 41.24000 29.05600
H  -1.18400 40.97600 22.65600
H  4.89600 42.99200 23.47200
H  2.35900 41.60300 31.24400
H  -0.61000 42.18000 31.00500
H  -0.46600 40.46400 32.11800
H  0.96000 39.72900 31.31600
H  -0.50200 39.48200 30.47800
H  0.86700 44.16400 30.69300
H  2.55000 44.15000 30.98000
H  0.28700 44.21500 32.65700
H  2.06800 44.29900 33.16800
H  -4.70400 40.47500 27.05200
H  -3.79100 41.24100 28.29800
H  -3.52900 39.51500 27.97900
H  -4.11100 38.30600 25.54800
H  -4.80700 38.25600 23.91500
H  -5.12800 39.66000 25.04600
H  0.80500 42.34900 21.06300
H  3.65600 41.96000 21.62600
H  0.82500 39.69200 21.66200
H  2.21400 39.98800 20.53800
H  0.85400 40.57200 19.97400
H  2.81100 44.60500 22.43400
H  2.01000 44.13300 20.86200
H  4.69100 43.60100 20.36500
H  4.87100 44.80200 21.56100
H  3.87000 45.11600 20.13200
H  7.18000 42.03600 24.77700
H  7.72000 42.86500 26.24600
H  6.94600 43.82000 24.96800
H  4.81000 43.18000 30.43800
H  5.73900 39.56900 32.46100
H  4.04000 39.79100 32.57700
H  4.96300 40.52100 33.83200

