158

Mg 49.52300 45.47000 42.37600
C  45.96100 45.69600 41.51500
C  49.17600 42.16900 41.43800
C  52.70900 45.44000 42.09400
C  49.46600 48.93600 42.78900
N  47.70500 44.06500 41.49400
C  46.40900 44.40400 41.22100
C  45.75400 43.20400 40.55000
C  46.69100 42.10400 41.04600
C  47.90800 42.81700 41.30000
C  46.27000 41.27000 42.26700
C  45.60000 43.41600 39.04200
C  44.59600 42.52100 38.27500
H  44.97100 41.74700 36.96200
N  50.78400 43.96800 41.95400
C  50.50500 42.65700 41.60100
C  51.75900 41.93200 41.61700
C  52.83300 42.88000 41.65300
C  52.13600 44.17200 41.92600
C  51.77500 40.45300 41.65600
C  54.34800 42.61800 41.63900
O  54.82800 41.50300 41.39900
C  55.30300 43.81600 41.95000
N  50.89900 46.98800 42.47300
C  52.26200 46.72200 42.49200
C  53.10500 48.03800 42.65100
C  51.99200 49.14800 42.84300
C  50.66300 48.32600 42.74600
C  54.18800 47.98200 43.80800
C  52.13000 50.25700 41.65600
C  51.87000 51.68600 42.15400
N  48.10900 47.06600 42.27700
C  48.26700 48.38600 42.54800
C  46.95400 49.01600 42.48700
C  46.03400 48.06200 42.03200
C  46.75200 46.86000 41.90300
C  46.65800 50.49600 42.68100
C  44.64200 47.82700 41.66000
O  43.74000 48.68100 41.63800
C  44.59400 46.29300 41.21200
C  43.55900 45.48700 41.80500
O  42.81700 44.71300 41.21200
O  43.37200 45.83100 43.07800
C  42.12900 45.37200 43.84500
H  49.11400 41.09100 41.27200
H  53.79400 45.53400 42.02200
H  49.35600 50.02200 42.81500
H  44.73300 42.94200 40.82900
H  47.00700 41.39900 40.27700
H  47.12200 41.09400 42.92300
H  46.06300 40.30200 41.81100
H  45.31800 41.61000 42.67800
H  46.58900 43.44500 38.58500
H  45.12900 44.39400 38.94400
H  43.77800 43.19000 38.00600
H  44.07900 41.88000 38.98900
H  51.47700 40.05800 42.62700
H  52.69000 40.00300 41.27200
H  51.08400 40.05400 40.91400
H  56.28800 43.37100 42.08600
H  54.90600 44.15100 42.90800
H  55.41000 44.50300 41.11100
H  53.67100 48.27900 41.75100
H  51.98400 49.55400 43.85500
H  55.18400 48.18500 43.41500
H  54.35500 47.02500 44.30400
H  53.93100 48.56300 44.69400
H  51.30600 49.98700 40.99600
H  53.05000 50.29600 41.07300
H  51.09700 52.07800 41.49300
H  52.78300 52.28000 42.20600
H  51.66500 51.72000 43.22400
H  47.50500 50.92100 43.21900
H  45.82000 50.52600 43.37700
H  46.40100 51.12600 41.83000
H  44.39300 46.29900 40.14000
H  41.21000 45.75500 43.40300
H  42.15200 45.72300 44.87700
H  42.01900 44.29800 43.69000
Mg 7.45800 52.92200 41.84400
C  7.43900 49.43600 41.79100
C  10.70000 52.77200 40.48400
C  7.10500 56.14000 41.04400
C  3.98700 52.67700 42.64100
N  8.84000 51.34500 41.20500
C  8.64500 49.96200 41.31500
C  9.94900 49.20000 40.90600
C  10.96500 50.26700 41.08600
C  10.14300 51.55700 40.88800
C  11.74500 50.29400 42.41000
C  9.95800 48.50700 39.49700
C  9.59900 49.26800 38.17500
H  8.25300 48.98000 37.47400
N  8.80100 54.29200 40.94400
C  10.05200 54.04600 40.49200
C  10.56200 55.26900 39.96600
C  9.59800 56.36800 40.23900
C  8.43400 55.66400 40.78200
C  11.99400 55.37700 39.44300
C  9.95800 57.83700 40.10900
O  10.98900 58.15600 39.56800
C  8.95800 58.88300 40.54900
N  5.84100 54.14600 41.80100
C  5.92300 55.45100 41.41300
C  4.42200 56.06600 41.44800
C  3.56700 55.00700 42.10500
C  4.53500 53.88700 42.26000
C  4.41700 57.53200 42.00300
C  2.25500 54.69700 41.37400
C  1.02900 54.55100 42.33400
N  6.11200 51.37100 42.34100
C  4.78700 51.47800 42.75000
C  4.31600 50.15400 43.09700
C  5.31900 49.31500 42.81400
C  6.35900 50.10100 42.27500
C  2.96400 49.86600 43.71500
C  5.68400 47.90100 42.82900
O  5.08700 46.89800 43.24100
C  7.08900 47.91700 42.12900
C  7.00200 46.88700 41.01800
O  6.30200 46.94500 39.97700
O  7.71400 45.71000 41.44900
C  7.59500 44.55300 40.58700
H  11.76700 52.67600 40.27200
H  7.05500 57.17900 40.71200
H  2.92200 52.59500 42.87000
H  10.06900 48.40600 41.64200
H  11.62900 50.28800 40.22200
H  11.37200 49.55000 43.11400
H  11.54000 51.24500 42.90100
H  12.82300 50.20500 42.27100
H  9.41300 47.56500 39.55100
H  10.99100 48.16400 39.43900
H  10.40000 49.07900 37.46000
H  9.45900 50.32900 38.37800
H  11.88200 55.62200 38.38700
H  12.67000 54.53600 39.60300
H  12.48000 56.27100 39.83500
H  8.24400 58.92800 39.72600
H  9.43300 59.86300 40.60500
H  8.47900 58.76200 41.52100
H  4.29400 56.16600 40.37000
H  3.50300 55.47600 43.08700
H  4.45500 58.24200 41.17700
H  5.24800 57.71200 42.68500
H  3.41900 57.73500 42.39000
H  2.28300 53.79200 40.76700
H  2.06200 55.60100 40.79700
H  0.39500 55.42900 42.20600
H  1.46600 54.51900 43.33200
H  0.37600 53.69300 42.17200
H  2.70900 48.81000 43.80500
H  2.21500 50.24900 43.02100
H  2.78500 50.46900 44.60500
H  7.90800 47.53300 42.73700
H  7.72300 44.73900 39.52000
H  6.58600 44.16600 40.73100
H  8.27700 43.76600 40.90900

