158

Mg 43.99800 3.36200 48.26200
C  42.04300 6.27500 47.75300
C  41.07300 1.49500 47.70300
C  45.89000 0.79900 48.08600
C  46.81500 5.47300 48.21600
N  41.77300 3.88400 47.94000
C  41.20500 5.13700 47.69500
C  39.75600 4.97700 47.21700
C  39.42900 3.47800 47.53200
C  40.85200 2.90200 47.77400
C  38.38600 3.17100 48.70000
C  39.50100 5.29300 45.78000
C  38.23500 6.12600 45.44500
H  38.12400 6.78600 44.13400
N  43.58200 1.37000 48.02200
C  42.33700 0.78500 47.71400
C  42.56700 -0.61300 47.64900
C  43.94700 -0.84300 47.72400
C  44.54000 0.44700 48.05700
C  41.41300 -1.55700 47.38600
C  44.62600 -2.18600 47.46300
O  43.93400 -3.18800 47.20400
C  46.06400 -2.36200 47.52800
N  46.09800 3.15000 47.89000
C  46.64100 1.90200 48.07700
C  48.24900 1.95600 48.06200
C  48.47000 3.46100 48.22400
C  47.05100 4.10200 48.06000
C  48.92200 1.05700 49.19400
C  49.48900 4.15600 47.21800
C  50.76200 4.75900 47.83300
N  44.38800 5.38900 48.18900
C  45.58600 6.13800 48.16500
C  45.29000 7.55800 48.12400
C  43.94300 7.58400 47.87900
C  43.44300 6.27000 47.95500
C  46.25500 8.69700 48.17100
C  42.83900 8.54000 47.73100
O  42.86500 9.78200 47.66800
C  41.54700 7.67900 47.60800
C  40.60300 8.02700 48.70600
O  40.89300 8.08700 49.91800
O  39.31800 8.15900 48.16100
C  38.24000 8.49600 49.16100
H  40.18300 0.93600 47.40600
H  46.64100 0.01400 47.97500
H  47.71900 6.08500 48.24500
H  39.19700 5.56400 47.94700
H  39.03700 3.09000 46.59200
H  38.03600 4.12500 49.09400
H  38.83000 2.55200 49.47900
H  37.56800 2.72100 48.13700
H  39.57000 4.40800 45.14600
H  40.35200 5.81400 45.34200
H  38.04200 6.88900 46.19900
H  37.43500 5.38600 45.45300
H  41.55000 -2.15700 46.48700
H  40.47900 -1.02200 47.21700
H  41.30200 -2.30000 48.17700
H  46.65900 -1.83900 46.77900
H  46.34800 -3.40900 47.42700
H  46.36000 -2.04900 48.52900
H  48.70200 1.68600 47.10800
H  48.70100 3.77300 49.24300
H  49.52600 0.24200 48.79600
H  48.15500 0.64600 49.85000
H  49.52000 1.70700 49.83300
H  48.93900 4.85500 46.58800
H  49.86400 3.46600 46.46200
H  51.57700 4.10500 47.52300
H  50.74200 4.74600 48.92300
H  50.94900 5.80200 47.57600
H  47.06700 8.32500 48.79500
H  45.84100 9.56500 48.68600
H  46.68700 8.86900 47.18600
H  40.99100 7.80600 46.67900
H  38.52500 8.17600 50.16400
H  37.27000 8.10600 48.85100
H  38.15700 9.58000 49.22700
Mg 54.75500 22.56600 44.53600
C  52.07200 24.73800 43.69700
C  52.64600 19.97300 43.49200
C  57.24500 20.41600 44.88800
C  56.70600 25.24600 45.32800
N  52.65500 22.38800 43.45100
C  51.75300 23.41100 43.21400
C  50.41700 22.92000 42.83700
C  50.47500 21.36500 43.17600
C  52.04000 21.21000 43.37400
C  49.70300 20.99800 44.59000
C  50.02100 23.22700 41.36300
C  48.54000 23.34200 41.21000
H  47.81000 23.23000 39.80700
N  54.94000 20.45000 44.31500
C  53.99100 19.63400 43.82800
C  54.53500 18.31600 43.85700
C  55.84000 18.31300 44.39100
C  56.12800 19.74100 44.48800
C  53.62900 17.20400 43.36800
C  56.79400 17.17500 44.68500
O  56.45500 16.05500 44.35100
C  58.13300 17.39000 45.29000
N  56.73400 22.81900 44.89600
C  57.48900 21.79000 45.23700
C  58.78100 22.25500 45.80400
C  58.61700 23.76400 45.90900
C  57.22000 23.94600 45.39100
C  59.13600 21.51000 47.16200
C  59.78200 24.66000 45.24600
C  60.04900 26.04600 45.81100
N  54.44900 24.63300 44.58500
C  55.36400 25.59400 45.03900
C  54.62300 26.85400 45.05600
C  53.37200 26.53700 44.61500
C  53.29200 25.15400 44.28100
C  55.16000 28.13500 45.64500
C  52.01600 27.07000 44.37300
O  51.52000 28.16500 44.55700
C  51.17400 25.93600 43.71700
C  50.81500 26.34700 42.31900
O  51.62100 26.50000 41.42400
O  49.43900 26.63700 42.14100
C  48.97500 27.02000 40.83000
H  51.88400 19.24200 43.21100
H  58.05700 19.70400 45.04900
H  57.23900 26.12400 45.69900
H  49.59500 23.34200 43.41500
H  50.01400 20.73500 42.41500
H  49.33200 21.86800 45.13200
H  50.33600 20.67300 45.41600
H  48.86200 20.31300 44.48800
H  50.28200 22.34000 40.78600
H  50.46500 24.16500 41.02700
H  48.25200 24.33300 41.56200
H  47.99900 22.64100 41.84600
H  53.29000 17.40100 42.35100
H  52.81200 16.93300 44.03800
H  54.30000 16.35100 43.27100
H  58.03000 17.93900 46.22600
H  58.87900 17.74400 44.57700
H  58.40600 16.40200 45.66100
H  59.63300 21.93500 45.20500
H  58.60400 24.06000 46.95800
H  60.18000 21.34200 47.42700
H  58.58100 20.57200 47.13700
H  58.76000 21.98200 48.07000
H  59.43700 24.70300 44.21300
H  60.69900 24.07200 45.21300
H  59.84100 26.83800 45.09200
H  61.05900 26.04300 46.22000
H  59.40600 26.33700 46.64200
H  54.87600 28.12400 46.69700
H  54.65400 28.98500 45.18700
H  56.23500 28.21600 45.48100
H  50.25000 25.71500 44.25100
H  49.67500 26.90000 40.00300
H  48.74400 28.08000 40.93400
H  48.01700 26.55200 40.60100

