158

Mg 1.37600 7.55600 25.85600
C  2.28600 9.43700 28.59300
C  1.96500 4.66200 27.78200
C  0.64700 5.66300 23.16800
C  1.42200 10.43200 23.88200
N  2.22100 7.09700 27.89600
C  2.33500 8.06200 28.84600
C  2.53000 7.40100 30.21500
C  2.76200 5.91500 29.87100
C  2.28200 5.87800 28.43300
C  4.20100 5.35400 30.02800
C  1.26300 7.56600 31.18200
C  1.41900 8.15600 32.57100
H  2.35500 7.30900 33.55000
N  1.44100 5.47100 25.49900
C  1.57500 4.47500 26.40700
C  1.19900 3.16400 25.82900
C  0.85500 3.43700 24.47800
C  0.98700 4.91700 24.32900
C  1.35400 1.93500 26.52100
C  0.14000 2.50300 23.52300
O  -0.19700 2.88900 22.39300
C  -0.15000 1.06100 23.77200
N  1.30100 7.96700 23.78000
C  0.79000 7.03600 22.91800
C  0.49500 7.69800 21.50200
C  0.43700 9.17100 21.88900
C  1.05400 9.22300 23.30000
C  1.47200 7.21900 20.36500
C  -0.90900 9.94000 21.76700
C  -1.05300 11.10600 20.69400
N  1.85100 9.53700 26.09500
C  1.84100 10.66400 25.22700
C  2.22500 11.87100 25.92400
C  2.45100 11.46300 27.22500
C  2.14200 10.06700 27.29700
C  2.20300 13.26600 25.38800
C  2.75700 11.85400 28.56400
O  3.11000 12.92400 28.95900
C  2.40100 10.62200 29.55400
C  3.57000 10.53100 30.46800
O  4.68600 10.22400 30.16800
O  3.21900 11.00000 31.72900
C  4.26000 11.35400 32.74500
H  2.04000 3.76500 28.40100
H  0.15400 5.12100 22.35800
H  1.41300 11.39900 23.37600
H  3.42000 7.85600 30.65000
H  2.14100 5.36500 30.57900
H  4.58000 5.28800 29.00800
H  4.36200 4.38900 30.50800
H  4.71100 6.13800 30.58800
H  0.79800 6.58900 31.31400
H  0.50800 8.17000 30.67900
H  0.39500 8.22700 32.94000
H  1.90700 9.13000 32.54200
H  1.95000 2.03600 27.42800
H  1.86100 1.24300 25.84900
H  0.32700 1.63500 26.73200
H  -0.82900 0.60300 23.05400
H  -0.75600 1.21400 24.66500
H  0.72300 0.43900 23.97300
H  -0.51600 7.43400 21.19300
H  1.18100 9.57300 21.20200
H  1.90500 8.07800 19.85100
H  0.91600 6.63300 19.63300
H  2.20500 6.58400 20.86300
H  -1.01000 10.33900 22.77600
H  -1.83600 9.37100 21.69700
H  -1.81700 11.02000 19.92100
H  -0.12500 11.18000 20.12800
H  -1.19700 12.07400 21.17400
H  3.21900 13.62900 25.23400
H  1.63400 13.96900 25.99700
H  1.65300 13.15900 24.45400
H  1.48800 10.79400 30.12300
H  4.16600 10.65800 33.57800
H  3.90800 12.31400 33.12300
H  5.29900 11.40400 32.41900
Mg 41.28900 40.82800 26.44000
C  40.68600 43.16100 29.03300
C  42.24900 38.61000 29.02400
C  42.21000 38.76000 24.04000
C  40.62600 43.33600 24.14800
N  41.44100 40.88500 28.81500
C  41.11000 41.95500 29.59400
C  40.99900 41.45200 31.05400
C  41.81200 40.11100 31.00100
C  41.88200 39.82300 29.54100
C  43.27000 40.11500 31.62800
C  39.49800 41.48200 31.50400
C  39.24800 42.47600 32.67400
H  39.56600 41.95500 34.05300
N  42.02100 38.91300 26.50700
C  42.40900 38.17100 27.65300
C  43.03600 36.88400 27.28800
C  42.98700 36.90900 25.88600
C  42.43100 38.26500 25.38500
C  43.48700 35.85300 28.24300
C  43.30300 35.77400 24.93900
O  43.32700 35.83000 23.72500
C  43.73100 34.39700 25.49900
N  41.29900 41.00600 24.38500
C  41.68700 39.98600 23.57200
C  41.49500 40.28700 22.15600
C  40.74500 41.65400 22.19000
C  40.91700 42.05400 23.62400
C  42.82400 40.19700 21.34200
C  39.27200 41.51500 21.74500
C  38.30500 40.64200 22.67700
N  40.78100 42.81400 26.55600
C  40.55900 43.77800 25.48500
C  40.24100 45.07000 26.02000
C  40.20500 44.82400 27.46300
C  40.62700 43.46800 27.69800
C  40.08300 46.32200 25.21600
C  40.02700 45.56500 28.66600
O  39.67500 46.70600 29.00500
C  40.22500 44.45900 29.80500
C  41.21600 45.04100 30.66100
O  42.44800 44.86300 30.57300
O  40.66700 45.81100 31.67400
C  41.54700 46.35700 32.71000
H  42.58300 37.86200 29.74600
H  42.50600 38.04200 23.27300
H  40.28900 44.16000 23.51700
H  41.55500 42.16900 31.65900
H  41.21800 39.37500 31.54200
H  43.97400 39.75600 30.87700
H  43.22900 39.43600 32.48000
H  43.47800 41.10000 32.04500
H  39.20400 40.50400 31.88700
H  38.82300 41.68900 30.67400
H  38.22500 42.85200 32.70200
H  39.85600 43.34700 32.42900
H  42.72800 35.09100 28.41400
H  43.64100 36.29300 29.22800
H  44.45600 35.48900 27.90000
H  44.68700 34.65800 25.95400
H  43.68700 33.65600 24.70000
H  43.10700 34.06500 26.32900
H  40.82000 39.53900 21.74000
H  41.20600 42.43900 21.58900
H  42.77900 39.36100 20.64500
H  43.60600 40.13300 22.09900
H  42.96200 41.14300 20.81700
H  39.22600 41.05600 20.75800
H  38.85600 42.52200 21.71300
H  38.25100 39.59600 22.37400
H  37.37200 41.20500 22.68900
H  38.72300 40.68800 23.68200
H  39.15900 46.59700 24.70800
H  40.78800 46.35600 24.38500
H  40.37100 47.18300 25.81800
H  39.24300 44.38600 30.27400
H  41.61500 45.56300 33.45300
H  41.22400 47.31300 33.12400
H  42.54000 46.54500 32.30200

