158

Mg 26.46600 0.88800 29.27200
C  28.34700 0.33900 32.06400
C  23.61700 1.04800 31.30900
C  24.70500 1.36900 26.53000
C  29.26000 -0.11300 27.23400
N  25.96000 0.57700 31.44900
C  27.01600 0.53600 32.35300
C  26.43500 0.58700 33.81900
C  24.91300 0.55200 33.56800
C  24.82300 0.77000 32.04800
C  24.07800 -0.59000 34.11300
C  26.96800 1.78900 34.60200
C  27.57600 1.51900 35.97900
H  27.04400 2.46700 37.01600
N  24.48600 1.12600 28.94100
C  23.46700 1.21200 29.85300
C  22.21100 1.47300 29.21800
C  22.46600 1.49800 27.82900
C  23.95900 1.31800 27.70400
C  20.90400 1.60700 30.01200
C  21.55900 1.63700 26.60200
O  21.86900 1.66300 25.40800
C  20.04300 1.57100 26.82300
N  26.88100 0.56200 27.10400
C  26.01100 1.00100 26.22800
C  26.62300 1.07700 24.84200
C  28.09800 0.62000 25.02000
C  28.12800 0.33400 26.51900
C  25.92000 0.31500 23.73800
C  29.12600 1.68400 24.65400
C  30.38200 1.21400 24.08700
N  28.43600 0.31100 29.58300
C  29.44400 -0.12100 28.71000
C  30.60200 -0.50500 29.42000
C  30.35600 -0.19500 30.79400
C  28.92800 0.17700 30.83300
C  31.76800 -1.14600 28.71000
C  30.78600 -0.22100 32.21800
O  31.81400 -0.58100 32.78800
C  29.47000 0.10500 33.03700
C  29.29400 -1.06700 33.95600
O  28.95500 -2.19900 33.57000
O  29.67600 -0.65000 35.18400
C  29.92100 -1.69400 36.16400
H  22.89300 1.31200 32.08200
H  24.31700 1.81900 25.61400
H  30.02500 -0.48200 26.54700
H  26.63100 -0.41300 34.20400
H  24.52800 1.50900 33.92000
H  23.49400 -0.13500 34.91300
H  24.74800 -1.26800 34.64300
H  23.48400 -1.13500 33.37900
H  26.15100 2.50800 34.66400
H  27.70800 2.29500 33.98400
H  28.65000 1.63500 35.83500
H  27.45200 0.49100 36.31800
H  20.50100 2.51200 29.55800
H  20.91200 1.89100 31.06500
H  20.34200 0.67700 29.92900
H  19.87100 0.74300 27.51100
H  19.55700 1.18700 25.92600
H  19.67000 2.47700 27.30000
H  26.55800 2.15200 24.67500
H  28.27200 -0.30400 24.46800
H  24.98800 -0.18100 24.00800
H  26.63200 -0.24300 23.13000
H  25.57000 1.10600 23.07400
H  29.41000 2.19100 25.57600
H  28.63900 2.48400 24.09600
H  30.22500 0.21900 23.67200
H  31.13500 1.03900 24.85600
H  30.75200 1.86600 23.29600
H  32.64900 -1.06000 29.34500
H  31.89900 -0.69900 27.72400
H  31.65900 -2.20000 28.45200
H  29.55000 1.01700 33.62900
H  29.73400 -2.72800 35.87500
H  29.26600 -1.49900 37.01300
H  30.94400 -1.57200 36.51900
Mg 36.12400 1.96500 29.53400
C  34.04200 2.85300 32.24400
C  38.73200 1.97000 31.81900
C  38.18200 1.70800 26.97500
C  33.47600 2.53000 27.39000
N  36.34400 2.32200 31.86800
C  35.33700 2.60700 32.72500
C  35.83700 2.67000 34.17800
C  37.42000 2.49500 34.05600
C  37.55100 2.27600 32.46200
C  38.24200 3.68800 34.71000
C  35.15000 1.55700 35.14500
C  34.89300 1.92200 36.61000
H  35.68700 3.06900 37.33600
N  38.17500 1.72700 29.39200
C  39.06500 1.58900 30.45600
C  40.39300 1.28500 30.00400
C  40.22600 1.25700 28.59900
C  38.84300 1.61300 28.23700
C  41.64500 0.96400 30.81800
C  41.25000 0.89400 27.52700
O  40.87500 0.70900 26.34000
C  42.76700 0.69500 27.78800
N  35.82200 2.00100 27.54400
C  36.86600 1.88700 26.64800
C  36.50500 2.17800 25.23900
C  34.91900 2.16700 25.32000
C  34.67300 2.22900 26.85400
C  37.22200 3.45000 24.61700
C  34.25000 0.97900 24.55800
C  34.02100 -0.33800 25.35500
N  34.15700 2.56600 29.73600
C  33.20900 2.75700 28.75700
C  31.92900 3.13200 29.40600
C  32.18200 3.20500 30.81600
C  33.59600 2.87500 30.91500
C  30.61000 3.61100 28.72200
C  31.66300 3.40700 32.08600
O  30.48800 3.67300 32.45100
C  32.75200 3.09600 33.08200
C  32.80900 4.22800 34.05000
O  33.40200 5.27000 33.79100
O  32.12500 3.92600 35.20400
C  32.06300 5.19800 36.05900
H  39.52900 1.91100 32.56200
H  38.79200 1.58700 26.07800
H  32.67800 2.83400 26.71000
H  35.68900 3.60400 34.72000
H  37.69300 1.59400 34.60700
H  39.06800 3.28100 35.29400
H  37.72700 4.33100 35.42300
H  38.63800 4.34400 33.93400
H  35.76200 0.65600 35.11000
H  34.23400 1.27000 34.63000
H  34.94700 0.98100 37.15800
H  33.82700 2.14900 36.64100
H  42.15700 0.12100 30.35400
H  41.31000 0.62000 31.79600
H  42.23700 1.87100 30.94400
H  43.19500 0.61700 26.78800
H  42.73700 -0.27500 28.28400
H  43.16700 1.56400 28.31000
H  36.77700 1.30100 24.65200
H  34.65700 3.12500 24.87200
H  37.79500 3.91800 25.41700
H  36.53300 4.22200 24.27600
H  37.83900 3.15200 23.76900
H  34.93300 0.81500 23.72300
H  33.31600 1.31900 24.11000
H  32.97800 -0.34200 25.66900
H  34.59900 -0.44400 26.27300
H  34.25600 -1.22000 24.76000
H  29.90800 2.79300 28.56300
H  30.71600 4.14700 27.77800
H  30.15300 4.24100 29.48400
H  32.51600 2.16000 33.58800
H  31.37100 5.19200 36.90000
H  31.83400 6.00300 35.36000
H  33.04400 5.51300 36.41300

