158

Mg 46.77000 24.87100 27.84700
C  47.65300 27.42400 30.31800
C  46.46700 22.62700 30.40100
C  46.22800 22.63300 25.56400
C  47.66900 27.32800 25.44100
N  47.04400 25.05800 30.05800
C  47.27900 26.20500 30.85700
C  47.21500 25.84500 32.36300
C  46.91100 24.27400 32.42700
C  46.83300 23.94000 30.83800
C  47.88900 23.40600 33.25400
C  46.34200 26.86200 33.07300
C  45.66800 26.46100 34.38700
H  45.96200 27.43900 35.54700
N  46.30500 22.92100 27.95800
C  46.20600 22.14500 29.08800
C  45.87000 20.75900 28.70800
C  45.77500 20.78900 27.27100
C  46.11500 22.14800 26.84900
C  45.91500 19.64900 29.63800
C  45.41400 19.65800 26.29200
O  45.32000 19.79700 25.08400
C  45.07800 18.29700 26.75200
N  46.98800 25.00200 25.79500
C  46.56900 23.90400 25.07500
C  46.73700 24.06500 23.57100
C  47.20500 25.59200 23.58200
C  47.21100 26.07600 25.00500
C  47.74900 23.17600 22.81900
C  46.15200 26.49600 22.77900
C  46.67600 27.17100 21.50300
N  47.47400 26.97800 27.79100
C  47.77800 27.79000 26.74700
C  48.27200 29.12800 27.22600
C  48.14600 29.06800 28.61900
C  47.66600 27.71500 28.95000
C  48.87600 30.17700 26.35900
C  48.49900 29.71600 29.82700
O  49.14300 30.76700 29.92700
C  48.01300 28.75400 30.99800
C  49.09700 28.75600 32.02300
O  50.00300 27.97200 32.12900
O  48.68000 29.64500 33.00500
C  49.57700 29.76100 34.14900
H  46.33800 21.83900 31.14600
H  46.09500 21.87900 24.78600
H  47.84000 27.96700 24.57200
H  48.28300 25.94700 32.55500
H  45.93700 24.16300 32.90500
H  48.56700 24.07600 33.78300
H  48.40800 22.71300 32.59100
H  47.32800 22.81400 33.97700
H  45.47100 27.12200 32.47200
H  46.95500 27.74000 33.27400
H  45.92600 25.44100 34.67000
H  44.58900 26.56200 34.27700
H  44.95100 19.15600 29.51800
H  45.91200 19.84300 30.71100
H  46.64000 18.90100 29.31700
H  44.26100 18.29400 27.47500
H  45.99800 18.05400 27.28300
H  44.90600 17.64400 25.89700
H  45.76000 23.82100 23.15600
H  48.16600 25.66900 23.07400
H  48.55800 23.69400 22.30500
H  47.29000 22.46000 22.13700
H  48.38300 22.63200 23.52000
H  45.78300 27.33300 23.37200
H  45.33000 25.84300 22.48200
H  46.81200 28.22200 21.75700
H  46.00800 26.90100 20.68500
H  47.61800 26.70300 21.21800
H  48.51900 30.25200 25.33100
H  49.96300 30.10300 26.33500
H  48.68700 31.17400 26.75700
H  47.10900 29.19800 31.41500
H  50.57300 29.38600 33.91100
H  49.22600 29.18200 35.00300
H  49.70000 30.82900 34.32500
Mg 34.57700 48.98600 26.25700
C  35.02000 46.62200 28.85000
C  33.85600 51.25300 28.62300
C  33.86600 50.96500 23.80000
C  34.89000 46.23500 24.01200
N  34.65500 48.99000 28.52700
C  34.78700 47.90700 29.31400
C  34.76800 48.36400 30.81200
C  34.20400 49.79100 30.77300
C  34.25900 50.05200 29.19900
C  32.78800 49.93700 31.27100
C  36.17700 48.27200 31.43100
C  36.15000 47.78800 32.89000
H  36.06800 48.87300 33.94300
N  34.00500 50.89700 26.18200
C  33.83000 51.71900 27.24000
C  33.61800 53.09500 26.83400
C  33.58000 53.02800 25.36900
C  33.83500 51.59100 25.06000
C  33.36400 54.28600 27.74400
C  33.20400 54.08800 24.40800
O  33.22100 53.85800 23.21100
C  32.81500 55.45000 24.82000
N  34.27100 48.57600 24.24500
C  34.09300 49.62400 23.42200
C  33.89600 49.16100 21.97800
C  34.31000 47.65900 22.04500
C  34.59000 47.50500 23.52000
C  32.43800 49.27600 21.38100
C  35.55500 47.41500 21.18000
C  36.98100 48.09300 21.41500
N  34.93200 46.89500 26.36000
C  35.00800 45.94200 25.34000
C  35.39200 44.66700 25.90500
C  35.40300 44.90500 27.34500
C  35.10300 46.25400 27.58400
C  35.59100 43.49300 25.03800
C  35.57500 44.24100 28.57500
O  35.77600 43.04700 28.91400
C  35.40900 45.41300 29.63000
C  34.37600 45.07100 30.65600
O  33.16900 45.01300 30.49700
O  35.00000 44.68000 31.84800
C  34.01300 44.28200 32.84300
H  33.78000 52.10100 29.30600
H  33.70200 51.63900 22.95700
H  34.95500 45.36900 23.35100
H  34.04700 47.73100 31.33000
H  34.97800 50.37900 31.26600
H  32.47600 49.06800 31.84900
H  31.97500 50.05800 30.55500
H  32.63800 50.81800 31.89600
H  36.60000 49.27500 31.38100
H  36.86000 47.61900 30.88900
H  37.10700 47.28700 33.03900
H  35.35100 47.07600 33.09800
H  32.38000 54.68900 27.50100
H  34.03600 55.11300 27.51000
H  33.26900 54.12900 28.81800
H  31.91200 55.58700 25.41500
H  32.65200 56.03700 23.91600
H  33.67100 55.84200 25.36900
H  34.64800 49.76500 21.47100
H  33.46100 47.00200 21.85500
H  32.07500 48.27500 21.14600
H  32.52400 49.87300 20.47400
H  31.79700 49.73900 22.13100
H  35.32400 47.60100 20.13100
H  35.76900 46.35300 21.29200
H  37.36700 48.46700 20.46700
H  37.62500 47.27600 21.74200
H  36.96100 48.82500 22.22200
H  34.74500 43.22700 24.40500
H  35.75100 42.69700 25.76500
H  36.56300 43.60800 24.55700
H  36.40800 45.49600 30.05900
H  33.62700 45.13900 33.39500
H  34.35600 43.61200 33.63100
H  33.21500 43.67200 32.41800

