158

Mg -10.66500 38.72900 41.55800
C  -9.22700 35.69800 40.62000
C  -8.09900 40.45000 40.11300
C  -12.47000 41.63600 41.86500
C  -13.54300 36.96500 42.57600
N  -8.87400 38.10600 40.52000
C  -8.41700 36.79100 40.28100
C  -7.16000 36.82500 39.44500
C  -6.76900 38.38800 39.48100
C  -7.99300 39.06500 40.02100
C  -5.49600 38.54300 40.29600
C  -7.44500 36.32600 37.98600
C  -6.81500 35.00100 37.65900
H  -5.63700 34.88900 36.74000
N  -10.25100 40.81400 41.22900
C  -9.12900 41.28600 40.61200
C  -9.17600 42.76000 40.49200
C  -10.50300 43.10200 40.94700
C  -11.14300 41.84000 41.41200
C  -8.05300 43.59400 39.76100
C  -11.04200 44.56100 40.87400
O  -10.35200 45.49700 40.46300
C  -12.46400 44.91800 41.24900
N  -12.76200 39.28700 42.15900
C  -13.24800 40.51900 42.06200
C  -14.78600 40.53200 42.31500
C  -15.11800 38.98900 42.38200
C  -13.73900 38.36400 42.48400
C  -15.17300 41.28000 43.66400
C  -15.85600 38.44000 41.19000
C  -17.22800 38.99400 40.87700
N  -11.25700 36.72400 41.73700
C  -12.40700 36.21300 42.30700
C  -12.19700 34.74200 42.40900
C  -11.09000 34.48300 41.70900
C  -10.50200 35.70800 41.26500
C  -12.94800 33.79300 43.23900
C  -10.23300 33.42000 41.30000
O  -10.32600 32.21600 41.45100
C  -8.95100 34.14600 40.56800
C  -7.75200 33.61000 41.25200
O  -7.10500 32.63300 40.89500
O  -7.48400 34.41400 42.33400
C  -6.34700 33.93700 43.23000
H  -7.34600 40.99800 39.54200
H  -13.10200 42.52500 41.92000
H  -14.38000 36.33900 42.89200
H  -6.39300 36.11800 39.76100
H  -6.66800 38.80000 38.47700
H  -4.86000 39.14500 39.64700
H  -4.99100 37.61700 40.56900
H  -5.76300 39.10800 41.18900
H  -7.25200 37.12800 37.27300
H  -8.53200 36.28500 37.90800
H  -7.62900 34.38000 37.28400
H  -6.51200 34.43700 38.54000
H  -8.26800 43.55300 38.69300
H  -7.10700 43.10100 39.98400
H  -7.98800 44.59900 40.18000
H  -12.65800 44.62300 42.28000
H  -13.12300 44.42300 40.53500
H  -12.63600 45.99100 41.15400
H  -15.38200 41.01200 41.53900
H  -15.61600 38.74300 43.32000
H  -15.52300 42.27400 43.38400
H  -14.29900 41.52100 44.26800
H  -15.94100 40.71100 44.18800
H  -15.86400 37.35000 41.19500
H  -15.21800 38.71500 40.35000
H  -17.08300 39.48600 39.91600
H  -17.69000 39.70800 41.55900
H  -17.93300 38.16900 40.77900
H  -13.80000 33.35300 42.72100
H  -13.47400 34.36700 44.00200
H  -12.14400 33.19500 43.66800
H  -8.89000 33.85600 39.51900
H  -5.66000 33.13200 42.96900
H  -6.71400 33.72400 44.23400
H  -5.74500 34.84200 43.31500
Mg 1.77000 42.66100 25.89900
C  2.78800 42.50200 29.34100
C  -1.25900 41.19500 26.87800
C  0.97200 42.35000 22.55700
C  4.95400 43.59000 25.07100
N  0.85800 42.01900 27.89200
C  1.41400 42.19000 29.17600
C  0.32500 41.75800 30.26400
C  -0.86100 41.15000 29.40100
C  -0.43100 41.53200 27.95300
C  -1.17800 39.61300 29.63400
C  -0.09200 42.97000 31.14800
C  -0.04700 42.79500 32.71700
H  -0.65600 41.56500 33.44800
N  0.11400 41.90300 24.88900
C  -1.02900 41.40200 25.47700
C  -1.95200 41.05900 24.41800
C  -1.41800 41.46200 23.11800
C  -0.02800 41.95600 23.49600
C  -3.29200 40.48700 24.63900
C  -1.96000 41.38800 21.67900
O  -1.37200 41.91400 20.78000
C  -3.20600 40.62800 21.43000
N  2.91500 42.78400 24.08200
C  2.30900 42.68700 22.82500
C  3.30700 43.20400 21.76100
C  4.40400 43.91400 22.57000
C  4.11500 43.34200 24.00500
C  3.80300 42.18400 20.69300
C  4.26500 45.47900 22.53700
C  2.94900 46.15500 22.75600
N  3.53300 43.06800 26.97800
C  4.79100 43.38300 26.43900
C  5.75900 43.40200 27.56700
C  5.00400 43.08200 28.72400
C  3.66700 42.92500 28.31400
C  7.19600 43.64900 27.43900
C  5.03800 42.93300 30.20400
O  5.96000 43.00400 30.98000
C  3.64100 42.51900 30.66100
C  3.70400 41.12800 31.24900
O  4.33300 40.20000 30.84000
O  3.09800 41.13200 32.50200
C  3.12800 39.82100 33.11900
H  -2.14600 40.59900 27.10200
H  0.69700 42.34400 21.50000
H  5.94900 43.98500 24.85400
H  0.82400 40.98600 30.85000
H  -1.73700 41.75800 29.62800
H  -2.18100 39.42200 30.01600
H  -0.47400 39.24400 30.38000
H  -1.02400 39.10600 28.68100
H  -1.12000 43.25400 30.92200
H  0.52600 43.85800 31.01800
H  -0.47300 43.71400 33.12100
H  0.97500 42.86700 33.08900
H  -3.54900 39.61300 24.04100
H  -4.07200 41.24500 24.56300
H  -3.31400 39.97400 25.60000
H  -3.30300 40.56500 20.34600
H  -4.02400 40.88600 22.10200
H  -2.97400 39.58400 21.64100
H  2.93600 43.97700 21.08800
H  5.44900 43.74000 22.31300
H  3.91500 41.21500 21.17800
H  4.64100 42.58100 20.11900
H  3.02400 41.92900 19.97500
H  4.57200 45.67000 21.50900
H  4.99000 45.81900 23.27700
H  3.00500 46.80500 23.62900
H  2.14900 45.44800 22.97400
H  2.69500 46.74100 21.87300
H  7.34000 44.71700 27.60300
H  7.42300 43.40800 26.40000
H  7.77200 43.13000 28.20500
H  3.28900 43.17900 31.45400
H  3.05400 40.06100 34.18000
H  4.02600 39.22100 32.97200
H  2.30800 39.19400 32.77100

