158

Mg 40.41000 41.62400 27.57900
C  39.95400 44.06100 30.02000
C  41.10800 39.35000 29.97900
C  41.47500 39.37300 25.16500
C  40.43100 44.08700 25.19100
N  40.65200 41.80400 29.77100
C  40.27300 42.84100 30.58800
C  40.05400 42.42100 32.07800
C  40.67000 40.98300 32.07100
C  40.83000 40.66600 30.50300
C  41.92100 40.81500 33.01400
C  38.60600 42.52600 32.61200
C  38.44300 41.70700 33.85800
H  37.84800 42.36800 35.09900
N  41.16000 39.64500 27.54500
C  41.27800 38.83800 28.63300
C  41.60700 37.51000 28.33600
C  41.80000 37.43900 26.88200
C  41.44100 38.88600 26.45400
C  41.79600 36.44200 29.37800
C  42.14000 36.34700 25.95500
O  42.20300 36.50000 24.74100
C  42.35800 34.98200 26.39000
N  41.15900 41.78300 25.43900
C  41.33700 40.72700 24.64700
C  41.37500 41.08100 23.21400
C  40.80300 42.56700 23.22200
C  40.79700 42.82600 24.74400
C  42.66600 40.80300 22.43400
C  39.48100 42.59600 22.34200
C  38.09500 42.11900 22.97900
N  40.21400 43.67300 27.52600
C  40.19600 44.59100 26.47400
C  39.84600 45.90700 26.96100
C  39.77400 45.78000 28.36900
C  40.02700 44.40000 28.63000
C  39.87100 47.13400 26.09600
C  39.47400 46.46200 29.54100
O  39.24100 47.67400 29.76800
C  39.49400 45.42500 30.72400
C  40.48200 46.05600 31.70100
O  41.63500 46.37100 31.54900
O  39.90700 46.26400 32.89700
C  40.70500 46.61800 34.02900
H  41.23900 38.62900 30.78900
H  41.73800 38.67000 24.37200
H  40.20700 44.92500 24.52700
H  40.64500 43.13400 32.65400
H  39.99100 40.17500 32.34300
H  41.90500 39.94500 33.67100
H  42.06500 41.71800 33.60700
H  42.80300 40.77600 32.37400
H  37.90700 42.32900 31.79900
H  38.43500 43.57300 32.86200
H  39.34900 41.21000 34.20600
H  37.67600 40.97600 33.59900
H  42.84600 36.20600 29.54800
H  41.24800 35.55700 29.05400
H  41.40400 36.74200 30.35000
H  43.08100 34.91900 27.20300
H  42.76700 34.41600 25.55400
H  41.44000 34.44300 26.62400
H  40.60500 40.43800 22.78800
H  41.61600 43.21600 22.89500
H  43.37100 40.24800 23.05200
H  43.11900 41.77100 22.22000
H  42.42800 40.24600 21.52800
H  39.51400 42.02200 21.41600
H  39.32300 43.60700 21.96600
H  38.33400 42.10800 24.04300
H  37.88600 41.06100 22.81800
H  37.31000 42.83500 22.73600
H  38.85700 47.40200 25.79800
H  40.47200 47.04200 25.19100
H  40.30200 48.05800 26.48200
H  38.54000 45.36700 31.24800
H  41.51300 45.90000 34.16400
H  40.19500 46.65500 34.99200
H  41.19200 47.58300 33.88700
Mg 25.76200 51.22900 26.56900
C  23.74300 52.05700 29.27900
C  28.19100 50.17200 28.85700
C  28.13500 51.20600 24.09000
C  23.47200 52.53500 24.42900
N  25.93600 51.02900 28.87600
C  24.93200 51.42400 29.73400
C  25.31800 51.02800 31.15600
C  26.84800 50.59600 31.02200
C  27.02000 50.58100 29.49100
C  27.92000 51.41200 31.80900
C  24.42400 49.94200 31.73400
C  24.68500 49.58700 33.25800
H  23.83900 50.06200 34.39000
N  27.82500 50.69900 26.43700
C  28.60900 50.26800 27.52000
C  29.95600 49.94400 27.04000
C  30.02700 50.30500 25.67500
C  28.63800 50.74400 25.33100
C  31.06400 49.38200 27.98100
C  31.21600 50.21600 24.74100
O  31.22300 50.48700 23.50400
C  32.52400 49.70400 25.24600
N  25.85400 51.94700 24.65700
C  26.89800 51.80700 23.81000
C  26.53400 52.14300 22.38500
C  24.91500 52.33200 22.41000
C  24.78000 52.29500 23.92900
C  27.38400 53.36100 21.83900
C  24.20400 51.20300 21.64900
C  24.46200 49.75200 22.04300
N  23.83400 52.05600 26.78900
C  23.04900 52.56200 25.77900
C  21.75500 53.04300 26.35700
C  21.96600 52.85900 27.76400
C  23.26100 52.27800 27.89700
C  20.65200 53.61000 25.46800
C  21.44700 53.07700 29.10300
O  20.37000 53.58800 29.50000
C  22.53900 52.60400 30.07000
C  22.86000 53.86600 30.86000
O  23.32000 54.94100 30.45800
O  22.58300 53.54600 32.12800
C  22.91900 54.56100 33.10300
H  28.95600 49.84100 29.56300
H  28.88000 51.03700 23.31000
H  22.61300 52.72100 23.78100
H  25.29100 51.89600 31.81400
H  26.87000 49.51600 31.16500
H  28.75700 51.62500 31.14300
H  28.43200 50.72800 32.48500
H  27.59300 52.32300 32.31200
H  24.58500 49.02600 31.16500
H  23.39000 50.27700 31.64700
H  25.72900 49.87700 33.37300
H  24.68900 48.50300 33.37300
H  31.05100 48.29400 28.03600
H  30.78200 49.55200 29.02000
H  32.07500 49.78500 27.91900
H  32.54000 48.70400 25.68100
H  33.01000 50.49000 25.82300
H  33.19000 49.70300 24.38300
H  26.82700 51.27400 21.79600
H  24.52800 53.26900 22.01100
H  28.13800 53.68700 22.55500
H  26.69300 54.18100 21.64100
H  27.85600 53.00900 20.92100
H  24.55800 51.37400 20.63200
H  23.12200 51.32900 21.67600
H  25.34600 49.69200 22.67800
H  24.71000 49.16400 21.15900
H  23.66500 49.24100 22.58400
H  19.80400 53.98200 26.04300
H  20.42200 52.82700 24.74500
H  21.16000 54.41800 24.94200
H  22.12000 51.85200 30.73800
H  23.40900 54.13400 33.97800
H  21.96600 54.98300 33.42100
H  23.50300 55.34100 32.61500

