158

Mg 0.09800 7.59800 26.87400
C  1.07400 9.90300 29.38100
C  -0.09200 5.14300 29.27800
C  -0.32100 5.47200 24.33200
C  0.85100 10.17600 24.50200
N  0.53100 7.50400 29.02700
C  0.71500 8.64300 29.83800
C  0.53600 8.24700 31.28900
C  0.45000 6.68900 31.28400
C  0.22400 6.44100 29.78700
C  1.72700 5.97400 31.75300
C  -0.69000 8.89400 32.00000
C  -0.64500 9.01100 33.56900
H  0.54400 8.63600 34.39200
N  -0.12300 5.53100 26.79200
C  -0.14100 4.68700 27.93800
C  -0.29000 3.29000 27.39600
C  -0.25100 3.38400 26.02000
C  -0.18000 4.86700 25.62900
C  -0.63600 2.11900 28.31200
C  -0.27400 2.26300 25.05000
O  -0.14600 2.48000 23.84700
C  -0.28700 0.81200 25.51800
N  -0.06100 7.81800 24.71500
C  -0.27600 6.75800 23.80400
C  -0.36500 7.22500 22.40200
C  0.18800 8.68000 22.50900
C  0.32400 8.93900 24.01200
C  0.41800 6.43900 21.35700
C  -0.66800 9.66400 21.67500
C  -1.82700 10.30000 22.45800
N  0.70700 9.55900 26.89200
C  0.88500 10.52400 25.87400
C  1.38100 11.75600 26.34300
C  1.49100 11.52100 27.72100
C  0.98300 10.21700 28.05200
C  1.74700 12.96900 25.54600
C  1.80700 12.19600 29.04700
O  2.33200 13.29800 29.23300
C  1.56300 11.12000 30.10300
C  2.81700 10.81700 30.85900
O  3.71100 10.04500 30.56500
O  2.89200 11.63900 31.92900
C  4.15200 11.65500 32.75000
H  -0.17600 4.37900 30.05300
H  -0.45800 4.71900 23.55200
H  1.09000 10.96300 23.78400
H  1.47700 8.58300 31.72500
H  -0.41200 6.24200 31.78000
H  2.41300 6.71700 32.15900
H  2.20700 5.76600 30.79700
H  1.66100 5.01600 32.26900
H  -1.46700 8.16300 31.77500
H  -1.08200 9.76100 31.46800
H  -1.57400 8.55900 33.91400
H  -0.71000 10.08600 33.73700
H  -1.59500 1.69300 28.01800
H  -0.70600 2.45200 29.34700
H  0.15100 1.36500 28.30300
H  -1.22000 0.56300 26.02100
H  0.55000 0.79100 26.21600
H  -0.09500 0.12000 24.69800
H  -1.38600 7.16300 22.02600
H  1.17800 8.77000 22.06000
H  0.61000 5.41200 21.66800
H  1.36000 6.96500 21.19900
H  -0.18800 6.24600 20.47200
H  -1.08500 9.11400 20.83300
H  -0.02200 10.50700 21.43100
H  -1.92000 9.85200 23.44700
H  -2.79000 10.32400 21.94800
H  -1.60000 11.35500 22.61200
H  2.49100 13.58900 26.04800
H  0.82400 13.50100 25.31800
H  2.20600 12.65100 24.61000
H  0.82100 11.51500 30.79700
H  4.94900 10.95700 32.49400
H  3.87100 11.43600 33.78000
H  4.62000 12.63100 32.61600
Mg 40.50500 9.67500 30.62600
C  42.48200 11.06800 33.19700
C  38.40200 8.38400 33.00500
C  38.82300 8.31100 28.10100
C  43.09900 10.67900 28.33500
N  40.42700 9.80300 32.76100
C  41.30700 10.41500 33.63600
C  40.80800 10.33800 35.10100
C  39.46600 9.55600 35.04400
C  39.42000 9.21900 33.54000
C  39.50600 8.31600 36.02200
C  40.55000 11.75300 35.82300
C  41.18600 11.82800 37.24100
H  40.51000 12.54100 38.35200
N  38.85100 8.59200 30.53700
C  38.11000 8.15500 31.64700
C  36.97600 7.36600 31.17300
C  36.97700 7.48900 29.73800
C  38.30700 8.13800 29.41800
C  36.07300 6.67900 32.14600
C  35.95500 6.95400 28.75500
O  36.04600 6.94300 27.50000
C  34.62800 6.40900 29.31000
N  40.98700 9.34700 28.57400
C  40.04000 8.87000 27.66600
C  40.52700 9.07100 26.20800
C  41.89100 9.84700 26.31700
C  42.02200 9.95200 27.83500
C  40.50000 7.85500 25.29500
C  41.99400 11.06900 25.49300
C  41.06600 12.18200 25.89200
N  42.40700 10.62600 30.65100
C  43.32100 10.89200 29.68000
C  44.44300 11.60800 30.31100
C  44.20700 11.66300 31.64500
C  42.90900 11.09600 31.79500
C  45.56200 12.33000 29.71200
C  44.60600 12.21200 32.98900
O  45.57400 12.90100 33.31500
C  43.53600 11.78500 33.98100
C  44.17100 10.99900 34.99500
O  44.36000 9.82300 35.03100
O  44.52400 11.78900 36.03100
C  45.38500 11.22800 37.02000
H  37.63200 8.08500 33.72000
H  38.19300 7.81500 27.36000
H  43.76800 11.23700 27.67600
H  41.57900 9.75200 35.60100
H  38.68600 10.27000 35.30900
H  39.66700 7.37300 35.50000
H  38.56900 8.34100 36.57800
H  40.36800 8.39000 36.68500
H  39.51700 12.02300 36.04400
H  41.00000 12.51400 35.18500
H  42.21300 12.16000 37.08900
H  41.34000 10.85000 37.69600
H  35.48700 5.85800 31.73300
H  35.40100 7.41000 32.59600
H  36.74700 6.26400 32.89600
H  33.86500 6.35400 28.53300
H  34.39300 7.26400 29.94500
H  34.74200 5.53200 29.94800
H  39.87100 9.74300 25.65600
H  42.65000 9.14900 25.96400
H  40.14200 6.94600 25.77900
H  41.45800 7.58500 24.85100
H  39.75600 8.10100 24.53700
H  41.89000 10.92200 24.41800
H  43.04100 11.37100 25.53000
H  40.45700 11.73900 26.67900
H  40.26400 12.25400 25.15800
H  41.39300 13.17600 26.19600
H  46.45600 11.97600 30.22600
H  45.36500 13.39600 29.82700
H  45.73900 12.13600 28.65400
H  43.00800 12.60900 34.46100
H  44.86700 10.40200 37.50800
H  45.60000 12.05000 37.70300
H  46.35200 11.00800 36.56800

