158

Mg 41.25900 40.95600 27.33600
C  40.95000 43.51600 29.67600
C  42.52200 38.94300 29.88100
C  42.24500 38.70100 24.96600
C  40.42600 43.16100 24.79500
N  41.82200 41.31200 29.53500
C  41.45600 42.36700 30.26600
C  41.55400 42.12800 31.74800
C  42.25500 40.68800 31.85700
C  42.19900 40.27700 30.37200
C  43.66300 40.65000 32.44500
C  40.20500 42.11100 32.48300
C  40.11200 43.12000 33.73900
H  39.45400 42.62600 35.01600
N  42.33300 39.13800 27.36600
C  42.67100 38.46900 28.53400
C  43.27400 37.21100 28.21900
C  43.12800 37.08500 26.80600
C  42.52300 38.35200 26.30200
C  43.81400 36.22100 29.27500
C  43.54800 35.97700 25.91500
O  43.43400 36.06700 24.72400
C  44.07200 34.69200 26.43500
N  41.58200 41.03800 25.20400
C  42.00000 39.98600 24.40600
C  41.68100 40.12600 22.92200
C  40.93500 41.49800 22.95800
C  40.87800 41.89400 24.45400
C  42.96900 39.99500 21.94500
C  39.61300 41.42900 22.29000
C  38.38800 41.14200 23.19500
N  40.83200 42.90800 27.15200
C  40.45900 43.67300 26.10900
C  40.17000 44.98300 26.55900
C  40.25100 44.94000 27.98400
C  40.78100 43.68200 28.29100
C  40.00400 46.16000 25.52200
C  40.19200 45.74000 29.12800
O  39.86200 46.88700 29.27300
C  40.62200 44.79300 30.31500
C  41.70400 45.59800 31.02000
O  42.56300 46.26200 30.41900
O  41.46800 45.76100 32.35200
C  41.97500 47.02000 32.93300
H  42.82100 38.40200 30.78100
H  42.32800 38.00100 24.13100
H  40.02900 43.82100 24.02100
H  42.26600 42.89300 32.05900
H  41.72900 39.92300 32.42800
H  43.77700 39.76700 33.07400
H  43.80000 41.56300 33.02400
H  44.41600 40.69100 31.65700
H  39.89300 41.13600 32.85700
H  39.39800 42.38500 31.80400
H  39.52000 43.96800 33.39300
H  41.11200 43.48700 33.96800
H  43.60100 35.15900 29.15600
H  43.55500 36.43300 30.31200
H  44.90100 36.28500 29.23100
H  43.96300 33.89100 25.70300
H  43.42500 34.26500 27.20100
H  45.08900 34.82600 26.80300
H  41.03500 39.27300 22.71100
H  41.58100 42.24600 22.49900
H  42.77800 40.59100 21.05300
H  42.92600 38.92300 21.75400
H  43.86300 40.38900 22.42900
H  39.58600 40.66800 21.51100
H  39.44800 42.43000 21.89300
H  37.87300 40.26300 22.80800
H  37.75400 42.02100 23.07300
H  38.64300 40.92800 24.23300
H  39.46500 46.99600 25.96900
H  39.72600 45.67200 24.58800
H  41.04900 46.41400 25.34600
H  39.85700 44.72900 31.08900
H  43.02800 46.91400 33.19400
H  41.48700 47.25400 33.87900
H  41.88400 47.81300 32.19100
Mg -10.43100 16.52400 41.22800
C  -6.89100 16.21900 41.77700
C  -9.88300 19.83100 40.65800
C  -13.62700 16.77600 40.31500
C  -10.59400 13.07300 41.14900
N  -8.58100 17.78800 41.12100
C  -7.27500 17.49300 41.47600
C  -6.39800 18.74800 41.35100
C  -7.45700 19.84000 41.59900
C  -8.71900 19.16400 41.02100
C  -7.60800 20.50600 43.06500
C  -5.79100 18.78300 39.96100
C  -4.33500 18.37900 39.77000
H  -3.97200 17.16300 38.86500
N  -11.67300 18.18600 40.67400
C  -11.24700 19.46500 40.51100
C  -12.38600 20.23200 40.02800
C  -13.50400 19.32900 39.89200
C  -12.98300 18.06000 40.24600
C  -12.39200 21.72700 39.88200
C  -14.96500 19.72100 39.29600
O  -15.14700 20.84800 38.88000
C  -15.99700 18.71900 38.88900
N  -11.92500 15.19300 40.71300
C  -13.19000 15.50700 40.56600
C  -14.08300 14.25800 40.46300
C  -13.12000 13.10900 40.80200
C  -11.78500 13.82900 40.85900
C  -15.33400 14.30200 41.39300
C  -13.28100 11.83000 39.86500
C  -13.70200 10.45600 40.40800
N  -9.05400 14.89100 41.50100
C  -9.24300 13.55200 41.41500
C  -7.99800 12.82700 41.67000
C  -7.08400 13.90100 41.93400
C  -7.76900 15.10200 41.70800
C  -7.84900 11.30600 41.80600
C  -5.68200 14.18400 42.23500
O  -4.77800 13.39000 42.52400
C  -5.50300 15.72600 42.25900
C  -5.04100 16.12800 43.56200
O  -3.90200 16.43300 43.77100
O  -6.01100 16.01800 44.46800
C  -5.74900 16.53900 45.83400
H  -9.69400 20.90000 40.53900
H  -14.68600 16.87100 40.06400
H  -10.79500 12.01600 41.33600
H  -5.55100 18.85000 42.03000
H  -7.13500 20.67400 40.97500
H  -8.37800 19.96600 43.61700
H  -7.79200 21.57600 42.96700
H  -6.76900 20.35300 43.74300
H  -5.82100 19.81500 39.61300
H  -6.32600 18.06600 39.33800
H  -4.00800 18.20700 40.79600
H  -3.86400 19.28600 39.38900
H  -13.26200 22.12500 40.40500
H  -12.54000 21.87500 38.81200
H  -11.45600 22.24200 40.09500
H  -15.60500 17.78700 38.48300
H  -16.74100 19.26900 38.31300
H  -16.42900 18.50500 39.86700
H  -14.39400 14.11300 39.42900
H  -13.22900 12.78000 41.83500
H  -15.20600 15.14200 42.07600
H  -15.57900 13.35900 41.88100
H  -16.20000 14.46500 40.75200
H  -12.31700 11.68700 39.37700
H  -14.10900 11.96200 39.16900
H  -14.70100 10.13400 40.11200
H  -13.77100 10.52400 41.49300
H  -13.01300 9.69500 40.04000
H  -6.90000 11.01500 42.25600
H  -7.82300 10.90200 40.79400
H  -8.69500 10.84900 42.32100
H  -4.64800 15.91300 41.60900
H  -4.71100 16.73900 46.10000
H  -6.23900 15.76700 46.42700
H  -6.26800 17.48200 46.00700

