158

Mg 48.47600 15.64700 29.34700
C  46.32800 15.29300 32.13700
C  50.61100 17.37600 31.33300
C  50.33500 15.99900 26.63700
C  45.77700 14.38200 27.29700
N  48.53300 16.12800 31.43100
C  47.60500 15.83900 32.43100
C  48.04400 16.19300 33.84600
C  49.29700 17.10800 33.58600
C  49.49500 16.94700 32.04500
C  49.15700 18.59700 33.95500
C  48.34900 14.89800 34.52800
C  48.04700 14.93100 36.05700
H  47.85200 16.22500 36.83000
N  50.28100 16.45500 29.04300
C  51.06400 17.10500 30.03700
C  52.27200 17.46600 29.44500
C  52.30200 16.98400 28.08200
C  50.92300 16.43600 27.85200
C  53.44300 18.08100 30.19500
C  53.44400 17.00100 27.01200
O  53.26400 16.55700 25.85900
C  54.79100 17.48800 27.45200
N  48.11600 15.19700 27.28100
C  49.10900 15.37100 26.41400
C  48.59600 14.87400 25.00000
C  47.25900 14.16100 25.29000
C  47.00300 14.60900 26.71200
C  48.48100 16.10400 24.06000
C  47.22500 12.62500 25.12400
C  46.41600 12.12200 23.95900
N  46.46700 15.04100 29.59600
C  45.48000 14.66600 28.67900
C  44.24000 14.30500 29.35000
C  44.59200 14.48800 30.71800
C  45.93700 14.97200 30.78800
C  43.01500 13.70000 28.73100
C  44.04800 14.50400 32.03200
O  42.93100 14.26600 32.44900
C  45.19600 14.92000 33.03200
C  44.60900 16.11300 33.76500
O  44.51500 17.24400 33.22600
O  44.13300 15.87000 35.03200
C  43.57200 16.95500 35.78900
H  51.23900 18.01800 31.95400
H  50.95800 16.16900 25.75700
H  44.91000 14.08000 26.70600
H  47.23100 16.78900 34.26200
H  50.08400 16.57900 34.12300
H  48.16200 18.79800 34.35300
H  49.32100 19.25800 33.10400
H  49.87800 18.84900 34.73300
H  49.35200 14.52600 34.31800
H  47.65900 14.12100 34.19900
H  48.89700 14.40800 36.49600
H  47.19600 14.28500 36.27200
H  53.78000 18.97200 29.66300
H  54.24400 17.35300 30.07000
H  53.37300 18.27100 31.26600
H  55.23700 16.76700 28.13800
H  54.76700 18.54500 27.71600
H  55.38300 17.45000 26.53700
H  49.21800 14.08200 24.58400
H  46.51600 14.48900 24.56300
H  49.09400 16.93600 24.40800
H  47.49300 16.55500 23.97100
H  48.81600 15.80000 23.06800
H  46.84300 12.22700 26.06400
H  48.24800 12.25800 25.04000
H  46.92900 11.41400 23.30900
H  45.95800 12.92900 23.38700
H  45.52700 11.61000 24.32800
H  42.34900 14.52800 28.97300
H  42.67400 12.77100 29.18900
H  43.05500 13.65900 27.64300
H  45.44900 14.23900 33.84400
H  42.52800 16.95500 35.47400
H  43.97500 17.91700 35.47200
H  43.71700 16.71200 36.84100
Mg 36.05800 49.41300 24.61200
C  36.47100 47.14500 27.37000
C  34.79500 51.66100 26.64800
C  35.27600 51.02800 21.84100
C  36.83600 46.44700 22.45100
N  35.65100 49.36400 26.70400
C  36.03200 48.43000 27.69300
C  35.75600 48.90100 29.11900
C  35.00000 50.24500 28.85000
C  35.08000 50.43600 27.32200
C  33.47300 50.37800 29.42100
C  37.05800 49.04900 29.94000
C  37.01900 48.33100 31.32600
H  35.65900 48.56100 32.14800
N  35.27000 51.10400 24.29500
C  34.87400 51.97400 25.29100
C  34.60100 53.19400 24.63100
C  34.77900 53.11200 23.23000
C  35.13000 51.68100 23.06200
C  34.10000 54.37900 25.42600
C  34.68700 54.18000 22.10800
O  34.85700 53.82600 20.96900
C  34.44300 55.56200 22.43200
N  36.22200 48.81900 22.40800
C  35.72300 49.72500 21.54400
C  35.79400 49.16400 20.10500
C  36.72100 47.90000 20.28600
C  36.49600 47.65700 21.78000
C  34.41700 48.85700 19.53400
C  38.19200 48.12100 19.92400
C  38.92100 47.07900 19.16200
N  36.56500 47.25400 24.83200
C  36.79400 46.22400 23.82400
C  37.20200 45.03500 24.56300
C  37.00800 45.31200 25.90900
C  36.68000 46.69100 26.04300
C  37.70700 43.80600 23.91500
C  37.20700 44.80300 27.30700
O  37.58200 43.72100 27.67600
C  36.83600 45.99000 28.33100
C  35.66500 45.48600 29.18800
O  34.48100 45.55500 28.87500
O  36.17600 45.08800 30.34600
C  35.18000 44.69300 31.32400
H  34.45300 52.48600 27.27600
H  34.89000 51.53000 20.95100
H  37.01500 45.58000 21.81200
H  35.00900 48.27200 29.60500
H  35.31100 51.14800 29.37500
H  33.03400 49.46900 29.83300
H  32.81200 50.72700 28.62700
H  33.44500 51.18500 30.15300
H  37.21800 50.09800 30.18700
H  37.86900 48.71600 29.29200
H  37.84300 48.77400 31.88400
H  37.19400 47.29400 31.04000
H  33.66700 55.17500 24.82000
H  34.95500 54.75500 25.98800
H  33.41100 54.00700 26.18400
H  33.41000 55.60100 22.77800
H  34.54300 56.21500 21.56500
H  35.11300 55.98700 23.18000
H  36.22700 49.96200 19.50200
H  36.38500 46.96900 19.82800
H  34.02200 49.82600 19.23100
H  33.70400 48.39700 20.21800
H  34.57900 48.36600 18.57500
H  38.70900 48.37500 20.85000
H  38.26300 49.07700 19.40600
H  38.21500 46.54200 18.52900
H  39.33500 46.39700 19.90400
H  39.72000 47.52500 18.57000
H  36.87200 43.17200 23.61800
H  38.37400 43.25900 24.58200
H  38.17200 44.11600 22.97900
H  37.68800 46.09900 29.00200
H  35.53300 44.85500 32.34300
H  34.87800 43.66500 31.12600
H  34.28800 45.30300 31.18400

