158

Mg 52.38900 24.06100 44.19600
C  49.35600 25.99100 43.88400
C  50.49500 21.21700 44.06100
C  55.29500 22.39200 43.76700
C  54.19800 27.15900 43.99300
N  50.13500 23.66400 43.86300
C  49.10100 24.55100 43.91600
C  47.71300 23.86000 43.85100
C  48.16700 22.41900 44.30000
C  49.69000 22.40900 43.99700
C  47.97800 22.04400 45.79100
C  47.04400 23.97500 42.43800
C  47.96800 23.58800 41.22400
H  47.40900 23.79600 39.83600
N  52.75000 22.06900 43.89600
C  51.88500 21.07100 43.98100
C  52.61600 19.79300 43.78600
C  53.99100 20.13300 43.66500
C  54.09600 21.56400 43.83900
C  52.00300 18.43600 43.87400
C  55.11500 19.06000 43.44200
O  54.82400 17.84900 43.30500
C  56.54400 19.35900 43.38300
N  54.45700 24.67800 43.78400
C  55.46800 23.80700 43.76300
C  56.85700 24.47500 43.88900
C  56.48600 26.04600 43.72200
C  54.95500 25.95500 43.83200
C  57.66100 24.02900 45.16100
C  57.04900 26.64900 42.39900
C  58.02600 27.84800 42.59400
N  51.93900 26.13000 44.12900
C  52.81300 27.24800 44.13000
C  51.96900 28.42100 44.24000
C  50.63900 27.96900 44.05800
C  50.64400 26.57000 44.02600
C  52.36800 29.83300 44.23700
C  49.23900 28.50100 43.92600
O  48.77700 29.55500 43.72200
C  48.44000 27.16700 43.73400
C  47.80400 27.23400 42.42800
O  48.35400 27.24200 41.34600
O  46.39700 27.54900 42.63100
C  45.76000 28.13400 41.46800
H  49.92900 20.29400 44.20000
H  56.24900 21.86100 43.79000
H  54.74200 28.06700 44.26400
H  47.07500 24.39000 44.55900
H  47.71100 21.69700 43.62200
H  47.40600 22.88300 46.18600
H  48.97900 21.96900 46.21600
H  47.50800 21.06500 45.88500
H  46.46300 24.88900 42.32100
H  46.34900 23.13600 42.39600
H  47.95700 22.51500 41.41700
H  48.90000 24.10700 41.44600
H  52.43000 17.73800 43.15300
H  50.92600 18.51100 43.72400
H  52.25700 18.04100 44.85800
H  57.22900 18.51100 43.36800
H  56.82100 20.02100 44.20300
H  56.80700 19.92100 42.48700
H  57.44500 24.00000 43.10400
H  56.89900 26.54600 44.59800
H  57.01500 23.58800 45.92000
H  58.13700 24.92000 45.56900
H  58.46200 23.32800 44.92700
H  56.26100 26.94100 41.70500
H  57.65000 25.96800 41.79700
H  59.02400 27.46900 42.37300
H  57.82600 28.38300 43.52200
H  57.92800 28.63800 41.84900
H  53.31700 29.98200 44.75200
H  51.70600 30.50700 44.77900
H  52.40600 30.16100 43.19800
H  47.61200 27.23400 44.44000
H  46.26300 29.04600 41.14800
H  44.74800 28.33800 41.81800
H  45.85700 27.52400 40.57000
Mg 8.93400 47.30400 25.86900
C  6.95000 47.66800 28.62400
C  11.44300 49.07000 27.38200
C  10.84400 47.51900 22.91600
C  6.08300 46.80400 23.81200
N  9.12200 48.31100 27.69900
C  8.26300 48.12000 28.82700
C  8.93500 48.67900 30.00400
C  10.00400 49.61200 29.40500
C  10.32000 48.89600 28.08100
C  9.53100 51.04700 29.09300
C  9.39800 47.63600 30.99500
C  8.80500 47.84300 32.43200
H  8.86600 46.51800 33.30900
N  11.05800 47.84900 25.29200
C  11.88100 48.53900 26.13400
C  13.22400 48.67500 25.53900
C  13.08600 48.21200 24.22700
C  11.58400 47.83500 24.05400
C  14.35000 49.23900 26.34400
C  14.11400 48.30000 23.01900
O  13.80400 47.98200 21.85400
C  15.50300 48.77700 23.28100
N  8.48000 47.26900 23.67500
C  9.41600 47.37200 22.67800
C  8.71000 47.32700 21.27900
C  7.20100 46.99100 21.63400
C  7.26100 47.01200 23.16300
C  8.85300 48.60100 20.51400
C  6.63300 45.53500 21.11100
C  5.37400 45.61700 20.35600
N  6.94200 47.24400 26.09500
C  5.87100 46.87700 25.24700
C  4.67300 46.73300 26.05900
C  5.01700 47.01500 27.37500
C  6.39400 47.32200 27.35200
C  3.26900 46.39200 25.67100
C  4.50900 47.09200 28.73200
O  3.35300 47.04700 29.10700
C  5.87000 47.30000 29.61500
C  6.20700 46.07800 30.34400
O  7.06000 45.24800 30.06300
O  5.40100 46.03000 31.44800
C  5.78500 45.00900 32.46100
H  12.23200 49.68300 27.82300
H  11.34200 47.49200 21.94400
H  5.21500 46.70400 23.15600
H  8.22000 49.34400 30.48900
H  10.93800 49.68900 29.96100
H  10.18600 51.76100 29.59300
H  8.53900 51.18200 29.52300
H  9.52700 51.33800 28.04300
H  10.47400 47.58500 31.15800
H  9.08100 46.66900 30.60600
H  7.75700 48.14300 32.42400
H  9.41700 48.58900 32.93800
H  14.23400 49.08000 27.41600
H  14.41200 50.27000 25.99600
H  15.19200 48.63800 26.00000
H  15.38500 49.47900 24.10700
H  15.89900 49.13300 22.33000
H  16.22100 47.97000 23.43200
H  9.08900 46.48800 20.69400
H  6.54300 47.83600 21.42600
H  7.90800 49.11400 20.33500
H  9.23500 48.31800 19.53300
H  9.61800 49.31300 20.82400
H  6.57100 44.80400 21.91700
H  7.38700 45.18600 20.40500
H  5.54800 45.55600 19.28200
H  4.90500 46.58600 20.52300
H  4.75100 44.77800 20.66400
H  2.61700 47.25000 25.84100
H  2.93300 45.54800 26.27300
H  3.26800 46.08500 24.62600
H  5.67800 48.15400 30.26500
H  5.27600 44.05400 32.33200
H  5.39400 45.42600 33.38900
H  6.85100 44.81800 32.58300

