158

Mg 0.34700 7.36500 26.45000
C  0.69900 9.61800 29.11200
C  0.25500 4.94200 28.77700
C  -0.08700 5.21700 23.96100
C  0.63900 10.04200 24.24600
N  0.47600 7.35200 28.69400
C  0.47900 8.36700 29.57500
C  0.36000 7.90800 31.03200
C  0.58200 6.33500 30.84700
C  0.49000 6.18600 29.33400
C  1.81200 5.78500 31.56100
C  -0.95200 8.25000 31.68600
C  -0.86900 8.44100 33.24800
H  0.40200 8.11600 34.01300
N  0.18500 5.34100 26.34600
C  0.14100 4.51600 27.39700
C  -0.21000 3.18900 26.95800
C  -0.07100 3.10900 25.55700
C  -0.00100 4.59100 25.20000
C  -0.60600 2.07400 27.99300
C  -0.26200 2.03300 24.62900
O  -0.16400 2.19300 23.43200
C  -0.52400 0.74000 25.09500
N  0.34300 7.54400 24.43200
C  -0.00300 6.54700 23.56600
C  -0.16300 7.07200 22.15800
C  -0.30400 8.52900 22.45000
C  0.28100 8.74700 23.79700
C  1.18500 6.79600 21.40000
C  -1.86100 8.90800 22.53300
C  -2.27300 10.13900 21.68100
N  0.79700 9.44200 26.58100
C  0.93100 10.41100 25.61700
C  1.15800 11.70800 26.19800
C  1.04700 11.51100 27.61900
C  0.81800 10.09800 27.73600
C  1.35200 12.93000 25.40700
C  1.02500 12.04700 28.88700
O  1.34400 13.16000 29.23000
C  0.81000 10.90300 29.90700
C  1.86700 10.98400 30.90300
O  3.06000 10.81000 30.71000
O  1.39200 11.50900 32.08000
C  2.44100 11.83500 33.12800
H  -0.06600 4.23800 29.54800
H  -0.23500 4.52900 23.12500
H  0.62500 10.88500 23.55300
H  1.16200 8.29000 31.66300
H  -0.28500 5.83000 31.27300
H  2.47800 6.57400 31.91100
H  2.41000 5.13800 30.92000
H  1.48900 5.20400 32.42500
H  -1.75500 7.52500 31.55300
H  -1.32700 9.19200 31.28700
H  -1.69500 7.98500 33.79400
H  -1.04100 9.49800 33.45300
H  0.12100 1.26600 27.92700
H  -1.60100 1.78400 27.65500
H  -0.64900 2.31600 29.05500
H  -1.38800 0.77200 25.75900
H  0.35300 0.43600 25.66700
H  -0.67600 -0.02700 24.33600
H  -1.07200 6.63100 21.74800
H  0.34100 9.17300 21.85100
H  0.95100 6.12600 20.57200
H  1.85300 6.16700 21.98800
H  1.83700 7.64400 21.19000
H  -2.17100 9.13900 23.55200
H  -2.41800 8.02400 22.22400
H  -3.15600 9.75700 21.16900
H  -1.50000 10.46000 20.98200
H  -2.53500 10.98500 22.31600
H  1.47400 13.79400 26.06000
H  0.44300 13.03100 24.81300
H  2.14000 12.82900 24.66100
H  -0.16600 11.04700 30.37100
H  3.00000 12.70200 32.77600
H  3.01200 10.93800 33.37000
H  1.81800 12.10900 33.97900
Mg 10.78300 46.76700 25.88200
C  8.61400 47.04300 28.45200
C  13.23100 48.46300 27.83700
C  13.02600 46.35300 23.41900
C  8.11300 45.91300 23.66000
N  10.86000 47.66000 27.88800
C  9.87500 47.51700 28.90100
C  10.32600 48.15100 30.24900
C  11.51200 49.07000 29.71500
C  11.94800 48.35100 28.40800
C  11.11100 50.58400 29.52300
C  10.86900 47.02300 31.21600
C  10.08300 47.02400 32.53900
H  10.23800 45.69400 33.37400
N  12.86700 47.13800 25.79200
C  13.57200 47.78100 26.68700
C  14.93600 47.63800 26.37600
C  15.04300 47.03200 25.09200
C  13.60600 46.87900 24.72500
C  16.03800 48.21200 27.27900
C  16.27600 46.61700 24.17100
O  16.11000 46.13900 23.08600
C  17.63900 46.87000 24.66200
N  10.55100 46.20700 23.78200
C  11.69700 46.08000 23.00000
C  11.28400 45.51900 21.60600
C  9.75800 45.41800 21.67300
C  9.40000 45.92500 23.09900
C  11.77200 46.45300 20.42800
C  9.13900 44.07500 21.17200
C  9.13400 43.03400 22.25700
N  8.79900 46.48400 26.00000
C  7.80700 46.15000 25.06100
C  6.54900 46.14400 25.74100
C  6.84300 46.53000 27.03900
C  8.21100 46.62600 27.17500
C  5.22700 46.07000 25.04200
C  6.17000 46.81400 28.25000
O  4.98500 46.85800 28.54800
C  7.35200 46.96500 29.23700
C  7.45100 45.87900 30.16900
O  8.24500 44.94200 30.08200
O  6.60700 46.13800 31.24300
C  6.50300 45.11700 32.27600
H  13.88800 49.19700 28.30900
H  13.71000 46.10200 22.60600
H  7.26600 45.83000 22.97600
H  9.49600 48.71900 30.66900
H  12.33300 49.05600 30.43200
H  11.52200 51.12300 30.37600
H  10.02200 50.55600 29.57600
H  11.15200 50.90700 28.48300
H  11.89100 47.28000 31.49300
H  10.77900 45.99200 30.87500
H  9.01800 47.06700 32.31100
H  10.46900 47.80900 33.19000
H  15.72600 48.39700 28.30700
H  16.48900 49.12000 26.88000
H  16.67500 47.33500 27.39500
H  17.70600 47.90800 24.98700
H  18.36700 46.58900 23.90100
H  17.64500 46.18600 25.51000
H  11.91400 44.64900 21.41800
H  9.34700 46.25300 21.10500
H  11.72600 47.50300 20.71800
H  11.01500 46.23700 19.67400
H  12.80300 46.28200 20.11900
H  9.72200 43.62300 20.36900
H  8.15300 44.31200 20.77200
H  9.78200 43.33600 23.08000
H  9.65900 42.13800 21.92400
H  8.13500 42.68200 22.51500
H  4.44900 45.84100 25.77000
H  5.25900 45.33200 24.23900
H  4.94400 46.97300 24.50200
H  7.28000 47.88200 29.82100
H  6.60500 44.08300 31.94900
H  5.49900 45.32700 32.64500
H  7.19900 45.21000 33.11000

