158

Mg 0.73400 7.51300 25.34100
C  1.43000 9.58500 28.16800
C  1.44600 4.79200 27.28700
C  0.08600 5.76000 22.81000
C  0.88400 10.45200 23.42700
N  1.43500 7.22000 27.52100
C  1.40100 8.13800 28.55600
C  1.49400 7.48600 29.94500
C  1.69200 5.96500 29.58100
C  1.60700 6.00300 28.04800
C  3.02700 5.34200 30.10600
C  0.32100 7.78800 30.91500
C  0.58400 8.09400 32.44900
H  1.63200 7.19200 33.06000
N  0.72800 5.52500 25.06400
C  1.04600 4.53300 25.98300
C  0.71400 3.22000 25.39300
C  0.34200 3.58200 24.03500
C  0.37800 4.98000 23.92400
C  0.97600 1.94800 26.17300
C  -0.04700 2.66400 22.87400
O  -0.44600 2.94700 21.73600
C  0.09900 1.20300 23.09100
N  0.63200 8.06100 23.29400
C  0.24700 7.07100 22.46400
C  -0.38000 7.70900 21.15300
C  0.00800 9.21600 21.25900
C  0.54400 9.31900 22.69700
C  -0.10800 6.99400 19.75200
C  -1.24700 10.23800 21.06700
C  -0.98400 11.38000 20.12700
N  1.15000 9.52400 25.68200
C  1.18500 10.61100 24.76200
C  1.59300 11.81400 25.48400
C  1.63800 11.44700 26.82200
C  1.35000 10.09000 26.86900
C  1.72000 13.20500 24.90400
C  1.73600 11.99100 28.16200
O  2.10300 13.09100 28.55400
C  1.67400 10.74700 29.13800
C  2.91100 10.67900 29.85000
O  3.99000 10.38400 29.40000
O  2.71100 10.95100 31.20500
C  3.84900 10.72400 32.08200
H  1.49300 3.84400 27.82700
H  -0.27200 5.20900 21.93800
H  0.87500 11.39600 22.87900
H  2.42900 7.91300 30.30700
H  0.82200 5.37300 29.86500
H  2.86400 4.42100 30.66700
H  3.60900 6.05700 30.68800
H  3.73500 5.02200 29.34200
H  -0.26400 6.86900 30.93300
H  -0.30900 8.61300 30.58300
H  -0.27400 7.91500 33.09700
H  0.88600 9.13500 32.56700
H  0.11300 1.29500 26.04800
H  1.05100 2.07400 27.25300
H  1.85600 1.41400 25.81400
H  -0.50200 0.85100 23.92900
H  1.13600 0.96000 23.32400
H  -0.32100 0.66500 22.24100
H  -1.44000 7.56400 21.36500
H  0.80300 9.44800 20.55000
H  0.80400 6.42600 19.93000
H  0.07900 7.78900 19.03000
H  -0.93500 6.31700 19.53400
H  -1.62100 10.63100 22.01200
H  -2.11900 9.84100 20.54700
H  -1.44000 11.25100 19.14600
H  0.09800 11.51400 20.14500
H  -1.53200 12.22900 20.53500
H  0.86800 13.57800 24.33600
H  2.66600 13.16900 24.36300
H  1.92600 13.80200 25.79200
H  0.84300 10.88600 29.83000
H  3.50300 10.23700 32.99400
H  4.25700 11.67800 32.41400
H  4.66200 10.19200 31.58700
Mg 25.49600 0.68900 29.27800
C  27.14700 0.54200 32.39600
C  22.54800 1.43800 30.92400
C  23.80000 0.56700 26.37300
C  28.28300 -0.35000 27.53600
N  24.96400 0.98900 31.51800
C  25.78000 0.84800 32.60300
C  25.03200 1.27500 33.82600
C  23.54400 1.39600 33.35900
C  23.63100 1.23400 31.83300
C  22.59100 0.30800 33.91300
C  25.59700 2.65000 34.45100
C  26.19500 2.50400 35.88100
H  25.53700 3.31900 37.02800
N  23.50000 0.97700 28.65900
C  22.43700 1.23500 29.49900
C  21.27100 1.20200 28.71900
C  21.69400 1.05300 27.36700
C  23.05500 0.87000 27.39600
C  19.89500 1.27000 29.40400
C  20.71400 1.13900 26.19500
O  20.95400 0.74700 25.04500
C  19.24100 1.61000 26.37200
N  26.06400 0.10900 27.19900
C  25.12600 0.19000 26.29300
C  25.74800 -0.24300 24.92700
C  27.33100 -0.42300 25.18700
C  27.28100 -0.15900 26.66700
C  25.08600 -1.52600 24.32300
C  28.37400 0.41400 24.40200
C  28.00200 1.86200 23.97500
N  27.26200 0.08900 29.80700
C  28.35900 -0.22500 28.97800
C  29.51300 -0.46700 29.86600
C  29.13100 -0.12100 31.17400
C  27.73900 0.18000 31.11100
C  30.92300 -0.71600 29.33300
C  29.52900 -0.06700 32.55500
O  30.62800 -0.33800 33.04400
C  28.28500 0.44100 33.42000
C  28.12300 -0.46000 34.58100
O  27.43000 -1.46800 34.53400
O  28.81300 -0.04700 35.64800
C  28.70500 -0.71800 36.92100
H  21.64600 1.51200 31.53400
H  23.34100 0.51700 25.38300
H  29.25800 -0.67300 27.16500
H  25.14500 0.47700 34.55900
H  23.13200 2.34900 33.68800
H  23.10400 -0.38100 34.58400
H  22.29100 -0.30800 33.06500
H  21.79500 0.79200 34.47900
H  24.73800 3.31400 34.54700
H  26.33100 3.13400 33.80700
H  27.22400 2.86400 35.87100
H  26.24500 1.46100 36.19400
H  19.38200 2.17100 29.06700
H  19.83300 1.31300 30.49100
H  19.27900 0.41100 29.13700
H  18.63000 1.07800 27.10100
H  18.68000 1.58800 25.43700
H  19.22800 2.64600 26.70800
H  25.50800 0.52200 24.18800
H  27.70400 -1.43300 25.01800
H  24.02100 -1.33700 24.45800
H  25.28500 -2.50400 24.75900
H  25.26400 -1.55900 23.24800
H  28.53500 -0.14500 23.48100
H  29.28900 0.35900 24.99200
H  28.76000 2.49300 24.43800
H  27.03800 2.17600 24.37600
H  28.01500 2.12400 22.91700
H  31.13100 -0.06300 28.48600
H  31.03400 -1.77100 29.08400
H  31.58900 -0.50400 30.17000
H  28.53400 1.43800 33.78400
H  27.86600 -1.41300 36.91100
H  28.22600 -0.01300 37.60100
H  29.63100 -1.16200 37.28800

