158

Mg 53.77000 24.15200 44.64100
C  51.14800 26.39300 44.01700
C  51.98700 21.67200 43.00500
C  56.41800 22.30500 44.92200
C  55.72500 26.95700 45.69200
N  51.85800 24.10700 43.53900
C  51.04200 25.16600 43.30500
C  49.89500 24.77400 42.32100
C  50.13100 23.25100 42.22800
C  51.33700 22.97400 42.98000
C  48.94700 22.35500 42.48500
C  49.88400 25.55800 40.89200
C  51.26000 26.18200 40.53400
H  52.09400 25.48000 39.49600
N  54.16000 22.21900 43.99400
C  53.23800 21.30900 43.50100
C  53.90400 20.08700 43.38100
C  55.11300 20.16900 44.08600
C  55.32600 21.58900 44.27800
C  53.31700 18.88000 42.71000
C  56.09100 18.97100 44.50000
O  55.75300 17.82400 44.27200
C  57.43800 19.17400 45.17100
N  55.85200 24.62900 45.03300
C  56.71900 23.63800 45.18500
C  58.10200 24.02900 45.78300
C  57.88800 25.54900 45.98500
C  56.38400 25.74200 45.56400
C  58.68100 23.13300 46.97900
C  58.83700 26.45600 45.15600
C  60.25400 26.38400 45.52800
N  53.56000 26.19700 44.82100
C  54.37800 27.17500 45.48600
C  53.61100 28.36100 45.68500
C  52.34000 28.08700 45.30300
C  52.40100 26.75000 44.71500
C  54.02700 29.66200 46.49400
C  50.96000 28.55500 45.24000
O  50.44700 29.59700 45.57700
C  50.18600 27.51600 44.30300
C  49.72700 28.21600 43.05200
O  50.40700 28.83300 42.22600
O  48.33800 28.20500 43.01500
C  47.77300 28.88500 41.86200
H  51.33100 20.93100 42.54500
H  57.20300 21.63000 45.26900
H  56.25800 27.75400 46.21500
H  48.97600 24.96700 42.87500
H  50.27600 22.98000 41.18300
H  49.20400 21.65600 43.28000
H  48.80000 21.69500 41.63000
H  48.12700 22.92700 42.92000
H  49.22700 26.41800 41.02000
H  49.56300 24.94200 40.05200
H  51.96500 26.39900 41.33700
H  50.98000 27.15200 40.12300
H  52.53300 19.15900 42.00600
H  52.76600 18.21000 43.36900
H  53.99200 18.13000 42.29800
H  57.87400 18.18900 45.33300
H  57.11600 19.66400 46.09000
H  58.01500 19.83300 44.52200
H  58.84000 23.93500 44.98700
H  57.90600 25.80900 47.04300
H  59.21400 22.24200 46.64500
H  57.80200 22.91300 47.58400
H  59.34800 23.79100 47.53600
H  58.46100 27.47300 45.04700
H  58.81500 25.99000 44.17000
H  60.17600 25.94500 46.52300
H  60.80600 27.32200 45.47600
H  60.87200 25.65400 45.00500
H  53.68700 30.50200 45.88700
H  55.11500 29.72800 46.48200
H  53.66600 29.56300 47.51800
H  49.28400 27.19400 44.82500
H  48.31300 28.67900 40.93700
H  47.77200 29.96700 42.00000
H  46.72200 28.62600 41.73700
Mg 37.30400 50.56000 25.18900
C  37.01900 48.39600 27.85300
C  35.95400 53.07700 26.89000
C  37.09100 52.34300 22.28400
C  38.26600 47.70700 23.26800
N  36.40600 50.63600 27.14600
C  36.62400 49.76000 28.11500
C  36.37700 50.31600 29.49600
C  35.72400 51.69500 29.14300
C  36.07600 51.91300 27.63500
C  34.23200 51.80400 29.35600
C  37.45000 50.30400 30.56300
C  37.05300 49.66200 31.90400
H  35.66700 49.87000 32.50500
N  36.77100 52.55100 24.66000
C  36.28300 53.44400 25.53900
C  36.04100 54.70700 24.88400
C  36.31900 54.52800 23.47800
C  36.74000 53.11400 23.42800
C  35.61600 55.90700 25.63300
C  36.20500 55.41800 22.31700
O  36.47800 55.03700 21.20200
C  35.84900 56.86100 22.55800
N  37.54100 50.08000 23.10800
C  37.42200 50.99900 22.06600
C  37.82600 50.35600 20.71000
C  38.40200 49.00100 21.07100
C  38.05900 48.91000 22.62700
C  36.51800 50.30100 19.80300
C  39.85700 48.65500 20.68100
C  40.84900 49.67100 21.20600
N  37.54200 48.45000 25.39700
C  37.94400 47.41500 24.56900
C  38.01200 46.18600 25.29300
C  37.68600 46.53600 26.59700
C  37.33400 47.88500 26.58700
C  38.52300 44.93800 24.72700
C  37.63300 46.09500 27.94500
O  37.82500 44.98400 28.34300
C  37.32400 47.33400 28.84900
C  36.21200 46.93500 29.71900
O  35.04500 47.00600 29.39800
O  36.71300 46.42800 30.92900
C  35.71600 46.17100 31.94900
H  35.76300 53.88100 27.60400
H  37.05200 52.88500 21.33700
H  38.87300 46.96300 22.74800
H  35.56900 49.70400 29.89800
H  36.21400 52.53200 29.64100
H  33.99300 51.00700 30.06100
H  33.75700 51.69600 28.38100
H  34.07800 52.77900 29.81800
H  37.83400 51.30100 30.77700
H  38.25500 49.69400 30.15200
H  37.75000 50.05200 32.64700
H  37.39300 48.62700 31.87600
H  35.76200 55.85900 26.71200
H  34.56300 56.11400 25.44100
H  36.08300 56.82800 25.28500
H  35.02200 56.96900 23.25900
H  35.67600 57.32000 21.58400
H  36.80700 57.24200 22.91300
H  38.62100 50.82500 20.13100
H  37.76200 48.26000 20.59200
H  36.81800 50.69100 18.83000
H  35.80200 51.00400 20.22800
H  35.95300 49.38500 19.63100
H  39.96800 48.54700 19.60200
H  40.12300 47.66000 21.03900
H  40.42200 50.67100 21.27400
H  41.67600 49.70300 20.49600
H  41.38600 49.37600 22.10800
H  39.52400 45.13300 24.34300
H  37.85700 44.64300 23.91600
H  38.60400 44.12500 25.44900
H  38.26700 47.46200 29.38100
H  35.76700 45.08200 31.95700
H  34.70100 46.48500 31.70200
H  36.09000 46.49600 32.91900

