158

Mg 36.11400 48.49300 25.16400
C  36.64300 46.70600 28.14800
C  34.60300 50.96500 26.77500
C  35.48700 50.07800 22.14300
C  37.74100 45.90100 23.36100
N  35.52700 48.67800 27.20200
C  35.87800 47.87600 28.25400
C  35.60400 48.61700 29.56000
C  34.77400 49.85100 29.13800
C  34.91000 49.80300 27.57900
C  33.26400 49.86800 29.64200
C  36.93800 48.99800 30.32200
C  36.82900 49.12100 31.85000
H  35.47600 49.10200 32.54600
N  35.23000 50.31300 24.55100
C  34.67000 51.15900 25.43200
C  34.22700 52.34400 24.74400
C  34.47200 52.13200 23.36900
C  35.04700 50.80900 23.26100
C  33.68300 53.54900 25.49000
C  34.24000 53.06600 22.19000
O  34.64200 52.88100 21.02300
C  33.34200 54.27300 22.38100
N  36.55300 48.07300 23.05500
C  36.07600 48.79000 22.06700
C  36.44800 48.11300 20.71600
C  37.52100 47.09200 21.07600
C  37.38200 47.06300 22.62800
C  35.15500 47.75200 19.96000
C  39.00200 47.43400 20.58300
C  39.59100 46.43200 19.56800
N  36.90700 46.59700 25.60900
C  37.60000 45.70400 24.79000
C  37.97100 44.59900 25.55400
C  37.59900 44.88200 26.89400
C  36.95800 46.16400 26.83100
C  38.60000 43.25500 24.98600
C  37.65800 44.42600 28.34400
O  37.94000 43.30200 28.84800
C  37.06800 45.61200 29.18300
C  35.85200 45.05800 29.83400
O  34.83900 44.73000 29.19200
O  36.02700 44.99400 31.22000
C  34.76100 44.86700 31.95000
H  34.14100 51.77800 27.33900
H  35.21900 50.55100 21.19600
H  38.21300 45.00600 22.95000
H  34.95700 47.93400 30.11100
H  35.23000 50.73300 29.58700
H  33.02800 48.93900 30.16000
H  32.56800 49.85700 28.80200
H  33.09600 50.74600 30.26600
H  37.22600 49.99300 29.98400
H  37.65600 48.24200 30.00500
H  37.38600 49.94600 32.29300
H  37.26100 48.16900 32.15900
H  33.46900 54.46300 24.93700
H  34.31600 53.85400 26.32300
H  32.71600 53.35900 25.95500
H  32.39200 54.11300 22.89000
H  33.14200 54.80200 21.44900
H  33.83100 55.07700 22.93100
H  36.86000 48.91000 20.09600
H  37.27600 46.08400 20.74300
H  34.45700 47.24300 20.62400
H  35.43800 47.13600 19.10600
H  34.60000 48.62300 19.61300
H  39.56700 47.63800 21.49300
H  39.10200 48.44600 20.19000
H  39.89800 46.98800 18.68200
H  39.01600 45.53800 19.32700
H  40.40300 45.91500 20.07900
H  39.37400 43.45400 24.24500
H  37.79800 42.59100 24.66400
H  39.08800 42.81600 25.85600
H  37.73100 45.94600 29.98100
H  35.04700 44.64300 32.97800
H  34.06600 44.07200 31.68000
H  34.21300 45.79000 31.75900
Mg 0.85900 42.03100 26.24000
C  2.17100 42.13200 29.51300
C  -2.03500 40.78900 27.80900
C  -0.24400 41.35600 23.29700
C  4.05000 42.65500 25.10100
N  0.13700 41.57500 28.45400
C  0.79700 41.94300 29.56100
C  -0.15800 41.78300 30.83400
C  -1.49100 41.21500 30.23200
C  -1.11000 41.21900 28.72500
C  -2.10300 39.91900 30.92500
C  -0.36800 43.09000 31.66400
C  -0.26800 43.02000 33.15300
H  -0.77500 41.72500 33.90000
N  -0.92100 41.21900 25.62400
C  -2.05800 40.89200 26.38500
C  -3.08200 40.48500 25.42400
C  -2.62600 40.67600 24.09500
C  -1.21300 41.07200 24.27900
C  -4.44400 39.95100 25.95200
C  -3.28300 40.53200 22.75700
O  -2.69900 40.68500 21.67500
C  -4.64000 40.01600 22.75000
N  1.77900 41.88700 24.44900
C  1.06700 41.72700 23.37100
C  1.99200 41.90500 22.12100
C  3.30300 42.48500 22.70700
C  3.03700 42.27000 24.16800
C  2.13200 40.62000 21.20000
C  3.61500 43.98700 22.37400
C  4.30400 44.21000 20.92700
N  2.76400 42.44100 27.08200
C  3.99700 42.72800 26.47100
C  4.97700 42.82900 27.45600
C  4.33500 42.56700 28.64900
C  2.96000 42.34300 28.37200
C  6.42800 42.97200 27.31000
C  4.47900 42.48300 30.08200
O  5.50300 42.63200 30.71900
C  3.18300 42.16300 30.71400
C  3.36500 40.82400 31.42100
O  3.44900 39.73300 30.85100
O  3.65600 41.07000 32.77700
C  4.30200 39.95300 33.59000
H  -2.95500 40.39600 28.24600
H  -0.52300 41.08300 22.27800
H  5.01200 42.85600 24.62500
H  0.31300 41.02000 31.45300
H  -2.29100 41.93700 30.40300
H  -3.04400 40.29500 31.32600
H  -1.40200 39.60400 31.69700
H  -2.21200 39.07700 30.24100
H  -1.38500 43.43100 31.46800
H  0.43000 43.75700 31.34000
H  -0.97800 43.74700 33.54800
H  0.74300 43.16800 33.53100
H  -5.33700 40.24000 25.39800
H  -4.55800 40.42500 26.92700
H  -4.45500 38.86600 26.05500
H  -4.87900 40.08400 21.68900
H  -5.33400 40.67300 23.27300
H  -4.61300 39.02300 23.20000
H  1.54500 42.70500 21.53000
H  4.08700 41.81500 22.35400
H  1.55200 40.74800 20.28700
H  1.71200 39.78700 21.76500
H  3.17500 40.39000 20.98500
H  4.19000 44.54000 23.11700
H  2.65500 44.50100 22.42800
H  3.46600 44.51100 20.29900
H  4.70500 43.24400 20.62300
H  4.97600 45.03300 21.17100
H  6.90300 42.02000 27.54900
H  6.81800 43.76700 27.94600
H  6.67300 43.11600 26.25800
H  2.96200 42.90500 31.48100
H  5.35400 40.04100 33.31800
H  3.91100 38.94800 33.43300
H  4.38300 40.21000 34.64600

