158

Mg 26.92600 50.36300 27.50200
C  24.84600 51.76900 29.80400
C  29.38500 49.80000 29.93900
C  29.13500 49.31400 25.13600
C  24.73200 51.49300 24.92700
N  27.09600 50.79200 29.59000
C  25.98900 51.18400 30.36300
C  26.26900 50.93100 31.78500
C  27.74100 50.58900 31.79900
C  28.13700 50.33200 30.34400
C  28.55800 51.70800 32.43000
C  25.37700 49.86700 32.52900
C  24.28200 50.45200 33.53300
H  24.27400 49.70700 34.92000
N  28.95900 49.66100 27.54900
C  29.72100 49.38800 28.62200
C  31.02000 48.79000 28.23200
C  31.00000 48.81900 26.85200
C  29.72500 49.30800 26.41300
C  32.11900 48.38900 29.21600
C  32.01900 48.39800 25.88600
O  31.97800 48.87400 24.75700
C  33.26300 47.51700 26.38500
N  26.97100 50.48200 25.34100
C  27.97300 49.85500 24.57500
C  27.43900 49.60800 23.11600
C  26.06300 50.31000 23.12500
C  25.88300 50.80000 24.54100
C  28.34400 50.05500 21.99200
C  24.88700 49.22200 22.82600
C  23.68300 49.70400 21.96400
N  25.14400 51.50600 27.25800
C  24.26300 51.77400 26.23000
C  23.07000 52.53700 26.76200
C  23.27600 52.56500 28.14500
C  24.52300 51.90900 28.39800
C  22.02900 53.18000 25.90800
C  22.70400 53.04400 29.36200
O  21.72000 53.69300 29.61300
C  23.62500 52.44500 30.50800
C  23.92300 53.47900 31.54700
O  24.86000 54.20800 31.48200
O  22.98500 53.45200 32.56700
C  23.23400 54.43000 33.62900
H  30.10000 49.49900 30.70700
H  29.81400 48.84700 24.42000
H  23.93500 51.74300 24.22400
H  26.05900 51.91900 32.19600
H  27.85400 49.67500 32.38200
H  29.45700 51.92300 31.85200
H  29.00200 51.27300 33.32500
H  28.16100 52.66200 32.77600
H  25.84100 49.06600 33.10300
H  24.93100 49.41900 31.64100
H  23.32900 50.35200 33.01300
H  24.42800 51.52800 33.62600
H  32.96900 48.83600 28.70000
H  32.19700 47.30500 29.30900
H  32.04300 48.67100 30.26600
H  33.46400 46.82800 25.56500
H  33.02000 46.96600 27.29300
H  34.21600 48.00100 26.60100
H  27.28400 48.54600 22.92700
H  26.09000 51.18400 22.47400
H  28.52200 49.15700 21.40000
H  29.35500 50.42700 22.15700
H  27.75600 50.74200 21.38200
H  24.40100 48.74600 23.67800
H  25.34000 48.39600 22.27700
H  23.79000 49.34600 20.94000
H  23.74200 50.78400 21.82600
H  22.68000 49.63400 22.38400
H  21.08700 52.81600 26.31900
H  22.24700 52.91900 24.87300
H  22.10800 54.22700 26.20300
H  23.14700 51.57500 30.95800
H  23.19400 55.50500 33.45200
H  24.26500 54.24100 33.92600
H  22.58200 54.22900 34.47900
Mg 9.23200 48.33700 25.72300
C  7.27300 48.68900 28.48500
C  11.99300 49.54100 27.54100
C  11.24300 47.69600 23.06700
C  6.53200 47.57700 23.88100
N  9.61600 49.07500 27.77100
C  8.62900 49.06900 28.70400
C  9.14200 49.63100 30.07400
C  10.63600 50.14100 29.64000
C  10.78000 49.50300 28.27600
C  10.80100 51.74700 29.60200
C  9.17400 48.66400 31.27000
C  9.13100 49.33300 32.61000
H  8.63000 48.56000 33.82300
N  11.33200 48.67700 25.29300
C  12.22500 49.14600 26.21900
C  13.53900 49.01500 25.63000
C  13.42900 48.40600 24.32000
C  11.94000 48.25900 24.18800
C  14.86500 49.37800 26.35100
C  14.44300 48.12000 23.17900
O  14.14000 47.57100 22.09100
C  15.92100 48.33700 23.49900
N  8.95600 47.63200 23.70700
C  9.89200 47.41100 22.83100
C  9.31200 46.85800 21.51800
C  7.82600 47.29300 21.71600
C  7.73000 47.41200 23.22300
C  9.74600 47.66000 20.20500
C  6.94300 46.26200 20.94900
C  5.63300 46.83900 20.27300
N  7.22400 48.14900 25.99000
C  6.20500 47.89700 25.17000
C  4.96200 47.89200 25.92000
C  5.29000 48.26500 27.21300
C  6.69400 48.30900 27.21200
C  3.61600 47.50500 25.44000
C  4.83300 48.46700 28.59600
O  3.67100 48.38300 28.98500
C  6.06700 48.84000 29.44800
C  5.99500 47.69600 30.41400
O  6.10500 46.51700 30.18200
O  5.66600 48.24700 31.63000
C  5.09400 47.16700 32.51600
H  12.69100 50.05000 28.20900
H  11.76100 47.51500 22.12200
H  5.65000 47.45100 23.25000
H  8.45800 50.40100 30.42900
H  11.38900 49.63500 30.24300
H  10.09500 52.28400 30.23600
H  10.78100 52.03100 28.54900
H  11.77700 51.96300 30.03600
H  10.16900 48.22400 31.20800
H  8.44600 47.86400 31.14000
H  8.53300 50.24100 32.53800
H  10.18900 49.58400 32.68100
H  15.75900 48.78900 26.14300
H  14.71700 49.39700 27.43100
H  15.13300 50.37300 25.99700
H  16.58800 48.05900 22.68300
H  16.14100 47.74200 24.38600
H  16.15200 49.37200 23.75100
H  9.47300 45.79400 21.34300
H  7.65000 48.27400 21.27300
H  8.91300 47.82300 19.52200
H  10.42300 47.06000 19.59700
H  10.24800 48.60300 20.42400
H  6.71500 45.53000 21.72300
H  7.53000 45.79100 20.16100
H  4.75500 46.47200 20.80500
H  5.73400 46.54600 19.22800
H  5.47200 47.91600 20.31700
H  3.15300 46.67100 25.96600
H  3.72500 47.18800 24.40300
H  2.99900 48.38800 25.60600
H  6.07100 49.84200 29.87700
H  4.13100 46.93700 32.05900
H  5.10900 47.56600 33.53000
H  5.62600 46.21600 32.52700

