158

Mg -0.08400 6.80600 25.90800
C  0.96900 9.29600 27.98200
C  -0.16900 4.61900 28.56700
C  -0.99700 4.33000 23.77400
C  0.66400 8.98200 23.13900
N  0.23600 7.02000 28.08900
C  0.66300 8.14600 28.69000
C  0.79400 7.80000 30.24200
C  0.69100 6.28600 30.30900
C  0.25000 5.87800 28.90100
C  2.02100 5.55500 30.69400
C  -0.14800 8.69500 31.09000
C  -0.45800 8.20400 32.50500
H  0.80800 7.81000 33.21500
N  -0.57900 4.69000 26.14900
C  -0.53000 4.00700 27.37200
C  -0.80800 2.62300 27.12500
C  -1.05400 2.49700 25.69800
C  -0.91600 3.89400 25.15400
C  -0.94500 1.62700 28.22900
C  -1.45000 1.24700 24.93600
O  -1.55700 1.39700 23.72000
C  -1.53700 -0.20500 25.63400
N  -0.03300 6.63500 23.73500
C  -0.63800 5.58000 23.15400
C  -0.99700 5.86000 21.64900
C  -0.47200 7.38400 21.47800
C  0.11400 7.68200 22.86300
C  -0.37700 4.79700 20.68700
C  -1.60000 8.52100 21.10600
C  -2.36200 9.36300 22.11300
N  0.52200 8.77200 25.59100
C  0.84800 9.48000 24.44600
C  1.19000 10.82800 24.77300
C  1.21400 10.82000 26.18600
C  0.92300 9.50500 26.60000
C  1.65000 11.90200 23.74500
C  1.48500 11.65200 27.44000
O  1.86700 12.79900 27.56000
C  1.37400 10.56800 28.63300
C  2.69500 10.69500 29.27900
O  3.64000 10.01600 28.96600
O  2.69900 11.58100 30.30700
C  3.96300 11.58800 31.00800
H  -0.26500 4.06300 29.50200
H  -1.44500 3.64500 23.05100
H  0.77400 9.53500 22.20300
H  1.79800 8.11200 30.53200
H  -0.09800 6.03000 31.01600
H  2.83600 6.24700 30.90500
H  2.36400 4.90300 29.89100
H  1.95900 4.95500 31.60100
H  -1.00600 8.96100 30.47200
H  0.34100 9.65000 31.28200
H  -1.22500 7.43200 32.56000
H  -0.92500 9.06900 32.97700
H  -1.99400 1.33000 28.22700
H  -0.70200 2.04100 29.20800
H  -0.31700 0.76000 28.02500
H  -1.87600 -0.81200 24.79500
H  -2.36500 -0.13900 26.34100
H  -0.61000 -0.53800 26.10200
H  -2.08400 5.84100 21.57700
H  0.34700 7.46700 20.76300
H  0.02600 3.85600 21.06100
H  0.43700 5.31100 20.17600
H  -1.16100 4.59800 19.95600
H  -2.20700 7.98000 20.38000
H  -1.03000 9.27400 20.56200
H  -2.11900 10.37900 21.80400
H  -2.11300 9.18300 23.15900
H  -3.45200 9.34300 22.10100
H  0.78200 12.27200 23.20100
H  2.53500 11.71000 23.13700
H  1.78800 12.72400 24.44700
H  0.53100 10.92200 29.22600
H  4.85700 11.33300 30.43800
H  3.91000 11.01200 31.93100
H  4.07900 12.59700 31.40500
Mg -1.38300 34.23600 26.62900
C  -3.19800 32.46200 29.16700
C  0.12500 36.09500 29.23700
C  -0.13800 36.28800 24.30800
C  -3.00000 32.48800 24.22400
N  -1.57700 34.23200 28.92300
C  -2.25400 33.40200 29.73900
C  -2.08700 33.59800 31.25700
C  -1.09600 34.84700 31.23300
C  -0.78300 35.04000 29.64400
C  -1.55500 36.14300 31.89600
C  -1.47200 32.37400 31.92600
C  -2.14000 31.81100 33.16900
H  -1.42900 31.92600 34.48200
N  -0.20100 36.00200 26.72600
C  0.41300 36.52300 27.87500
C  1.18400 37.69700 27.51700
C  1.09700 37.69500 26.12800
C  0.29100 36.64300 25.63800
C  1.91600 38.56000 28.49800
C  1.55400 38.73100 25.14100
O  1.32500 38.77400 23.93400
C  2.31400 39.93900 25.57500
N  -1.64000 34.38300 24.57900
C  -0.92700 35.27400 23.84200
C  -0.96300 34.95900 22.33400
C  -1.74100 33.52700 22.35000
C  -2.22800 33.47900 23.75900
C  -1.75400 36.11300 21.57500
C  -0.96800 32.26100 21.93800
C  0.36200 31.84900 22.57500
N  -2.83300 32.83000 26.64300
C  -3.41600 32.27000 25.61900
C  -4.34300 31.30300 26.08000
C  -4.26900 31.32300 27.46500
C  -3.37400 32.34000 27.74700
C  -5.11600 30.38400 25.24200
C  -4.75000 30.67500 28.65700
O  -5.54500 29.70900 28.76200
C  -4.08700 31.42800 29.87600
C  -5.05600 32.05200 30.76100
O  -5.51300 33.22800 30.73200
O  -5.46500 31.15400 31.76400
C  -6.40600 31.69800 32.71000
H  0.49100 36.70900 30.06200
H  0.40000 36.63500 23.42300
H  -3.43300 31.80100 23.49300
H  -3.05000 33.87000 31.69000
H  -0.11000 34.64000 31.64900
H  -0.64900 36.51000 32.37900
H  -2.32100 35.92200 32.63900
H  -1.75800 36.92400 31.16300
H  -0.44500 32.62500 32.19100
H  -1.46500 31.60000 31.15800
H  -2.36900 30.75800 33.00000
H  -3.16000 32.18400 33.25500
H  2.43600 39.45700 28.16200
H  2.67900 37.95100 28.98300
H  1.24400 38.81300 29.31700
H  2.41700 40.59600 24.71200
H  3.29000 39.57800 25.90000
H  1.81900 40.50000 26.36800
H  0.02200 34.78200 21.90400
H  -2.64600 33.69000 21.76400
H  -1.79300 36.99000 22.22100
H  -2.77900 35.76900 21.43600
H  -1.33500 36.35200 20.59800
H  -0.90400 32.51900 20.88100
H  -1.66100 31.46000 22.19800
H  0.34100 32.40600 23.51200
H  1.29800 32.14800 22.10300
H  0.45200 30.82100 22.92600
H  -4.63600 30.16400 24.28800
H  -6.11200 30.76000 25.00800
H  -5.12800 29.38300 25.67200
H  -3.47600 30.71000 30.42300
H  -7.25400 32.26900 32.33100
H  -5.96300 32.48500 33.32100
H  -6.71600 30.85100 33.32300

