158

Mg -1.48400 34.83100 26.83300
C  -3.25500 33.15200 29.42000
C  -0.51900 37.08000 29.22100
C  0.59100 36.03700 24.58200
C  -3.34300 33.03400 24.50700
N  -1.98900 35.13300 29.08200
C  -2.56400 34.26800 29.93700
C  -2.57500 34.81700 31.42200
C  -1.83800 36.20500 31.20100
C  -1.47400 36.17500 29.74800
C  -2.56800 37.52200 31.64700
C  -1.94100 33.87200 32.42200
C  -1.60500 34.45300 33.78000
H  -2.24900 33.72600 34.84900
N  -0.21500 36.41400 26.85500
C  0.05200 37.25000 27.92500
C  0.94300 38.26600 27.47900
C  1.41800 37.95800 26.16100
C  0.62100 36.74400 25.85100
C  1.24700 39.45200 28.35100
C  2.45500 38.59700 25.22900
O  2.84100 38.10500 24.17800
C  3.04200 39.94800 25.64200
N  -1.49800 34.69300 24.71300
C  -0.34000 35.10600 24.06600
C  -0.41800 34.54300 22.62000
C  -1.76500 33.73500 22.53800
C  -2.25800 33.81000 24.02700
C  -0.15400 35.58900 21.49100
C  -1.54500 32.27700 22.24200
C  -0.50600 31.43200 23.04800
N  -3.00600 33.39200 26.89800
C  -3.66300 32.77400 25.85700
C  -4.57300 31.77300 26.38100
C  -4.43900 31.86000 27.73700
C  -3.51000 32.92100 28.05500
C  -5.54700 31.04900 25.64400
C  -4.95200 31.32700 29.00900
O  -5.77900 30.40900 29.17800
C  -4.26300 32.25300 30.16400
C  -5.39500 32.93600 30.83300
O  -5.90500 33.94400 30.39300
O  -5.66900 32.35800 32.10600
C  -6.57300 33.19500 32.90500
H  -0.21400 37.77900 30.00400
H  1.29700 36.37500 23.82000
H  -3.97200 32.40300 23.87600
H  -3.64300 34.95200 31.59300
H  -0.89200 36.23500 31.74100
H  -1.88800 38.30900 31.97500
H  -3.18200 37.30300 32.52000
H  -3.20600 37.86200 30.83100
H  -0.98400 33.67900 31.93800
H  -2.58900 32.99900 32.50300
H  -1.78800 35.52800 33.78900
H  -0.55300 34.30500 34.02500
H  0.95500 39.37600 29.39800
H  0.78600 40.29700 27.83800
H  2.31900 39.64800 28.37400
H  2.32100 40.69600 25.97000
H  3.52500 40.30300 24.73200
H  3.72700 39.94000 26.49000
H  0.39000 33.81700 22.52500
H  -2.49100 34.10400 21.81500
H  -0.02600 36.62400 21.80600
H  -0.94500 35.50200 20.74500
H  0.76400 35.39400 20.93700
H  -1.15800 32.25300 21.22300
H  -2.52100 31.79700 22.17000
H  -0.10700 32.02300 23.87300
H  0.39300 31.06400 22.55500
H  -1.03700 30.58000 23.47100
H  -6.48700 31.59600 25.57800
H  -5.85500 30.16000 26.19400
H  -5.18600 30.82400 24.64000
H  -3.79900 31.57700 30.88100
H  -7.33700 33.64600 32.27100
H  -5.90500 33.96700 33.28600
H  -7.02000 32.66900 33.74900
Mg -5.65600 25.85000 26.20200
C  -4.30600 26.98500 29.28400
C  -7.82200 23.82800 28.13800
C  -6.54400 24.36800 23.36100
C  -3.20800 27.75900 24.50800
N  -6.03800 25.41100 28.40900
C  -5.31800 25.97800 29.43000
C  -5.83800 25.59000 30.79800
C  -6.87200 24.44400 30.42500
C  -6.99400 24.63800 28.87600
C  -6.43900 23.00200 30.73000
C  -6.48500 26.86700 31.49400
C  -6.42700 27.13400 32.98400
H  -6.17700 25.88500 33.90400
N  -7.04400 24.34900 25.81400
C  -7.80400 23.62700 26.76200
C  -8.64100 22.64800 25.99000
C  -8.23500 22.78700 24.58800
C  -7.22800 23.83700 24.54400
C  -9.51500 21.71600 26.69100
C  -8.80400 22.02700 23.33300
O  -8.34100 22.20500 22.19800
C  -9.85900 20.93500 23.45600
N  -4.90600 26.01900 24.23800
C  -5.57200 25.40500 23.25900
C  -4.94300 25.74700 21.82700
C  -4.03600 26.93700 22.23400
C  -3.98100 26.84700 23.74600
C  -4.20100 24.51500 21.20800
C  -4.64700 28.30300 21.84100
C  -3.66100 29.48500 21.69200
N  -4.10900 27.12800 26.72800
C  -3.18300 27.82200 25.93000
C  -2.32800 28.64500 26.77700
C  -2.75200 28.27800 28.13400
C  -3.82200 27.45600 28.02500
C  -1.15200 29.50900 26.37100
C  -2.44000 28.54000 29.53400
O  -1.63600 29.35300 30.03200
C  -3.48100 27.78700 30.32500
C  -2.66200 26.99100 31.34600
O  -2.28900 25.82000 31.16600
O  -2.69400 27.61900 32.53200
C  -2.14600 26.81600 33.64000
H  -8.65200 23.39900 28.70200
H  -6.70600 23.91900 22.37900
H  -2.59200 28.55600 24.08500
H  -5.02500 25.13900 31.36700
H  -7.85100 24.64700 30.85900
H  -5.63900 22.98300 31.47000
H  -6.10200 22.64000 29.75900
H  -7.27100 22.43900 31.15300
H  -7.48900 26.89500 31.06900
H  -6.04300 27.73800 31.01100
H  -7.37100 27.58500 33.29000
H  -5.64200 27.87800 33.12200
H  -10.55300 22.04300 26.62500
H  -9.39300 21.56200 27.76300
H  -9.29900 20.71200 26.32800
H  -10.36400 20.95100 22.49000
H  -10.60400 21.14000 24.22500
H  -9.36300 19.98900 23.67000
H  -5.77600 26.06500 21.20100
H  -3.06600 26.83700 21.74700
H  -4.16500 23.75700 21.99000
H  -3.16600 24.81100 21.03700
H  -4.68400 24.12600 20.31100
H  -5.36900 28.32600 22.65700
H  -5.23800 28.23900 20.92700
H  -3.87600 30.13200 22.54300
H  -4.00900 30.00800 20.80100
H  -2.60100 29.24200 21.62600
H  -1.44000 30.50700 26.70300
H  -1.05400 29.30900 25.30400
H  -0.26200 29.20400 26.92100
H  -4.08100 28.49500 30.89700
H  -1.11300 26.56900 33.39200
H  -2.62000 25.84000 33.74400
H  -2.21100 27.35100 34.58700

