158

Mg -0.33600 7.99100 26.53800
C  0.46500 9.80100 29.35700
C  -0.33000 5.19700 28.51600
C  -0.80100 6.13700 23.72100
C  0.22000 10.80100 24.54600
N  0.33200 7.55500 28.69300
C  0.30600 8.47000 29.69400
C  0.17400 7.88100 31.08500
C  0.33600 6.38500 30.72600
C  0.12700 6.33200 29.20800
C  1.70200 5.70000 31.14600
C  -1.15000 8.34900 31.73800
C  -1.25900 8.80700 33.19600
H  0.04400 8.71200 34.01900
N  -0.51900 5.96600 26.17100
C  -0.63000 4.95300 27.12900
C  -1.07100 3.78500 26.58300
C  -1.25500 3.96900 25.19100
C  -0.83000 5.40400 24.95300
C  -1.21900 2.48600 27.45900
C  -1.77400 2.87900 24.12500
O  -1.81500 3.11800 22.95200
C  -2.20600 1.52200 24.62600
N  -0.16600 8.39600 24.36900
C  -0.50200 7.50000 23.42200
C  -0.42700 8.16200 21.99600
C  -0.28200 9.65100 22.30200
C  -0.04900 9.66700 23.85200
C  0.73700 7.59400 21.21800
C  -1.39200 10.44100 21.73800
C  -2.67600 10.69300 22.50500
N  0.28200 9.92300 26.82400
C  0.48200 10.95300 25.93900
C  0.85400 12.13200 26.68100
C  0.77700 11.75000 27.99200
C  0.48300 10.35200 28.10700
C  1.19300 13.45000 26.08000
C  1.02400 12.27300 29.26700
O  1.45900 13.36000 29.57200
C  0.76800 11.07400 30.23700
C  1.95100 10.90900 31.24500
O  2.80200 10.00100 31.32200
O  1.89700 11.92500 32.18700
C  3.08600 11.97200 33.08600
H  -0.27100 4.33500 29.18400
H  -0.96400 5.71200 22.72900
H  0.25500 11.60700 23.81100
H  1.01300 8.11500 31.74000
H  -0.42100 5.71500 31.13300
H  2.47400 6.36300 31.53600
H  2.11700 5.22700 30.25600
H  1.59200 4.93400 31.91400
H  -1.84500 7.52000 31.61000
H  -1.44900 9.20200 31.12800
H  -2.00600 8.10500 33.56600
H  -1.59500 9.83700 33.31000
H  -0.55400 2.49800 28.32300
H  -0.89800 1.63200 26.86200
H  -2.25000 2.31600 27.76700
H  -2.99900 1.50100 25.37300
H  -1.37000 0.91800 24.97900
H  -2.67500 1.07300 23.75000
H  -1.34900 7.90000 21.47800
H  0.57600 10.17400 21.88100
H  0.70600 6.56300 21.57000
H  1.67500 8.10400 21.43700
H  0.39900 7.74900 20.19300
H  -1.65700 10.10600 20.73500
H  -0.99100 11.44800 21.62600
H  -3.58300 10.59700 21.90900
H  -2.70500 11.69700 22.92800
H  -2.71500 9.98600 23.33300
H  1.62000 13.96700 26.94000
H  0.25700 13.93700 25.80800
H  1.92300 13.34600 25.27700
H  -0.01500 11.27300 30.97000
H  4.00300 12.00400 32.49700
H  3.12500 11.11800 33.76200
H  3.08700 12.92200 33.62100
Mg 40.62900 9.69000 29.71000
C  42.39200 11.10000 32.34400
C  38.40500 8.45000 31.96800
C  38.89000 8.30000 27.08600
C  42.99200 10.99400 27.44500
N  40.48800 9.76700 31.99200
C  41.23000 10.45400 32.83200
C  40.60400 10.38700 34.24000
C  39.48300 9.34000 34.17000
C  39.45900 9.15400 32.60000
C  39.66200 8.11000 35.01100
C  40.16400 11.76500 34.80700
C  39.89700 11.83400 36.36800
H  40.73100 12.70300 37.28000
N  38.91500 8.63900 29.52400
C  38.17000 8.19900 30.61400
C  37.00100 7.42200 30.17500
C  37.04200 7.55600 28.75100
C  38.32800 8.12000 28.40500
C  35.96800 6.80100 31.09200
C  36.00700 7.16800 27.65500
O  36.18000 7.31800 26.42000
C  34.67000 6.72300 28.16200
N  40.96700 9.57300 27.62900
C  39.99200 9.08100 26.77200
C  40.38200 9.33500 25.28200
C  41.70800 10.18700 25.39200
C  41.87100 10.29600 26.90900
C  40.41900 8.15100 24.32000
C  41.69300 11.55800 24.72400
C  40.57200 12.63100 25.10900
N  42.36500 10.62100 29.81000
C  43.18600 11.16600 28.85400
C  44.28200 11.89400 29.43300
C  43.97200 11.91800 30.77100
C  42.79700 11.16200 30.96500
C  45.42100 12.47100 28.64100
C  44.44300 12.38300 32.02600
O  45.37100 13.03600 32.35200
C  43.44500 11.83500 33.08400
C  44.03300 10.82000 34.01700
O  44.35700 9.68300 33.68600
O  44.14900 11.30500 35.33200
C  44.31700 10.33400 36.41300
H  37.64400 8.18500 32.70600
H  38.34900 7.89700 26.22700
H  43.64600 11.51300 26.74100
H  41.42600 10.07700 34.88600
H  38.56100 9.79900 34.52400
H  39.47200 7.20900 34.42700
H  38.97000 8.21800 35.84700
H  40.66400 8.06800 35.43800
H  39.24000 12.01400 34.28700
H  40.94700 12.48800 34.57700
H  39.93200 10.80600 36.73000
H  38.85500 12.09400 36.55500
H  35.22800 7.57500 31.29400
H  36.45700 6.39400 31.97700
H  35.52200 5.89700 30.67500
H  34.68000 5.63600 28.24000
H  34.06500 6.98300 27.29300
H  34.30500 7.15200 29.09500
H  39.65300 10.07600 24.95200
H  42.54200 9.63700 24.95500
H  40.31800 7.27200 24.95700
H  41.37600 8.07800 23.80400
H  39.66800 8.24100 23.53500
H  41.51400 11.23900 23.69700
H  42.68000 12.01900 24.75200
H  40.01100 12.24100 25.95900
H  39.86900 12.69600 24.27800
H  40.93700 13.60600 25.43200
H  45.44000 13.49600 29.01300
H  45.32500 12.43200 27.55600
H  46.29000 11.93200 29.01800
H  43.21600 12.74700 33.63500
H  45.37000 10.05300 36.41200
H  43.79800 9.37800 36.34000
H  43.82800 10.78200 37.27800

