158

Mg 17.07800 53.05400 26.73400
C  19.10300 51.35300 29.08100
C  14.84300 53.72000 29.19600
C  15.02500 54.38800 24.38100
C  19.19100 51.74700 24.17100
N  17.15600 52.78800 28.90800
C  18.00600 52.07700 29.68700
C  17.57900 52.06900 31.18600
C  16.06100 52.40400 31.09600
C  16.03100 53.02100 29.62800
C  15.02900 51.26000 31.33700
C  18.48700 53.11700 31.85100
C  18.55000 52.97900 33.36700
H  17.56100 52.07900 34.14300
N  15.21600 54.02200 26.75200
C  14.44600 54.25200 27.90700
C  13.26300 54.91800 27.56500
C  13.39900 55.28200 26.21700
C  14.55800 54.55800 25.67600
C  12.22600 55.23500 28.61800
C  12.53400 56.14100 25.28500
O  12.74100 56.34400 24.06000
C  11.44500 56.91100 25.85700
N  17.12100 53.06500 24.60200
C  16.10500 53.66000 23.87100
C  16.34800 53.47900 22.33700
C  17.68600 52.69700 22.31000
C  18.08700 52.57100 23.79800
C  15.24800 52.82100 21.41200
C  18.69900 53.30900 21.30500
C  19.82000 54.22100 21.84600
N  18.92800 51.87000 26.54500
C  19.66100 51.45200 25.46800
C  20.79200 50.66000 25.93900
C  20.67400 50.69000 27.34200
C  19.43800 51.34900 27.66100
C  21.88000 49.88000 25.04700
C  21.26100 50.20600 28.59500
O  22.27600 49.54400 28.77800
C  20.26600 50.63500 29.76600
C  19.87400 49.50000 30.68900
O  18.98800 48.70500 30.40100
O  20.66200 49.51000 31.81200
C  20.24500 48.52000 32.83300
H  14.18300 53.76000 30.06500
H  14.48400 54.81200 23.53300
H  19.85900 51.52100 23.33700
H  17.80400 51.14100 31.71100
H  15.92500 53.21600 31.81100
H  14.20300 51.36900 32.04000
H  15.58800 50.37500 31.64100
H  14.49700 50.94200 30.44100
H  18.28100 54.16200 31.61800
H  19.48200 52.76600 31.57700
H  18.26900 53.92300 33.83500
H  19.57800 52.84200 33.70400
H  12.39200 54.60500 29.49200
H  11.23300 55.17400 28.17200
H  12.33400 56.22000 29.07200
H  10.94300 57.39500 25.01900
H  11.90500 57.70400 26.44600
H  10.72800 56.36100 26.46700
H  16.58700 54.42500 21.85000
H  17.45400 51.67200 22.01900
H  14.81500 53.59100 20.77400
H  14.43400 52.43300 22.02400
H  15.54500 51.91100 20.89100
H  18.21100 54.00100 20.62000
H  19.04500 52.52600 20.63000
H  20.78700 53.73500 21.97200
H  19.46300 54.78200 22.71000
H  19.94800 54.99700 21.09100
H  22.80300 50.44900 25.15900
H  21.50100 49.92900 24.02700
H  22.08100 48.83600 25.28800
H  20.82700 51.34000 30.38000
H  19.18500 48.31900 32.99100
H  20.79200 48.75400 33.74600
H  20.63800 47.58800 32.42700
Mg 9.41100 48.67000 26.40700
C  7.55900 48.61500 29.47500
C  11.98500 50.09700 28.19600
C  11.08900 48.90000 23.54200
C  6.66600 47.34300 24.78000
N  9.63300 49.45100 28.61200
C  8.76200 49.20200 29.64200
C  9.32000 49.95700 30.98100
C  10.80200 50.26200 30.53900
C  10.79100 49.93500 28.99400
C  11.26300 51.74700 30.77000
C  9.23700 49.04800 32.23900
C  10.17000 49.40000 33.37600
H  9.55100 49.63700 34.76600
N  11.32800 49.20100 25.96100
C  12.25500 49.76800 26.83700
C  13.53900 49.96500 26.16000
C  13.31200 49.60200 24.81900
C  11.87600 49.19500 24.69300
C  14.80500 50.51900 26.80100
C  14.26900 49.51800 23.62600
O  13.92000 49.32900 22.44900
C  15.76300 49.74000 23.93200
N  8.82100 48.35000 24.46100
C  9.67500 48.58000 23.47200
C  9.05700 48.20300 22.12100
C  7.82500 47.35400 22.48700
C  7.71800 47.68500 23.98300
C  8.78500 49.50700 21.30700
C  7.93300 45.84200 22.13000
C  9.22000 45.17400 22.63700
N  7.42400 48.16800 26.93400
C  6.41700 47.63300 26.17600
C  5.20200 47.48500 26.95100
C  5.60100 47.76100 28.24600
C  6.96100 48.27500 28.18600
C  3.88600 46.95000 26.55000
C  5.23400 47.77500 29.68800
O  4.23400 47.42500 30.20200
C  6.46200 48.29100 30.45500
C  6.80700 47.14500 31.31700
O  7.48500 46.21700 30.98300
O  6.18100 47.23100 32.54900
C  6.56100 46.31700 33.64800
H  12.80400 50.56600 28.74600
H  11.62000 49.06400 22.60100
H  5.78900 46.85000 24.35500
H  8.74600 50.86700 31.15400
H  11.51500 49.68100 31.12400
H  10.41900 52.37200 31.06300
H  11.65900 52.13800 29.83200
H  12.10800 51.76700 31.45800
H  9.23500 48.03300 31.84200
H  8.24500 49.11600 32.68400
H  10.77200 50.28200 33.16100
H  10.98300 48.67800 33.30300
H  15.17900 51.40100 26.28100
H  15.59900 49.77300 26.79800
H  14.75100 50.77400 27.86000
H  16.27200 49.48700 23.00100
H  16.19200 49.14500 24.73800
H  15.85500 50.77900 24.24700
H  9.70900 47.57300 21.51600
H  6.93500 47.72300 21.97700
H  9.36200 50.27800 21.81800
H  7.71200 49.69100 21.35100
H  9.08500 49.29700 20.28100
H  7.91500 45.80800 21.04100
H  7.16900 45.23300 22.61500
H  8.94100 44.29000 23.21000
H  9.75200 45.79700 23.35600
H  9.82900 44.87200 21.78500
H  3.16800 47.75800 26.40600
H  3.48500 46.37300 27.38300
H  3.95100 46.34500 25.64500
H  6.09300 49.11400 31.06700
H  7.54600 45.89600 33.44600
H  5.87300 45.50100 33.86600
H  6.72900 46.89600 34.55600

