158

Mg 29.09300 57.67300 41.06900
C  26.23600 56.01300 39.91700
C  31.13500 55.49400 39.30800
C  31.85700 59.62200 41.72300
C  26.96100 60.35700 42.01800
N  28.68900 55.97600 39.75900
C  27.47300 55.44500 39.43100
C  27.74000 54.02600 38.72500
C  29.31700 53.79800 38.75400
C  29.75500 55.20800 39.30100
C  29.76100 52.57600 39.58600
C  26.91300 53.75900 37.34400
C  26.77700 54.96700 36.39700
H  27.41700 54.79900 34.98700
N  31.19900 57.52800 40.69900
C  31.85300 56.48400 39.98900
C  33.27500 56.77200 39.88600
C  33.54400 58.05200 40.62200
C  32.19400 58.46000 41.07100
C  34.20500 55.73200 39.25600
C  34.85900 58.68800 40.79000
O  35.89100 58.09800 40.45000
C  35.10900 59.99800 41.56500
N  29.39300 59.77700 41.50000
C  30.60200 60.26400 41.85200
C  30.50000 61.72000 42.48100
C  28.99300 61.90600 42.66300
C  28.35000 60.63300 42.00400
C  31.32800 62.06500 43.75700
C  28.48300 63.27000 42.02400
C  27.23300 63.89300 42.76200
N  27.07100 58.03400 41.24400
C  26.32800 59.15300 41.59500
C  24.89200 58.84200 41.55700
C  24.86100 57.62700 40.87600
C  26.16800 57.22300 40.65600
C  23.83000 59.71700 42.00500
C  23.91400 56.66600 40.37400
O  22.66300 56.56100 40.44800
C  24.81800 55.56000 39.78200
C  24.56500 54.20900 40.35800
O  25.04500 53.66800 41.34900
O  23.60800 53.67200 39.48400
C  23.37800 52.26400 39.78200
H  31.72000 54.72900 38.79300
H  32.75300 60.06300 42.16300
H  26.32500 61.16400 42.38800
H  27.27800 53.30500 39.40000
H  29.69000 53.88500 37.73400
H  30.68800 52.77900 40.12200
H  29.95600 51.78000 38.86600
H  29.07300 52.25300 40.36700
H  25.91700 53.36500 37.54300
H  27.49200 52.92500 36.94500
H  27.12600 55.88800 36.86500
H  25.71700 55.19600 36.28800
H  35.08000 56.23300 38.84200
H  33.76100 55.28600 38.36600
H  34.51300 54.95100 39.95100
H  34.50900 60.86100 41.27800
H  36.10000 60.40800 41.37100
H  35.05600 59.73300 42.62100
H  30.77300 62.47300 41.74200
H  28.64700 61.96500 43.69500
H  32.08000 61.32500 44.03100
H  30.68800 62.08400 44.63900
H  31.73800 63.06500 43.61500
H  28.07500 63.02300 41.04400
H  29.23300 64.05500 41.93400
H  27.51500 64.92400 42.97700
H  26.99700 63.41900 43.71500
H  26.31500 63.82600 42.17700
H  22.82700 59.29300 41.96000
H  23.93900 60.70000 41.54700
H  23.92300 59.87900 43.07900
H  24.58500 55.50100 38.71900
H  23.82200 51.64600 39.00100
H  22.31600 52.11800 39.58500
H  23.61700 51.87200 40.77000
Mg -12.38200 17.46400 41.64100
C  -9.73400 15.16000 41.17500
C  -10.33600 19.88400 40.24700
C  -15.04300 19.39600 41.44100
C  -14.46600 14.63700 42.67900
N  -10.34400 17.39600 40.72400
C  -9.38800 16.46800 40.79500
C  -7.97800 17.02300 40.35800
C  -8.17600 18.54900 40.26700
C  -9.77900 18.63300 40.45800
C  -7.46800 19.44100 41.36100
C  -7.78800 16.41500 38.94900
C  -6.31600 16.02700 38.67600
H  -5.62800 16.77800 37.50000
N  -12.65300 19.44800 41.00100
C  -11.69500 20.22000 40.34700
C  -12.28600 21.41200 39.93400
C  -13.71300 21.38400 40.31200
C  -13.88100 20.00800 40.95800
C  -11.39500 22.53200 39.34400
C  -14.67900 22.45500 40.03400
O  -14.27400 23.42400 39.40200
C  -16.15600 22.38100 40.41200
N  -14.47100 17.01800 42.00800
C  -15.36600 18.08600 41.97300
C  -16.81600 17.57400 42.18400
C  -16.64000 16.10600 42.66400
C  -15.08100 15.91600 42.54900
C  -17.63500 18.45200 43.17500
C  -17.42300 15.02400 41.86100
C  -18.97300 15.11700 41.84700
N  -12.16600 15.31500 41.94600
C  -13.03800 14.34700 42.43200
C  -12.35400 13.05500 42.42400
C  -11.05900 13.28000 41.95700
C  -11.01000 14.69600 41.67500
C  -13.03500 11.78300 42.82600
C  -9.75300 12.67100 41.74000
O  -9.30200 11.55300 41.84100
C  -8.85600 13.87600 41.27700
C  -7.61200 14.14400 42.15800
O  -7.62500 14.24800 43.37400
O  -6.48800 14.20200 41.33600
C  -5.22500 14.49200 42.11400
H  -9.60600 20.60600 39.87600
H  -15.90600 20.06400 41.40200
H  -15.10000 13.85500 43.10300
H  -7.29200 16.68000 41.13300
H  -7.81600 18.97900 39.33200
H  -6.73800 18.86800 41.93100
H  -8.17900 20.01200 41.95900
H  -7.00600 20.19600 40.72600
H  -8.15400 17.11700 38.19900
H  -8.43800 15.59200 38.65000
H  -6.45300 14.96400 38.47400
H  -5.69500 16.13600 39.56600
H  -11.30100 22.33100 38.27700
H  -10.49100 22.46500 39.94800
H  -11.84200 23.49800 39.58000
H  -16.38700 22.26100 41.47100
H  -16.67700 21.62400 39.82600
H  -16.60100 23.28900 40.00400
H  -17.33700 17.58500 41.22700
H  -16.94800 16.02500 43.70600
H  -18.58000 18.64200 42.66700
H  -17.04000 19.33700 43.39900
H  -17.87700 17.98500 44.12900
H  -17.10900 14.08100 42.30800
H  -17.09300 15.02500 40.82300
H  -19.46400 15.28800 42.80500
H  -19.37700 14.23900 41.34400
H  -19.44000 15.86400 41.20500
H  -13.42800 11.87500 43.83800
H  -12.27800 11.01600 42.66600
H  -13.87300 11.43000 42.22600
H  -8.47700 13.61000 40.29000
H  -5.11100 15.57500 42.13800
H  -4.32000 14.24000 41.56200
H  -5.21800 13.99200 43.08300

