158

Mg -2.06700 17.13300 25.99000
C  -2.50800 14.88300 28.69900
C  -2.35500 19.68800 28.33800
C  -2.44900 19.25000 23.51800
C  -2.31300 14.42900 23.82000
N  -2.63500 17.18900 28.23400
C  -2.39800 16.21500 29.17800
C  -2.41500 16.76200 30.61200
C  -2.61900 18.31300 30.37000
C  -2.54600 18.42700 28.88000
C  -3.91900 18.86900 30.88500
C  -1.25900 16.24700 31.48300
C  -0.34400 17.07900 32.50200
H  -0.02200 16.47400 33.87000
N  -2.12500 19.21100 25.92500
C  -2.23500 20.06300 27.00000
C  -2.15500 21.46100 26.39200
C  -2.32800 21.34400 25.01300
C  -2.27100 19.91300 24.78300
C  -2.10100 22.69500 27.21800
C  -2.33700 22.37700 23.93400
O  -2.36000 22.08300 22.72300
C  -2.23700 23.82800 24.35000
N  -2.21700 16.83500 23.98500
C  -2.32200 17.91200 23.10800
C  -2.24700 17.40900 21.66000
C  -1.93300 15.88000 21.79800
C  -2.19900 15.68200 23.31800
C  -3.45500 17.66200 20.68400
C  -0.53800 15.44500 21.24400
C  -0.32300 15.58000 19.71700
N  -2.37700 15.06100 26.15800
C  -2.48500 14.07700 25.14600
C  -2.68800 12.81200 25.73300
C  -2.67300 13.09100 27.11300
C  -2.47300 14.45900 27.34300
C  -2.99700 11.53200 25.01300
C  -2.83000 12.40000 28.32200
O  -2.93100 11.20500 28.56900
C  -2.77400 13.60500 29.43200
C  -1.61700 13.29600 30.32100
O  -0.41900 13.18600 30.00900
O  -2.20600 12.90900 31.53600
C  -1.29200 12.24500 32.47200
H  -2.34100 20.59900 28.94000
H  -2.57700 19.82800 22.60000
H  -2.39200 13.66600 23.04300
H  -3.31800 16.40600 31.10800
H  -1.82900 18.91300 30.82300
H  -4.29900 18.35000 31.76500
H  -4.62300 18.90200 30.05300
H  -3.75600 19.90900 31.16600
H  -0.57200 15.81800 30.75300
H  -1.71800 15.40700 32.00400
H  -0.86700 18.02500 32.64300
H  0.64900 17.34900 32.14300
H  -1.17700 23.19800 26.93400
H  -1.96100 22.40300 28.25900
H  -3.07200 23.18700 27.15800
H  -2.59400 24.51000 23.57900
H  -1.19400 24.03900 24.58500
H  -2.96600 23.98000 25.14600
H  -1.40400 17.86600 21.14300
H  -2.66100 15.30800 21.22300
H  -3.77600 18.69900 20.58500
H  -4.36600 17.24800 21.11600
H  -3.38500 17.33800 19.64500
H  -0.38300 14.38100 21.42000
H  0.25000 15.91800 21.83000
H  0.71400 15.88500 19.57400
H  -1.08400 16.24500 19.30900
H  -0.36800 14.59500 19.25200
H  -3.15700 10.88900 25.87900
H  -2.23300 11.16700 24.32700
H  -3.79100 11.68500 24.28200
H  -3.73100 13.54500 29.95000
H  -0.64800 11.50600 31.99600
H  -1.91500 11.92700 33.30800
H  -0.59300 13.02000 32.79000
Mg 1.47900 42.89700 26.09400
C  3.53400 43.11600 28.91900
C  -0.99100 41.63400 28.39500
C  -0.46600 41.67600 23.54700
C  4.20200 43.09700 23.94900
N  1.29400 42.39900 28.45600
C  2.25700 42.66000 29.34500
C  1.70500 42.50100 30.79900
C  0.23400 41.87100 30.64800
C  0.15200 42.00300 29.08300
C  -0.10900 40.47600 31.30800
C  1.72700 43.84500 31.49100
C  1.84800 43.97000 33.04100
H  1.88400 42.58700 33.80100
N  -0.51900 42.01200 25.96100
C  -1.32500 41.61100 27.02600
C  -2.58800 41.17100 26.48000
C  -2.51600 41.13800 25.04800
C  -1.12500 41.62000 24.74300
C  -3.79900 40.86200 27.30500
C  -3.47200 40.63100 24.02100
O  -3.30100 40.62900 22.81300
C  -4.65600 39.99600 24.52800
N  1.77200 42.57600 24.07100
C  0.81500 42.11500 23.25100
C  1.31000 42.13200 21.77800
C  2.74000 42.82200 21.83100
C  2.96800 42.76600 23.35400
C  1.18500 40.71800 21.02800
C  2.77700 44.35500 21.24200
C  2.51500 45.62200 22.08800
N  3.46500 43.19400 26.31900
C  4.42500 43.33000 25.36700
C  5.68800 43.76800 25.99000
C  5.41200 43.62500 27.37200
C  4.02300 43.25800 27.54100
C  6.99100 43.83300 25.32200
C  6.04300 43.62500 28.61400
O  7.21300 43.71400 28.90700
C  4.89200 43.36300 29.69600
C  5.31500 42.26200 30.55200
O  5.26600 41.06400 30.32400
O  5.65100 42.81300 31.73600
C  6.09900 41.94600 32.83000
H  -1.74300 41.35800 29.13700
H  -0.98000 41.42200 22.61800
H  4.94100 43.39500 23.20300
H  2.36500 41.81600 31.33100
H  -0.53000 42.49000 31.11700
H  0.87500 40.15900 31.65300
H  -0.55300 39.72600 30.65300
H  -0.71500 40.54700 32.21100
H  0.82100 44.42800 31.32400
H  2.57000 44.41500 31.10100
H  1.00200 44.51500 33.45800
H  2.76900 44.52300 33.22300
H  -4.71300 41.30000 26.90600
H  -3.65500 41.36000 28.26400
H  -3.82400 39.78200 27.45300
H  -4.94600 39.34900 23.70100
H  -5.42200 40.76000 24.66000
H  -4.57800 39.35900 25.40900
H  0.60100 42.73200 21.20700
H  3.49400 42.16100 21.40300
H  2.09100 40.11100 21.02900
H  0.91900 40.93400 19.99400
H  0.35200 40.14500 21.43500
H  1.94900 44.40700 20.53600
H  3.74300 44.49900 20.75900
H  1.95000 46.36500 21.52600
H  3.44200 46.04900 22.47200
H  1.87000 45.45000 22.95000
H  6.91300 44.38500 24.38500
H  7.36600 42.82500 25.14600
H  7.72900 44.28400 25.98500
H  4.76400 44.23600 30.33600
H  5.36500 42.10800 33.61900
H  7.03900 42.38200 33.17000
H  6.13900 40.89800 32.53100

