158

Mg 40.43800 8.24800 29.01000
C  42.19000 9.71800 31.73600
C  38.05300 7.16500 31.06100
C  39.09700 6.64200 26.43400
C  43.18400 9.14300 26.90200
N  40.17900 8.41300 31.21500
C  40.91500 9.11700 32.10600
C  40.25000 9.08900 33.52000
C  39.06500 8.10100 33.22900
C  39.07100 7.84200 31.75000
C  39.10400 6.79200 34.07900
C  39.84800 10.51700 34.09200
C  39.61600 10.45100 35.62700
H  40.83200 10.53700 36.56500
N  38.73500 7.26200 28.75000
C  37.82000 6.92000 29.69300
C  36.72100 6.19800 29.11000
C  36.93200 6.18700 27.71200
C  38.31100 6.60000 27.63100
C  35.55700 5.57300 29.94800
C  36.02800 5.61300 26.63600
O  36.32700 5.51700 25.47500
C  34.70100 5.11100 27.08300
N  41.16000 7.76100 26.97700
C  40.34500 7.11500 26.08300
C  40.84100 7.16300 24.64400
C  42.02200 8.22400 24.86300
C  42.15100 8.42100 26.37600
C  41.36700 5.85600 24.01200
C  41.88500 9.56900 24.09000
C  40.87700 10.71300 24.42000
N  42.36000 9.05500 29.20600
C  43.31600 9.35800 28.22400
C  44.43300 9.96400 28.87800
C  44.05900 10.19900 30.17500
C  42.75000 9.61100 30.39500
C  45.70500 10.38600 28.18700
C  44.50800 10.79400 31.46400
O  45.50400 11.42400 31.78500
C  43.24600 10.45000 32.50300
C  43.78900 9.70300 33.74900
O  43.69300 8.51800 33.97900
O  44.43500 10.55500 34.59200
C  45.28600 10.06700 35.67800
H  37.23700 6.83200 31.70500
H  38.60300 6.20800 25.56200
H  44.14400 9.33600 26.41900
H  40.89100 8.62700 34.27200
H  38.13300 8.50000 33.62900
H  38.29500 6.50000 34.74900
H  39.99300 6.86500 34.70500
H  39.20600 5.96400 33.37700
H  38.85100 10.76000 33.72300
H  40.47600 11.38100 33.87300
H  39.11400 9.51900 35.88700
H  38.91100 11.27400 35.74200
H  35.70300 5.73700 31.01600
H  35.58800 4.50300 29.74000
H  34.61900 6.06900 29.70100
H  34.80100 4.19000 27.65700
H  34.11100 4.77700 26.22900
H  34.23100 5.97800 27.54600
H  40.01200 7.58300 24.07400
H  42.98900 7.89600 24.48100
H  42.24400 6.08200 23.40600
H  40.58400 5.29600 23.50000
H  41.67900 5.30600 24.90000
H  41.86600 9.23900 23.05100
H  42.90200 9.94700 23.99400
H  40.49000 10.53300 25.42300
H  40.08000 10.91600 23.70600
H  41.39300 11.67300 24.40400
H  46.32600 11.02000 28.82000
H  45.39200 10.98500 27.33100
H  46.39700 9.62600 27.82400
H  42.67000 11.37100 32.58800
H  45.98300 10.81600 36.05300
H  45.83400 9.24700 35.21400
H  44.59700 9.70200 36.43900
Mg 6.80600 53.38600 41.09200
C  6.33500 49.92300 40.61400
C  9.92000 52.92800 39.94800
C  7.00300 56.68200 40.94800
C  3.45500 53.55900 42.18600
N  8.01600 51.57000 40.23700
C  7.60800 50.28100 40.15500
C  8.78800 49.39900 39.66300
C  10.02100 50.35500 39.74200
C  9.29600 51.68900 39.91000
C  11.13000 50.04300 40.80700
C  8.65300 48.78600 38.20700
C  8.33900 49.82700 37.08100
H  7.20500 49.42600 36.24500
N  8.30400 54.65300 40.50500
C  9.53400 54.24500 40.12700
C  10.33700 55.41600 39.84200
C  9.52000 56.56200 40.08400
C  8.21500 56.00900 40.50000
C  11.74200 55.50900 39.18300
C  10.03000 57.97600 40.06900
O  11.20800 58.17200 39.86800
C  9.15800 59.10900 40.36500
N  5.38600 54.89800 41.32300
C  5.71400 56.20000 41.26600
C  4.56800 57.10500 41.78200
C  3.51000 56.13200 42.38500
C  4.12200 54.74600 41.92300
C  5.01100 58.16100 42.92700
C  2.00200 56.44600 42.03800
C  0.95400 56.30200 43.27300
N  5.17000 52.06300 41.31900
C  3.88000 52.26000 41.82400
C  3.15800 51.02800 41.96700
C  4.15100 50.08900 41.57900
C  5.29700 50.74700 41.16100
C  1.76800 50.72800 42.50600
C  4.32700 48.62700 41.49400
O  3.58200 47.69000 41.79900
C  5.81600 48.44900 41.00700
C  5.65600 47.55100 39.81900
O  5.00300 47.84700 38.87200
O  6.35000 46.37500 39.95500
C  6.37700 45.52200 38.68000
H  10.93800 52.78500 39.57900
H  6.95600 57.75600 41.13800
H  2.46000 53.67300 42.62000
H  8.81500 48.54400 40.33900
H  10.44000 50.42500 38.73800
H  11.05700 50.77800 41.60800
H  12.12200 50.03100 40.35400
H  10.87900 49.10300 41.29800
H  7.79200 48.12500 38.31300
H  9.54100 48.20400 37.96300
H  9.20900 49.87400 36.42700
H  8.24200 50.83700 37.47800
H  11.97700 54.58500 38.65400
H  12.52700 55.69200 39.91600
H  11.83300 56.29300 38.43200
H  8.28600 59.09700 39.71200
H  9.75400 60.02100 40.33800
H  8.82900 59.04100 41.40200
H  4.17200 57.67600 40.94200
H  3.62600 55.99500 43.46000
H  6.01700 57.99000 43.31200
H  4.37300 58.10300 43.80900
H  5.06300 59.15900 42.49200
H  1.67700 55.69900 41.31500
H  1.95700 57.42700 41.56400
H  0.30900 57.17800 43.34400
H  1.55100 56.26300 44.18300
H  0.34900 55.39600 43.31200
H  1.48400 49.75400 42.10900
H  1.03300 51.49200 42.25300
H  1.66200 50.67700 43.59000
H  6.35800 47.83500 41.72600
H  7.43100 45.26700 38.57300
H  6.15400 46.00300 37.72700
H  5.68600 44.68000 38.71800

