158

Mg 47.63100 34.37500 27.28100
C  45.79100 33.15300 29.90700
C  48.22300 37.22800 29.13900
C  48.96000 35.62900 24.54300
C  46.93800 31.37100 25.48500
N  46.92000 35.21100 29.26200
C  46.39800 34.42100 30.20000
C  46.53700 35.00300 31.65900
C  47.02400 36.46000 31.35100
C  47.36100 36.35000 29.80600
C  45.93500 37.59600 31.49700
C  47.58600 34.19400 32.50400
C  47.48000 34.44100 34.03700
H  48.38500 35.59000 34.61100
N  48.35300 36.20000 26.83200
C  48.56400 37.18800 27.72600
C  49.07900 38.30900 27.07300
C  49.41300 37.87800 25.73800
C  48.90500 36.53500 25.61400
C  49.32000 39.66100 27.75600
C  50.18800 38.58300 24.58900
O  50.24800 38.15600 23.45300
C  50.76100 39.96800 24.90500
N  47.72000 33.64900 25.16800
C  48.50200 34.33200 24.32300
C  48.97100 33.56000 23.09700
C  48.42500 32.12200 23.49900
C  47.61800 32.36600 24.80100
C  48.47500 33.97600 21.72300
C  49.37300 30.91700 23.57400
C  48.78400 29.66100 22.90500
N  46.60100 32.58500 27.58800
C  46.46400 31.46200 26.82300
C  45.69100 30.49600 27.56700
C  45.39800 31.13600 28.73500
C  45.94000 32.36900 28.74300
C  45.26600 29.13300 27.15900
C  44.67000 30.91500 29.95100
O  43.84000 30.07800 30.32600
C  44.71300 32.38800 30.73500
C  45.02900 32.07300 32.14800
O  45.87300 31.27100 32.50700
O  44.11300 32.62600 33.02400
C  43.95600 32.06600 34.31900
H  48.60500 38.10100 29.67200
H  49.58600 36.04200 23.74900
H  46.92400 30.33200 25.14800
H  45.58100 34.92600 32.17600
H  47.94900 36.72000 31.86500
H  45.98900 38.31500 30.67900
H  46.04300 38.17000 32.41700
H  44.91900 37.21200 31.58500
H  48.58300 34.58800 32.30600
H  47.62600 33.13200 32.26200
H  47.94900 33.53700 34.42600
H  46.45300 34.42300 34.40000
H  49.36700 40.44500 27.00100
H  50.24200 39.70200 28.33700
H  48.45800 39.89800 28.38000
H  51.51000 40.07200 24.12000
H  51.20500 40.04800 25.89800
H  49.91100 40.63100 24.74800
H  50.06100 33.55000 23.10300
H  47.71600 31.82700 22.72600
H  47.47200 34.30800 21.98900
H  48.54400 33.09700 21.08200
H  49.05600 34.84900 21.42400
H  49.78300 30.73900 24.56700
H  50.29300 31.15700 23.04100
H  49.29300 29.53800 21.94900
H  47.71500 29.74700 22.71100
H  48.89000 28.83200 23.60400
H  45.38000 28.91300 26.09700
H  44.24000 29.07100 27.52200
H  45.81700 28.32300 27.63700
H  43.74800 32.87400 30.59500
H  43.14800 31.33400 34.33200
H  43.75100 32.81400 35.08400
H  44.81800 31.47000 34.61900
Mg 42.02700 41.15600 26.46100
C  41.21800 43.54300 28.88800
C  42.78000 39.00400 29.06300
C  43.07000 39.04100 24.04500
C  41.34600 43.64300 24.02900
N  42.03100 41.25500 28.70100
C  41.63900 42.35500 29.46800
C  41.60100 42.01400 30.92500
C  42.39600 40.65900 31.03100
C  42.38100 40.22000 29.48400
C  43.81200 40.70600 31.65000
C  40.13700 42.07000 31.47700
C  39.97900 42.98600 32.78000
H  40.10700 42.33000 34.14900
N  42.80000 39.30900 26.54400
C  42.90800 38.52400 27.69700
C  43.23800 37.22300 27.33100
C  43.35100 37.14700 25.90200
C  42.97900 38.53200 25.43700
C  43.67400 36.20200 28.32700
C  43.79700 36.07900 25.01300
O  43.75600 36.16400 23.77200
C  44.32100 34.80600 25.54500
N  42.38600 41.39600 24.39300
C  42.71800 40.35600 23.60800
C  42.51000 40.69500 22.14500
C  41.89700 42.09100 22.20700
C  41.95700 42.42300 23.67400
C  43.64700 40.44900 21.13800
C  40.45600 42.14000 21.63400
C  39.26600 41.79000 22.53700
N  41.55100 43.20100 26.42300
C  41.13100 44.00100 25.37400
C  40.64300 45.26100 25.89000
C  40.70400 45.12700 27.24000
C  41.22800 43.85300 27.51500
C  40.21100 46.40500 25.03600
C  40.39600 45.82500 28.47700
O  39.94300 46.91500 28.63600
C  40.78200 44.83300 29.62900
C  41.94400 45.43100 30.32300
O  43.10500 45.22000 29.98900
O  41.51100 46.09400 31.44800
C  42.53400 46.61000 32.36200
H  42.96700 38.31900 29.89200
H  43.31900 38.29100 23.29200
H  41.02600 44.33200 23.24400
H  42.20100 42.74400 31.46700
H  41.80400 39.91600 31.56500
H  44.01600 41.63900 32.17400
H  44.53200 40.48500 30.86200
H  43.95000 39.91500 32.38700
H  39.82700 41.06400 31.76000
H  39.38500 42.40000 30.76100
H  39.08900 43.59200 32.61000
H  40.88300 43.58800 32.69100
H  42.88500 35.45900 28.43800
H  43.93300 36.65800 29.28300
H  44.53400 35.72700 27.85600
H  45.29700 34.88900 26.02300
H  44.50800 34.04800 24.78500
H  43.77400 34.35800 26.37500
H  41.73400 40.03600 21.75500
H  42.52500 42.80200 21.67100
H  43.78700 41.20900 20.36900
H  43.64800 39.44000 20.72500
H  44.58300 40.62500 21.66600
H  40.45000 41.50100 20.75100
H  40.40100 43.15200 21.23300
H  39.60000 41.17500 23.37300
H  38.64100 41.06500 22.01400
H  38.67400 42.68300 22.73600
H  39.98000 47.24300 25.69300
H  39.38300 46.22700 24.35000
H  41.10300 46.70700 24.48700
H  39.96200 44.63600 30.31900
H  43.47800 46.81600 31.85900
H  42.75600 45.83800 33.09900
H  42.12000 47.56200 32.69500

