158

Mg 17.18200 -2.16400 27.16200
C  16.32400 0.19900 29.67500
C  19.01200 -3.88000 29.47200
C  18.32800 -3.97400 24.66100
C  16.00500 0.31600 24.80200
N  17.51700 -1.94200 29.29400
C  17.12500 -0.86600 30.11700
C  17.58800 -1.15000 31.54300
C  18.54000 -2.37700 31.39500
C  18.32900 -2.75800 29.91300
C  20.04100 -2.22400 31.78200
C  16.40500 -1.50100 32.55700
C  16.50800 -0.94000 34.03400
H  17.93800 -0.59700 34.50900
N  18.32900 -3.79700 27.04000
C  19.00900 -4.36400 28.13300
C  19.58900 -5.67500 27.79600
C  19.53800 -5.60200 26.31600
C  18.71500 -4.46100 25.94800
C  20.27600 -6.52800 28.76500
C  20.31600 -6.45400 25.38200
O  20.30100 -6.33800 24.17500
C  21.12600 -7.65700 25.93000
N  17.21200 -1.85700 25.05100
C  17.71400 -2.79200 24.22200
C  17.65800 -2.26600 22.73800
C  16.82400 -0.99900 22.86700
C  16.67900 -0.82000 24.35500
C  19.09100 -1.99200 22.19000
C  15.47400 -1.19600 22.09900
C  15.21600 -0.15500 20.96700
N  16.21900 -0.25400 27.22300
C  15.75000 0.56200 26.16800
C  15.12600 1.71700 26.73000
C  15.23900 1.59100 28.16200
C  15.92100 0.37300 28.39600
C  14.35700 2.75800 26.02700
C  15.06300 2.24800 29.46900
O  14.56100 3.32500 29.73500
C  15.72500 1.32900 30.54500
C  16.69500 2.08500 31.41100
O  17.78100 2.55100 31.09500
O  16.12400 2.25800 32.63900
C  16.84000 3.18300 33.53000
H  19.53400 -4.44600 30.24600
H  18.66100 -4.66900 23.88800
H  15.67800 1.06600 24.07800
H  18.23700 -0.30500 31.77200
H  18.14500 -3.15500 32.04800
H  20.34100 -3.15500 32.26300
H  20.15400 -1.38300 32.46700
H  20.70900 -2.05000 30.93900
H  16.24700 -2.56500 32.73200
H  15.49600 -1.09600 32.11100
H  16.13400 -1.57100 34.84100
H  15.93500 -0.01300 34.04400
H  20.58400 -7.52600 28.45200
H  19.62200 -6.69800 29.62000
H  21.19100 -6.06300 29.13200
H  21.53800 -8.13300 25.04000
H  20.48000 -8.36400 26.45100
H  21.90900 -7.27900 26.58700
H  17.18500 -2.99900 22.08500
H  17.14800 -0.01900 22.51800
H  19.93800 -1.99200 22.87600
H  19.12400 -0.96800 21.81700
H  19.41300 -2.69500 21.42100
H  14.60600 -1.12500 22.75500
H  15.43600 -2.11700 21.51600
H  16.19000 0.06300 20.53000
H  14.70500 0.76300 21.25700
H  14.55400 -0.54700 20.19500
H  13.98900 2.39700 25.06700
H  14.89500 3.69900 25.90900
H  13.43100 2.96700 26.56400
H  14.88300 0.94700 31.12100
H  16.25100 3.49800 34.39100
H  17.33300 4.03400 33.05900
H  17.66200 2.77700 34.12000
Mg 46.81900 44.45400 42.18400
C  43.38800 43.51400 42.09700
C  47.62200 41.03100 42.00200
C  49.93900 45.25400 41.76100
C  45.75500 47.79600 41.76100
N  45.58800 42.51100 41.91700
C  44.20000 42.38700 41.97100
C  43.72000 40.92900 41.90000
C  45.05300 40.08200 42.01300
C  46.22800 41.23000 41.91200
C  45.23400 39.10500 43.23600
C  42.84400 40.60900 40.59000
C  43.11000 41.46300 39.29700
H  43.20300 40.60600 38.01000
N  48.56600 43.26900 41.91200
C  48.72800 41.95400 42.03200
C  50.12800 41.67400 41.93300
C  50.85300 42.87100 41.69800
C  49.77500 43.86400 41.79500
C  50.62000 40.27600 42.02000
C  52.33700 42.92600 41.42400
O  53.04700 41.91900 41.56400
C  52.97300 44.19100 40.92100
N  47.76900 46.25500 41.78300
C  49.12100 46.38100 41.82600
C  49.49100 47.81100 41.81200
C  48.12600 48.63100 41.84100
C  47.14000 47.46200 41.77700
C  50.41800 48.23500 43.04500
C  47.93500 49.65600 40.65000
C  47.49700 50.98400 41.11600
N  44.97000 45.50900 41.98700
C  44.69000 46.84100 41.83300
C  43.28500 47.09000 41.93400
C  42.70800 45.82600 42.06600
C  43.79400 44.87600 42.05000
C  42.53100 48.40300 41.93400
C  41.48500 45.11900 42.31600
O  40.33500 45.46900 42.45900
C  41.90900 43.65300 42.35000
C  41.54800 43.01200 43.53400
O  40.77800 42.06000 43.65300
O  42.03200 43.76900 44.58500
C  41.98600 43.13900 45.90300
H  47.90500 39.98200 42.11200
H  50.97800 45.59000 41.76800
H  45.38900 48.82400 41.70800
H  43.25800 40.63000 42.84100
H  45.10300 39.40500 41.16000
H  46.29100 39.17400 43.49300
H  45.05500 38.08300 42.90400
H  44.61200 39.21900 44.12300
H  41.85400 40.82400 40.99300
H  42.85400 39.54100 40.37100
H  44.02500 42.03700 39.44100
H  42.31400 42.16100 39.03900
H  51.11600 40.07900 41.07000
H  49.86700 39.49600 42.14000
H  51.39500 40.23800 42.78600
H  52.16200 44.61000 40.32600
H  53.71700 43.96600 40.15800
H  53.33000 44.83300 41.72600
H  50.03800 47.93600 40.87800
H  47.94500 49.13300 42.79200
H  51.32000 48.61600 42.56700
H  50.70300 47.43300 43.72700
H  49.98900 49.01500 43.67400
H  47.13400 49.30600 39.99900
H  48.80700 49.74000 40.00300
H  46.60400 51.30400 40.57900
H  48.32400 51.64900 40.86900
H  47.19300 51.07100 42.15900
H  41.90100 48.48600 42.82000
H  42.00600 48.47000 40.98100
H  43.26200 49.21100 41.96900
H  41.44300 43.15900 41.49700
H  40.94000 42.92300 46.12200
H  42.53600 43.80100 46.57100
H  42.55200 42.21200 45.99200

