158

Mg -1.38000 16.93800 26.45300
C  -1.88100 14.67300 29.19600
C  -2.08500 19.47400 28.70000
C  -1.41000 19.06200 23.90600
C  -1.79800 14.19300 24.28000
N  -1.77600 17.04500 28.66700
C  -1.80100 16.05000 29.59100
C  -2.05800 16.57500 31.09400
C  -2.40000 18.08900 30.84300
C  -2.07400 18.18800 29.34700
C  -3.92300 18.34100 31.11000
C  -0.76800 16.34500 31.95000
C  -0.46200 17.38300 33.04200
H  0.10600 16.73800 34.27400
N  -1.54200 18.96500 26.32500
C  -1.78900 19.87200 27.37200
C  -1.69300 21.22000 26.88700
C  -1.25400 21.09900 25.50300
C  -1.30700 19.65700 25.18800
C  -1.98200 22.44500 27.79100
C  -0.96400 22.16300 24.47800
O  -0.42500 21.88200 23.40000
C  -1.20900 23.59600 24.95500
N  -1.46300 16.62000 24.39200
C  -1.45800 17.74600 23.56900
C  -1.67500 17.24800 22.09500
C  -1.43600 15.71900 22.28800
C  -1.56000 15.47100 23.71400
C  -3.15400 17.55300 21.61600
C  -0.02200 15.32500 21.69100
C  0.05300 13.89000 21.09900
N  -1.75600 14.87100 26.57100
C  -1.90500 13.88800 25.65900
C  -2.25200 12.61500 26.30100
C  -2.17800 12.89500 27.64300
C  -1.87500 14.26400 27.82100
C  -2.49900 11.33100 25.60000
C  -2.47300 12.34400 28.96200
O  -2.76600 11.19200 29.26800
C  -2.29500 13.52600 30.05600
C  -1.31000 13.21200 31.03800
O  -0.11300 13.10500 30.87200
O  -1.88700 12.93600 32.28100
C  -0.95200 12.36000 33.27700
H  -2.14400 20.23800 29.47800
H  -1.47300 19.72400 23.03900
H  -1.95400 13.38300 23.56600
H  -2.87000 16.06600 31.61300
H  -1.67200 18.71200 31.36300
H  -4.58500 18.08500 30.28300
H  -4.03000 19.42300 31.19200
H  -4.30800 17.78700 31.96600
H  0.07300 16.23200 31.26600
H  -1.02600 15.39600 32.42100
H  -1.42000 17.82300 33.31900
H  0.23900 18.14100 32.69400
H  -2.30900 22.12800 28.78100
H  -2.68300 23.13200 27.31800
H  -0.98800 22.87400 27.92300
H  -1.44000 24.22100 24.09300
H  -0.27800 23.92600 25.41700
H  -1.99900 23.80300 25.67700
H  -0.89600 17.71700 21.49300
H  -2.20600 15.20900 21.70900
H  -3.63700 16.75100 21.05900
H  -3.03800 18.46600 21.03200
H  -3.86100 17.74500 22.42300
H  0.69200 15.31400 22.51400
H  0.27600 16.03900 20.92200
H  0.28500 13.96000 20.03700
H  -0.79500 13.23000 21.27900
H  0.88300 13.41700 21.62400
H  -2.67000 11.40300 24.52600
H  -3.35400 10.96900 26.16900
H  -1.69800 10.61000 25.76200
H  -3.23300 13.81300 30.53000
H  -0.77800 13.15100 34.00700
H  0.02500 11.95900 33.00600
H  -1.57800 11.63800 33.80200
Mg 0.62500 42.87800 25.82900
C  2.53200 42.93100 28.89200
C  -2.05400 41.78200 27.49400
C  -0.81800 42.43500 22.90100
C  3.77500 43.64500 24.18000
N  0.35000 42.19100 27.99300
C  1.18300 42.50400 29.04000
C  0.37900 42.44000 30.36700
C  -0.97900 41.74600 29.90500
C  -0.93200 41.96000 28.34400
C  -1.08700 40.22300 30.33000
C  0.18100 43.90900 30.96800
C  0.62600 44.21800 32.45100
H  0.75400 43.03100 33.43800
N  -1.25800 42.34400 25.25600
C  -2.22000 41.87300 26.07900
C  -3.37300 41.54200 25.22300
C  -3.02600 41.80000 23.90900
C  -1.60300 42.11500 23.98000
C  -4.64400 41.01300 25.81300
C  -3.87000 41.64900 22.61000
O  -3.39700 41.82100 21.46600
C  -5.35700 41.17900 22.68400
N  1.34100 43.04700 23.97300
C  0.49700 42.83700 22.84800
C  1.19400 42.97300 21.48500
C  2.62700 43.47400 21.96900
C  2.60500 43.37200 23.46600
C  1.25900 41.61000 20.59600
C  2.90100 45.02600 21.56600
C  1.76300 46.06700 21.76800
N  2.73100 43.24400 26.41200
C  3.84800 43.62300 25.59000
C  5.02700 43.83500 26.47100
C  4.47200 43.57600 27.79200
C  3.10800 43.20600 27.66200
C  6.40300 44.12700 26.03600
C  4.94100 43.41000 29.14700
O  6.09500 43.43200 29.63300
C  3.63900 43.12200 29.90500
C  3.94100 41.84300 30.64500
O  3.89700 40.70500 30.16900
O  4.42600 42.07300 31.92000
C  4.76900 40.90000 32.72400
H  -3.00300 41.57800 27.99500
H  -1.21100 42.38300 21.88300
H  4.68900 43.80300 23.60400
H  0.93500 41.78900 31.04100
H  -1.71800 42.36600 30.41200
H  -1.27900 39.55700 29.48900
H  -1.96700 40.06800 30.95500
H  -0.22200 39.84500 30.87600
H  -0.83200 44.30400 31.04500
H  0.76300 44.59900 30.35700
H  -0.08900 44.91100 32.89400
H  1.58500 44.73600 32.41100
H  -5.44800 41.53100 25.29100
H  -4.74100 41.32900 26.85200
H  -4.65300 39.92500 25.74800
H  -6.01500 41.86500 23.21700
H  -5.33200 40.20900 23.18200
H  -5.88200 40.99500 21.74700
H  0.60800 43.68400 20.90300
H  3.43100 42.87300 21.54400
H  0.72800 40.89500 21.22400
H  2.24900 41.20100 20.39600
H  0.66000 41.65900 19.68700
H  3.16100 44.98800 20.50800
H  3.84600 45.30100 22.03500
H  1.92300 46.54500 22.73500
H  0.80200 45.59100 21.96200
H  1.65600 46.82700 20.99500
H  6.51000 43.66600 25.05500
H  7.07200 43.70900 26.78900
H  6.49700 45.20200 25.88400
H  3.45500 43.95000 30.58900
H  5.83300 40.66100 32.74400
H  4.18600 40.03100 32.41900
H  4.51000 41.18000 33.74500

