158

Mg 48.06300 16.10000 28.30900
C  46.12600 15.78000 31.04300
C  50.34300 17.93200 29.92100
C  49.78300 16.21000 25.36300
C  45.42300 14.55300 26.46000
N  48.08500 16.90600 30.31700
C  47.28700 16.49500 31.27200
C  47.98800 16.75900 32.65200
C  49.17600 17.77100 32.32200
C  49.23600 17.54600 30.74800
C  48.89000 19.24100 32.64100
C  48.32300 15.62400 33.56300
C  48.01200 15.84100 35.10400
H  47.90400 17.31500 35.59000
N  49.86800 16.93700 27.71700
C  50.68900 17.68900 28.51600
C  51.93100 17.98100 27.83500
C  51.84200 17.36800 26.53900
C  50.41100 16.83900 26.46000
C  53.14100 18.65400 28.44900
C  52.91800 17.18200 25.44600
O  52.76500 16.38300 24.46100
C  54.31800 17.83000 25.56300
N  47.61100 15.56000 26.23900
C  48.50900 15.65500 25.23500
C  48.01100 15.07400 23.89800
C  46.63900 14.49900 24.33500
C  46.51600 14.91000 25.75000
C  48.12600 16.15200 22.80000
C  46.53800 12.94000 24.06900
C  45.56500 12.49500 22.96200
N  46.13200 15.40200 28.65700
C  45.18800 14.82900 27.79100
C  44.00500 14.38500 28.62200
C  44.41500 14.66600 29.87500
C  45.61800 15.38800 29.83200
C  42.76900 13.85300 28.09700
C  44.00300 14.62700 31.33300
O  43.05900 14.09400 31.88000
C  45.12000 15.29100 32.09900
C  44.43400 16.34400 32.92700
O  44.14800 17.45300 32.56400
O  44.24600 15.91300 34.21500
C  43.37600 16.65400 35.15800
H  51.13600 18.37200 30.52900
H  50.25000 16.32700 24.38300
H  44.59400 14.09400 25.91700
H  47.24200 17.44100 33.06000
H  50.09700 17.29400 32.65900
H  47.96600 19.26100 33.21900
H  48.69200 19.85100 31.75900
H  49.78600 19.61100 33.14000
H  49.38500 15.38200 33.51400
H  47.77300 14.77700 33.15400
H  48.76900 15.39200 35.74700
H  47.08500 15.34200 35.38800
H  52.92300 19.30200 29.29800
H  53.58700 19.26900 27.66800
H  53.93400 17.95400 28.71200
H  54.69800 17.78100 26.58400
H  54.14600 18.88900 25.36800
H  55.00400 17.41100 24.82700
H  48.77400 14.31000 23.74400
H  45.89100 15.04600 23.76100
H  47.34400 15.91400 22.08000
H  49.05200 16.07000 22.23100
H  47.97500 17.14200 23.23200
H  46.35100 12.38200 24.98600
H  47.49700 12.58300 23.69300
H  46.13000 12.46100 22.03000
H  44.77800 13.20900 22.72100
H  45.14500 11.50400 23.13500
H  42.18600 14.26100 27.27100
H  42.04700 13.76900 28.90900
H  43.00300 12.81000 27.88600
H  45.58700 14.51500 32.70600
H  43.00900 15.81900 35.75500
H  42.54700 17.04500 34.56700
H  43.95300 17.37900 35.73200
Mg -10.56500 40.04800 39.96900
C  -9.00800 36.94500 39.16200
C  -7.78600 41.66100 38.93700
C  -12.32100 42.97100 39.65500
C  -13.68800 38.21800 40.30200
N  -8.67000 39.39100 39.16100
C  -8.23100 38.08300 38.81600
C  -6.92200 38.11200 38.08400
C  -6.45200 39.58700 38.38100
C  -7.75200 40.27600 38.81000
C  -5.34500 39.78200 39.46600
C  -7.04000 37.71900 36.55600
C  -6.22000 36.53500 35.94100
H  -6.87700 35.93000 34.65500
N  -10.02900 42.06100 39.69600
C  -8.80400 42.53800 39.31400
C  -8.74000 44.01300 39.42600
C  -10.11000 44.40200 39.70700
C  -10.89000 43.13600 39.74800
C  -7.48200 44.85700 39.23100
C  -10.57600 45.80600 39.91800
O  -9.77900 46.73600 39.80500
C  -12.00900 46.07700 40.34100
N  -12.68900 40.56800 39.98200
C  -13.10500 41.82300 39.69900
C  -14.64500 41.98000 39.68100
C  -15.10000 40.46600 39.98900
C  -13.75100 39.63900 40.12300
C  -15.07600 43.05600 40.65600
C  -16.01500 39.75100 38.83800
C  -17.29300 38.98500 39.16700
N  -11.25700 38.08000 39.89200
C  -12.48600 37.48000 40.16400
C  -12.34000 36.00100 40.25400
C  -11.02800 35.79000 39.93200
C  -10.40600 37.03600 39.68100
C  -13.46900 35.06900 40.55100
C  -10.04000 34.80100 39.57100
O  -10.12200 33.59000 39.49200
C  -8.74900 35.49900 39.11200
C  -7.62200 35.02200 39.98200
O  -7.63000 35.03800 41.19000
O  -6.57200 34.62500 39.17500
C  -5.60300 33.81800 39.80500
H  -6.88700 42.21900 38.66700
H  -12.97400 43.83900 39.54000
H  -14.64800 37.73100 40.48700
H  -6.18200 37.53600 38.63900
H  -6.10300 40.10300 37.48700
H  -5.71800 40.18800 40.40600
H  -4.66200 40.54000 39.08100
H  -4.69900 38.95300 39.75500
H  -6.73400 38.60800 36.00300
H  -8.09500 37.60700 36.30400
H  -6.34300 35.77600 36.71400
H  -5.17900 36.84200 35.84000
H  -7.31600 45.13800 38.19100
H  -6.59000 44.31100 39.53700
H  -7.63600 45.76000 39.82200
H  -12.07100 47.11400 40.66900
H  -12.18100 45.34400 41.13000
H  -12.66500 46.01800 39.47300
H  -14.98900 42.21500 38.67400
H  -15.56600 40.38200 40.97100
H  -14.78900 44.07600 40.40000
H  -14.50500 42.90200 41.57100
H  -16.16100 43.07300 40.76400
H  -15.45600 39.06000 38.20600
H  -16.26300 40.50700 38.09300
H  -18.18700 39.35600 38.66400
H  -17.50000 39.01600 40.23700
H  -17.17700 37.95400 38.83100
H  -14.02100 35.36500 41.44300
H  -13.03600 34.09700 40.79000
H  -14.21100 35.04500 39.75400
H  -8.59600 35.11500 38.10400
H  -5.53100 33.77000 40.89200
H  -4.60900 34.20700 39.58300
H  -5.47700 32.80600 39.41900

