158

Mg 47.51700 24.75700 29.10200
C  48.05100 27.20200 31.62500
C  46.56000 22.55200 31.52700
C  47.18100 22.32500 26.77200
C  48.92200 26.82700 26.78200
N  47.40000 24.90100 31.31600
C  47.59700 25.98000 32.10700
C  47.19500 25.71300 33.60700
C  46.83600 24.14500 33.52500
C  46.81600 23.84700 32.00900
C  47.83900 23.17800 34.34000
C  46.05800 26.65000 34.13200
C  46.28400 27.37800 35.47200
H  45.20700 27.24500 36.53800
N  46.81600 22.79300 29.10300
C  46.51100 22.08900 30.22400
C  46.20400 20.69200 29.88400
C  46.29400 20.64800 28.46400
C  46.79200 22.00400 28.06400
C  45.72300 19.51700 30.78300
C  46.00900 19.46500 27.52200
O  45.89500 19.55800 26.27800
C  45.76100 18.07900 28.03200
N  48.09100 24.57300 27.11300
C  47.82700 23.50800 26.32200
C  48.08800 23.76100 24.85800
C  48.32300 25.27600 24.87900
C  48.41200 25.61300 26.37300
C  49.31200 23.01000 24.30600
C  47.22200 26.05300 24.13000
C  45.80900 26.16500 24.75500
N  48.37000 26.67100 29.10500
C  48.93500 27.40200 28.10600
C  49.21100 28.76300 28.60200
C  48.88700 28.72200 29.92100
C  48.41600 27.41100 30.23200
C  49.84400 29.81500 27.77800
C  48.91800 29.45400 31.12700
O  49.29900 30.57300 31.29900
C  48.45300 28.47900 32.33800
C  49.62600 28.21900 33.24500
O  50.64400 27.71900 32.87700
O  49.30200 28.74700 34.42600
C  50.15400 28.20700 35.50400
H  46.33700 21.82500 32.31100
H  47.02800 21.61000 25.96100
H  49.38800 27.55500 26.11500
H  48.00800 25.91100 34.30400
H  45.81500 23.96700 33.86300
H  48.55000 22.64700 33.70700
H  47.38100 22.38200 34.92800
H  48.51100 23.77300 34.95900
H  45.19800 25.99400 34.26800
H  45.76600 27.38400 33.38200
H  46.46300 28.41600 35.18900
H  47.26000 27.14900 35.89900
H  46.40700 18.66900 30.80000
H  44.69300 19.27000 30.52300
H  45.83400 19.87300 31.80700
H  46.62200 17.86400 28.66500
H  45.82200 17.31800 27.25400
H  44.76000 18.04500 28.46400
H  47.20700 23.61100 24.23400
H  49.26400 25.51800 24.38300
H  50.18300 23.37100 24.85300
H  49.58700 23.14500 23.26000
H  49.08400 21.96100 24.49000
H  47.10700 25.66700 23.11700
H  47.69900 27.02900 24.03600
H  46.02400 27.06500 25.33200
H  45.54000 25.40100 25.48400
H  45.03400 26.35300 24.01200
H  49.49300 30.81300 28.04300
H  49.72300 29.63600 26.71000
H  50.90900 29.85200 28.00500
H  47.61900 28.95900 32.85000
H  51.10900 28.73300 35.48900
H  50.28500 27.13500 35.36100
H  49.61600 28.29900 36.44700
Mg 6.87900 53.44300 40.82800
C  6.52200 50.04100 40.46700
C  10.36600 52.99100 40.50100
C  7.29300 56.77800 40.32600
C  3.41800 53.82700 40.84700
N  8.19300 51.75700 40.37500
C  7.83600 50.40200 40.37300
C  9.05200 49.49500 40.27600
C  10.26000 50.42600 40.51700
C  9.58400 51.83700 40.52100
C  11.10300 50.07400 41.83800
C  9.22600 48.70700 38.96200
C  9.10000 49.29300 37.56000
H  7.97900 48.81200 36.62600
N  8.56200 54.72500 40.59000
C  9.87300 54.31900 40.42400
C  10.71100 55.49400 40.21200
C  9.80100 56.59300 40.10600
C  8.48400 56.08300 40.33600
C  12.24400 55.52100 40.06400
C  10.18700 57.98800 39.65800
O  11.37800 58.17800 39.56400
C  9.20600 59.16100 39.42500
N  5.53700 55.04500 40.60600
C  5.99300 56.33200 40.54400
C  4.81000 57.33000 40.41500
C  3.57400 56.45200 40.98700
C  4.14000 55.03300 40.78000
C  4.90400 58.66000 41.20400
C  2.20600 56.77600 40.25200
C  0.89400 56.79200 41.06100
N  5.24500 52.18400 40.80700
C  3.94500 52.46600 40.89500
C  3.28000 51.22900 41.16800
C  4.22100 50.23100 41.04700
C  5.37800 50.89100 40.67300
C  1.72000 51.05400 41.36600
C  4.43200 48.82800 40.99800
O  3.67600 47.91100 41.19500
C  5.93600 48.66900 40.53200
C  5.80800 47.95900 39.18600
O  5.35400 48.44700 38.16500
O  6.08800 46.62400 39.29300
C  5.50200 45.84400 38.14400
H  11.44600 52.84100 40.56100
H  7.23400 57.84100 40.08200
H  2.35600 53.97400 41.05500
H  8.98100 48.74500 41.06400
H  11.09400 50.31900 39.82300
H  11.15100 50.97700 42.44500
H  12.15700 49.90600 41.61600
H  10.68700 49.34300 42.53200
H  8.39400 48.00900 39.04800
H  10.15700 48.16600 39.13200
H  9.99600 49.10100 36.96900
H  9.06700 50.37600 37.68400
H  12.59800 55.90700 39.10800
H  12.64000 54.51000 40.15800
H  12.72800 56.10600 40.84700
H  8.61200 58.94700 38.53700
H  9.70000 60.07700 39.09900
H  8.68600 59.20400 40.38100
H  4.72300 57.63500 39.37300
H  3.43700 56.71400 42.03700
H  5.78200 58.62800 41.84900
H  4.01500 58.86800 41.80000
H  5.01500 59.46900 40.48200
H  2.03800 56.09200 39.42000
H  2.25500 57.76700 39.80200
H  0.28900 57.65100 40.77100
H  1.09900 56.66800 42.12500
H  0.35000 55.89900 40.75300
H  1.18700 51.45200 40.50200
H  1.28500 51.57300 42.22000
H  1.49500 49.98900 41.41800
H  6.38700 48.08200 41.33200
H  5.98300 44.87200 38.02800
H  5.57800 46.25800 37.13900
H  4.44200 45.68700 38.34700

