158

Mg 1.90600 -0.99400 44.37000
C  5.05100 0.25300 43.42900
C  0.54700 1.64400 42.33700
C  -1.11200 -2.44700 44.33000
C  3.41800 -3.81100 45.49300
N  2.79000 0.72500 42.94700
C  4.03600 1.02600 42.84400
C  4.19300 2.32300 41.97900
C  2.76600 2.67200 41.52300
C  1.98900 1.67200 42.39400
C  2.33000 4.18100 41.54800
C  5.25300 2.00200 40.78700
C  6.51900 2.92100 40.65200
H  7.77600 2.31500 39.97700
N  -0.01900 -0.39900 43.73000
C  -0.33200 0.66500 42.94200
C  -1.79000 0.80300 42.72600
C  -2.30100 -0.36300 43.31800
C  -1.11400 -1.14200 43.79700
C  -2.55400 1.80800 41.81300
C  -3.76300 -0.76600 43.33700
O  -4.55600 -0.08800 42.69300
C  -4.32000 -1.98100 43.94600
N  1.23800 -2.84700 44.78500
C  -0.06600 -3.21700 44.87700
C  -0.21200 -4.67900 45.46900
C  1.23900 -5.13000 45.71700
C  2.01200 -3.82800 45.28700
C  -1.10100 -4.72200 46.90000
C  1.65500 -6.33900 44.86100
C  1.17900 -7.70500 45.32000
N  3.88100 -1.69000 44.55000
C  4.34000 -2.93000 45.07000
C  5.78700 -2.87700 45.22300
C  6.09600 -1.64500 44.63500
C  4.92300 -0.97100 44.17300
C  6.68200 -3.87700 45.87600
C  7.21400 -0.73600 44.39200
O  8.34600 -0.83400 44.80800
C  6.61500 0.49100 43.59000
C  6.86100 1.70500 44.44500
O  6.29900 1.83900 45.54500
O  7.79900 2.48900 43.89100
C  7.84700 3.77400 44.57400
H  0.02900 2.40600 41.75000
H  -2.09000 -2.93300 44.33700
H  3.81300 -4.70800 45.97500
H  4.47600 3.22200 42.52600
H  2.71500 2.32600 40.49100
H  1.70800 4.21500 42.44300
H  1.71100 4.33700 40.66400
H  3.17100 4.87400 41.51700
H  4.82200 2.04700 39.78600
H  5.60000 0.97500 40.89700
H  6.71500 3.19500 41.68900
H  6.19200 3.83000 40.14700
H  -3.21600 1.42300 41.03700
H  -1.81800 2.26100 41.14800
H  -3.15900 2.50400 42.39300
H  -4.10100 -2.83700 43.30800
H  -5.40300 -1.87300 43.99700
H  -3.94100 -2.20500 44.94300
H  -0.61400 -5.17100 44.58300
H  1.50600 -5.30200 46.75900
H  -1.98400 -5.35800 46.83500
H  -1.40000 -3.69400 47.10500
H  -0.54600 -5.01500 47.79100
H  2.73900 -6.44600 44.90100
H  1.46800 -6.17200 43.80100
H  0.50100 -8.19800 44.62300
H  0.51100 -7.52400 46.16200
H  1.99500 -8.40100 45.51700
H  6.15400 -4.82900 45.84700
H  6.99500 -3.57200 46.87500
H  7.59300 -4.07300 45.31000
H  7.18600 0.62600 42.67100
H  8.78700 4.23200 44.26800
H  7.90800 3.71800 45.66000
H  6.98000 4.37900 44.30800
Mg 48.86400 35.98800 28.63500
C  46.69500 34.39900 30.91000
C  49.09100 38.68900 30.61400
C  50.54900 37.48000 26.18500
C  48.29900 33.33700 26.42900
N  47.97100 36.50900 30.60300
C  47.25300 35.63200 31.39900
C  47.09800 36.28600 32.78900
C  47.60200 37.77000 32.60400
C  48.24000 37.71400 31.18800
C  46.50200 38.80500 32.74800
C  47.68500 35.49500 33.93500
C  49.02600 34.81400 33.64100
H  50.31000 35.64900 33.74600
N  49.78300 37.78200 28.47300
C  49.75400 38.79900 29.38000
C  50.60800 39.87500 28.94500
C  51.16500 39.49300 27.73500
C  50.53500 38.16300 27.40000
C  50.80200 41.09500 29.80400
C  52.09700 40.27000 26.79200
O  52.48200 39.78800 25.75700
C  52.54600 41.62700 27.21300
N  49.38500 35.45200 26.55400
C  50.07500 36.22600 25.79200
C  50.37400 35.66400 24.39000
C  49.79300 34.18700 24.53500
C  49.14700 34.30700 25.97700
C  49.64600 36.43300 23.19900
C  50.71200 32.89400 24.49400
C  50.06200 31.59000 23.90300
N  47.81500 34.20600 28.69200
C  47.66800 33.25600 27.71000
C  46.88900 32.14900 28.24500
C  46.43800 32.58200 29.44800
C  46.98100 33.86000 29.66900
C  46.51700 30.78000 27.55600
C  45.64600 32.20600 30.51600
O  44.97200 31.16600 30.78200
C  45.63200 33.42700 31.44900
C  45.95300 32.93400 32.77800
O  46.90900 32.18400 33.10200
O  44.97600 33.23700 33.56100
C  44.85300 32.63400 34.90200
H  49.18700 39.53300 31.30100
H  50.96000 38.08300 25.37300
H  47.98400 32.51900 25.77800
H  46.04000 36.36300 33.03800
H  48.45800 37.91600 33.26300
H  46.69000 39.27600 33.71200
H  45.50100 38.38600 32.85900
H  46.46600 39.59100 31.99400
H  46.95900 34.87400 34.46000
H  47.99000 36.23400 34.67600
H  48.98400 34.52300 32.59100
H  49.16800 33.87800 34.18000
H  51.80800 41.31400 30.16000
H  50.22300 41.17500 30.72400
H  50.50800 41.93300 29.17200
H  51.71800 42.33100 27.30400
H  53.27900 42.03700 26.51800
H  52.94800 41.51500 28.21900
H  51.44700 35.70800 24.20600
H  48.98200 34.01900 23.82600
H  50.26700 36.71100 22.34700
H  49.01700 37.22200 23.61300
H  48.98500 35.71500 22.71300
H  50.97900 32.70000 25.53300
H  51.57500 33.13900 23.87500
H  50.53000 30.82100 24.51800
H  50.44400 31.52300 22.88400
H  48.97700 31.65700 23.98800
H  45.43500 30.66000 27.60800
H  46.87300 29.96100 28.18000
H  46.89000 30.65600 26.53900
H  44.66100 33.92200 31.46000
H  43.87200 32.15900 34.86700
H  45.00900 33.43500 35.62400
H  45.59100 31.85200 35.07900

