158

Mg 24.88900 -4.77500 46.07000
C  26.77900 -2.42300 44.43600
C  22.29900 -4.38300 43.82400
C  23.45100 -7.64400 47.26400
C  27.86600 -5.66700 47.91200
N  24.57800 -3.55800 44.38400
C  25.46300 -2.62400 43.87400
C  24.85400 -1.82400 42.62300
C  23.43100 -2.50600 42.60300
C  23.39200 -3.49900 43.70800
C  22.35500 -1.46800 42.60200
C  25.60400 -2.20200 41.30800
C  25.56100 -0.99700 40.30700
H  25.52800 -1.17100 38.77300
N  23.01800 -5.72900 45.77000
C  22.06900 -5.41300 44.78600
C  20.93200 -6.36300 44.87500
C  21.25900 -7.24000 45.86300
C  22.65200 -6.89700 46.31900
C  19.65100 -6.32000 44.08100
C  20.40400 -8.37300 46.41000
O  19.25700 -8.58300 45.94000
C  20.74900 -9.20800 47.63800
N  25.56900 -6.44600 47.30300
C  24.77600 -7.43900 47.72000
C  25.44800 -8.42000 48.69600
C  26.68000 -7.58800 49.11400
C  26.78500 -6.50200 48.00600
C  24.63400 -9.08000 49.78900
C  28.02000 -8.45500 49.29100
C  29.01500 -7.94700 50.32000
N  26.90500 -4.08900 46.27700
C  27.93900 -4.51700 47.11000
C  29.06600 -3.62000 46.94900
C  28.66100 -2.70400 45.98600
C  27.37200 -3.11500 45.53400
C  30.36600 -3.77600 47.68100
C  29.05400 -1.62000 45.21500
O  30.08100 -0.96800 45.24800
C  27.87500 -1.40300 44.15400
C  27.35100 -0.04600 44.31700
O  26.42600 0.32100 45.05200
O  27.99200 0.75300 43.37800
C  27.63400 2.19500 43.29800
H  21.49200 -4.15800 43.12400
H  23.10400 -8.50600 47.83800
H  28.74400 -5.85600 48.53300
H  24.79300 -0.77000 42.89100
H  23.21200 -3.04000 41.67900
H  21.47700 -1.82000 42.06100
H  22.63200 -0.50400 42.17500
H  21.96300 -1.43200 43.61900
H  25.07400 -2.97300 40.75000
H  26.65600 -2.46400 41.42300
H  26.51300 -0.49200 40.47400
H  24.93600 -0.13400 40.53600
H  19.75400 -5.54700 43.32000
H  18.74200 -6.11200 44.64500
H  19.41400 -7.34900 43.81100
H  19.88400 -9.75300 48.01600
H  20.96500 -8.49300 48.43200
H  21.58200 -9.79200 47.24700
H  25.81000 -9.28800 48.14700
H  26.33800 -7.03000 49.98600
H  25.16500 -9.39700 50.68700
H  24.07100 -9.92200 49.38500
H  23.94800 -8.32400 50.17100
H  28.52200 -8.57700 48.33200
H  27.74200 -9.44700 49.64700
H  29.16300 -8.69900 51.09500
H  28.45300 -7.11200 50.74000
H  29.93600 -7.49800 49.94800
H  30.25700 -3.24100 48.62400
H  31.08500 -3.15100 47.15100
H  30.69000 -4.80800 47.81600
H  28.15500 -1.42700 43.10100
H  26.84000 2.42600 42.58800
H  28.50600 2.83500 43.16400
H  27.30100 2.48600 44.29500
Mg -12.14700 37.77800 42.22400
C  -10.14300 34.89500 41.33900
C  -9.90700 39.61700 40.49200
C  -14.26300 40.22100 42.59600
C  -14.57600 35.50400 43.37100
N  -10.30300 37.20800 40.98400
C  -9.58700 36.06400 40.90900
C  -8.38600 36.22200 39.98300
C  -8.20300 37.78500 40.11100
C  -9.56300 38.24500 40.61800
C  -7.02300 38.18700 41.03500
C  -8.64200 35.60100 38.57900
C  -7.41500 35.20800 37.80300
H  -6.92600 36.05200 36.65300
N  -12.11700 39.67900 41.60800
C  -11.05800 40.30100 40.94300
C  -11.25300 41.76300 40.95400
C  -12.53700 41.96000 41.62500
C  -13.01800 40.59300 41.95700
C  -10.34800 42.78300 40.38000
C  -13.21200 43.31100 41.66500
O  -12.67400 44.31800 41.19700
C  -14.57900 43.47400 42.12100
N  -14.11000 37.92800 43.10300
C  -14.83600 39.01200 42.99400
C  -16.29100 38.91800 43.48400
C  -16.34000 37.40700 43.77100
C  -14.95600 36.86900 43.36300
C  -16.63400 40.04600 44.59400
C  -17.51100 36.66600 43.03900
C  -18.46200 35.79500 43.98200
N  -12.38600 35.56400 42.44200
C  -13.39100 34.84400 42.99000
C  -13.01400 33.41300 43.00700
C  -11.79400 33.34100 42.32300
C  -11.47600 34.70500 41.94700
C  -13.57400 32.24800 43.90300
C  -10.66800 32.45000 41.90900
O  -10.55000 31.24500 41.97900
C  -9.56500 33.40500 41.16900
C  -8.24700 33.28600 41.87100
O  -7.24700 32.98300 41.30600
O  -8.34500 33.44600 43.25600
C  -7.14100 33.08600 44.11000
H  -9.09400 40.28000 40.19000
H  -14.87000 41.10400 42.80400
H  -15.32000 34.77500 43.69800
H  -7.50300 35.77000 40.43400
H  -8.00600 38.14000 39.09900
H  -7.21500 38.93900 41.80000
H  -6.36900 38.70300 40.33200
H  -6.55100 37.30500 41.46800
H  -9.09300 36.40800 38.00100
H  -9.20500 34.66900 38.61500
H  -7.51000 34.18900 37.42600
H  -6.52300 35.20100 38.43000
H  -10.73700 43.27700 39.49000
H  -9.42400 42.29400 40.07000
H  -10.18600 43.57300 41.11400
H  -14.93800 44.46900 41.85800
H  -14.50200 43.27900 43.19100
H  -15.13100 42.71600 41.56600
H  -16.95500 39.07100 42.63300
H  -16.43500 37.31800 44.85300
H  -15.64000 40.45000 44.78400
H  -17.09200 39.53900 45.44400
H  -17.28900 40.83500 44.22400
H  -17.14400 35.95100 42.30300
H  -18.13000 37.38400 42.50000
H  -19.25900 36.33300 44.49500
H  -17.80100 35.38600 44.74600
H  -18.97000 34.97000 43.48300
H  -14.50500 32.58700 44.35800
H  -12.67500 31.95700 44.44500
H  -13.81600 31.39900 43.26400
H  -9.46800 32.99400 40.16400
H  -6.79400 32.19600 43.58500
H  -7.33500 32.91800 45.16900
H  -6.50200 33.96800 44.09500

