158

Mg -2.16900 17.63300 27.06200
C  -2.39600 15.21700 29.74300
C  -2.72500 20.04400 29.47300
C  -2.46100 19.87400 24.52600
C  -1.99400 14.97800 24.86700
N  -2.76000 17.65500 29.40100
C  -2.63300 16.56600 30.26500
C  -2.71900 16.90200 31.71700
C  -2.73900 18.46900 31.54500
C  -2.79900 18.77800 30.05900
C  -3.82300 19.30800 32.37100
C  -1.59600 16.34600 32.69900
C  -1.18400 17.23800 33.94300
H  -1.01500 16.57200 35.36000
N  -2.38800 19.66300 26.97800
C  -2.54500 20.45700 28.08700
C  -2.49900 21.84500 27.66800
C  -2.39700 21.83600 26.26100
C  -2.44200 20.38100 25.88500
C  -2.40800 23.02900 28.65000
C  -2.36600 23.03500 25.21100
O  -2.22500 22.87400 24.01200
C  -2.06600 24.37600 25.75600
N  -2.22600 17.42400 24.95100
C  -2.26200 18.54300 24.08200
C  -2.12800 18.08600 22.60900
C  -1.74900 16.56200 22.76300
C  -2.00900 16.29400 24.23900
C  -3.44900 18.32900 21.77900
C  -0.30900 16.28500 22.39900
C  0.79000 16.60500 23.40600
N  -2.20900 15.48700 27.18000
C  -2.12200 14.55200 26.16400
C  -2.02900 13.22400 26.72400
C  -2.12200 13.41500 28.10800
C  -2.34400 14.80500 28.34600
C  -1.81800 11.98000 26.00400
C  -2.12000 12.77500 29.34200
O  -1.95100 11.56700 29.61000
C  -2.20400 13.86200 30.45100
C  -0.91800 13.65000 31.16400
O  0.17800 14.02600 30.87000
O  -1.18000 12.98600 32.35800
C  -0.08800 12.71600 33.27400
H  -2.69600 20.82200 30.23900
H  -2.50200 20.54200 23.66300
H  -1.83000 14.12900 24.20000
H  -3.64100 16.50900 32.14500
H  -1.76500 18.82200 31.88300
H  -3.16200 19.99200 32.90300
H  -4.23700 18.63900 33.12500
H  -4.48300 19.79000 31.64800
H  -0.75500 16.15900 32.03100
H  -1.84600 15.35900 33.08900
H  -2.07800 17.86000 33.99700
H  -0.33900 17.89500 33.73700
H  -2.35700 22.64500 29.66800
H  -3.30800 23.64000 28.57300
H  -1.50200 23.56900 28.37400
H  -1.09900 24.47300 26.25000
H  -2.86900 24.68000 26.42700
H  -1.98700 25.02500 24.88300
H  -1.19400 18.50300 22.23300
H  -2.38500 15.99000 22.08800
H  -3.80100 19.31500 22.08200
H  -4.22900 17.57400 21.87400
H  -3.28300 18.41100 20.70500
H  -0.16900 17.00300 21.59100
H  -0.20100 15.29800 21.95000
H  0.41700 16.96400 24.36600
H  1.54400 17.25100 22.95500
H  1.45400 15.77300 23.64000
H  -1.33200 12.30700 25.08500
H  -2.72400 11.41000 25.79800
H  -1.04800 11.46100 26.57600
H  -3.03600 13.60800 31.10700
H  0.72200 12.25900 32.70600
H  -0.56900 12.07400 34.01200
H  0.24000 13.59000 33.83700
Mg -0.30700 42.40300 26.75300
C  2.01000 42.61400 29.43900
C  -2.82400 41.73600 29.14800
C  -2.35200 42.02500 24.29200
C  2.30900 42.84500 24.49200
N  -0.37200 42.34200 29.03500
C  0.68800 42.50500 29.90800
C  0.22200 42.77100 31.34600
C  -1.27100 42.27300 31.22200
C  -1.51600 41.99800 29.70100
C  -1.63400 40.99900 32.03100
C  0.49900 44.20800 31.84700
C  1.28500 44.34600 33.15300
H  1.39000 43.21300 34.06000
N  -2.33600 42.00700 26.73700
C  -3.18500 41.70000 27.80600
C  -4.54500 41.58200 27.30800
C  -4.47900 41.83700 25.91700
C  -3.03700 41.90500 25.56600
C  -5.80000 41.36700 28.18500
C  -5.53400 42.05600 24.81500
O  -5.33500 42.27400 23.59300
C  -6.97400 42.08900 25.25200
N  0.03600 42.14500 24.72800
C  -1.03200 42.06700 23.89200
C  -0.62600 42.30600 22.43200
C  0.81200 42.79800 22.51200
C  1.05900 42.64600 24.00500
C  -0.79000 40.99100 21.70900
C  1.21100 44.18400 21.83600
C  2.50000 44.17100 20.96000
N  1.75100 42.67600 26.88400
C  2.64300 42.84700 25.90300
C  3.97200 42.97800 26.45600
C  3.73500 43.00800 27.88700
C  2.45100 42.68500 28.05900
C  5.21200 43.13500 25.73300
C  4.37300 43.22900 29.15600
O  5.43900 43.65500 29.47100
C  3.31700 42.83600 30.25100
C  3.88600 41.66800 30.98900
O  3.97000 40.52500 30.49400
O  4.36600 42.03400 32.24300
C  5.09600 41.02300 32.98700
H  -3.63600 41.71700 29.87800
H  -2.95600 41.94100 23.38600
H  3.12800 43.02400 23.79200
H  0.61800 41.95800 31.95500
H  -2.01100 43.01900 31.51300
H  -2.71200 41.05500 32.17900
H  -1.14200 40.98100 33.00300
H  -1.29400 40.10700 31.50400
H  -0.51700 44.60100 31.87600
H  1.07300 44.71600 31.07200
H  0.85200 45.09900 33.81200
H  2.27400 44.65500 32.81500
H  -6.53100 40.70500 27.72000
H  -6.25300 42.29200 28.54000
H  -5.45800 40.81500 29.06100
H  -7.17100 42.23800 26.31400
H  -7.45600 41.15600 24.95800
H  -7.54300 42.93100 24.85800
H  -1.36000 43.00100 22.02500
H  1.40600 42.06500 21.96600
H  -0.28900 41.09500 20.74700
H  -1.86200 40.82200 21.61300
H  -0.38100 40.18700 22.32100
H  1.16800 44.92600 22.63400
H  0.37400 44.46900 21.19900
H  2.97500 43.19100 20.91600
H  3.19100 44.88000 21.41600
H  2.33600 44.54300 19.94900
H  5.33700 42.38100 24.95500
H  6.02900 43.14500 26.45400
H  5.24100 44.06400 25.16400
H  3.12000 43.61800 30.98500
H  5.74100 41.43900 33.76200
H  5.89000 40.62800 32.35300
H  4.43100 40.21000 33.27800

