158

Mg 17.33200 -0.42700 27.41700
C  16.12000 1.45000 29.95100
C  19.56500 -1.99100 29.48700
C  18.52800 -2.02200 24.73100
C  15.32800 1.45400 25.21700
N  17.96000 -0.07600 29.48600
C  17.10500 0.64100 30.41900
C  17.50600 0.20900 31.85700
C  18.75700 -0.70600 31.66900
C  18.80900 -0.95100 30.11500
C  20.09800 -0.18100 32.24400
C  16.33100 -0.49800 32.71300
C  16.21800 0.05800 34.11300
H  17.40500 0.65200 34.90200
N  18.71000 -1.89700 27.19200
C  19.63400 -2.37800 28.14200
C  20.51600 -3.32100 27.52800
C  20.23100 -3.42500 26.12900
C  19.11800 -2.40300 25.98600
C  21.43800 -4.11600 28.43100
C  20.76900 -4.38600 25.02300
O  20.24500 -4.41900 23.89900
C  21.84800 -5.28600 25.25600
N  17.03200 -0.31200 25.25500
C  17.56900 -1.09500 24.37700
C  17.01500 -0.98000 22.99500
C  15.86400 -0.05000 23.21700
C  16.04700 0.41600 24.66000
C  18.09800 -0.49600 21.95500
C  14.49000 -0.67000 22.91100
C  14.16200 -0.67000 21.35600
N  16.17900 1.26400 27.44900
C  15.33200 1.87100 26.51400
C  14.55500 2.89300 27.20400
C  14.77900 2.77700 28.52900
C  15.84200 1.80000 28.61600
C  13.59000 3.86400 26.52400
C  14.49900 3.21400 29.78300
O  13.88500 4.20000 30.16400
C  15.19000 2.30700 30.79900
C  15.83800 3.21000 31.70800
O  16.82300 3.85400 31.42400
O  15.10800 3.41200 32.82400
C  15.54600 4.27800 33.90900
H  20.10300 -2.48700 30.29700
H  18.87900 -2.51800 23.82400
H  14.55300 2.03000 24.70800
H  17.72800 1.18800 32.28200
H  18.52000 -1.61200 32.22600
H  20.49200 -0.88300 32.98000
H  20.04600 0.80200 32.71100
H  20.91000 -0.07100 31.52600
H  16.35800 -1.58600 32.64700
H  15.45900 -0.05500 32.23200
H  15.85800 -0.76200 34.73400
H  15.40400 0.78300 34.09500
H  21.77100 -3.50300 29.26800
H  22.33000 -4.49900 27.93500
H  20.87400 -4.96900 28.80900
H  21.50500 -5.87000 26.11000
H  22.69800 -4.65100 25.50700
H  22.19300 -5.93000 24.44700
H  16.58100 -1.92200 22.65900
H  15.99900 0.79800 22.54600
H  17.92000 0.50600 21.56400
H  18.10300 -1.19900 21.12300
H  19.10400 -0.53800 22.37400
H  13.72100 -0.01800 23.32600
H  14.40600 -1.73200 23.14200
H  13.50600 0.11900 20.98900
H  13.68400 -1.64900 21.31200
H  15.08100 -0.75300 20.77500
H  14.13400 4.66100 26.01700
H  12.82500 4.21500 27.21600
H  12.99900 3.17600 25.91900
H  14.41500 1.79700 31.37200
H  16.06800 3.64100 34.62300
H  14.64000 4.71900 34.32400
H  16.30400 5.03400 33.70100
Mg 25.59900 1.64200 29.02200
C  27.74100 1.24000 31.89200
C  22.98500 2.08200 31.10300
C  23.64400 1.69000 26.31700
C  28.33100 0.65400 27.05500
N  25.39900 1.39900 31.22800
C  26.37700 1.54700 32.25300
C  25.78700 1.74200 33.61700
C  24.21100 1.80000 33.35000
C  24.15400 1.81100 31.82300
C  23.32900 0.60300 33.91100
C  26.28200 3.03900 34.25200
C  26.79100 2.87700 35.67100
H  26.31800 3.83500 36.75900
N  23.54200 1.78900 28.76700
C  22.64400 1.99800 29.76500
C  21.34900 2.26200 29.19000
C  21.49900 2.15500 27.70600
C  22.92500 1.84200 27.58100
C  20.18400 2.70700 30.13900
C  20.42200 2.27300 26.62100
O  20.66300 2.15200 25.43800
C  19.03600 2.60000 27.06700
N  25.88400 1.11800 27.02100
C  24.99900 1.34400 26.06100
C  25.64900 1.37300 24.64300
C  27.04400 0.84900 24.99400
C  27.12000 0.84800 26.44100
C  24.66800 0.72400 23.58900
C  28.11000 1.79400 24.30000
C  28.63100 3.05200 25.01400
N  27.68900 1.20100 29.33800
C  28.61300 0.77100 28.40600
C  29.89500 0.60800 29.06200
C  29.61100 0.75900 30.45200
C  28.26800 1.06800 30.56800
C  31.21700 0.43400 28.53900
C  30.09800 0.65300 31.80000
O  31.12800 0.32000 32.30300
C  28.91800 1.03200 32.79400
C  28.77200 -0.10300 33.82400
O  28.13500 -1.12100 33.72300
O  29.47700 0.27500 34.95900
C  29.42400 -0.77700 36.03100
H  22.16700 2.36300 31.76900
H  23.02200 1.95600 25.45900
H  29.16300 0.22900 26.48900
H  25.92100 0.86700 34.25400
H  23.75500 2.65600 33.84800
H  23.89100 -0.11400 34.51000
H  22.85200 0.01900 33.12400
H  22.66800 0.99400 34.68600
H  25.51500 3.81100 34.19600
H  27.18200 3.36300 33.72900
H  27.86900 3.04000 35.69500
H  26.62900 1.84500 35.98000
H  19.37700 3.28300 29.68700
H  20.42800 3.40500 30.94000
H  19.77300 1.89400 30.73700
H  18.84500 1.89400 27.87500
H  18.31300 2.60800 26.25100
H  19.13200 3.65500 27.32200
H  25.59100 2.44200 24.43700
H  27.16600 -0.17100 24.63000
H  24.26300 1.44200 22.87600
H  23.87700 0.24200 24.16300
H  25.21200 -0.03000 23.02000
H  27.61300 2.23700 23.43700
H  28.89700 1.08500 24.04100
H  29.67700 2.96800 25.31100
H  28.03400 3.24800 25.90400
H  28.44300 3.92000 24.38200
H  31.31700 0.55100 27.45900
H  31.61500 -0.50800 28.91600
H  31.82600 1.23300 28.96100
H  29.26900 1.94600 33.27200
H  30.44300 -0.85300 36.41200
H  28.95700 -1.73700 35.80800
H  28.96800 -0.31600 36.90600

