158

Mg 17.76300 -1.93700 28.31700
C  16.61800 0.01100 31.18400
C  19.46000 -3.77400 30.44500
C  19.24800 -3.16200 25.51500
C  16.20900 0.59200 26.36200
N  18.13000 -1.77300 30.64700
C  17.48700 -1.03700 31.53200
C  17.82900 -1.42600 32.91000
C  18.95100 -2.61700 32.69200
C  18.84300 -2.76800 31.14300
C  20.49300 -2.30600 33.04300
C  16.64400 -1.68500 33.88100
C  16.46000 -0.72800 35.15000
H  17.69600 -0.09900 35.74000
N  19.14100 -3.39500 28.02200
C  19.63700 -4.12200 29.06600
C  20.46100 -5.22800 28.51800
C  20.47700 -4.97000 27.05400
C  19.59800 -3.78100 26.73500
C  21.02100 -6.32300 29.35400
C  21.28100 -5.70300 26.01700
O  21.24300 -5.35000 24.79600
C  22.00300 -6.89600 26.42100
N  17.90600 -1.29200 26.22000
C  18.54400 -2.03000 25.27900
C  18.33200 -1.37700 23.91300
C  17.32200 -0.24400 24.20800
C  17.06900 -0.33100 25.67900
C  19.59300 -1.10200 23.09100
C  16.11100 0.01200 23.38900
C  16.20900 1.04200 22.29000
N  16.51400 -0.18500 28.62100
C  15.82800 0.65500 27.75900
C  14.99100 1.63900 28.38700
C  15.31600 1.45000 29.73200
C  16.24600 0.35700 29.82300
C  14.10200 2.67700 27.67000
C  15.03400 1.81100 31.06300
O  14.15200 2.57100 31.41100
C  15.80600 0.99400 32.06000
C  16.63300 1.90100 32.84100
O  17.79400 2.25000 32.64800
O  15.86800 2.46200 33.81900
C  16.37600 3.53200 34.63400
H  19.92300 -4.44300 31.17400
H  19.55700 -3.57900 24.55400
H  15.58700 1.32600 25.84600
H  18.42400 -0.66800 33.41900
H  18.60000 -3.55200 33.12900
H  21.11100 -1.98700 32.20400
H  20.92500 -3.23000 33.42600
H  20.56800 -1.58900 33.86100
H  16.88100 -2.68800 34.23600
H  15.73800 -1.64400 33.27600
H  16.14100 -1.55200 35.78900
H  15.67400 -0.01300 34.90800
H  20.56300 -7.29700 29.18300
H  20.86500 -6.19500 30.42500
H  22.11100 -6.30500 29.38200
H  21.42800 -7.69400 26.89000
H  22.67300 -6.50700 27.18800
H  22.40800 -7.33100 25.50700
H  17.98400 -2.18400 23.26900
H  17.80000 0.73200 24.13300
H  19.55900 -0.07700 22.72100
H  19.67400 -1.69900 22.18300
H  20.47600 -1.33300 23.68700
H  15.26100 0.22500 24.03700
H  15.91400 -0.95800 22.93300
H  17.13900 1.60200 22.18900
H  15.43400 1.77400 22.51300
H  16.01700 0.52000 21.35200
H  13.98600 2.44400 26.61100
H  14.43600 3.70200 27.82900
H  13.15200 2.61300 28.20100
H  15.10600 0.41300 32.66000
H  16.31800 4.52100 34.18000
H  17.43700 3.42100 34.85800
H  15.79200 3.56700 35.55300
Mg 25.91600 50.55100 26.24400
C  24.26100 52.20400 28.64000
C  28.27800 49.50700 28.66800
C  28.13700 49.34800 23.74400
C  24.01600 52.00100 23.76800
N  26.25800 50.90300 28.31000
C  25.32300 51.43300 29.14100
C  25.61600 51.02500 30.61200
C  27.06500 50.53400 30.57500
C  27.23400 50.19600 29.09400
C  28.11400 51.56100 31.02700
C  24.59200 50.09900 31.25700
C  24.43800 50.26400 32.78900
H  25.51100 50.77000 33.72300
N  27.87900 49.49900 26.18400
C  28.58600 49.21800 27.26600
C  29.75800 48.45900 26.83100
C  29.73400 48.42000 25.44800
C  28.55200 49.14600 25.04200
C  30.82000 47.94400 27.78800
C  30.68700 47.61000 24.52200
O  30.62100 47.65400 23.28500
C  31.70900 46.63000 24.99900
N  26.06400 50.55900 24.13900
C  26.93700 49.88500 23.31300
C  26.71100 50.23600 21.79400
C  25.18800 50.74600 21.94500
C  25.05900 51.11500 23.43100
C  27.77700 51.19100 21.27700
C  24.05000 49.81900 21.46300
C  23.31900 48.87900 22.48800
N  24.40900 51.90500 26.16600
C  23.73600 52.51500 25.09000
C  22.73300 53.41700 25.60100
C  22.88300 53.37900 27.03100
C  23.89000 52.42400 27.29500
C  21.77300 54.25800 24.88400
C  22.43800 53.88500 28.26500
O  21.56800 54.72500 28.52800
C  23.21200 53.07300 29.35200
C  23.74900 54.02900 30.27100
O  24.54200 54.89400 29.96300
O  23.32800 53.79100 31.52000
C  24.00900 54.44700 32.59300
H  28.86400 48.93600 29.39100
H  28.78100 48.91700 22.97500
H  23.39900 52.45600 22.99100
H  25.54500 51.93300 31.20900
H  27.29900 49.61700 31.11700
H  28.95400 51.64400 30.33700
H  28.43800 51.44700 32.06200
H  27.70700 52.55600 31.20300
H  25.02100 49.09900 31.20400
H  23.61300 49.99700 30.78800
H  24.05500 49.28100 33.06600
H  23.61600 50.97700 32.84700
H  30.83500 48.67300 28.59800
H  31.78700 48.12800 27.32100
H  30.71900 46.87400 27.97100
H  31.94700 45.84900 24.27800
H  31.20000 46.17600 25.84900
H  32.54000 47.30300 25.21000
H  26.67200 49.43100 21.06100
H  25.11300 51.67500 21.37900
H  28.67000 51.17400 21.90100
H  27.43200 52.17100 20.94600
H  28.21300 50.69300 20.41100
H  24.37600 49.17400 20.64700
H  23.28800 50.45700 21.01500
H  23.77000 48.83700 23.47900
H  23.43400 47.89100 22.04100
H  22.28900 49.17600 22.68800
H  22.22100 54.55400 23.93500
H  21.45900 55.06100 25.55200
H  20.82100 53.77300 24.66900
H  22.36900 52.55300 29.80700
H  23.84900 55.51500 32.44800
H  25.03000 54.08300 32.47500
H  23.60500 54.25600 33.58700

