158

Mg 48.18300 15.89700 28.48400
C  46.17700 15.61900 31.38800
C  50.25000 18.00000 30.21800
C  50.07200 16.06100 25.81000
C  45.83200 14.00900 26.75700
N  48.09500 16.77700 30.55800
C  47.23200 16.36400 31.57100
C  47.75800 16.94700 32.94600
C  48.94300 17.86600 32.47300
C  49.05700 17.57200 30.96000
C  48.74200 19.44500 32.68500
C  48.19900 15.90200 33.92300
C  48.03200 16.33700 35.45200
H  49.10900 15.89200 36.41400
N  49.86800 16.96100 28.16500
C  50.59500 17.77600 28.95600
C  51.82200 18.21300 28.31200
C  51.79700 17.64900 26.96900
C  50.56900 16.80300 26.91600
C  52.89800 19.02100 29.02000
C  52.86100 17.74700 25.86800
O  52.81200 17.09800 24.82800
C  54.09800 18.54900 26.03800
N  47.88400 15.29300 26.53300
C  48.91500 15.37100 25.60500
C  48.58300 14.68200 24.27700
C  47.14500 14.23100 24.53100
C  46.92900 14.51200 25.99900
C  48.57900 15.70400 23.00500
C  46.97600 12.72800 24.14500
C  47.80100 11.64500 24.93800
N  46.38100 15.05700 28.94100
C  45.54500 14.25200 28.11500
C  44.37000 13.97900 28.83300
C  44.57000 14.45200 30.14300
C  45.82500 15.09200 30.16300
C  43.18600 13.19800 28.26700
C  43.95800 14.47300 31.43400
O  42.89600 14.00600 31.85900
C  44.98700 15.16800 32.34300
C  44.43100 16.48400 32.88500
O  44.11800 17.50400 32.23800
O  44.29500 16.38000 34.28100
C  44.08500 17.70200 34.93600
H  50.88200 18.68800 30.78300
H  50.74700 16.17000 24.95900
H  45.08100 13.41000 26.23700
H  46.98300 17.57200 33.39000
H  49.86300 17.56200 32.97100
H  48.58700 20.05700 31.79600
H  49.56900 19.82500 33.28400
H  47.86000 19.73400 33.25600
H  49.25600 15.73000 33.72200
H  47.67100 14.97800 33.68800
H  47.12000 15.80700 35.72400
H  47.86400 17.41000 35.53300
H  52.81600 19.10200 30.10400
H  53.06800 19.98700 28.54500
H  53.76900 18.39400 28.83100
H  53.85000 19.38000 26.69900
H  54.30600 18.86500 25.01600
H  54.99300 18.05800 26.42200
H  49.26000 13.85100 24.08000
H  46.35800 14.85000 24.10100
H  47.58100 15.84500 22.58800
H  49.22300 15.34100 22.20400
H  48.85000 16.72300 23.27900
H  47.42800 12.64500 23.15700
H  45.90200 12.58200 24.03200
H  47.08100 10.87400 25.21200
H  48.34200 12.02800 25.80200
H  48.57700 11.19300 24.32100
H  42.80900 13.40500 27.26500
H  42.36900 13.46700 28.93600
H  43.38000 12.12600 28.30200
H  45.34300 14.42300 33.05500
H  44.50600 18.49600 34.31900
H  44.60800 17.67300 35.89200
H  43.00100 17.81600 34.92600
Mg 29.42600 58.22500 40.46800
C  26.42000 56.58400 39.84100
C  31.08400 55.38400 39.98500
C  32.19900 60.02100 40.68300
C  27.50900 61.17100 41.09400
N  28.79000 56.30200 39.84900
C  27.54500 55.82800 39.54300
C  27.68900 54.45900 38.92400
C  29.06100 53.99300 39.44600
C  29.73000 55.29600 39.84900
C  29.10600 52.95000 40.62500
C  27.41600 54.45200 37.38400
C  26.14800 53.74600 36.85900
H  25.62100 54.11200 35.45200
N  31.44200 57.70900 40.29300
C  31.91100 56.47600 40.10800
C  33.41700 56.53800 40.02900
C  33.73600 57.88400 40.23100
C  32.44500 58.64200 40.40000
C  34.31200 55.35500 39.57600
C  35.19000 58.40000 40.14700
O  36.11700 57.56000 40.01200
C  35.41100 59.80600 40.23500
N  29.83300 60.34300 40.72900
C  31.08100 60.79100 40.84600
C  31.09200 62.33300 41.01600
C  29.58900 62.64600 41.18800
C  28.88300 61.32100 40.97600
C  32.01600 62.83700 42.27200
C  28.92400 63.85800 40.50500
C  28.17900 64.86300 41.33900
N  27.36000 58.79400 40.70600
C  26.75000 60.00100 40.97400
C  25.26700 59.83900 41.05500
C  25.12900 58.52300 40.59800
C  26.37100 57.95500 40.35800
C  24.25600 60.85000 41.44900
C  24.14600 57.52400 40.25300
O  22.93500 57.51200 40.32600
C  24.92700 56.26300 39.72900
C  24.41000 55.14500 40.49500
O  24.56500 54.99300 41.69200
O  23.78400 54.25200 39.69600
C  23.81700 52.84700 40.06900
H  31.57700 54.44800 39.71500
H  33.00400 60.75100 40.79300
H  26.90700 62.06900 41.24700
H  27.03400 53.71800 39.38200
H  29.68600 53.70700 38.60100
H  28.37400 52.14500 40.57400
H  29.13700 53.57600 41.51700
H  30.06600 52.43500 40.57800
H  28.23700 53.87400 36.96200
H  27.38800 55.43500 36.91200
H  25.37400 53.86000 37.61700
H  26.38000 52.68100 36.84100
H  35.09300 55.67000 38.88400
H  33.67000 54.56400 39.18800
H  34.75700 54.85100 40.43400
H  34.75800 60.31300 39.52500
H  36.44800 59.92900 39.92200
H  35.33100 60.06500 41.29100
H  31.48400 62.68000 40.05900
H  29.50200 62.77300 42.26700
H  32.70400 62.00500 42.42800
H  31.44800 63.15500 43.14600
H  32.65300 63.64700 41.91800
H  28.31200 63.35800 39.75400
H  29.66700 64.40900 39.92900
H  28.34400 64.77200 42.41200
H  27.14300 64.57200 41.16300
H  28.40700 65.87600 41.00900
H  24.57300 61.47200 42.28600
H  23.22100 60.51100 41.49700
H  24.36900 61.65100 40.71900
H  24.58200 56.06600 38.71400
H  24.46500 52.70600 40.93400
H  24.15500 52.17400 39.28100
H  22.82100 52.63400 40.45600

