158

Mg 35.30700 3.13500 30.31000
C  32.82200 4.04700 32.68100
C  37.69700 3.28600 32.78200
C  37.75300 2.61500 27.92100
C  32.97700 3.51900 27.77700
N  35.18900 3.52600 32.46800
C  34.09900 3.90200 33.24500
C  34.48400 3.91800 34.74100
C  36.06200 4.00700 34.67300
C  36.36500 3.60700 33.23700
C  36.57400 5.41000 34.98200
C  34.04900 2.61100 35.54000
C  33.73900 2.81600 37.07800
H  34.58100 3.86500 37.91300
N  37.45500 2.88400 30.35500
C  38.21000 2.96100 31.50400
C  39.56500 2.67000 31.16500
C  39.64800 2.47700 29.73700
C  38.25600 2.65600 29.27000
C  40.71100 2.66400 32.15900
C  40.82000 2.05700 28.82100
O  40.69000 1.84200 27.63000
C  42.15600 1.83100 29.36300
N  35.35000 3.13900 28.20200
C  36.48700 2.82800 27.40800
C  36.16000 2.69100 25.93700
C  34.66100 2.84400 25.95100
C  34.24300 3.14100 27.43500
C  36.96400 3.64100 24.99700
C  33.82200 1.71500 25.16500
C  33.98400 1.55800 23.65100
N  33.29900 3.56200 30.20100
C  32.49300 3.76600 29.07200
C  31.08600 4.07500 29.50600
C  31.15200 4.16100 30.95100
C  32.53800 3.94000 31.25900
C  29.91700 4.30500 28.65300
C  30.47400 4.41100 32.14400
O  29.29800 4.75500 32.40100
C  31.48900 4.17800 33.29700
C  31.46000 5.26000 34.22900
O  31.88800 6.36200 34.00300
O  31.00700 4.79100 35.47500
C  31.02800 5.97000 36.39800
H  38.53800 3.25000 33.47800
H  38.48200 2.40500 27.13500
H  32.24900 3.67100 26.97700
H  34.05400 4.83500 35.14300
H  36.61400 3.28000 35.26900
H  35.82400 6.02200 35.48300
H  36.97600 5.94300 34.12100
H  37.35500 5.19700 35.71200
H  34.74000 1.79900 35.31600
H  33.09600 2.26200 35.14200
H  33.95100 1.84500 37.52600
H  32.67500 3.02700 37.19100
H  41.62300 3.02000 31.67800
H  40.75200 1.79200 32.81200
H  40.52100 3.36600 32.97000
H  42.74600 1.35900 28.57800
H  42.25700 1.31800 30.32000
H  42.65000 2.80100 29.41500
H  36.36700 1.65200 25.67800
H  34.39000 3.81000 25.52400
H  37.20600 4.47300 25.65800
H  36.32400 3.98600 24.18500
H  37.87200 3.25500 24.53400
H  32.78500 1.89700 25.44500
H  34.01100 0.71200 25.54800
H  34.49000 0.60200 23.51200
H  34.37600 2.36400 23.03100
H  33.01000 1.35100 23.20600
H  29.68400 5.26800 28.20000
H  29.00900 3.92900 29.12400
H  29.94500 3.67900 27.76100
H  31.23200 3.26000 33.82600
H  30.79300 5.65000 37.41300
H  30.29200 6.71000 36.08300
H  32.05300 6.34000 36.37900
Mg -5.79200 25.26100 26.71800
C  -3.84200 26.60800 29.23500
C  -7.30000 23.15400 29.01800
C  -7.20000 23.59900 24.17200
C  -3.86300 27.20800 24.34600
N  -5.34900 24.73400 28.78600
C  -4.67600 25.56800 29.64700
C  -5.05300 25.25700 31.11900
C  -5.90300 23.95300 30.99200
C  -6.25100 23.93000 29.49000
C  -5.22200 22.62600 31.42900
C  -5.83600 26.39100 31.76600
C  -5.83200 26.55400 33.31600
H  -5.81800 25.32700 34.19500
N  -7.07900 23.63500 26.59800
C  -7.70500 22.95300 27.66600
C  -8.68500 21.97300 27.08800
C  -8.70700 22.23300 25.65600
C  -7.65700 23.21300 25.44300
C  -9.50400 21.06100 27.87800
C  -9.57200 21.50300 24.53100
O  -9.51300 21.81200 23.35600
C  -10.46100 20.36200 24.83600
N  -5.52500 25.43500 24.62300
C  -6.22900 24.62700 23.75500
C  -5.73500 24.76500 22.27800
C  -4.78900 25.93200 22.37600
C  -4.75200 26.25100 23.87000
C  -5.18400 23.48900 21.53800
C  -5.14000 27.22900 21.50700
C  -4.38500 27.29500 20.14100
N  -4.14800 26.73400 26.75000
C  -3.52900 27.46900 25.75300
C  -2.55800 28.34300 26.39100
C  -2.62100 28.05100 27.78900
C  -3.59900 27.07800 27.91200
C  -1.63100 29.37400 25.67600
C  -2.13000 28.24300 29.14500
O  -1.20100 28.96600 29.55300
C  -3.03100 27.44300 30.12000
C  -2.15600 26.60100 30.94800
O  -1.58500 25.54400 30.66600
O  -1.97200 27.18300 32.17000
C  -1.13700 26.42800 33.06100
H  -7.91000 22.52100 29.66600
H  -7.56400 22.94100 23.38000
H  -3.21000 27.74200 23.65200
H  -4.10500 25.16200 31.64900
H  -6.85800 24.06200 31.50800
H  -5.01600 22.08600 30.50500
H  -5.99700 22.06400 31.95100
H  -4.37400 22.77500 32.09700
H  -6.89500 26.24100 31.55500
H  -5.49700 27.26900 31.21500
H  -6.69500 27.18200 33.54000
H  -4.97300 27.18900 33.53500
H  -10.56500 21.03600 27.63100
H  -9.50600 21.19600 28.95900
H  -8.99200 20.09800 27.85100
H  -9.77800 19.63700 25.27900
H  -10.83300 20.00800 23.87500
H  -11.36000 20.61400 25.39800
H  -6.68100 24.99000 21.78600
H  -3.81300 25.53700 22.09600
H  -4.81800 22.86500 22.35400
H  -4.27300 23.70200 20.97800
H  -5.83000 23.09100 20.75600
H  -4.90500 28.14900 22.04100
H  -6.18800 27.28300 21.21000
H  -3.64800 26.50000 20.25800
H  -3.83900 28.23800 20.09500
H  -5.02600 27.08500 19.28500
H  -2.16900 29.83200 24.84600
H  -0.73500 28.85500 25.33500
H  -1.43900 30.23300 26.31800
H  -3.65900 28.13700 30.67800
H  -1.27300 26.92000 34.02400
H  -0.05700 26.53400 32.95200
H  -1.25900 25.34500 33.06500

