158

Mg 47.57400 25.53700 28.28400
C  48.49100 27.87100 30.74900
C  46.78000 23.33200 30.78600
C  46.98600 23.17600 25.91800
C  48.88700 27.80600 25.77600
N  47.75600 25.53600 30.47700
C  48.09000 26.60600 31.30600
C  47.71200 26.45500 32.75300
C  47.41000 24.91300 32.75200
C  47.24700 24.56400 31.26400
C  48.52000 24.05700 33.36800
C  46.38100 27.24400 33.08500
C  46.47600 28.14700 34.34400
H  45.56000 27.71700 35.45700
N  47.08700 23.48800 28.33300
C  46.72600 22.83600 29.51200
C  46.27300 21.49600 29.16100
C  46.24000 21.44300 27.72100
C  46.86000 22.72500 27.24700
C  45.87500 20.50200 30.22500
C  45.67800 20.30900 26.80400
O  45.73100 20.39100 25.61900
C  45.13000 19.04900 27.40300
N  48.06300 25.44400 26.13000
C  47.60500 24.35000 25.40400
C  47.94100 24.51400 23.91000
C  48.43000 26.03300 23.92000
C  48.48200 26.51800 25.36800
C  49.01600 23.57600 23.39200
C  47.47600 26.95900 23.05700
C  48.17600 27.80800 22.02800
N  48.40400 27.38400 28.19100
C  48.96800 28.13000 27.13300
C  49.56300 29.35000 27.65500
C  49.37600 29.25200 29.12700
C  48.64200 28.06100 29.36400
C  50.36200 30.44700 26.86000
C  49.66500 29.99500 30.34000
O  50.24000 31.06400 30.40300
C  49.06100 29.12500 31.49100
C  50.15000 28.78900 32.43600
O  51.13600 28.09500 32.18300
O  49.78200 29.31700 33.67900
C  50.64600 29.04700 34.79000
H  46.33300 22.75900 31.60100
H  46.80600 22.48100 25.09600
H  49.29300 28.55400 25.09300
H  48.60100 26.64100 33.35600
H  46.49200 24.60700 33.25500
H  48.05000 23.16000 33.77100
H  49.10100 24.58200 34.12500
H  49.30300 23.71100 32.69300
H  45.64200 26.45000 33.19000
H  46.06700 27.75900 32.17700
H  46.28200 29.15900 33.99000
H  47.48500 28.21000 34.75200
H  46.38200 19.58000 29.93900
H  44.84400 20.17300 30.09100
H  46.03200 20.75200 31.27400
H  44.39800 19.19700 28.19600
H  46.02800 18.58800 27.81300
H  44.71100 18.46900 26.58000
H  46.97200 24.25200 23.48400
H  49.44000 26.03800 23.51000
H  48.49200 22.85900 22.76100
H  49.36800 23.03200 24.26900
H  49.81700 24.13500 22.90700
H  46.97700 27.62000 23.76600
H  46.69400 26.40700 22.53500
H  49.25800 27.76100 22.15000
H  47.75800 28.81400 22.06400
H  47.92700 27.37800 21.05800
H  49.84900 30.85200 25.98800
H  51.39500 30.17500 26.64500
H  50.37500 31.20700 27.64200
H  48.29600 29.78200 31.90400
H  50.24300 28.14400 35.25000
H  50.54100 29.81700 35.55400
H  51.68400 28.78000 34.59400
Mg 6.28400 53.28700 40.63800
C  6.05900 49.71400 40.42600
C  9.66100 53.05900 40.10300
C  6.18700 56.62500 40.30100
C  2.72100 53.33000 40.93800
N  7.67300 51.48400 40.23700
C  7.38200 50.16600 40.21200
C  8.69400 49.43600 39.96500
C  9.79700 50.47500 40.33200
C  9.01300 51.79600 40.25200
C  10.44100 50.31800 41.70500
C  8.95400 48.77000 38.52500
C  8.35900 49.53500 37.25200
H  7.26800 48.90800 36.19400
N  7.75200 54.62400 40.24200
C  9.01300 54.32800 40.00800
C  9.71400 55.63100 39.84400
C  8.75000 56.67300 39.92600
C  7.46000 55.97800 40.17500
C  11.26800 55.67100 39.54500
C  9.13700 58.16000 39.85300
O  10.33000 58.49500 39.56600
C  8.14900 59.36800 39.85000
N  4.65500 54.73900 40.74300
C  4.92300 56.08300 40.54900
C  3.67400 56.97100 40.62400
C  2.60000 55.88800 40.63700
C  3.34000 54.54800 40.76200
C  3.67100 57.85300 41.87600
C  1.66100 55.85600 39.38700
C  0.15800 55.67600 39.63000
N  4.69300 51.90300 40.80500
C  3.31600 52.06100 40.94800
C  2.64900 50.79300 40.94900
C  3.63200 49.82400 40.82400
C  4.90100 50.51300 40.71200
C  1.10400 50.64400 41.12900
C  3.90900 48.44100 40.75400
O  3.20900 47.49600 40.81100
C  5.45900 48.32500 40.45900
C  5.61000 47.52800 39.15800
O  5.25600 47.83600 38.04300
O  6.06300 46.29000 39.48200
C  5.90400 45.26700 38.45200
H  10.74000 52.98900 39.95500
H  6.29000 57.70500 40.17000
H  1.63000 53.34100 40.96900
H  8.71300 48.65300 40.72300
H  10.59100 50.46900 39.58500
H  9.79400 49.63900 42.26100
H  10.42700 51.27800 42.22200
H  11.50200 50.11000 41.84200
H  8.49100 47.78600 38.60200
H  10.00600 48.67800 38.25300
H  9.14300 49.79500 36.54100
H  8.02300 50.51100 37.60200
H  11.37100 56.37500 38.71900
H  11.78200 54.71800 39.41900
H  11.74300 56.06700 40.44300
H  8.70500 60.24700 39.52400
H  7.69500 59.53500 40.82700
H  7.33400 59.18100 39.15100
H  3.69800 57.52700 39.68600
H  1.94800 56.00500 41.50200
H  3.95400 58.88200 41.65500
H  4.45900 57.45000 42.51200
H  2.70200 57.83600 42.37400
H  2.01800 55.10500 38.68200
H  1.81200 56.83700 38.93700
H  -0.46000 56.45400 39.18200
H  -0.08800 55.72900 40.69000
H  -0.20800 54.69800 39.31800
H  0.83400 49.68700 41.57500
H  0.56100 50.79700 40.19700
H  0.82400 51.31700 41.94000
H  5.90200 47.83900 41.32900
H  6.90900 45.05400 38.09000
H  5.37200 45.51900 37.53500
H  5.54800 44.38300 38.98200

