158

Mg 46.88500 16.29000 29.25200
C  44.69900 15.77400 31.97600
C  49.01700 17.90800 31.39000
C  48.75200 17.04100 26.63700
C  44.42800 15.07000 27.22400
N  46.73900 16.86700 31.39100
C  45.87200 16.44900 32.33900
C  46.31600 16.73400 33.73800
C  47.53100 17.68900 33.47200
C  47.76200 17.55600 31.95900
C  47.47500 19.12100 34.03700
C  46.55300 15.43500 34.60000
C  46.23700 15.50300 36.15000
H  45.93200 16.82500 36.87200
N  48.67200 17.22000 29.08200
C  49.47200 17.71400 30.05400
C  50.79100 18.03700 29.54400
C  50.80600 17.79600 28.21800
C  49.36400 17.35400 27.88000
C  51.92000 18.64500 30.52800
C  51.89700 17.94900 27.14600
O  51.81300 17.68700 25.97000
C  53.23000 18.21200 27.65500
N  46.53300 16.17100 27.26000
C  47.44900 16.57000 26.37900
C  46.95300 16.50100 24.91400
C  45.61200 15.77800 25.02700
C  45.52500 15.58400 26.59100
C  46.83400 17.75400 24.02800
C  45.29900 14.57300 24.05300
C  45.63600 13.04500 24.52800
N  44.91700 15.48200 29.54700
C  44.05700 15.00200 28.59400
C  42.91600 14.48600 29.22500
C  43.16800 14.73400 30.59800
C  44.30300 15.38400 30.72200
C  41.72800 13.88100 28.57400
C  42.60300 14.53300 31.96300
O  41.60900 14.02800 32.39800
C  43.48000 15.36400 32.84900
C  42.76400 16.49800 33.38700
O  42.81400 17.68900 32.94100
O  42.10900 16.12300 34.50900
C  41.67100 17.21700 35.32700
H  49.74100 18.33300 32.08800
H  49.36800 17.19300 25.74900
H  43.68000 14.66200 26.54100
H  45.59400 17.44500 34.14000
H  48.46600 17.29000 33.86600
H  46.42800 19.42400 34.04600
H  48.05700 19.73000 33.34500
H  47.94600 19.21200 35.01600
H  47.62800 15.26600 34.54300
H  46.02600 14.61300 34.11500
H  46.96400 14.91800 36.71400
H  45.34000 14.88900 36.22900
H  51.64200 18.56800 31.58000
H  52.18100 19.64000 30.16700
H  52.79600 18.01000 30.40300
H  53.94800 18.36900 26.85100
H  53.60300 17.43800 28.32600
H  53.25800 19.09900 28.28800
H  47.51700 15.71600 24.41000
H  44.75000 16.40700 24.80700
H  47.37500 18.57400 24.50100
H  45.79800 18.07900 23.93200
H  47.24400 17.71400 23.01900
H  46.04000 14.72100 23.26800
H  44.25200 14.67500 23.76600
H  44.73900 12.44000 24.40100
H  45.94100 12.79300 25.54400
H  46.45600 12.63000 23.94100
H  41.43800 12.84200 28.73000
H  41.79700 14.08600 27.50500
H  40.86100 14.38900 28.99700
H  43.74200 14.65200 33.63100
H  40.70300 17.54900 34.95200
H  42.42800 17.98900 35.46500
H  41.44400 16.83200 36.32100
Mg 9.75000 47.82000 26.51700
C  8.08500 47.61200 29.48300
C  12.45000 48.99200 28.37400
C  11.30100 48.24800 23.54900
C  6.60700 47.45500 24.74800
N  10.20600 48.23400 28.70800
C  9.32400 48.15000 29.71500
C  9.93500 48.67800 31.03400
C  11.09300 49.59400 30.56900
C  11.30100 48.89200 29.12700
C  10.84100 51.22000 30.58900
C  10.35500 47.49200 31.93300
C  9.88600 47.55500 33.38600
H  9.98400 46.19200 34.11800
N  11.68400 48.32100 26.07900
C  12.60800 48.76900 27.00600
C  13.82100 48.74400 26.31700
C  13.51200 48.51200 24.92600
C  12.07600 48.37300 24.76700
C  15.17400 48.97800 27.03200
C  14.47900 48.50600 23.73100
O  14.17900 48.19600 22.60700
C  15.91300 48.66900 23.92400
N  9.01300 47.90100 24.39200
C  9.87400 48.03000 23.40800
C  9.21300 48.06700 22.01000
C  7.68200 47.79400 22.42200
C  7.74400 47.61800 23.97600
C  9.45500 49.30900 21.03700
C  7.01200 46.62100 21.65900
C  6.57300 46.99000 20.20200
N  7.74700 47.46700 26.99600
C  6.64500 47.37300 26.22900
C  5.51900 47.19600 27.09700
C  5.99400 47.27600 28.39400
C  7.38500 47.46400 28.22700
C  4.14800 46.97000 26.58300
C  5.71100 47.17700 29.80500
O  4.69800 46.99300 30.43600
C  7.06000 47.43100 30.50900
C  7.27800 46.18500 31.28300
O  7.73500 45.11700 30.92400
O  6.75900 46.31200 32.51400
C  6.42100 45.07800 33.28200
H  13.32700 49.33700 28.92700
H  11.81800 48.34000 22.59200
H  5.63600 47.30500 24.27200
H  9.18200 49.24600 31.58000
H  11.94400 49.51700 31.24600
H  10.98800 51.40000 29.52400
H  11.76600 51.53600 31.07300
H  9.93300 51.56900 31.08100
H  11.44300 47.46200 31.97800
H  10.18400 46.51300 31.48400
H  8.85500 47.90200 33.32900
H  10.33900 48.40300 33.90000
H  15.27300 48.77400 28.09800
H  15.46500 49.95400 26.64300
H  15.84200 48.18100 26.70300
H  16.43100 48.77800 22.97100
H  16.19600 47.74700 24.43100
H  16.29800 49.49800 24.51900
H  9.52800 47.21600 21.40600
H  7.07500 48.69000 22.29300
H  8.52300 49.72400 20.65400
H  10.02300 49.03300 20.14900
H  10.00800 50.06800 21.59100
H  6.09800 46.37600 22.19900
H  7.65200 45.74400 21.76000
H  6.71700 48.05200 20.00200
H  5.54000 46.75900 19.94100
H  7.13800 46.37500 19.50200
H  4.07000 46.36400 25.68100
H  3.61700 47.91100 26.43800
H  3.48600 46.48600 27.30000
H  6.93800 48.21600 31.25500
H  6.87300 45.13200 34.27200
H  6.65000 44.11100 32.83400
H  5.34500 45.12600 33.44500

