158

Mg -1.66300 16.68400 27.16500
C  -2.00200 14.39900 29.78600
C  -2.70200 19.13800 29.27900
C  -1.81900 18.74100 24.53000
C  -1.44200 14.01300 25.04500
N  -2.08600 16.74700 29.32000
C  -2.00600 15.75800 30.24300
C  -2.06200 16.28700 31.71900
C  -2.40300 17.83800 31.50700
C  -2.43900 17.87200 29.92400
C  -3.71800 18.38000 32.13300
C  -0.77700 15.97600 32.54700
C  -0.44900 17.01300 33.65900
H  0.26700 16.48000 34.96700
N  -2.01800 18.72700 26.95800
C  -2.44500 19.59400 27.96200
C  -2.55200 20.94400 27.41000
C  -2.10000 20.82300 26.05400
C  -1.97000 19.37900 25.77500
C  -2.93500 22.16600 28.31600
C  -1.91100 21.86600 24.92200
O  -1.43100 21.57200 23.83600
C  -2.36700 23.31000 25.07400
N  -1.74800 16.40900 25.05800
C  -1.69400 17.39000 24.17400
C  -1.60400 16.93000 22.72600
C  -1.53900 15.42700 22.86700
C  -1.49100 15.26100 24.41300
C  -2.75500 17.44100 21.73500
C  -0.54500 14.61200 22.04300
C  0.88000 14.65300 22.68300
N  -1.71700 14.60200 27.30300
C  -1.53500 13.63600 26.34900
C  -1.57800 12.35300 26.87600
C  -1.80200 12.59000 28.25200
C  -1.90200 13.94300 28.48700
C  -1.50700 11.03100 26.17900
C  -1.98700 11.96000 29.52100
O  -2.00000 10.76300 29.91200
C  -2.22600 13.12600 30.54600
C  -1.49400 12.89900 31.79100
O  -0.32700 12.57000 31.74300
O  -2.22900 13.02800 32.96800
C  -1.48500 12.67700 34.22400
H  -2.74800 19.91700 30.04200
H  -1.91500 19.38400 23.65400
H  -1.12200 13.13200 24.48400
H  -2.82200 15.79500 32.32600
H  -1.54700 18.41800 31.85300
H  -4.30100 18.85400 31.34400
H  -3.42700 19.17500 32.81900
H  -4.37800 17.65700 32.61200
H  -0.00200 15.89000 31.78400
H  -0.97500 15.10400 33.17000
H  -1.45700 17.35000 33.90200
H  0.04300 17.83500 33.14000
H  -3.97700 22.18500 28.63900
H  -2.64300 23.05200 27.75200
H  -2.31000 22.12600 29.20800
H  -1.74800 23.74200 25.86100
H  -3.35900 23.17900 25.50700
H  -2.37200 23.73900 24.07200
H  -0.68200 17.38600 22.36500
H  -2.57600 15.14300 22.68300
H  -3.51400 16.70300 21.47400
H  -2.29800 17.60600 20.76000
H  -3.21500 18.32600 22.17400
H  -0.58500 15.10500 21.07100
H  -0.87600 13.57800 21.94800
H  1.60800 15.02000 21.95900
H  1.14000 13.62800 22.94800
H  0.96600 15.28600 23.56600
H  -1.84400 11.01900 25.14300
H  -2.07300 10.28200 26.73300
H  -0.44900 10.76800 26.16000
H  -3.27400 13.25700 30.81400
H  -2.26200 12.33900 34.91000
H  -0.97400 13.52100 34.68800
H  -0.85900 11.82200 33.97200
Mg 23.90000 -6.64600 46.06800
C  26.27900 -4.29300 44.85500
C  21.56500 -5.05100 44.11600
C  21.98900 -9.25100 46.62700
C  26.53400 -8.12100 47.81500
N  23.99600 -4.87000 44.58800
C  25.06800 -4.14700 44.24800
C  24.70100 -3.29700 42.99900
C  23.13800 -3.31100 43.03700
C  22.86300 -4.45300 43.99600
C  22.48400 -1.98700 43.49700
C  25.31800 -3.91000 41.69000
C  25.87600 -3.00600 40.58900
H  25.25100 -3.04800 39.19500
N  21.97100 -7.11500 45.43000
C  21.12500 -6.31700 44.68300
C  19.79100 -6.87300 44.67400
C  19.89100 -8.07100 45.45900
C  21.31100 -8.18100 45.87700
C  18.60600 -6.31700 44.12300
C  18.74600 -8.99900 45.68600
O  17.69800 -8.85300 45.08700
C  18.88300 -10.27800 46.58100
N  24.21300 -8.38000 47.14900
C  23.23800 -9.33600 47.30400
C  23.67700 -10.50700 48.12200
C  25.13800 -10.11900 48.57200
C  25.30300 -8.71800 47.89400
C  22.64400 -10.95200 49.27800
C  26.32600 -11.07400 48.17800
C  27.33800 -11.47600 49.26100
N  26.00900 -6.34600 46.34000
C  26.96400 -6.96100 47.10700
C  28.27300 -6.29500 46.99400
C  28.06700 -5.27800 46.02600
C  26.65000 -5.31700 45.75400
C  29.48200 -6.76900 47.65000
C  28.71700 -4.20400 45.33500
O  29.86400 -3.74300 45.28200
C  27.50400 -3.41700 44.60900
C  27.35600 -2.05500 45.22100
O  26.69600 -1.16400 44.78600
O  28.00900 -1.98500 46.40900
C  27.96200 -0.66600 47.01600
H  20.83100 -4.48300 43.54100
H  21.33500 -10.10900 46.79200
H  27.30600 -8.72600 48.29500
H  25.13600 -2.29800 43.02300
H  22.65000 -3.55800 42.09400
H  22.15500 -2.01900 44.53600
H  21.57400 -1.96300 42.89800
H  23.12200 -1.13100 43.27900
H  24.52300 -4.50100 41.23600
H  26.14800 -4.56000 41.96700
H  26.94900 -3.18700 40.52600
H  25.77300 -1.96500 40.89700
H  18.48100 -6.88200 43.19900
H  18.67600 -5.23000 44.08800
H  17.83600 -6.58900 44.84600
H  19.26600 -9.97200 47.55400
H  19.59300 -10.87200 46.00500
H  17.98600 -10.87500 46.74200
H  23.73000 -11.33500 47.41500
H  25.15800 -10.06700 49.66100
H  21.77700 -10.29500 49.35700
H  23.02100 -11.10700 50.28900
H  22.15900 -11.87200 48.95200
H  26.83800 -10.70400 47.29000
H  25.86900 -12.03800 47.95800
H  27.63100 -12.51400 49.10400
H  26.86900 -11.42100 50.24300
H  28.19600 -10.80600 49.20900
H  30.29800 -6.73700 46.92800
H  29.22100 -7.79300 47.91600
H  29.78400 -6.24500 48.55700
H  27.77500 -3.14000 43.59000
H  26.96800 -0.27000 47.22100
H  28.56400 -0.06000 46.33900
H  28.46900 -0.82100 47.96800

