158

Mg -0.04900 7.81500 26.75700
C  0.96900 9.61900 29.49500
C  -0.25100 4.99000 28.75400
C  -0.91400 5.91100 24.10700
C  0.61500 10.42900 24.67000
N  0.29600 7.40900 28.92300
C  0.64100 8.35400 29.80300
C  0.35300 7.83800 31.24800
C  0.38800 6.25400 30.96400
C  0.11400 6.19800 29.41300
C  1.68300 5.43100 31.38000
C  -0.97700 8.41700 31.80800
C  -1.05000 8.26300 33.39000
H  0.08700 7.66200 34.22300
N  -0.59000 5.78600 26.48700
C  -0.68700 4.86000 27.44700
C  -1.33500 3.71800 26.92300
C  -1.66500 3.94300 25.57200
C  -1.03500 5.23600 25.31400
C  -1.69800 2.52100 27.72500
C  -2.43300 3.10300 24.55900
O  -2.58300 3.41700 23.41300
C  -2.96800 1.71800 24.88400
N  -0.00100 8.04900 24.64900
C  -0.36700 7.14700 23.77500
C  -0.16800 7.61000 22.34300
C  -0.09600 9.15800 22.56200
C  0.27900 9.22700 24.04300
C  1.19200 7.00300 21.73800
C  -1.52000 9.96100 22.43100
C  -1.69000 10.81400 21.23900
N  0.81400 9.59500 27.00400
C  0.87000 10.63700 26.01600
C  1.12100 11.89400 26.71700
C  1.32300 11.48300 28.08200
C  1.03800 10.12100 28.17200
C  1.35300 13.24800 26.18800
C  1.59100 12.00400 29.40200
O  1.83300 13.17100 29.73100
C  1.32100 10.79700 30.35300
C  2.51700 10.53300 31.28100
O  3.25800 9.54600 31.34900
O  2.62400 11.57900 32.17300
C  3.77600 11.40300 33.07300
H  -0.27200 4.09000 29.37200
H  -1.17800 5.34500 23.21200
H  0.67400 11.33600 24.06400
H  1.19700 8.03300 31.90900
H  -0.40100 5.77200 31.54100
H  2.23200 5.04700 30.52100
H  1.36800 4.57400 31.97500
H  2.34000 6.17000 31.84000
H  -1.89000 7.98400 31.40100
H  -1.03500 9.49500 31.65400
H  -2.02400 7.86200 33.67300
H  -0.96800 9.28300 33.76600
H  -2.68200 2.70600 28.15500
H  -0.96400 2.28900 28.49700
H  -1.87200 1.63000 27.12200
H  -2.29700 0.86500 24.78700
H  -3.85300 1.47400 24.29600
H  -3.34300 1.78400 25.90500
H  -1.02700 7.34500 21.72600
H  0.60800 9.72000 21.94900
H  1.04600 6.24800 20.96500
H  1.73600 6.50400 22.54000
H  1.73600 7.77500 21.19400
H  -1.84700 10.45500 23.34600
H  -2.35200 9.26100 22.35600
H  -1.08700 10.53200 20.37600
H  -1.45900 11.85100 21.48200
H  -2.69900 10.75600 20.83200
H  0.40700 13.74400 25.97000
H  1.97800 13.34700 25.30100
H  1.68200 13.88800 27.00700
H  0.44600 11.02700 30.96100
H  3.79600 10.44400 33.59100
H  3.76500 12.25400 33.75400
H  4.70400 11.39600 32.50200
Mg 47.15900 16.89900 28.34600
C  45.03700 16.52300 31.12400
C  49.23400 18.64300 30.19800
C  48.64200 17.63000 25.46600
C  44.50700 15.34200 26.36700
N  46.98200 17.66600 30.40600
C  46.14500 17.24300 31.38300
C  46.75700 17.65100 32.83100
C  47.86800 18.61500 32.39000
C  48.09100 18.30600 30.90700
C  47.52300 20.10000 32.69100
C  47.17100 16.40700 33.68000
C  46.68000 16.41000 35.18500
H  46.36800 17.75300 35.78100
N  48.85600 17.89200 27.95000
C  49.64500 18.48300 28.83400
C  50.84300 18.89900 28.18200
C  50.68500 18.57700 26.80600
C  49.35600 18.06600 26.67200
C  51.89500 19.39100 29.02100
C  51.61900 18.76200 25.63300
O  51.29600 18.64400 24.46400
C  52.88900 19.46100 25.92400
N  46.68000 16.52300 26.22700
C  47.51000 16.97600 25.21200
C  46.95300 16.58800 23.80000
C  45.72800 15.73500 24.14800
C  45.63000 15.82200 25.67500
C  46.88400 17.85600 22.81900
C  45.71600 14.26400 23.53700
C  44.79000 14.09400 22.29600
N  45.07600 16.11900 28.61100
C  44.24600 15.51200 27.71900
C  43.01900 15.08800 28.44500
C  43.27500 15.45000 29.83300
C  44.57800 16.04800 29.81400
C  41.75200 14.55400 27.85500
C  42.87700 15.40100 31.24500
O  41.90600 14.91700 31.74400
C  43.93100 16.11900 32.09600
C  43.21900 17.21800 32.84300
O  43.04200 18.35300 32.40800
O  42.68700 16.78900 34.03900
C  41.87100 17.75900 34.75900
H  49.90700 19.18700 30.86400
H  49.17200 17.80900 24.52800
H  43.79800 14.76600 25.76700
H  45.92400 18.25400 33.19200
H  48.75500 18.32900 32.95500
H  48.39300 20.64300 33.05900
H  46.82200 20.19100 33.52000
H  47.18700 20.53800 31.75000
H  48.24200 16.21000 33.64700
H  46.64700 15.57400 33.21300
H  47.42000 15.82300 35.73000
H  45.75000 15.84100 35.19800
H  52.86200 19.40500 28.51900
H  52.10100 18.77600 29.89600
H  51.55500 20.39900 29.26000
H  52.71900 20.33200 26.55600
H  53.15300 19.87700 24.95200
H  53.53700 18.76100 26.45200
H  47.71700 15.88500 23.46800
H  44.81900 16.22800 23.80300
H  45.95000 17.76100 22.26600
H  47.67100 17.92800 22.06900
H  46.92900 18.78400 23.39000
H  45.44300 13.53200 24.29800
H  46.71800 14.07300 23.15500
H  45.33500 13.50800 21.55600
H  44.53000 15.05000 21.84200
H  43.93100 13.45700 22.50700
H  40.96700 14.95300 28.49900
H  41.70900 13.46500 27.85800
H  41.76000 15.02300 26.87100
H  44.31300 15.40800 32.82800
H  41.01200 18.13500 34.20400
H  42.49400 18.57600 35.12300
H  41.37000 17.38800 35.65300

