158

Mg -2.08700 17.96800 26.71500
C  -2.87400 15.82300 29.64200
C  -3.14900 20.69100 28.68000
C  -1.83500 19.90400 24.03800
C  -2.20400 15.06300 24.77200
N  -2.68900 18.16200 28.97300
C  -3.01300 17.18200 29.85000
C  -3.35800 17.88600 31.18900
C  -3.87500 19.29800 30.74400
C  -3.18200 19.40300 29.39500
C  -5.44700 19.34900 30.71700
C  -2.16300 17.97700 32.09900
C  -2.49700 17.59900 33.51600
H  -1.34000 17.38700 34.47300
N  -2.18000 20.07000 26.43400
C  -2.63200 20.98300 27.37400
C  -2.41600 22.30900 26.74800
C  -2.11300 22.16400 25.36300
C  -2.10300 20.67200 25.21600
C  -2.87600 23.61600 27.42600
C  -1.86800 23.18100 24.25300
O  -1.74000 22.83800 23.06700
C  -1.72700 24.54500 24.60800
N  -2.09400 17.48800 24.69100
C  -1.93200 18.48900 23.83400
C  -1.75500 17.94000 22.42700
C  -1.64500 16.42600 22.68900
C  -2.01500 16.26900 24.11700
C  -2.90900 18.29600 21.51600
C  -0.24100 15.76500 22.39900
C  -0.01800 15.52600 20.93800
N  -2.47900 15.84800 27.06900
C  -2.31900 14.79400 26.18700
C  -2.47800 13.56600 26.91500
C  -2.72800 13.93500 28.27200
C  -2.68700 15.31200 28.29600
C  -2.60100 12.15200 26.38600
C  -2.92600 13.39700 29.56200
O  -2.98700 12.23300 29.89300
C  -3.12800 14.61500 30.47600
C  -2.12400 14.45700 31.60500
O  -0.94600 14.82600 31.58600
O  -2.61000 13.73800 32.67100
C  -1.63000 13.39000 33.80900
H  -3.46600 21.49000 29.35300
H  -1.56900 20.45100 23.13100
H  -1.92700 14.20400 24.15700
H  -4.08500 17.25700 31.70200
H  -3.44200 20.00600 31.45100
H  -5.81200 20.09000 31.42700
H  -5.83400 18.35100 30.92600
H  -5.82100 19.59800 29.72400
H  -1.71700 18.97100 32.06700
H  -1.37000 17.34700 31.69600
H  -3.06900 16.68200 33.37600
H  -3.12800 18.30000 34.06300
H  -2.08000 24.34700 27.28600
H  -2.89800 23.59000 28.51500
H  -3.85800 23.77600 26.98000
H  -1.38700 25.13000 23.75400
H  -0.89000 24.53400 25.30600
H  -2.66200 24.83400 25.08800
H  -0.81000 18.34700 22.06800
H  -2.36300 15.85300 22.10200
H  -3.77500 17.65400 21.67500
H  -2.61000 18.21000 20.47100
H  -3.24400 19.32300 21.66400
H  0.00600 14.86200 22.95700
H  0.45000 16.56500 22.66700
H  0.47600 14.55600 20.88300
H  0.61400 16.33500 20.57000
H  -0.96900 15.40700 20.41900
H  -1.63300 11.65100 26.40900
H  -3.01800 12.12800 25.37900
H  -3.28300 11.55500 26.99100
H  -4.17100 14.54700 30.78600
H  -1.79800 14.02800 34.67600
H  -0.60400 13.39500 33.44000
H  -1.90500 12.38800 34.14000
Mg 4.96700 54.84500 40.38900
C  4.47700 51.47200 41.05100
C  7.69200 54.21000 38.55500
C  4.76100 57.99600 39.24100
C  1.67600 55.34800 41.75200
N  5.85400 53.00800 39.70700
C  5.60800 51.73900 40.25100
C  6.58600 50.73100 39.70500
C  7.84100 51.69700 39.36600
C  7.09600 53.03700 39.19000
C  8.93100 51.70000 40.46900
C  6.13700 49.86400 38.49000
C  4.83000 50.20300 37.74100
H  4.94500 49.76500 36.25800
N  6.11700 56.04400 39.08000
C  7.21200 55.56100 38.45600
C  7.82100 56.68800 37.81300
C  7.03700 57.78000 38.00100
C  5.92100 57.34200 38.80100
C  9.16800 56.52700 37.07700
C  7.35400 59.15200 37.40700
O  8.21000 59.35500 36.50000
C  6.69700 60.35900 37.94800
N  3.32500 56.35100 40.36500
C  3.61300 57.56100 39.87500
C  2.49100 58.57500 40.21100
C  1.37600 57.73600 40.74800
C  2.14700 56.40700 40.94600
C  2.90400 59.75600 41.09900
C  0.12600 57.62200 39.74900
C  -1.27600 58.04300 40.40600
N  3.46600 53.73900 41.44400
C  2.26900 54.06500 41.99300
C  1.78000 52.95900 42.81000
C  2.73600 51.94600 42.52100
C  3.64100 52.42700 41.64200
C  0.47000 52.93900 43.74600
C  3.02100 50.52900 42.81900
O  2.59100 49.75400 43.56600
C  4.14900 50.19500 41.76800
C  3.58100 49.13100 40.89200
O  2.62100 49.34100 40.13200
O  4.32200 47.95400 41.03700
C  3.87400 46.72700 40.34400
H  8.70900 54.01800 38.20600
H  4.61000 59.01600 38.88300
H  0.71100 55.51700 42.23300
H  6.72900 50.10200 40.58400
H  8.25600 51.26400 38.45500
H  8.76700 50.86500 41.15000
H  8.93400 52.64800 41.00500
H  9.90300 51.64100 39.97900
H  5.92000 48.91400 38.97800
H  6.94000 49.63600 37.79000
H  4.68000 51.28000 37.80600
H  3.99900 49.61200 38.12800
H  9.80300 57.38700 36.86300
H  9.17300 55.94700 36.15500
H  9.74100 55.94100 37.79600
H  7.29700 61.24100 37.72100
H  6.46100 60.27500 39.00900
H  5.80600 60.40100 37.32200
H  2.20200 59.04200 39.27000
H  0.99500 58.13000 41.69000
H  2.30500 59.92300 41.99400
H  2.61000 60.69100 40.62100
H  3.98000 59.67200 41.25400
H  0.03700 56.61400 39.34200
H  0.20800 58.31100 38.90900
H  -1.15500 58.66700 41.29200
H  -1.74700 57.16500 40.84800
H  -1.90600 58.57500 39.69400
H  0.68800 52.69400 44.78500
H  -0.32100 52.30400 43.34800
H  -0.01800 53.91400 43.75900
H  5.00600 49.69600 42.22200
H  3.87500 45.86800 41.01500
H  4.55500 46.41200 39.55300
H  2.89500 46.77100 39.86600

