158

Mg -1.84200 18.23100 27.02100
C  -2.34200 16.08900 29.66100
C  -2.83900 20.88900 28.82300
C  -1.62600 20.07000 24.17600
C  -1.71200 15.30900 25.01700
N  -2.35400 18.45900 29.01100
C  -2.37900 17.46500 29.97700
C  -2.69400 18.03300 31.36600
C  -3.16300 19.49600 31.07800
C  -2.80100 19.65900 29.56600
C  -4.65000 19.95300 31.49400
C  -1.51400 17.85400 32.34300
C  -1.87800 17.37400 33.74400
H  -0.78400 17.39400 34.81900
N  -2.09000 20.22500 26.56300
C  -2.43000 21.20700 27.44600
C  -2.32000 22.52500 26.79700
C  -1.83300 22.24900 25.46800
C  -1.82500 20.81400 25.38200
C  -2.40900 23.85800 27.48700
C  -1.36400 23.22800 24.37300
O  -1.00000 22.89400 23.29900
C  -1.30900 24.67000 24.73700
N  -1.69400 17.76200 24.95200
C  -1.58900 18.73200 23.97400
C  -1.36300 18.06300 22.53800
C  -1.06600 16.56200 22.95900
C  -1.58500 16.49900 24.37300
C  -2.46300 18.34700 21.44300
C  0.46400 16.03200 22.83400
C  1.59900 16.95700 23.50600
N  -1.97100 16.12200 27.24200
C  -1.84500 15.09500 26.35200
C  -1.80700 13.79700 27.06800
C  -2.04500 14.15300 28.39800
C  -2.15400 15.54300 28.40600
C  -1.58000 12.40900 26.43000
C  -2.17200 13.67300 29.71600
O  -2.17100 12.50400 30.12200
C  -2.33600 14.86100 30.63800
C  -1.24300 14.69200 31.60400
O  -0.15400 15.07500 31.33000
O  -1.66600 14.04000 32.73800
C  -0.46700 13.59500 33.52700
H  -3.03000 21.77300 29.43600
H  -1.48000 20.57800 23.22100
H  -1.51700 14.43200 24.39600
H  -3.49900 17.41100 31.75600
H  -2.58500 20.25200 31.60800
H  -5.11400 19.12700 32.03300
H  -5.22300 20.40400 30.68400
H  -4.56900 20.66100 32.31900
H  -1.01500 18.80300 32.53600
H  -0.74000 17.24400 31.87700
H  -2.19000 16.33100 33.69000
H  -2.77300 17.83600 34.16000
H  -2.58700 23.75500 28.55800
H  -3.19800 24.46000 27.03900
H  -1.54200 24.50900 27.37500
H  -0.55600 24.67700 25.52500
H  -2.33400 24.83800 25.06600
H  -1.09700 25.29800 23.87100
H  -0.47900 18.49200 22.06700
H  -1.67500 15.99600 22.25500
H  -3.30800 17.66200 21.50300
H  -2.09900 18.39800 20.41700
H  -2.83100 19.32300 21.76100
H  0.64700 15.95200 21.76300
H  0.50200 15.15400 23.47900
H  1.19500 17.94400 23.73200
H  2.55200 16.95900 22.97800
H  1.77900 16.55000 24.50100
H  -2.52000 12.04400 26.01700
H  -1.25900 11.62800 27.12000
H  -0.82900 12.52900 25.64900
H  -3.30900 14.71400 31.10600
H  -0.45900 14.14100 34.47000
H  0.51700 13.73100 33.07700
H  -0.61500 12.52900 33.70300
Mg 17.34700 -1.09000 27.76300
C  16.04000 1.01100 30.33300
C  18.96600 -2.81900 30.14800
C  19.05300 -2.61800 25.33000
C  15.99800 1.05100 25.40800
N  17.50400 -0.83400 29.91500
C  16.97900 0.08900 30.78200
C  17.42800 -0.21300 32.27200
C  18.51300 -1.29600 32.07800
C  18.28200 -1.68600 30.62800
C  19.98500 -0.98900 32.40700
C  16.35900 -0.62400 33.20100
C  16.41200 -0.07400 34.66800
H  17.73600 0.50100 35.28800
N  18.61900 -2.72600 27.76200
C  19.05300 -3.31600 28.85100
C  19.72100 -4.51200 28.44000
C  19.85600 -4.53100 26.99600
C  19.21000 -3.24400 26.64700
C  20.26100 -5.41100 29.45300
C  20.53100 -5.45900 25.97700
O  20.56800 -5.24800 24.76400
C  21.25400 -6.76200 26.46000
N  17.45400 -0.86000 25.68500
C  18.25600 -1.58200 24.88400
C  18.07000 -1.24300 23.39000
C  16.83400 -0.19600 23.45300
C  16.72400 -0.05100 24.92800
C  19.32900 -0.69400 22.71200
C  15.52800 -0.50300 22.65700
C  14.48200 -1.57600 23.16500
N  16.21100 0.72700 27.81700
C  15.69500 1.38300 26.78100
C  14.83400 2.45000 27.26400
C  14.87000 2.24800 28.65400
C  15.76700 1.24100 28.93400
C  14.02400 3.41600 26.54700
C  14.41100 2.79400 29.87200
O  13.62900 3.71500 30.13900
C  15.21800 2.02900 31.03400
C  15.97400 3.05700 31.74600
O  16.76500 3.84300 31.18000
O  15.60000 3.11300 33.07900
C  16.36300 3.99300 33.96200
H  19.50500 -3.40500 30.89600
H  19.58800 -3.14400 24.53700
H  15.71000 1.69700 24.57700
H  17.85800 0.70600 32.67000
H  18.22300 -2.10000 32.75500
H  20.54200 -0.82900 31.48400
H  20.48700 -1.88100 32.78100
H  20.14300 -0.21000 33.15200
H  16.21000 -1.69500 33.34100
H  15.40000 -0.22500 32.87000
H  16.10100 -0.95000 35.23700
H  15.61900 0.65100 34.85500
H  21.20300 -5.06100 29.87500
H  20.41100 -6.36000 28.93800
H  19.59700 -5.50300 30.31300
H  20.55900 -7.58000 26.64800
H  21.74300 -6.59600 27.41900
H  21.97700 -7.14000 25.73600
H  17.72300 -2.17800 22.95200
H  17.22200 0.75300 23.08300
H  19.16700 0.30400 22.30500
H  19.68800 -1.30500 21.88400
H  20.11300 -0.70400 23.46900
H  15.69500 -0.89900 21.65500
H  15.13000 0.49200 22.45900
H  13.68300 -0.98200 23.60700
H  14.83800 -2.31100 23.88800
H  14.02900 -2.04500 22.29100
H  13.82000 3.02900 25.54900
H  14.52800 4.37900 26.46800
H  13.06800 3.54400 27.05500
H  14.37400 1.62000 31.59000
H  17.30000 4.38800 33.56800
H  16.57400 3.66300 34.97900
H  15.78400 4.89700 34.14700

