158

Mg 30.04400 59.85200 40.05800
C  27.14000 58.25800 39.17300
C  31.84400 56.93500 39.79500
C  32.81600 61.73200 40.32500
C  28.17800 62.79600 40.61900
N  29.53500 57.80700 39.50900
C  28.28600 57.39200 39.07800
C  28.42600 55.95500 38.52400
C  29.76900 55.48200 39.13200
C  30.45800 56.81700 39.58700
C  29.74300 54.52100 40.44700
C  28.35900 56.06100 36.87900
C  27.25300 55.29900 36.19600
H  26.58300 55.99400 35.03800
N  32.08600 59.37800 39.98600
C  32.60700 58.09200 39.98400
C  34.03400 58.19600 40.02600
C  34.39200 59.56600 40.29200
C  33.08000 60.30300 40.22300
C  34.93000 57.04700 39.71200
C  35.79000 60.09500 40.47700
O  36.75400 59.32400 40.60800
C  36.09500 61.51200 40.57500
N  30.46300 62.04600 40.16300
C  31.71200 62.53700 40.31600
C  31.69600 64.05400 40.66900
C  30.21000 64.37000 40.95400
C  29.53700 62.98200 40.53100
C  32.68700 64.60400 41.68500
C  29.72700 65.64300 40.17000
C  28.84300 66.58200 40.97600
N  28.09700 60.44300 39.98700
C  27.47600 61.63100 40.28200
C  26.06000 61.41200 40.22400
C  25.88100 60.08300 39.75600
C  27.15500 59.57500 39.65800
C  24.97400 62.40600 40.50600
C  24.89700 59.10300 39.21600
O  23.69200 59.03800 39.11500
C  25.73100 57.77300 38.82600
C  25.10700 56.62200 39.59700
O  25.34300 56.28500 40.74800
O  24.29000 55.99600 38.71600
C  23.37900 54.99400 39.30600
H  32.26700 55.93400 39.69000
H  33.75100 62.26500 40.51000
H  27.69400 63.72700 40.92200
H  27.53700 55.37200 38.76600
H  30.42700 55.06400 38.37100
H  30.57800 53.98200 40.89400
H  28.97300 53.75500 40.36100
H  29.37300 55.08400 41.30400
H  29.29600 55.66100 36.49300
H  28.25600 57.10700 36.59000
H  26.43200 55.18600 36.90400
H  27.51300 54.28700 35.88400
H  34.41500 56.12600 39.43900
H  35.56100 56.75500 40.55100
H  35.63500 57.31100 38.92300
H  37.14200 61.63300 40.85500
H  35.56900 62.03500 41.37300
H  35.93900 61.99300 39.60900
H  32.02700 64.59100 39.78100
H  29.97100 64.48800 42.01000
H  32.14000 65.12800 42.46900
H  33.38100 65.29700 41.20900
H  33.14800 63.74400 42.17100
H  29.26300 65.28300 39.25200
H  30.59700 66.14200 39.74300
H  28.58800 66.27600 41.99100
H  27.86100 66.66600 40.51100
H  29.26700 67.57900 40.85200
H  25.21500 62.82700 41.48200
H  23.99400 61.92900 40.51500
H  24.94600 63.12500 39.68800
H  25.62400 57.51200 37.77300
H  22.71000 55.36800 40.08100
H  23.95000 54.22200 39.82100
H  22.87700 54.64800 38.40200
Mg -1.73300 33.38200 26.95200
C  -3.21900 31.66700 29.61800
C  -0.15800 35.58900 29.00900
C  -0.90600 35.33800 24.29400
C  -3.46100 31.18100 24.67300
N  -1.82900 33.70600 29.06300
C  -2.45100 32.89100 29.98900
C  -2.04200 33.33000 31.41300
C  -1.12100 34.56100 31.17700
C  -1.03700 34.60500 29.61600
C  -1.67400 35.91400 31.83300
C  -1.41400 32.20300 32.29500
C  -0.45200 32.60100 33.41000
H  -0.62300 32.06100 34.84200
N  -0.66900 35.18300 26.69000
C  -0.07900 35.94400 27.61000
C  0.74100 37.00000 27.00400
C  0.54000 36.90600 25.60300
C  -0.42200 35.81500 25.45200
C  1.71700 37.80200 27.90700
C  1.08500 37.80800 24.55900
O  0.82100 37.67800 23.36300
C  2.06500 38.88100 24.86800
N  -2.28700 33.41300 24.72100
C  -1.77500 34.32500 23.90300
C  -1.94400 33.86600 22.43500
C  -2.54600 32.37400 22.60700
C  -2.79500 32.30600 24.07400
C  -2.87100 34.71300 21.61800
C  -1.55500 31.20900 22.09600
C  -0.11400 31.11500 22.64400
N  -3.04500 31.75200 27.10000
C  -3.61800 30.98300 26.09600
C  -4.40200 29.91100 26.77700
C  -4.27000 30.15800 28.14100
C  -3.45500 31.27300 28.28500
C  -5.36200 28.94800 26.13800
C  -4.76900 29.73700 29.47800
O  -5.47700 28.77200 29.77400
C  -4.00900 30.70200 30.45200
C  -4.98900 31.45200 31.34000
O  -5.36900 32.61100 31.20700
O  -5.27600 30.59400 32.41200
C  -5.78800 31.30700 33.65300
H  0.46200 36.17100 29.69400
H  -0.50700 35.89300 23.44200
H  -3.97000 30.44600 24.04500
H  -2.99600 33.64500 31.83700
H  -0.07200 34.47000 31.45800
H  -2.52000 35.63100 32.45900
H  -2.07600 36.58600 31.07600
H  -0.87700 36.44300 32.35400
H  -1.02300 31.40400 31.66500
H  -2.29000 31.83000 32.82500
H  -0.14700 33.64700 33.42200
H  0.45400 32.11100 33.05400
H  2.73100 37.40600 27.86000
H  1.25700 37.85500 28.89400
H  1.75100 38.86600 27.67100
H  1.60100 39.73000 25.37100
H  2.46400 39.27100 23.93200
H  2.92200 38.57900 25.47000
H  -0.99900 33.78200 21.89800
H  -3.46000 32.29500 22.01900
H  -2.86000 35.69400 22.09300
H  -3.92200 34.42700 21.58500
H  -2.59100 34.93700 20.58900
H  -1.49700 31.35900 21.01800
H  -2.03500 30.23900 22.23200
H  -0.07200 31.84000 23.45600
H  0.73500 31.36900 22.00800
H  -0.04100 30.12200 23.08700
H  -5.05300 28.77900 25.10600
H  -6.39700 29.29000 26.17100
H  -5.35400 27.96400 26.60600
H  -3.50900 29.96900 31.08600
H  -4.96900 31.76700 34.20500
H  -6.09300 30.54100 34.36500
H  -6.61700 31.99200 33.47300

