158

Mg 17.02300 -1.84300 28.18000
C  15.90500 -0.20700 30.96100
C  19.47000 -3.43600 30.09800
C  18.11300 -3.39600 25.40200
C  14.93600 0.16200 26.23100
N  17.63100 -1.80800 30.36200
C  16.91300 -1.09100 31.25400
C  17.40000 -1.41700 32.64900
C  18.72700 -2.32100 32.32700
C  18.67100 -2.53000 30.81400
C  20.00500 -1.84600 32.97000
C  16.29800 -2.11500 33.49100
C  15.91200 -1.44800 34.80100
H  17.07800 -0.72200 35.55200
N  18.50000 -3.33600 27.81100
C  19.34100 -3.84300 28.73100
C  20.12800 -4.84300 28.11600
C  19.85000 -4.84900 26.73600
C  18.74700 -3.84700 26.59700
C  21.05700 -5.67900 28.95100
C  20.48000 -5.55300 25.59500
O  20.00100 -5.42400 24.48600
C  21.53100 -6.63400 25.76900
N  16.62900 -1.65800 26.10200
C  17.26000 -2.37200 25.12100
C  16.85400 -1.88300 23.73800
C  15.61700 -0.95000 24.08000
C  15.78700 -0.73200 25.56500
C  18.03200 -1.19800 23.04400
C  14.27500 -1.61600 23.68900
C  13.98600 -1.37400 22.20000
N  15.57500 -0.34500 28.48600
C  14.80700 0.41400 27.62700
C  13.97700 1.36000 28.39300
C  14.39200 1.16500 29.68000
C  15.37300 0.14200 29.66000
C  13.10100 2.37600 27.85400
C  14.23500 1.59200 31.04500
O  13.56700 2.47700 31.51300
C  15.25500 0.73300 31.90700
C  16.21500 1.73700 32.46900
O  17.19300 2.14200 31.88000
O  15.71600 2.21300 33.63800
C  16.52500 3.28300 34.21800
H  20.21200 -3.88800 30.76000
H  18.38900 -3.83600 24.44100
H  14.23900 0.82400 25.71200
H  17.64000 -0.45600 33.10500
H  18.59500 -3.33400 32.70800
H  19.81900 -0.97600 33.60000
H  20.66600 -1.56000 32.15200
H  20.40000 -2.67500 33.55700
H  16.75800 -3.07300 33.73300
H  15.38200 -2.31200 32.93200
H  15.66600 -2.39600 35.27800
H  14.97400 -0.90400 34.90800
H  20.68000 -6.03600 29.91000
H  21.82500 -4.97600 29.27400
H  21.52500 -6.46700 28.36200
H  22.43100 -6.27700 26.27000
H  21.81800 -7.05300 24.80400
H  21.02700 -7.44000 26.30200
H  16.53000 -2.78200 23.21400
H  15.68100 0.02700 23.60200
H  18.92400 -1.45200 23.61700
H  17.78000 -0.15200 22.87100
H  18.10700 -1.64400 22.05300
H  13.46400 -1.21700 24.29800
H  14.26300 -2.69400 23.85000
H  13.77400 -2.38000 21.83900
H  14.69500 -0.85000 21.55900
H  13.05900 -0.80000 22.20700
H  13.55400 2.71700 26.92300
H  13.23200 3.18200 28.57500
H  12.09400 2.02700 27.62300
H  14.61800 0.29900 32.67800
H  17.57800 3.02300 34.11200
H  16.40100 3.29200 35.30100
H  16.24900 4.25600 33.81100
Mg 5.90000 56.18400 41.13100
C  3.97400 53.26800 40.77400
C  8.38200 54.67100 39.40400
C  7.17700 59.27100 40.48000
C  3.00200 57.82100 42.39100
N  6.13200 54.26900 40.00700
C  5.23700 53.22500 40.09800
C  5.78200 51.90400 39.48200
C  7.29300 52.33600 39.34200
C  7.32300 53.81300 39.66400
C  8.37200 51.49800 40.00400
C  5.15400 51.65500 38.14200
C  4.80600 50.12900 37.95500
H  5.17400 49.55000 36.57600
N  7.63700 56.86500 40.27900
C  8.59700 56.08700 39.58200
C  9.67700 56.89900 39.20000
C  9.38900 58.19000 39.67000
C  8.00200 58.16900 40.20300
C  10.98500 56.42000 38.60700
C  10.34600 59.39300 39.48300
O  11.41500 59.29900 38.86100
C  9.96800 60.76400 40.07800
N  5.16400 58.27600 41.32400
C  5.93700 59.31600 40.94400
C  5.13800 60.65100 41.23200
C  3.92200 60.18800 41.96000
C  3.96400 58.67600 41.80500
C  5.94100 61.76200 41.96300
C  2.62900 60.91800 41.53400
C  2.29200 62.19200 42.35900
N  4.05800 55.69900 41.76100
C  3.01600 56.43800 42.29900
C  1.93700 55.51100 42.76200
C  2.31100 54.27200 42.23100
C  3.49200 54.48500 41.52700
C  0.54200 55.89600 43.30600
C  1.91100 52.86600 42.12100
O  1.03600 52.14800 42.60800
C  3.00600 52.22700 41.14600
C  2.10500 51.96800 39.98000
O  1.47500 52.77100 39.29500
O  2.09700 50.63000 39.75100
C  0.96400 50.04300 39.05400
H  9.28000 54.24800 38.94800
H  7.66800 60.18000 40.12600
H  2.06600 58.26500 42.73400
H  5.51800 51.14500 40.21900
H  7.46600 52.50700 38.27900
H  9.10200 51.86900 40.72500
H  8.87800 51.04300 39.15300
H  7.91000 50.73700 40.63300
H  5.85800 51.88100 37.34100
H  4.27500 52.29600 38.06600
H  3.71600 50.15500 37.96500
H  5.25900 49.60700 38.79800
H  11.00700 56.94000 37.65000
H  10.96600 55.38600 38.26200
H  11.80200 56.67500 39.28200
H  10.74900 61.51300 40.20400
H  9.53600 60.48700 41.04000
H  9.28000 61.29300 39.41900
H  4.85000 60.89500 40.21000
H  3.93300 60.36700 43.03500
H  5.88100 62.57000 41.23400
H  6.96600 61.39400 41.91000
H  5.74700 61.97300 43.01500
H  1.80400 60.20600 41.56700
H  2.58200 61.16700 40.47400
H  2.04000 63.04800 41.73200
H  3.09300 62.45400 43.05000
H  1.38000 62.09100 42.94700
H  -0.13800 56.33600 42.57700
H  0.68900 56.58200 44.14000
H  0.05200 54.98300 43.64400
H  3.49800 51.35900 41.58600
H  0.22900 50.77300 38.71400
H  0.54900 49.21300 39.62700
H  1.33300 49.67800 38.09600

