158

Mg 41.64800 40.51300 26.74800
C  41.04700 42.84300 29.15500
C  42.44700 38.21400 29.13100
C  42.25900 38.33800 24.19800
C  40.67400 42.85700 24.31200
N  41.97600 40.60600 28.90300
C  41.53100 41.63100 29.70900
C  41.51000 41.27100 31.20400
C  41.95300 39.72600 31.12700
C  42.15100 39.48900 29.62900
C  43.20800 39.40200 32.00500
C  40.14700 41.41900 31.89600
C  39.83200 40.66500 33.20600
H  39.28100 41.42800 34.43700
N  42.38200 38.61600 26.70200
C  42.68200 37.80900 27.78800
C  43.17800 36.49100 27.33000
C  43.12600 36.47200 25.90300
C  42.55700 37.87100 25.53100
C  43.55500 35.43500 28.29500
C  43.51800 35.29000 24.98300
O  43.20100 35.22300 23.79900
C  44.24500 34.15800 25.57900
N  41.65200 40.64000 24.53100
C  41.74900 39.57400 23.79400
C  41.58000 39.88600 22.28500
C  40.83000 41.27200 22.31800
C  41.09000 41.63500 23.81700
C  42.90900 39.83600 21.40800
C  39.43800 41.33800 21.83100
C  38.32300 40.71100 22.69600
N  41.04300 42.43300 26.65000
C  40.67700 43.31800 25.59400
C  40.36600 44.61800 26.15800
C  40.50300 44.45600 27.51600
C  40.87500 43.13100 27.79300
C  39.99700 45.88800 25.41000
C  40.39100 45.15600 28.76100
O  40.04600 46.30700 29.01800
C  40.59000 44.09100 29.89900
C  41.58100 44.52000 30.93600
O  42.76400 44.66200 30.64500
O  41.02500 44.72300 32.21500
C  42.00600 45.17400 33.30200
H  42.72400 37.47400 29.88500
H  42.41800 37.49600 23.52200
H  40.21600 43.52000 23.57500
H  42.14600 41.83800 31.88300
H  41.08800 39.12000 31.39300
H  42.89400 39.06500 32.99300
H  43.83900 40.28500 32.10300
H  43.83900 38.59900 31.62600
H  39.38700 41.35100 31.11800
H  40.22300 42.47300 32.16500
H  40.61000 39.96300 33.50900
H  39.08800 39.89100 33.01600
H  42.77800 34.67100 28.30500
H  43.58000 35.81300 29.31800
H  44.47200 34.93400 27.98500
H  43.74900 33.59500 26.37100
H  45.17500 34.52900 26.01000
H  44.51300 33.30000 24.96200
H  40.94900 39.11700 21.84000
H  41.38700 41.93600 21.65700
H  42.98000 38.92500 20.81500
H  43.81000 39.96900 22.00600
H  42.93700 40.68600 20.72500
H  39.40000 40.73700 20.92200
H  39.25500 42.40600 21.71300
H  38.61700 40.29100 23.65800
H  37.67800 40.08400 22.08100
H  37.61200 41.51200 22.89700
H  39.62900 45.68000 24.40500
H  40.85300 46.56200 25.39300
H  39.25800 46.44000 25.99000
H  39.64300 43.95900 30.42100
H  41.63600 46.01500 33.88900
H  42.99200 45.50500 32.97400
H  42.14500 44.36200 34.01500
Mg -11.25800 17.37100 41.47800
C  -7.92400 16.51100 41.90800
C  -10.29900 20.62800 40.98400
C  -14.48000 18.13600 40.68900
C  -12.07300 13.84800 41.42200
N  -9.32000 18.33800 41.31200
C  -8.06600 17.82200 41.57800
C  -7.02700 18.86800 41.27200
C  -7.81300 20.24100 41.47400
C  -9.22500 19.71200 41.19700
C  -7.75400 20.98400 42.85100
C  -6.37000 18.72700 39.84100
C  -4.84800 18.42800 39.70800
H  -4.51500 17.09000 38.96600
N  -12.30400 19.13900 40.93400
C  -11.67900 20.33900 40.81400
C  -12.64400 21.24800 40.42900
C  -13.92400 20.60000 40.43800
C  -13.66700 19.22800 40.74100
C  -12.32600 22.71000 40.16500
C  -15.26400 21.22600 40.05300
O  -15.39100 22.42800 39.68900
C  -16.61900 20.44600 40.11600
N  -12.94300 16.18500 41.04400
C  -14.18200 16.76600 40.78800
C  -15.21100 15.62500 40.54900
C  -14.36400 14.31900 40.56500
C  -13.07400 14.79900 41.10500
C  -16.29400 15.46900 41.64600
C  -14.08900 13.66900 39.12800
C  -14.58000 12.15400 38.94800
N  -10.28500 15.48000 41.78100
C  -10.70800 14.14800 41.73700
C  -9.59200 13.31500 42.01100
C  -8.43100 14.15100 42.13200
C  -8.93900 15.47400 41.92800
C  -9.65500 11.84600 42.24700
C  -6.97700 14.24700 42.39700
O  -6.21000 13.29500 42.70400
C  -6.58800 15.74900 42.25600
C  -5.99400 16.13400 43.58500
O  -6.63600 16.06900 44.65400
O  -4.61100 16.17600 43.57400
C  -3.85100 16.09600 44.76800
H  -10.02700 21.68500 40.98200
H  -15.48300 18.33500 40.30600
H  -12.36100 12.79500 41.39500
H  -6.25200 18.74500 42.02800
H  -7.28400 20.96200 40.85000
H  -7.11800 20.53700 43.61500
H  -8.73900 21.04800 43.31500
H  -7.45800 22.03100 42.78200
H  -6.52100 19.65500 39.28900
H  -6.88200 17.89900 39.35200
H  -4.41900 18.44600 40.71000
H  -4.32800 19.25200 39.22000
H  -11.77300 22.88000 39.24100
H  -11.72600 23.17800 40.94500
H  -13.26600 23.26000 40.11100
H  -17.33900 21.26200 40.18500
H  -16.62000 19.89800 41.05800
H  -17.04300 19.88700 39.28100
H  -15.66100 15.85100 39.58200
H  -14.73400 13.53400 41.22500
H  -16.94700 16.33700 41.73100
H  -15.90600 15.24800 42.64000
H  -16.86400 14.59000 41.34400
H  -13.03600 13.73500 38.85400
H  -14.75500 14.11800 38.39200
H  -14.95700 11.84000 37.97500
H  -15.30800 11.89000 39.71500
H  -13.69900 11.53300 39.11700
H  -8.96800 11.62200 43.06300
H  -9.25200 11.28000 41.40600
H  -10.66800 11.50500 42.45800
H  -5.70800 15.84500 41.61800
H  -2.81100 16.05900 44.44300
H  -4.09900 15.25900 45.42100
H  -4.01200 16.91900 45.46400

