158

Mg 47.95900 34.91300 27.41200
C  46.51900 33.23500 30.19100
C  48.39600 37.60100 29.30900
C  49.00900 36.51800 24.71700
C  47.21400 32.07000 25.51700
N  47.35600 35.41200 29.49100
C  47.01200 34.51200 30.47500
C  47.21400 35.19500 31.84100
C  47.40700 36.71100 31.44400
C  47.76300 36.58100 29.96400
C  46.14300 37.55000 31.75800
C  48.49500 34.54300 32.44300
C  48.52300 34.47100 33.91500
H  47.66000 35.34100 34.90400
N  48.66900 36.80100 27.05400
C  48.76900 37.76800 27.99400
C  49.30100 38.93000 27.44800
C  49.59000 38.68400 26.08400
C  49.08300 37.28700 25.91800
C  49.49000 40.16200 28.22000
C  50.20000 39.53500 25.00600
O  50.32400 39.20600 23.78500
C  50.65900 40.90700 25.36700
N  48.05700 34.35200 25.34400
C  48.56100 35.22000 24.46100
C  48.65400 34.55000 23.07000
C  48.05500 33.17600 23.34100
C  47.82800 33.11900 24.85600
C  48.10300 35.28400 21.86100
C  48.86600 31.96700 22.76800
C  48.21600 30.89900 21.91100
N  47.04300 33.14700 27.70200
C  46.74800 32.08800 26.83000
C  46.14300 30.95800 27.50400
C  46.00600 31.45500 28.81200
C  46.57000 32.71100 28.86600
C  45.73600 29.61700 27.00600
C  45.41600 31.04100 30.11100
O  44.88700 30.03500 30.44800
C  45.80800 32.21400 31.08800
C  46.53400 31.65100 32.24100
O  47.69900 31.34800 32.24300
O  45.67800 31.50700 33.31100
C  46.11800 31.02200 34.59500
H  48.57000 38.49100 29.91600
H  49.57400 37.02900 23.93400
H  47.10700 31.18000 24.89400
H  46.35200 34.99900 32.47800
H  48.26300 37.16600 31.94300
H  46.36100 38.22400 32.58700
H  45.21000 37.04300 32.00600
H  45.97000 38.17600 30.88300
H  49.39400 35.09600 32.16900
H  48.75100 33.53900 32.10600
H  49.54900 34.69700 34.20400
H  48.37200 33.41500 34.13900
H  50.23600 39.93900 28.98400
H  48.54300 40.45000 28.67600
H  49.83500 41.05300 27.69600
H  51.41200 40.97300 26.15300
H  49.73400 41.40800 25.65400
H  51.14500 41.33200 24.48900
H  49.68800 34.35900 22.78300
H  47.05800 33.05300 22.92000
H  48.87600 35.44500 21.11000
H  47.59300 36.19800 22.16400
H  47.42500 34.59600 21.35700
H  49.10600 31.56000 23.75100
H  49.74400 32.36000 22.25400
H  48.01300 29.96400 22.43300
H  48.78700 30.77600 20.99100
H  47.21100 31.22000 21.63600
H  46.10100 29.44500 25.99400
H  44.67000 29.48900 27.19500
H  46.11500 28.82300 27.65000
H  44.90700 32.65500 31.51400
H  45.41700 30.27100 34.96000
H  46.18500 31.77200 35.38200
H  47.12400 30.61300 34.50300
Mg -5.11500 25.51400 25.25400
C  -3.43600 27.20000 27.82800
C  -6.49100 23.42700 27.45700
C  -6.28300 23.65400 22.70400
C  -2.77900 27.06800 23.08600
N  -4.79300 25.25100 27.41400
C  -4.26200 26.15900 28.31600
C  -4.74400 25.85000 29.71100
C  -5.44200 24.48900 29.58300
C  -5.63000 24.39800 28.02100
C  -4.71400 23.23200 30.10500
C  -5.66600 26.97200 30.43400
C  -5.09700 27.34200 31.79000
H  -4.74200 26.08500 32.65700
N  -6.26800 23.78400 25.07300
C  -6.81800 23.12000 26.12500
C  -7.76000 22.12900 25.65300
C  -7.68000 22.10200 24.26200
C  -6.78000 23.26500 23.95900
C  -8.56500 21.34700 26.71000
C  -8.42000 21.19200 23.24900
O  -8.21100 21.25200 22.07500
C  -9.45000 20.10900 23.68000
N  -4.60300 25.35600 23.29100
C  -5.25800 24.56500 22.37800
C  -4.68100 24.69200 20.96800
C  -3.58700 25.77000 21.06300
C  -3.60500 26.01200 22.57300
C  -4.09800 23.32000 20.36300
C  -3.82700 27.05200 20.21600
C  -3.58400 27.03500 18.72900
N  -3.57100 27.00400 25.35000
C  -2.74800 27.60300 24.40600
C  -1.91700 28.63300 24.98100
C  -2.11400 28.46700 26.37500
C  -3.11800 27.49500 26.49800
C  -1.01400 29.53200 24.28700
C  -1.73200 28.91400 27.68400
O  -0.84100 29.72000 27.98400
C  -2.54500 28.08700 28.71700
C  -1.48000 27.39200 29.48300
O  -0.71900 26.51700 29.03800
O  -1.49500 27.81900 30.77500
C  -0.71200 27.17300 31.79700
H  -7.02000 23.00900 28.31600
H  -6.85000 23.20100 21.88800
H  -2.10600 27.63800 22.44300
H  -3.85200 25.61300 30.29100
H  -6.45300 24.39000 29.97700
H  -3.87600 23.35900 30.79000
H  -4.33700 22.70600 29.22800
H  -5.52700 22.65700 30.54800
H  -6.71300 26.70500 30.58100
H  -5.69500 27.86900 29.81600
H  -5.83900 27.99400 32.25200
H  -4.26800 28.02100 31.58700
H  -9.48600 21.91600 26.83300
H  -8.10400 21.37600 27.69700
H  -8.75900 20.33000 26.36800
H  -9.97100 19.94000 22.73700
H  -10.08800 20.52000 24.46300
H  -8.97700 19.21100 24.07700
H  -5.49400 25.03200 20.32700
H  -2.59100 25.39300 20.83200
H  -4.46800 23.27100 19.33900
H  -4.52000 22.47400 20.90600
H  -3.01100 23.35300 20.30000
H  -3.28100 27.91700 20.59300
H  -4.84800 27.33900 20.46900
H  -2.85000 27.78700 18.44100
H  -4.52300 27.30200 18.24400
H  -3.20300 26.07200 18.38900
H  -1.06200 30.57600 24.59600
H  -1.25200 29.40700 23.23000
H  -0.01100 29.19000 24.53900
H  -3.02100 28.83900 29.34600
H  -1.43100 27.27000 32.61000
H  0.24500 27.66900 31.96200
H  -0.64700 26.12100 31.51800

