158

Mg 16.92400 -1.68000 28.61900
C  15.69200 0.63800 30.95200
C  18.92100 -3.03600 31.08900
C  18.53100 -3.42800 26.17700
C  15.44700 0.30500 26.10800
N  17.38800 -1.00800 30.75200
C  16.59200 -0.20000 31.53200
C  16.97200 -0.26600 33.01700
C  18.07600 -1.43100 32.96000
C  18.16500 -1.87600 31.49700
C  19.51700 -1.11600 33.39400
C  15.74700 -0.55400 33.95600
C  15.98700 -0.99500 35.45200
H  17.17000 -0.60200 36.26400
N  18.43300 -3.19800 28.62000
C  19.11700 -3.58900 29.76900
C  20.08600 -4.59300 29.37900
C  19.98600 -4.70700 27.90600
C  18.92000 -3.77000 27.51700
C  20.96400 -5.34300 30.35900
C  20.68100 -5.60700 26.99400
O  20.61500 -5.56800 25.77800
C  21.67600 -6.62600 27.54800
N  16.96000 -1.52100 26.45900
C  17.75700 -2.33000 25.73200
C  17.58600 -2.04000 24.16300
C  16.41000 -1.10500 24.16600
C  16.21700 -0.74800 25.67900
C  18.85800 -1.49600 23.44600
C  15.11900 -1.73000 23.49900
C  14.12800 -0.73100 22.88400
N  15.61700 0.01700 28.49600
C  15.11200 0.65200 27.44500
C  14.24800 1.72300 27.89600
C  14.34800 1.63100 29.27400
C  15.33400 0.69400 29.57100
C  13.38500 2.74600 27.10600
C  13.97800 2.29400 30.52100
O  13.26600 3.27600 30.73400
C  14.69700 1.51200 31.67800
C  15.39100 2.49800 32.46300
O  16.49000 2.98600 32.15400
O  14.70600 2.81800 33.64300
C  15.46600 3.70100 34.56500
H  19.24800 -3.68400 31.90500
H  18.83800 -3.99700 25.29700
H  14.90200 0.96200 25.42700
H  17.47300 0.66600 33.27800
H  17.78300 -2.35200 33.46200
H  19.59500 -0.91500 34.46300
H  20.04500 -0.29300 32.91200
H  20.10200 -2.01500 33.20100
H  15.20700 -1.39300 33.51600
H  15.10400 0.30700 34.13800
H  16.11100 -2.07200 35.33800
H  15.11100 -0.97900 36.10000
H  21.98200 -4.99200 30.18900
H  21.03000 -6.41200 30.15800
H  20.76900 -5.19100 31.42100
H  22.29900 -7.16100 26.83100
H  21.02700 -7.38500 27.98400
H  22.32500 -6.08000 28.23300
H  17.29700 -3.03100 23.81200
H  16.55100 -0.20900 23.56100
H  18.90300 -0.40900 23.50800
H  18.73300 -1.77400 22.40000
H  19.73500 -2.02400 23.82000
H  14.72500 -2.17100 24.41500
H  15.25700 -2.49000 22.73000
H  14.08000 -0.94100 21.81600
H  14.36700 0.32900 22.97200
H  13.12200 -0.88800 23.27100
H  14.04600 3.05900 26.29800
H  13.18800 3.57900 27.78100
H  12.45900 2.28000 26.76900
H  13.96600 0.88700 32.19200
H  16.53600 3.82900 34.39900
H  15.36900 3.30200 35.57400
H  14.95300 4.66200 34.59900
Mg 27.24000 50.91200 25.75200
C  25.25600 52.06700 28.40000
C  29.24700 49.59900 28.06200
C  29.25500 49.77400 23.15700
C  25.07300 52.36900 23.49400
N  27.27400 51.00100 27.96600
C  26.35200 51.44600 28.83100
C  26.66000 51.10900 30.27800
C  28.14900 50.54100 30.15500
C  28.19900 50.38700 28.62000
C  29.29500 51.44300 30.80800
C  25.68900 50.07600 30.92200
C  25.05100 50.56500 32.24000
H  26.04100 50.92900 33.38500
N  29.07500 49.86600 25.63400
C  29.75900 49.49300 26.75100
C  30.90200 48.75700 26.27700
C  30.88000 48.71300 24.87500
C  29.75800 49.48400 24.47000
C  32.01100 48.11100 27.17300
C  31.71800 48.00900 23.85600
O  31.72200 48.14400 22.61100
C  32.66000 47.02600 24.40600
N  27.29100 51.19400 23.66500
C  28.10700 50.51400 22.81300
C  27.50500 50.52000 21.36400
C  26.05800 51.18800 21.50000
C  26.15300 51.68000 22.98700
C  28.53400 51.11900 20.37400
C  24.79800 50.37300 21.08600
C  24.69400 48.89500 21.65400
N  25.53300 52.04300 25.88500
C  24.77400 52.53700 24.85000
C  23.66400 53.20600 25.48700
C  23.83400 53.06000 26.81600
C  24.96200 52.30000 27.02700
C  22.57200 53.92600 24.71800
C  23.30900 53.42200 28.04500
O  22.29500 54.05700 28.29600
C  24.06400 52.68900 29.17000
C  24.54900 53.80200 30.01700
O  25.44900 54.55100 29.69100
O  23.82400 53.83000 31.15500
C  24.32000 54.61600 32.21600
H  29.83800 49.04000 28.79100
H  29.53500 49.27900 22.22600
H  24.25400 52.76700 22.89200
H  26.72500 52.11300 30.69600
H  28.31500 49.56200 30.60400
H  30.00000 50.76800 31.29200
H  28.90000 52.18100 31.50700
H  29.90200 51.94200 30.05300
H  26.14500 49.11000 31.13500
H  24.89300 49.93200 30.19100
H  24.56100 49.65000 32.57300
H  24.47500 51.48900 32.18500
H  32.09900 48.58600 28.15000
H  32.97400 48.37500 26.73500
H  32.02500 47.02100 27.19200
H  33.52600 47.53700 24.82600
H  32.99800 46.34000 23.62800
H  32.07700 46.45000 25.12400
H  27.33000 49.48200 21.08200
H  25.87500 52.07000 20.88700
H  29.39200 51.35200 21.00400
H  28.13500 51.98400 19.84500
H  28.74000 50.40700 19.57500
H  24.65000 50.21400 20.01800
H  23.91600 50.92300 21.41300
H  25.63500 48.58100 22.10500
H  24.47900 48.13900 20.89800
H  23.96000 48.75800 22.44700
H  22.91000 54.28200 23.74500
H  22.28900 54.82900 25.25800
H  21.71700 53.25600 24.62700
H  23.50900 51.92500 29.71500
H  24.59400 55.65300 32.02000
H  25.18100 54.14900 32.69300
H  23.59000 54.77500 33.00900

