158

Mg 1.66300 -1.76900 44.87900
C  4.88700 -0.97100 44.12200
C  0.51900 0.83600 42.90500
C  -1.44600 -3.09400 44.92000
C  2.95300 -4.79900 46.48100
N  2.62500 -0.43000 43.48500
C  3.93000 -0.10800 43.56000
C  4.23700 1.22200 42.81200
C  2.85300 1.90400 42.78300
C  1.92800 0.69400 43.06200
C  2.61900 3.03700 43.70200
C  4.80200 0.95200 41.38700
C  5.94600 1.83800 40.85200
H  5.65700 2.72800 39.63500
N  -0.19300 -1.12600 44.15800
C  -0.47800 0.00000 43.41500
C  -1.88300 0.09100 43.23700
C  -2.52600 -0.98000 43.91000
C  -1.39800 -1.79800 44.36100
C  -2.52500 1.33200 42.58000
C  -4.06800 -1.22200 44.14300
O  -4.87000 -0.47200 43.67800
C  -4.66100 -2.26000 45.17900
N  0.87600 -3.69900 45.52500
C  -0.46400 -3.95500 45.47400
C  -0.78700 -5.30600 46.05200
C  0.55000 -5.69600 46.69700
C  1.53600 -4.69700 46.20800
C  -2.05300 -5.32400 46.98900
C  0.92700 -7.14400 46.22700
C  1.48600 -7.95300 47.37000
N  3.60200 -2.72300 45.30300
C  3.95300 -3.88000 45.96600
C  5.41200 -3.99600 46.02900
C  5.88700 -2.80200 45.31900
C  4.71100 -2.15700 44.84000
C  6.14200 -5.16000 46.69200
C  7.03700 -2.03100 44.87400
O  8.26100 -2.20200 44.91200
C  6.39600 -0.74000 44.11200
C  6.78400 0.33200 45.06700
O  6.19200 0.73800 46.05600
O  7.70900 1.03600 44.38900
C  8.17200 2.35900 44.96900
H  0.24400 1.75000 42.37500
H  -2.45600 -3.50100 44.82800
H  3.17800 -5.70300 47.05000
H  4.99200 1.80600 43.33700
H  2.53000 2.12400 41.76600
H  3.49100 3.68000 43.82200
H  2.12800 2.67200 44.60400
H  1.83700 3.68900 43.31300
H  3.95600 0.91000 40.70100
H  5.18300 -0.06900 41.40400
H  6.77700 1.18300 40.58900
H  6.22300 2.44000 41.71800
H  -2.90200 1.24500 41.56100
H  -1.86600 2.19200 42.45800
H  -3.38900 1.63800 43.16900
H  -5.06300 -3.12200 44.64600
H  -5.54800 -1.80700 45.62100
H  -3.99900 -2.49000 46.01400
H  -1.06700 -6.03900 45.29600
H  0.36300 -5.49100 47.75100
H  -2.82900 -5.84300 46.42600
H  -2.42500 -4.35300 47.31400
H  -1.78500 -6.01900 47.78500
H  1.76100 -6.95400 45.55100
H  0.08600 -7.67400 45.78100
H  0.86300 -8.83000 47.54100
H  1.57400 -7.35200 48.27600
H  2.46600 -8.33300 47.07900
H  5.48600 -5.64400 47.41500
H  7.09700 -4.83900 47.10900
H  6.32900 -5.94000 45.95500
H  6.83800 -0.59300 43.12700
H  8.94500 2.81900 44.35400
H  8.73000 2.13500 45.87800
H  7.33600 3.04300 45.11900
Mg 27.10800 50.81700 26.61700
C  25.09300 51.76700 29.34700
C  29.46700 49.90300 28.83000
C  29.10600 50.13500 23.99400
C  24.75000 52.19700 24.52300
N  27.25900 50.78800 28.85500
C  26.27400 51.16900 29.77200
C  26.76500 50.92400 31.27200
C  28.30600 50.60400 31.09700
C  28.36800 50.40100 29.52100
C  29.15000 51.77500 31.72700
C  26.01000 49.74300 31.92400
C  25.27100 50.09000 33.27300
H  26.16300 50.46300 34.44500
N  28.99100 50.15600 26.45100
C  29.79500 49.73100 27.48300
C  31.08900 49.14000 26.96200
C  30.99600 49.31600 25.56300
C  29.67700 49.86400 25.30400
C  32.14400 48.60000 27.86700
C  32.06800 48.96400 24.53400
O  31.86600 49.09300 23.33000
C  33.44900 48.52400 24.98000
N  27.14000 51.38000 24.56000
C  27.93600 50.76500 23.66900
C  27.47600 50.96700 22.22900
C  26.01100 51.53000 22.38700
C  25.94600 51.69700 23.94100
C  28.42000 51.96900 21.45500
C  24.83100 50.80800 21.79400
C  23.82000 51.57400 20.85300
N  25.22400 51.81900 26.82600
C  24.38800 52.30900 25.90700
C  23.30900 52.97500 26.52300
C  23.46500 52.75900 27.91000
C  24.69100 52.03100 28.04300
C  22.31900 53.71000 25.73800
C  22.88400 52.92000 29.21900
O  21.85500 53.35000 29.58700
C  23.95900 52.28800 30.21900
C  24.41500 53.42200 31.07300
O  25.24300 54.26900 30.79900
O  23.70300 53.51100 32.22200
C  23.87200 54.74800 33.05600
H  30.22300 49.54700 29.53300
H  29.72100 49.98600 23.10400
H  24.18800 52.75900 23.77400
H  26.61700 51.88900 31.75600
H  28.37300 49.62300 31.56600
H  28.71200 52.67100 32.16600
H  29.91500 52.15100 31.04800
H  29.65900 51.20000 32.50100
H  26.53900 48.85000 32.25700
H  25.28600 49.42100 31.17600
H  24.60200 49.24300 33.42600
H  24.49500 50.82000 33.04000
H  33.06500 49.15900 27.70400
H  32.30900 47.57100 27.54900
H  31.86700 48.69800 28.91700
H  34.24400 48.49900 24.23500
H  33.33300 47.47600 25.25700
H  33.81600 49.16900 25.77800
H  27.48400 49.98600 21.75400
H  26.03800 52.55700 22.02300
H  29.13700 52.43200 22.13300
H  27.92400 52.77900 20.91900
H  28.91700 51.35200 20.70700
H  24.17500 50.62200 22.64400
H  25.16800 49.91400 21.27000
H  24.21600 52.56500 20.63100
H  22.89500 51.77700 21.39200
H  23.64500 51.03700 19.92100
H  22.70200 54.57200 25.19200
H  21.57100 54.05800 26.45000
H  21.82800 52.99100 25.08300
H  23.44700 51.49200 30.76000
H  24.64700 54.37200 33.72400
H  22.99800 54.87600 33.69500
H  24.12900 55.67000 32.53500

