158

Mg -1.12000 17.58300 27.26200
C  -1.64000 15.17500 29.74200
C  -1.59000 20.03100 29.48800
C  -0.55900 19.87100 24.71400
C  -0.50900 14.95000 24.90900
N  -1.57900 17.60600 29.35400
C  -1.79200 16.48400 30.23500
C  -2.02100 16.98000 31.71800
C  -2.05700 18.51600 31.49700
C  -1.83700 18.75700 30.00200
C  -3.31400 19.26400 32.18600
C  -0.86700 16.50000 32.65700
C  -0.55400 17.33700 33.92200
H  -0.12600 16.45100 35.12800
N  -1.19400 19.65400 27.07300
C  -1.43200 20.50300 28.13300
C  -1.38800 21.91200 27.67300
C  -0.99500 21.80600 26.27400
C  -0.97100 20.37700 25.94700
C  -1.73700 23.08300 28.53500
C  -0.88600 22.92200 25.25900
O  -0.66900 22.81700 24.03200
C  -1.24600 24.29500 25.85100
N  -0.71700 17.43800 25.12400
C  -0.57600 18.54000 24.26500
C  -0.37400 18.03600 22.82400
C  -0.14000 16.53400 23.01300
C  -0.43100 16.28200 24.46800
C  -1.62800 18.46900 21.89400
C  1.26700 16.04100 22.58100
C  2.46300 16.20700 23.50100
N  -1.17500 15.50900 27.25400
C  -0.83600 14.55400 26.29300
C  -1.11500 13.21400 26.76600
C  -1.37800 13.36600 28.13000
C  -1.38000 14.78700 28.36200
C  -0.96800 11.92000 26.01200
C  -1.65600 12.74600 29.40900
O  -1.69500 11.55900 29.68000
C  -1.88000 13.89100 30.47000
C  -0.94600 13.42400 31.57400
O  0.26600 13.47100 31.51200
O  -1.67000 12.69700 32.50000
C  -0.82000 12.17900 33.56300
H  -1.86500 20.82200 30.18900
H  -0.47200 20.45000 23.79200
H  -0.18400 14.18400 24.20200
H  -2.96500 16.57700 32.08500
H  -1.15200 18.98600 31.88200
H  -2.98300 19.97100 32.94700
H  -3.87800 18.48800 32.70400
H  -3.99100 19.78400 31.50800
H  -0.03100 16.26700 31.99700
H  -1.25300 15.57300 33.08100
H  -1.46100 17.91300 34.10500
H  0.20900 18.08800 33.71700
H  -2.55000 23.60300 28.02900
H  -0.86400 23.71500 28.70000
H  -2.09700 22.83500 29.53300
H  -2.31500 24.34300 26.05400
H  -1.09900 25.05800 25.08600
H  -0.53600 24.45900 26.66200
H  0.50100 18.52800 22.39900
H  -0.92000 15.96000 22.51300
H  -1.81200 19.52500 22.09400
H  -2.45900 17.94800 22.36800
H  -1.50900 18.29100 20.82500
H  1.57600 16.52200 21.65300
H  1.29500 14.96300 22.42600
H  3.38500 16.39500 22.95100
H  2.54900 15.43500 24.26600
H  2.43400 17.15600 24.03700
H  -0.31600 12.11100 25.15900
H  -1.98400 11.68200 25.69800
H  -0.72400 11.06600 26.64400
H  -2.90200 13.90200 30.84900
H  -0.37800 11.21100 33.32300
H  -1.35500 12.14600 34.51200
H  0.01500 12.84600 33.77800
Mg 0.54900 43.88000 25.93200
C  2.10100 43.68600 29.03900
C  -2.49300 42.86400 27.51100
C  -0.85600 43.20500 22.91300
C  3.65700 44.39400 24.49400
N  -0.08900 43.35100 27.96000
C  0.70100 43.43000 29.04600
C  -0.05000 43.23000 30.37000
C  -1.48800 42.75900 29.84900
C  -1.37000 43.02700 28.37100
C  -1.70900 41.22200 30.06800
C  -0.12700 44.53800 31.24600
C  0.54200 44.51100 32.59600
H  0.29800 43.30100 33.48900
N  -1.44500 43.40700 25.32600
C  -2.52900 43.06600 26.11700
C  -3.68500 42.82800 25.22400
C  -3.18200 42.87300 23.91400
C  -1.70600 43.09000 24.00300
C  -5.13800 42.57500 25.72000
C  -3.92600 42.77400 22.50700
O  -3.36700 42.72900 21.44400
C  -5.50800 42.62000 22.52100
N  1.27500 43.82900 23.99500
C  0.50500 43.64500 22.81300
C  1.24000 43.93100 21.49600
C  2.51600 44.65600 22.12000
C  2.50600 44.25800 23.62200
C  1.46100 42.66800 20.63300
C  2.71900 46.17500 21.79500
C  4.16700 46.57200 21.83200
N  2.58400 43.95200 26.58100
C  3.73000 44.14700 25.88700
C  4.80800 44.28100 26.79500
C  4.25100 44.08100 28.03900
C  2.87300 43.87200 27.86400
C  6.33500 44.44700 26.57800
C  4.50300 43.87700 29.47500
O  5.56000 43.81300 30.11000
C  3.14400 43.76600 30.17600
C  3.23600 42.47900 30.80700
O  3.13300 41.43400 30.16900
O  3.58900 42.57800 32.12000
C  4.14900 41.35000 32.71000
H  -3.43100 42.54900 27.97200
H  -1.24100 43.02700 21.90700
H  4.59200 44.85900 24.17600
H  0.49000 42.48900 30.95800
H  -2.36300 43.29800 30.21400
H  -0.70600 40.81000 29.95800
H  -2.33800 40.77200 29.30000
H  -2.03300 41.00000 31.08500
H  -1.17900 44.61400 31.52300
H  0.14200 45.43100 30.68200
H  0.28800 45.41400 33.15100
H  1.62200 44.56100 32.46100
H  -5.74000 43.44600 25.46000
H  -5.22900 42.41500 26.79500
H  -5.42700 41.60500 25.31600
H  -5.89200 42.45500 21.51400
H  -5.96100 43.52800 22.92000
H  -5.70200 41.79600 23.20800
H  0.73900 44.57900 20.77700
H  3.34500 44.23900 21.54800
H  1.59600 41.80000 21.27800
H  2.43500 42.64200 20.14500
H  0.66400 42.52800 19.90200
H  2.25300 46.74800 22.59700
H  2.33200 46.29700 20.78400
H  4.49700 47.47500 22.34500
H  4.48200 46.85200 20.82700
H  4.90400 45.84700 22.17900
H  6.82100 43.89400 27.38100
H  6.65800 45.48800 26.58500
H  6.67600 44.16600 25.58200
H  3.03700 44.52900 30.94700
H  3.38200 40.94400 33.37000
H  5.01300 41.48200 33.36100
H  4.37800 40.55800 31.99700

