158

Mg -2.34800 16.60300 25.91700
C  -2.90400 14.60600 28.81800
C  -3.34900 19.38100 27.84500
C  -2.53300 18.50300 23.14700
C  -2.08400 13.77400 24.04900
N  -3.01800 16.92500 28.12800
C  -3.16400 15.97900 29.09200
C  -3.60000 16.62600 30.41200
C  -4.11800 18.04500 29.92000
C  -3.48900 18.13600 28.49100
C  -5.64600 18.10900 29.90600
C  -2.43700 16.74400 31.45400
C  -2.89800 17.17800 32.82600
H  -2.77300 16.00400 33.86700
N  -2.67100 18.64800 25.56300
C  -2.79100 19.66200 26.53600
C  -2.56000 20.93000 25.93400
C  -2.41400 20.69700 24.49800
C  -2.57000 19.22500 24.30400
C  -2.52800 22.24300 26.80000
C  -2.08400 21.66600 23.38500
O  -2.08400 21.44000 22.21400
C  -1.96100 23.10100 23.77700
N  -2.50200 16.17300 23.91300
C  -2.48800 17.12500 22.90000
C  -2.35500 16.50200 21.47800
C  -1.90800 14.98800 21.84500
C  -2.19900 14.93700 23.36100
C  -3.64300 16.65700 20.60400
C  -0.51300 14.55700 21.56000
C  0.57000 15.12200 22.45300
N  -2.38900 14.61600 26.34300
C  -2.24000 13.51200 25.43000
C  -2.35400 12.33900 26.06500
C  -2.54000 12.67000 27.43200
C  -2.55800 14.08600 27.51600
C  -2.14500 10.99400 25.45200
C  -2.69700 12.07500 28.74200
O  -2.53100 10.93200 29.14800
C  -3.05300 13.35800 29.68200
C  -2.11400 13.38600 30.82900
O  -0.96400 13.83700 30.87100
O  -2.61000 12.56900 31.83000
C  -1.91900 12.21400 33.08400
H  -3.74700 20.23200 28.40100
H  -2.34300 18.99500 22.19000
H  -1.98400 12.87400 23.44000
H  -4.38200 16.01600 30.86600
H  -3.69700 18.90300 30.44500
H  -5.90100 18.44800 28.90200
H  -6.04200 18.81800 30.63300
H  -6.12500 17.14100 30.05400
H  -1.71300 17.46000 31.06700
H  -1.96700 15.76200 31.50700
H  -3.94300 17.48200 32.77000
H  -2.31700 18.04900 33.13100
H  -2.59500 22.09700 27.87800
H  -3.43400 22.75700 26.47700
H  -1.66200 22.82200 26.47800
H  -1.90400 23.70300 22.87000
H  -0.99800 23.20700 24.27800
H  -2.75400 23.50600 24.40500
H  -1.55600 16.93300 20.87600
H  -2.61700 14.30700 21.37500
H  -4.27700 15.78500 20.76200
H  -3.39600 16.73800 19.54600
H  -4.14100 17.61500 20.75600
H  -0.41000 14.84600 20.51400
H  -0.54800 13.49500 21.31700
H  0.15600 15.63500 23.32100
H  1.12600 15.85600 21.87000
H  1.21500 14.32600 22.82700
H  -2.06600 10.21800 26.21300
H  -1.21700 10.96200 24.88100
H  -2.94700 10.72500 24.76400
H  -4.03000 13.37200 30.16300
H  -1.13500 12.97000 33.11000
H  -1.41900 11.24800 33.01100
H  -2.67800 12.36800 33.85200
Mg 41.47300 41.44000 26.90500
C  41.11500 43.68800 29.47500
C  41.95700 39.06300 29.31200
C  41.98700 39.18900 24.51400
C  41.33800 43.91700 24.49700
N  41.47800 41.36200 29.16100
C  41.24800 42.44500 30.01300
C  41.07700 42.05600 31.48800
C  41.52000 40.55500 31.45800
C  41.65400 40.26000 29.91000
C  42.88000 40.25000 32.19000
C  39.64900 42.32300 32.00200
C  39.50800 41.86600 33.48400
H  38.93100 42.93100 34.44800
N  41.87300 39.45500 26.87400
C  42.08000 38.60600 27.96700
C  42.60900 37.33600 27.54300
C  42.69100 37.37400 26.13000
C  42.22200 38.70000 25.78200
C  42.70100 36.21700 28.43800
C  43.08600 36.19800 25.19000
O  43.02300 36.20800 23.94600
C  43.53900 34.86500 25.80100
N  41.67800 41.60100 24.83500
C  41.89800 40.49700 24.04800
C  41.90500 40.85500 22.52500
C  41.67500 42.38400 22.53600
C  41.56300 42.70600 24.03000
C  43.23000 40.49900 21.86300
C  40.47700 42.84600 21.77200
C  39.07800 42.86800 22.39700
N  41.33200 43.37800 26.93700
C  41.22000 44.25800 25.90900
C  40.97900 45.55900 26.50200
C  40.98200 45.41500 27.87600
C  41.18600 44.06800 28.11100
C  40.71200 46.89000 25.78000
C  40.78500 46.10100 29.11800
O  40.60800 47.30400 29.26400
C  40.78600 45.00600 30.21900
C  41.77800 45.36100 31.25700
O  42.91200 45.66900 30.99500
O  41.22700 45.42900 32.52800
C  42.17700 45.77900 33.61200
H  42.16300 38.46900 30.20400
H  42.12900 38.51900 23.66300
H  40.99200 44.74100 23.87000
H  41.75800 42.68800 32.05900
H  40.74700 40.00500 31.99600
H  42.61000 39.57100 32.99900
H  43.34300 41.17400 32.53500
H  43.62300 39.83400 31.51000
H  38.96200 41.74900 31.38000
H  39.36700 43.36800 31.87600
H  40.40600 41.46200 33.95000
H  38.75600 41.07800 33.53000
H  43.68000 35.75800 28.57300
H  41.96300 35.46700 28.15100
H  42.35700 36.61200 29.39400
H  44.38400 35.01700 26.47300
H  43.75600 34.34200 24.87000
H  42.81700 34.26800 26.35800
H  41.01100 40.40500 22.09300
H  42.47500 43.01100 22.14400
H  43.50100 41.30500 21.18100
H  43.21300 39.57700 21.28100
H  43.93100 40.38000 22.68900
H  40.45300 42.11800 20.96100
H  40.68500 43.76900 21.22900
H  38.79100 43.10200 23.42200
H  38.56500 41.97600 22.03800
H  38.70600 43.74400 21.86400
H  40.99300 46.86800 24.72700
H  41.45400 47.54800 26.23100
H  39.71700 47.29600 25.96300
H  39.77500 44.81100 30.57600
H  41.71300 45.72500 34.59700
H  42.46300 46.82800 33.55000
H  43.04400 45.12700 33.72100

