158

Mg 44.98600 4.55300 48.28100
C  42.85600 7.21100 47.45900
C  42.49400 2.40300 47.86000
C  47.29000 2.14800 48.45500
C  47.70100 6.95900 48.24800
N  42.89600 4.80100 47.73900
C  42.20800 5.89000 47.42400
C  40.69300 5.58000 47.14500
C  40.51900 4.06000 47.38700
C  42.05800 3.72300 47.71400
C  39.54000 3.75600 48.49500
C  40.21000 6.08600 45.75700
C  38.99300 6.93700 45.68500
H  38.23300 6.80700 44.33400
N  44.93700 2.46600 48.34500
C  43.75600 1.85800 48.16400
C  44.01500 0.41200 48.12100
C  45.39400 0.24700 48.31000
C  45.96300 1.65100 48.38100
C  42.79800 -0.64100 48.03600
C  46.07500 -1.13800 48.41200
O  45.48100 -2.15700 48.33300
C  47.63900 -1.28300 48.60200
N  47.18700 4.52500 48.19500
C  47.83600 3.38500 48.48900
C  49.36900 3.59800 48.82300
C  49.59900 5.17200 48.55800
C  48.09100 5.61400 48.31600
C  49.82200 3.04600 50.18200
C  50.53300 5.52700 47.40300
C  51.96200 5.13300 47.57200
N  45.21700 6.59700 47.98900
C  46.35200 7.39500 48.05900
C  45.96800 8.79100 47.99800
C  44.60500 8.76400 47.74500
C  44.19400 7.41100 47.76100
C  46.83800 9.98900 47.93900
C  43.50900 9.58700 47.39100
O  43.37000 10.79300 47.45700
C  42.28500 8.63600 47.21400
C  41.19900 8.99400 48.14800
O  41.11800 8.58100 49.26800
O  40.21100 9.84300 47.56600
C  39.11000 10.20100 48.42100
H  41.68800 1.66700 47.84300
H  47.98200 1.37000 48.78200
H  48.52300 7.67900 48.24800
H  40.20900 6.17100 47.92200
H  40.26800 3.51100 46.47900
H  40.00800 3.31400 49.37400
H  38.76300 3.06800 48.16400
H  38.93300 4.55900 48.91200
H  40.09400 5.25700 45.05900
H  41.09300 6.65000 45.45600
H  39.16700 7.99400 45.88400
H  38.39400 6.62600 46.54100
H  43.08800 -1.52700 47.47200
H  41.92500 -0.33700 47.45700
H  42.49200 -0.84600 49.06200
H  48.00500 -2.31000 48.61500
H  47.85500 -0.84900 49.57800
H  48.21000 -0.78800 47.81700
H  49.94100 3.20200 47.98300
H  49.96400 5.67400 49.45400
H  49.00200 2.77000 50.84500
H  50.50800 3.74100 50.66600
H  50.32100 2.10500 49.95000
H  50.53100 6.61700 47.40700
H  50.14000 5.02000 46.52200
H  52.15200 4.66900 48.54000
H  52.51400 6.06000 47.41500
H  52.26400 4.48800 46.74600
H  47.59400 9.65400 47.22900
H  47.30800 10.20000 48.89900
H  46.25000 10.86900 47.67700
H  41.94700 8.63000 46.17800
H  39.22500 9.89900 49.46200
H  38.27600 9.65300 47.98200
H  38.81700 11.25100 48.39200
Mg 16.86400 52.27000 26.84800
C  19.06900 50.95500 29.34800
C  14.91600 53.50100 29.34500
C  14.85900 53.58900 24.43200
C  19.04700 51.18900 24.40000
N  16.97600 52.14000 28.98800
C  17.94400 51.56800 29.79300
C  17.61800 51.88100 31.26500
C  16.11000 52.21700 31.20500
C  15.98500 52.70700 29.75500
C  15.10300 51.03900 31.39900
C  18.51900 52.94600 31.93000
C  19.02200 52.86300 33.36600
H  18.18300 52.15900 34.38000
N  15.10700 53.37900 26.87700
C  14.46800 53.76500 28.04500
C  13.28800 54.53600 27.72300
C  13.27500 54.58800 26.26800
C  14.39400 53.79100 25.78500
C  12.36700 55.15300 28.73400
C  12.26600 55.34800 25.42400
O  12.34100 55.43500 24.21400
C  11.14600 56.11700 26.04000
N  16.87000 52.11000 24.69800
C  15.89500 52.78300 23.93900
C  16.12600 52.50600 22.43000
C  17.54100 51.92000 22.44600
C  17.89700 51.75900 23.94900
C  15.03600 51.65000 21.80300
C  18.59600 52.70700 21.60200
C  19.15400 54.02200 22.16600
N  18.61800 51.12200 26.92100
C  19.43900 50.83700 25.78700
C  20.62900 50.15500 26.30900
C  20.50200 50.13900 27.69900
C  19.30500 50.77200 28.01100
C  21.79800 49.87600 25.50500
C  21.19600 49.86400 28.99800
O  22.26100 49.31200 29.27400
C  20.23100 50.38900 30.06400
C  19.86200 49.48800 31.12400
O  19.11600 48.51000 30.94900
O  20.28900 49.84200 32.31400
C  20.30700 48.86100 33.46400
H  14.23600 53.74200 30.16600
H  14.29500 54.08400 23.63900
H  19.76700 50.84600 23.65400
H  17.66200 50.96000 31.84600
H  16.07600 53.04100 31.91700
H  14.37700 50.91100 30.59600
H  14.53000 51.25100 32.30100
H  15.57600 50.06500 31.52600
H  18.04000 53.92200 31.85400
H  19.44000 53.01000 31.35200
H  19.13200 53.82700 33.86200
H  20.02100 52.42900 33.40300
H  12.11000 56.15200 28.38000
H  12.79100 55.21800 29.73600
H  11.46100 54.54600 28.75200
H  10.43200 56.47800 25.29900
H  11.62200 56.94200 26.56900
H  10.65600 55.42700 26.72700
H  16.20900 53.48100 21.95100
H  17.56400 50.88600 22.10100
H  14.66800 51.99200 20.83600
H  14.14200 51.67600 22.42600
H  15.38800 50.62200 21.71900
H  18.22000 53.15300 20.68100
H  19.36000 51.98200 21.32200
H  18.95700 54.79600 21.42300
H  20.22100 54.01100 22.39000
H  18.65000 54.31000 23.08800
H  22.66700 50.12500 26.11300
H  21.78300 50.41800 24.55900
H  21.89000 48.83600 25.19100
H  20.72700 51.19900 30.59700
H  19.27200 48.76300 33.79200
H  20.99600 49.13700 34.26300
H  20.54000 47.87800 33.05600

