158

Mg 55.30600 23.76000 44.67200
C  52.81900 26.13300 43.52100
C  53.17300 21.28000 43.76000
C  57.91100 21.67200 44.82900
C  57.40600 26.55300 45.28000
N  53.28400 23.75200 43.77300
C  52.38100 24.85000 43.52100
C  51.02000 24.26900 43.08200
C  51.07200 22.82900 43.56500
C  52.60000 22.56900 43.69200
C  50.22100 22.54500 44.83900
C  50.83000 24.43200 41.50900
C  49.41000 24.72100 41.01700
H  48.89900 24.03400 39.75300
N  55.56700 21.67600 44.32200
C  54.54400 20.80700 43.98600
C  55.06900 19.44500 43.86100
C  56.47400 19.56400 44.22100
C  56.69500 20.96500 44.53900
C  54.35300 18.15600 43.52400
C  57.51500 18.52000 44.10000
O  57.12400 17.45200 43.71800
C  58.98100 18.67700 44.61500
N  57.29300 24.07800 44.91200
C  58.22200 23.00100 45.03600
C  59.66800 23.57600 45.21600
C  59.52300 25.05500 45.25300
C  57.92600 25.26900 45.13600
C  60.37300 22.95300 46.38400
C  60.27800 25.84100 44.07700
C  61.66700 26.45400 44.49500
N  55.17600 25.91500 44.52100
C  56.07900 26.94100 44.91500
C  55.39000 28.20900 44.89400
C  54.18300 27.91200 44.22900
C  54.10800 26.52500 44.02600
C  55.84700 29.54100 45.36200
C  52.98600 28.50700 43.60900
O  52.77500 29.70000 43.58300
C  52.07200 27.42700 43.12000
C  51.95900 27.55200 41.64000
O  52.84900 27.50600 40.78800
O  50.58900 27.81200 41.40800
C  50.26000 28.10600 39.97100
H  52.54900 20.39000 43.65300
H  58.79500 21.07300 45.05800
H  58.08400 27.32700 45.64700
H  50.25300 24.86700 43.57400
H  50.60100 22.21900 42.79400
H  50.81900 22.16400 45.66700
H  49.46900 21.76500 44.71300
H  49.65600 23.42500 45.14800
H  51.06300 23.49900 40.99600
H  51.50000 25.20400 41.13100
H  49.33400 25.80200 40.90400
H  48.71500 24.60800 41.84900
H  53.29400 18.39200 43.42200
H  54.54500 17.50000 44.37300
H  54.64600 17.68200 42.58700
H  59.45700 19.24900 43.81800
H  59.43600 17.68700 44.58400
H  58.92000 19.01500 45.64900
H  60.24200 23.32900 44.32300
H  59.76900 25.52600 46.20400
H  60.33700 23.62800 47.23900
H  61.38200 22.92500 45.97300
H  59.96200 21.98400 46.66600
H  59.66500 26.66700 43.71800
H  60.56600 25.29000 43.18200
H  62.40300 25.71000 44.19000
H  61.73300 26.68800 45.55800
H  61.93600 27.34200 43.92400
H  55.20600 29.74000 46.22100
H  55.69200 30.28400 44.58000
H  56.89900 29.44400 45.62900
H  51.13800 27.56200 43.66400
H  49.45500 28.83800 39.91100
H  49.82200 27.23800 39.47900
H  51.12400 28.44100 39.39600
Mg 26.59900 50.40400 27.21300
C  24.63900 51.72200 29.96300
C  29.10700 49.61900 29.59000
C  28.42000 49.39500 24.72800
C  24.26900 51.69500 25.00800
N  26.82400 50.78100 29.53900
C  25.82700 51.18300 30.38400
C  26.33300 51.05600 31.82600
C  27.78000 50.56800 31.64600
C  27.92600 50.27100 30.15000
C  28.96800 51.52100 32.18600
C  25.39700 50.11000 32.65000
C  24.73000 50.51700 33.94100
H  25.69800 50.77300 35.14600
N  28.46100 49.62500 27.11000
C  29.30000 49.28600 28.20300
C  30.42000 48.53400 27.71100
C  30.30700 48.47300 26.27100
C  29.01500 49.18300 26.01300
C  31.59600 47.97600 28.58300
C  31.25100 47.84800 25.20000
O  31.09300 47.96100 23.99400
C  32.43200 46.82500 25.55600
N  26.47100 50.70200 25.11900
C  27.29100 50.03900 24.25800
C  26.89600 50.22400 22.83200
C  25.33400 50.59000 22.97500
C  25.30100 50.98500 24.49800
C  27.79500 51.36300 22.21700
C  24.21800 49.49700 22.64900
C  23.17900 49.91500 21.66600
N  24.75600 51.55600 27.37300
C  23.92200 51.97200 26.35200
C  22.81700 52.51000 26.95900
C  23.00600 52.47100 28.39000
C  24.17500 51.80900 28.59400
C  21.61400 53.07600 26.21200
C  22.42700 52.91900 29.70100
O  21.36600 53.47800 29.95600
C  23.44400 52.36900 30.76400
C  23.88500 53.52100 31.60400
O  24.80900 54.32700 31.29800
O  23.17300 53.57600 32.73600
C  23.65300 54.35400 33.94300
H  29.76000 49.24100 30.38000
H  28.94300 49.04200 23.83600
H  23.56400 52.02900 24.24400
H  26.33600 52.03700 32.30000
H  27.92300 49.58700 32.10000
H  29.75000 51.52400 31.42600
H  29.28300 51.13000 33.15400
H  28.74500 52.57500 32.35600
H  25.89700 49.19800 32.97700
H  24.62900 49.63800 32.03700
H  23.98800 49.72800 34.06500
H  24.29500 51.48800 33.70500
H  31.32500 46.94200 28.80000
H  31.57500 48.38100 29.59500
H  32.59900 48.19500 28.21900
H  33.28800 47.33900 25.99300
H  32.83500 46.23800 24.73000
H  32.06300 46.14100 26.32000
H  27.03000 49.35400 22.18900
H  25.23600 51.51400 22.40400
H  28.30100 51.92800 23.00000
H  27.20200 52.13400 21.72500
H  28.53900 50.88900 21.57600
H  23.69600 49.23700 23.57000
H  24.75400 48.67900 22.16800
H  22.20800 49.44800 21.82500
H  23.41000 49.76700 20.61100
H  22.93900 50.97100 21.79200
H  20.71900 52.68100 26.69200
H  21.59000 52.95700 25.12900
H  21.73600 54.14400 26.39200
H  23.06800 51.69400 31.53400
H  24.59300 54.87200 33.75200
H  23.90600 53.58100 34.66900
H  22.93000 55.02700 34.40400

