158

Mg 45.30100 3.88100 47.82600
C  43.37100 6.77700 47.33100
C  42.60500 2.00400 46.92200
C  47.27500 1.15200 47.77000
C  48.21600 5.92300 47.72600
N  43.21600 4.36900 47.22800
C  42.60700 5.57900 46.95300
C  41.23200 5.45000 46.29600
C  41.01700 3.84600 46.53100
C  42.37400 3.35100 46.97100
C  39.83400 3.38200 47.42100
C  41.27800 5.97700 44.89100
C  40.09000 6.83000 44.37900
H  39.55600 6.49800 42.99600
N  44.95600 1.80400 47.55900
C  43.74100 1.21100 47.20100
C  43.95100 -0.21000 46.93200
C  45.36800 -0.47200 47.14800
C  45.97800 0.85300 47.56200
C  42.86200 -0.97700 46.26600
C  45.97900 -1.84900 46.86600
O  45.22600 -2.76400 46.58200
C  47.40300 -1.98100 46.94100
N  47.49900 3.62300 47.75700
C  48.00000 2.33300 47.81000
C  49.53500 2.41000 47.61300
C  49.81200 3.93400 47.43300
C  48.43100 4.56900 47.67900
C  50.41100 1.58800 48.64900
C  50.47800 4.31200 46.03300
C  51.86400 4.98200 45.87900
N  45.76700 5.92500 47.83000
C  46.94700 6.59200 47.79800
C  46.62000 8.08000 47.66100
C  45.23300 8.15400 47.66500
C  44.76500 6.84900 47.67300
C  47.63000 9.19500 47.59600
C  44.16900 9.09300 47.62100
O  44.18100 10.35100 47.64200
C  42.82600 8.17700 47.31500
C  41.79400 8.37500 48.38600
O  41.59300 7.64800 49.29700
O  41.05100 9.52300 48.10300
C  39.86900 9.84400 48.87800
H  41.73900 1.41000 46.62500
H  48.00200 0.33700 47.74400
H  49.11200 6.54400 47.66500
H  40.44500 5.90700 46.89500
H  40.94600 3.45800 45.51500
H  38.95500 3.35000 46.77900
H  39.71400 4.07400 48.25400
H  40.10500 2.39900 47.80900
H  41.62200 5.13300 44.29400
H  42.21700 6.51300 44.75100
H  40.42100 7.86300 44.27700
H  39.15800 6.72600 44.93600
H  41.83900 -0.60900 46.34700
H  42.88000 -2.00500 46.62900
H  43.12500 -0.93400 45.20900
H  47.81000 -1.79800 47.93500
H  47.74200 -1.22000 46.23800
H  47.75100 -2.94600 46.57400
H  49.73800 1.92600 46.65800
H  50.49000 4.28400 48.21200
H  49.76400 1.08200 49.36500
H  51.09900 2.30700 49.09400
H  50.87400 0.79200 48.06600
H  49.82100 5.08500 45.63400
H  50.45000 3.44900 45.36800
H  52.54900 4.31400 45.35800
H  52.15000 5.07000 46.92700
H  51.68600 5.91100 45.33800
H  47.09300 10.14200 47.54600
H  48.15500 9.17200 46.64000
H  48.40600 9.11800 48.35800
H  42.29300 8.48600 46.41500
H  39.01500 9.63500 48.23400
H  39.90800 10.91800 49.06000
H  39.59400 9.41000 49.83900
Mg 35.50100 48.65100 25.54400
C  35.64800 47.00800 28.53700
C  33.99700 51.37100 27.15400
C  35.16200 50.30200 22.58100
C  36.50100 45.81700 24.00700
N  34.81300 49.07400 27.53600
C  35.21400 48.34400 28.66400
C  35.04500 49.05400 30.00400
C  34.17800 50.29600 29.54500
C  34.31700 50.26800 27.98100
C  32.71000 50.20700 29.95700
C  36.45000 49.26100 30.72900
C  36.44500 49.26800 32.29200
H  35.05900 48.98600 33.00300
N  34.75100 50.55700 24.94600
C  34.23400 51.53300 25.78200
C  33.98300 52.72400 25.04500
C  34.31200 52.47400 23.72400
C  34.70500 51.02500 23.65600
C  33.39100 54.01400 25.54300
C  34.27700 53.38600 22.49200
O  34.39100 52.96300 21.35600
C  33.91900 54.89000 22.56400
N  35.71700 48.04600 23.57100
C  35.65200 48.94900 22.55700
C  36.20500 48.35300 21.32100
C  36.77700 46.96300 21.83200
C  36.33500 46.95700 23.20500
C  35.27100 48.34900 20.04100
C  38.33600 46.80600 21.73900
C  39.03900 46.71200 20.42100
N  35.96000 46.74300 26.08200
C  36.31400 45.64400 25.32200
C  36.59500 44.52100 26.17900
C  36.30600 44.99300 27.46100
C  35.93400 46.34000 27.34300
C  36.98800 43.11600 25.69900
C  36.27900 44.64800 28.81900
O  36.47600 43.56700 29.36400
C  35.91300 45.99500 29.63000
C  34.78500 45.64800 30.57500
O  33.60100 45.99300 30.49000
O  35.31500 44.90200 31.53200
C  34.38900 44.42300 32.54200
H  33.54100 52.25800 27.60000
H  35.36200 50.89400 21.68500
H  36.78800 44.91200 23.46800
H  34.51500 48.35900 30.65500
H  34.68800 51.23200 29.77300
H  31.96600 50.37400 29.17800
H  32.51100 51.00200 30.67600
H  32.44900 49.27100 30.45200
H  36.95600 50.17200 30.40900
H  37.12800 48.52600 30.29600
H  36.69900 50.30600 32.50600
H  37.19100 48.56700 32.66500
H  32.48400 54.10300 24.94500
H  34.07600 54.78100 25.18300
H  33.17000 54.14600 26.60200
H  32.85700 55.13200 22.60500
H  34.35500 55.17100 21.60500
H  34.55100 55.47700 23.23100
H  37.09400 48.96000 21.14900
H  36.32300 46.20700 21.19200
H  35.85000 48.64700 19.16700
H  34.34700 48.92300 20.11500
H  34.87400 47.35100 19.85900
H  38.66700 45.95100 22.32900
H  38.78300 47.68200 22.21000
H  40.03300 47.14700 20.52500
H  38.33000 47.04300 19.66200
H  39.19300 45.64200 20.28300
H  36.22700 42.90200 24.94800
H  36.98300 42.42900 26.54500
H  37.94300 43.14600 25.17400
H  36.67100 46.26500 30.36500
H  33.70500 43.69400 32.10700
H  33.88200 45.24700 33.04300
H  35.01800 43.89900 33.26100

