158

Mg 34.62000 3.18100 30.52900
C  32.21500 3.73000 33.07200
C  37.07800 3.46600 32.90000
C  36.83700 2.58500 28.16400
C  32.10300 3.54500 28.15600
N  34.57300 3.52400 32.67800
C  33.47500 3.54000 33.56200
C  33.92500 3.78500 35.03300
C  35.53000 3.95100 34.88200
C  35.75500 3.73200 33.37200
C  36.13500 5.20500 35.62000
C  33.48300 2.52000 35.80400
C  32.91800 2.81900 37.28200
H  33.58100 3.86800 38.19100
N  36.66500 2.90600 30.52500
C  37.47100 3.15200 31.63800
C  38.84700 2.87100 31.23600
C  38.82300 2.42000 29.85100
C  37.41900 2.64400 29.46200
C  40.00000 2.99500 32.22000
C  39.97900 1.90100 28.98300
O  39.73400 1.58900 27.84100
C  41.41000 1.69400 29.49500
N  34.40200 3.00700 28.46600
C  35.49900 2.81600 27.70100
C  35.12000 2.94100 26.18500
C  33.60100 3.30700 26.18600
C  33.33500 3.19900 27.65200
C  36.08800 3.92400 25.51900
C  32.72800 2.26600 25.46400
C  32.34500 0.88200 26.14500
N  32.56300 3.32700 30.51900
C  31.67200 3.59000 29.49500
C  30.37800 3.91300 29.98700
C  30.54200 3.92800 31.36900
C  31.92000 3.69800 31.67300
C  29.12400 4.11000 29.22400
C  29.83000 4.18900 32.57200
O  28.67100 4.45200 32.78100
C  30.92600 4.21400 33.69200
C  30.93200 5.58500 34.24900
O  31.36100 6.59200 33.73100
O  30.33900 5.45600 35.47400
C  30.54300 6.58300 36.35100
H  37.76400 3.60200 33.73900
H  37.37800 2.33000 27.25100
H  31.36600 3.93000 27.44800
H  33.45800 4.70700 35.37800
H  36.20600 3.24500 35.36500
H  36.00900 5.03200 36.68800
H  35.73900 6.16300 35.28200
H  37.21200 5.17600 35.45700
H  34.34000 1.89300 36.05000
H  32.73500 2.01600 35.19200
H  33.13800 1.89100 37.81000
H  31.82800 2.84500 37.28000
H  40.96300 3.14200 31.72900
H  39.96500 2.05000 32.76100
H  39.81100 3.87500 32.83500
H  41.90600 2.65000 29.66100
H  41.81700 1.04200 28.72200
H  41.34700 1.22700 30.47800
H  35.45000 2.02000 25.70400
H  33.35700 4.28500 25.77200
H  36.54100 3.38700 24.68500
H  36.75900 4.49400 26.16100
H  35.59600 4.75300 25.01100
H  33.19600 1.93600 24.53700
H  31.74200 2.71100 25.33100
H  31.29400 0.93800 26.42800
H  33.07800 0.69100 26.92900
H  32.26000 0.14900 25.34300
H  28.87700 5.17000 29.29400
H  28.27400 3.73600 29.79600
H  29.14700 3.95000 28.14600
H  30.53000 3.45500 34.36700
H  30.99800 6.20500 37.26600
H  29.55400 7.01500 36.50700
H  31.15300 7.40500 35.97600
Mg -10.66500 38.72900 41.55800
C  -9.22700 35.69800 40.62000
C  -8.09900 40.45000 40.11300
C  -12.47000 41.63600 41.86500
C  -13.54300 36.96500 42.57600
N  -8.87400 38.10600 40.52000
C  -8.41700 36.79100 40.28100
C  -7.16000 36.82500 39.44500
C  -6.76900 38.38800 39.48100
C  -7.99300 39.06500 40.02100
C  -5.49600 38.54300 40.29600
C  -7.44500 36.32600 37.98600
C  -6.81500 35.00100 37.65900
H  -5.63700 34.88900 36.74000
N  -10.25100 40.81400 41.22900
C  -9.12900 41.28600 40.61200
C  -9.17600 42.76000 40.49200
C  -10.50300 43.10200 40.94700
C  -11.14300 41.84000 41.41200
C  -8.05300 43.59400 39.76100
C  -11.04200 44.56100 40.87400
O  -10.35200 45.49700 40.46300
C  -12.46400 44.91800 41.24900
N  -12.76200 39.28700 42.15900
C  -13.24800 40.51900 42.06200
C  -14.78600 40.53200 42.31500
C  -15.11800 38.98900 42.38200
C  -13.73900 38.36400 42.48400
C  -15.17300 41.28000 43.66400
C  -15.85600 38.44000 41.19000
C  -17.22800 38.99400 40.87700
N  -11.25700 36.72400 41.73700
C  -12.40700 36.21300 42.30700
C  -12.19700 34.74200 42.40900
C  -11.09000 34.48300 41.70900
C  -10.50200 35.70800 41.26500
C  -12.94800 33.79300 43.23900
C  -10.23300 33.42000 41.30000
O  -10.32600 32.21600 41.45100
C  -8.95100 34.14600 40.56800
C  -7.75200 33.61000 41.25200
O  -7.10500 32.63300 40.89500
O  -7.48400 34.41400 42.33400
C  -6.34700 33.93700 43.23000
H  -7.34600 40.99800 39.54200
H  -13.10200 42.52500 41.92000
H  -14.38000 36.33900 42.89200
H  -6.39300 36.11800 39.76100
H  -6.66800 38.80000 38.47700
H  -4.86000 39.14500 39.64700
H  -4.99100 37.61700 40.56900
H  -5.76300 39.10800 41.18900
H  -7.25200 37.12800 37.27300
H  -8.53200 36.28500 37.90800
H  -7.62900 34.38000 37.28400
H  -6.51200 34.43700 38.54000
H  -8.26800 43.55300 38.69300
H  -7.10700 43.10100 39.98400
H  -7.98800 44.59900 40.18000
H  -12.65800 44.62300 42.28000
H  -13.12300 44.42300 40.53500
H  -12.63600 45.99100 41.15400
H  -15.38200 41.01200 41.53900
H  -15.61600 38.74300 43.32000
H  -15.52300 42.27400 43.38400
H  -14.29900 41.52100 44.26800
H  -15.94100 40.71100 44.18800
H  -15.86400 37.35000 41.19500
H  -15.21800 38.71500 40.35000
H  -17.08300 39.48600 39.91600
H  -17.69000 39.70800 41.55900
H  -17.93300 38.16900 40.77900
H  -13.80000 33.35300 42.72100
H  -13.47400 34.36700 44.00200
H  -12.14400 33.19500 43.66800
H  -8.89000 33.85600 39.51900
H  -5.66000 33.13200 42.96900
H  -6.71400 33.72400 44.23400
H  -5.74500 34.84200 43.31500

