158

Mg 1.52500 8.47600 25.79300
C  2.33200 10.37800 28.59600
C  1.95100 5.65100 27.64400
C  1.38700 6.56200 23.06400
C  1.54300 11.34300 23.86800
N  2.00200 8.05900 27.81900
C  2.21700 8.99800 28.81800
C  2.28500 8.37700 30.20800
C  2.35600 6.88600 29.81600
C  2.12600 6.85600 28.30600
C  3.75100 6.11800 30.12300
C  1.07200 8.87600 30.92100
C  1.12600 8.79500 32.49500
H  2.42500 8.15500 33.11000
N  1.39300 6.40400 25.41700
C  1.61600 5.37500 26.27200
C  1.37500 4.10300 25.68500
C  1.16500 4.39400 24.32500
C  1.30500 5.88400 24.19600
C  1.33100 2.83700 26.53600
C  0.83800 3.43900 23.21900
O  0.59000 3.75200 22.07300
C  0.93600 1.93600 23.60100
N  1.44800 8.93100 23.76300
C  1.43800 7.94400 22.81700
C  1.24900 8.56400 21.40700
C  0.96200 10.02000 21.73300
C  1.36700 10.12600 23.22500
C  2.52400 8.26100 20.60300
C  -0.56100 10.45100 21.53800
C  -0.97200 10.95000 20.17200
N  1.89800 10.44400 26.11600
C  1.94000 11.52900 25.21500
C  2.35400 12.74200 25.93100
C  2.41700 12.33600 27.30800
C  2.16900 10.93000 27.36400
C  2.30300 14.08000 25.35600
C  2.75600 12.86200 28.64600
O  3.16400 13.97100 28.96300
C  2.56000 11.64300 29.57000
C  3.79700 11.54400 30.44500
O  4.89400 11.25800 30.06000
O  3.39400 11.90000 31.67600
C  4.48500 12.23900 32.55800
H  2.17400 4.76100 28.23700
H  1.47300 5.78800 22.29800
H  1.33200 12.25100 23.29900
H  3.17100 8.72600 30.73700
H  1.51100 6.28700 30.15500
H  3.50100 5.33000 30.83300
H  4.53100 6.71900 30.59100
H  4.18300 5.69000 29.21800
H  0.28000 8.19300 30.61400
H  0.70000 9.86800 30.66800
H  0.34200 8.12400 32.84700
H  1.05000 9.82000 32.85700
H  1.43400 2.98900 27.61000
H  2.25100 2.34600 26.21700
H  0.53400 2.10400 26.41600
H  1.81800 1.79300 24.22400
H  1.21100 1.54500 22.62200
H  0.01300 1.47500 23.95400
H  0.49000 8.00700 20.85600
H  1.52800 10.56300 20.97700
H  3.21200 8.03800 21.41800
H  2.89300 9.10700 20.02300
H  2.38200 7.32900 20.05600
H  -0.79500 11.13500 22.35400
H  -1.20100 9.64600 21.90100
H  -0.17700 10.67900 19.47700
H  -1.12100 12.01200 19.97700
H  -1.86900 10.38600 19.91700
H  1.22500 14.22400 25.41700
H  2.53700 14.10300 24.29100
H  2.96500 14.84100 25.76800
H  1.63900 11.89200 30.09600
H  5.04000 13.04700 32.08200
H  5.27100 11.53300 32.82700
H  4.08900 12.68600 33.47000
Mg 15.92300 52.92300 25.82700
C  17.79500 52.18100 28.82500
C  13.46300 54.27500 27.78900
C  14.08500 53.42400 23.01600
C  18.27900 51.24100 24.05600
N  15.63700 53.08200 28.05900
C  16.50000 52.77400 29.12600
C  15.83700 53.10000 30.47500
C  14.42500 53.70100 30.08600
C  14.47200 53.60800 28.53400
C  13.17400 52.95500 30.63800
C  16.78900 54.04400 31.38500
C  17.15100 53.42600 32.75000
H  16.10900 52.53900 33.43800
N  14.06900 53.88800 25.44600
C  13.21700 54.31800 26.40200
C  12.01200 54.88900 25.76700
C  12.28600 54.77900 24.36200
C  13.52900 54.04800 24.23200
C  10.86600 55.49700 26.46100
C  11.35000 55.15500 23.20300
O  11.71000 55.03500 22.05100
C  10.03000 55.79800 23.38900
N  16.17100 52.40200 23.83200
C  15.21400 52.61600 22.88900
C  15.64000 52.00500 21.54300
C  17.12300 51.52100 21.87200
C  17.26300 51.77100 23.28800
C  14.71000 50.88100 20.94100
C  18.22600 52.29100 21.16600
C  19.39100 51.44400 20.61600
N  17.72400 51.89300 26.28700
C  18.64900 51.25900 25.42600
C  19.69200 50.66300 26.16800
C  19.39400 51.01800 27.52000
C  18.16300 51.76600 27.54300
C  20.85200 49.98300 25.65100
C  19.85100 50.87100 28.86900
O  20.79700 50.27600 29.36300
C  18.75500 51.67300 29.86000
C  18.23700 50.59000 30.78400
O  17.14400 50.05900 30.70400
O  19.20900 50.37200 31.69600
C  18.90000 49.23200 32.60300
H  12.75400 54.71900 28.49100
H  13.61300 53.57300 22.04300
H  18.98800 50.70700 23.42000
H  15.77700 52.16100 31.02500
H  14.31100 54.74700 30.37000
H  12.40500 53.68600 30.89000
H  13.45200 52.16700 31.33800
H  12.73300 52.40900 29.80500
H  16.44500 55.07800 31.42900
H  17.75800 53.90500 30.90500
H  17.39300 54.19700 33.48100
H  18.11500 52.92000 32.78500
H  11.03600 56.57300 26.48800
H  10.78700 55.20500 27.50800
H  9.89900 55.21100 26.05000
H  10.19800 56.83400 23.68100
H  9.38500 55.19200 24.02600
H  9.59600 55.79000 22.39000
H  15.63800 52.73200 20.73000
H  17.13000 50.45400 21.65000
H  13.81500 50.92900 21.56100
H  15.05600 49.84800 20.91800
H  14.36900 51.13200 19.93600
H  18.68800 53.07300 21.76800
H  17.73400 52.87100 20.38500
H  19.23200 50.37200 20.73800
H  20.30600 51.68900 21.15400
H  19.42300 51.66200 19.54800
H  21.19200 49.33400 26.45900
H  21.76300 50.56800 25.52200
H  20.54700 49.44200 24.75500
H  19.21400 52.49800 30.40500
H  19.85900 48.94400 33.03300
H  18.74100 48.33800 32.00000
H  18.02800 49.29300 33.25400

