158

Mg 53.70300 23.58700 45.20400
C  51.24800 25.71300 43.77200
C  52.07700 20.95500 43.88300
C  56.40300 21.79600 45.48100
C  55.30600 26.52500 46.30400
N  51.93700 23.40200 43.96900
C  51.08300 24.35800 43.55700
C  49.87200 23.76500 42.78000
C  50.00200 22.24900 43.25000
C  51.43400 22.17400 43.67200
C  49.05700 21.87100 44.41600
C  49.99700 23.95100 41.26200
C  48.77700 24.23400 40.36100
H  49.04800 24.49900 38.82600
N  54.17500 21.60400 44.82800
C  53.42200 20.69000 44.22400
C  54.06200 19.35700 44.30600
C  55.32200 19.60300 44.74300
C  55.36500 21.02600 44.95300
C  53.31100 18.06000 44.00800
C  56.39700 18.62200 44.90400
O  56.05800 17.46700 44.65400
C  57.82300 18.95100 45.27000
N  55.55000 24.10700 45.77800
C  56.50400 23.14100 45.89500
C  57.89200 23.80200 46.17000
C  57.48200 25.16100 46.86300
C  56.05000 25.32000 46.27500
C  58.82900 23.00000 47.12000
C  58.42900 26.37500 46.60900
C  58.67800 27.32300 47.69000
N  53.30100 25.67100 45.25200
C  53.96800 26.67600 45.82000
C  53.25000 27.93500 45.68900
C  52.09600 27.57300 44.92200
C  52.26400 26.20400 44.61800
C  53.63500 29.21600 46.33700
C  50.82000 28.03300 44.32900
O  50.23600 29.10000 44.37300
C  50.26800 26.84900 43.57800
C  50.04900 27.22700 42.19400
O  50.88300 27.59100 41.37100
O  48.69500 27.35100 41.95900
C  48.45700 27.80300 40.53000
H  51.46400 20.11800 43.54600
H  57.36000 21.37000 45.79000
H  55.83000 27.40600 46.67900
H  48.99400 24.32400 43.10600
H  49.86000 21.52000 42.45200
H  48.26700 22.62200 44.44200
H  49.53600 21.80000 45.39300
H  48.43000 21.01800 44.15700
H  50.56400 23.06300 40.98200
H  50.67700 24.78600 41.10000
H  48.34900 25.02400 40.97800
H  48.08300 23.39400 40.34500
H  52.30100 18.26700 43.65500
H  53.16700 17.44200 44.89400
H  53.82400 17.49200 43.23200
H  58.23400 19.87500 44.86300
H  58.48300 18.10000 45.09900
H  57.74100 19.10000 46.34700
H  58.43900 23.97300 45.24200
H  57.28100 25.17400 47.93400
H  58.22300 22.19000 47.52700
H  59.28400 23.57300 47.92800
H  59.61700 22.57000 46.50200
H  57.95800 26.95500 45.81500
H  59.39500 26.00300 46.26800
H  59.74200 27.47600 47.86700
H  58.18300 26.97000 48.59500
H  58.15000 28.25600 47.48900
H  52.71900 29.50800 46.85200
H  53.96900 29.99100 45.64700
H  54.41300 29.08900 47.09000
H  49.29400 26.59100 43.99500
H  47.50000 27.41700 40.17800
H  49.13100 27.24200 39.88300
H  48.48800 28.88100 40.37400
Mg 16.46400 52.25800 24.75100
C  18.02400 51.03500 27.69600
C  13.79400 53.04800 26.67600
C  15.08400 53.25700 21.97800
C  19.10200 50.71800 23.02300
N  15.95600 52.09200 26.99400
C  16.76000 51.59200 28.03300
C  16.20800 51.99100 29.38500
C  14.76100 52.51900 29.02400
C  14.86500 52.51600 27.43600
C  13.64100 51.68700 29.68500
C  17.19500 52.93500 30.16200
C  17.71800 52.43800 31.53300
H  16.83500 51.47900 32.39700
N  14.68300 53.06100 24.36800
C  13.69600 53.33700 25.25300
C  12.60100 53.95100 24.51700
C  12.91400 54.09000 23.15600
C  14.29200 53.47700 23.11800
C  11.34700 54.29300 25.29500
C  12.09900 54.76100 22.06000
O  12.54100 54.84100 20.91600
C  10.80200 55.33900 22.29100
N  17.00000 52.13400 22.83800
C  16.31500 52.59700 21.81300
C  16.56900 51.80000 20.54600
C  17.91400 51.09000 20.80400
C  18.04300 51.33100 22.31300
C  15.27700 50.87200 20.28500
C  19.16500 51.68300 19.97200
C  19.64700 50.92000 18.80900
N  18.20500 51.14700 25.22600
C  19.25100 50.63100 24.40200
C  20.31800 50.00600 25.15100
C  19.84100 50.11200 26.44600
C  18.54600 50.77000 26.43100
C  21.58000 49.40800 24.68300
C  20.17900 49.81200 27.80500
O  21.12600 49.19600 28.18900
C  19.08800 50.47400 28.69600
C  18.52000 49.39900 29.64000
O  17.53600 48.76800 29.37500
O  19.31400 49.20800 30.75500
C  18.87500 48.16500 31.62900
H  13.03000 53.47700 27.32800
H  14.63500 53.55900 21.03000
H  19.74700 50.04000 22.46000
H  16.15800 51.02600 29.88900
H  14.58000 53.52800 29.39400
H  14.10000 50.89700 30.27900
H  13.06900 51.22900 28.87900
H  13.04600 52.27800 30.38200
H  16.76100 53.93000 30.25300
H  18.12400 53.04900 29.60400
H  17.83900 53.31100 32.17400
H  18.66300 51.94700 31.30000
H  11.35200 53.70400 26.21200
H  10.50000 53.96900 24.69000
H  11.18100 55.31500 25.63600
H  10.67100 56.29500 22.79700
H  10.06900 54.63100 22.67800
H  10.40600 55.63200 21.31900
H  16.51300 52.37100 19.62000
H  17.84200 50.04300 20.51000
H  14.86700 51.25500 19.35000
H  14.61100 50.94500 21.14500
H  15.52300 49.83000 20.08000
H  19.99600 51.88400 20.64900
H  18.73700 52.64100 19.67500
H  19.24500 51.31700 17.87700
H  19.37100 49.86600 18.84000
H  20.73300 50.96100 18.72500
H  22.31100 50.17300 24.94400
H  21.55000 49.30500 23.59800
H  21.67900 48.44500 25.18300
H  19.52800 51.28100 29.28300
H  19.46300 48.28100 32.53900
H  19.02200 47.19900 31.14400
H  17.87400 48.26100 32.04900

