158

Mg 49.27100 47.03500 42.15900
C  45.81400 47.52900 41.26400
C  48.94100 43.76000 41.34500
C  52.52300 46.79100 42.39100
C  49.47100 50.52700 42.49600
N  47.56800 45.80700 41.26200
C  46.25000 46.18400 40.98300
C  45.41300 45.00900 40.52300
C  46.43600 43.81900 40.72700
C  47.73100 44.47900 41.18400
C  45.86300 42.71200 41.62700
C  44.81400 45.13000 39.10900
C  43.30700 44.75500 38.91600
H  42.94300 44.94700 37.40300
N  50.63800 45.38600 42.05800
C  50.23400 44.13100 41.74700
C  51.45200 43.30600 41.86500
C  52.59700 44.17500 42.05500
C  51.97500 45.48800 42.21800
C  51.43400 41.79600 41.54300
C  54.05700 43.81100 42.07400
O  54.33500 42.60800 41.99600
C  55.18000 44.80400 42.23800
N  50.77200 48.44900 42.25500
C  52.05700 48.06800 42.41400
C  53.02000 49.30900 42.63000
C  52.07100 50.52400 42.30600
C  50.67800 49.84500 42.32700
C  53.74300 49.52900 43.99300
C  52.37900 51.02800 40.87400
C  52.03700 52.49700 40.59300
N  47.93300 48.71700 42.09100
C  48.19000 50.08200 42.25600
C  47.02000 50.81300 42.06200
C  46.01200 49.83700 41.87100
C  46.63700 48.57900 41.73800
C  46.93600 52.24600 42.15100
C  44.60600 49.63400 41.58800
O  43.63500 50.43600 41.56200
C  44.42800 48.10900 41.16300
C  43.50900 47.42800 42.08900
O  43.68400 47.43600 43.31000
O  42.49700 46.80100 41.50100
C  41.49600 46.05200 42.24000
H  48.81700 42.70100 41.10600
H  53.60500 46.91000 42.48200
H  49.52700 51.60200 42.68100
H  44.60500 44.97200 41.25300
H  46.54700 43.23200 39.81400
H  46.56300 42.44000 42.41600
H  45.71500 41.81200 41.02900
H  44.97800 43.08200 42.14500
H  45.40000 44.50900 38.43200
H  45.00600 46.06900 38.58900
H  42.57700 45.24200 39.56200
H  43.28300 43.68400 39.11300
H  51.54100 41.70800 40.46200
H  50.54300 41.30200 41.93100
H  52.18300 41.15900 42.01400
H  55.15700 45.42200 41.34000
H  56.08600 44.20400 42.31700
H  55.09700 45.37500 43.16300
H  53.81400 49.20600 41.89100
H  51.96700 51.24400 43.11700
H  53.97200 50.59400 43.97400
H  54.77600 49.18100 43.98700
H  53.21100 49.26600 44.90700
H  51.73100 50.40300 40.25900
H  53.46000 50.95300 40.76500
H  52.16500 53.03600 41.53200
H  51.08300 52.56700 40.07100
H  52.77600 52.84100 39.86900
H  45.96900 52.56200 42.54300
H  47.30500 52.79100 41.28200
H  47.57500 52.54500 42.98300
H  43.96100 47.97200 40.18800
H  40.69400 45.61800 41.64400
H  40.87600 46.77700 42.76700
H  41.97500 45.44600 43.01000
Mg 29.55400 58.81700 39.58100
C  27.06900 56.36300 38.48500
C  31.89300 56.70700 38.14300
C  31.71700 61.27900 39.79700
C  26.84700 61.01000 39.96300
N  29.48000 56.75500 38.37600
C  28.42700 55.91300 38.15600
C  28.85100 54.60200 37.47800
C  30.42500 54.65500 37.52800
C  30.66100 56.11200 38.07300
C  31.09900 53.48200 38.28000
C  28.22000 54.32800 36.04300
C  27.87000 55.62100 35.26000
H  27.90200 55.43400 33.77400
N  31.54400 58.88300 39.25900
C  32.34800 57.99300 38.53400
C  33.69900 58.44400 38.63200
C  33.68400 59.79100 39.29200
C  32.27200 60.04900 39.41600
C  34.84500 57.54600 38.08800
C  34.84600 60.58800 39.69600
O  36.00100 60.15000 39.49100
C  34.65100 61.84700 40.43000
N  29.30900 60.90500 39.66500
C  30.38000 61.62600 40.01900
C  30.00100 63.03900 40.54900
C  28.43300 62.99800 40.37600
C  28.16500 61.57900 39.92400
C  30.33000 63.23200 42.03400
C  27.80200 64.11700 39.58000
C  26.75900 64.92200 40.28500
N  27.37100 58.73300 39.50100
C  26.47100 59.70600 39.67600
C  25.12500 59.16400 39.58000
C  25.30000 57.83400 39.17200
C  26.68600 57.65500 39.02700
C  23.82900 59.89200 39.78100
C  24.58100 56.67300 38.77800
O  23.37600 56.49600 38.81200
C  25.70900 55.63600 38.24500
C  25.69500 54.39800 39.13600
O  26.57400 54.04900 39.89800
O  24.54100 53.72300 38.83500
C  24.57200 52.33100 39.23400
H  32.71500 56.12400 37.72200
H  32.25900 62.20900 39.98100
H  26.05400 61.74100 40.13400
H  28.55900 53.90900 38.26700
H  30.82900 54.51100 36.52600
H  32.13600 53.38900 37.95700
H  30.57100 52.56400 38.02300
H  31.14700 53.60900 39.36100
H  27.24400 53.90200 36.27300
H  28.62600 53.51500 35.44100
H  28.47800 56.50400 35.45600
H  26.81900 55.80700 35.48000
H  34.82400 57.49800 36.99900
H  34.59900 56.51300 38.33400
H  35.87000 57.76000 38.39200
H  35.55200 62.03000 41.01400
H  33.85000 61.78300 41.16700
H  34.54300 62.73200 39.80300
H  30.51500 63.84800 40.02900
H  27.99300 63.06500 41.37100
H  29.67700 64.02800 42.39100
H  31.38900 63.46100 42.15100
H  30.19500 62.40800 42.73500
H  27.38800 63.66800 38.67800
H  28.58600 64.80200 39.25700
H  26.05600 65.27500 39.53100
H  27.28100 65.74000 40.78300
H  26.31200 64.37400 41.11400
H  23.03500 59.29400 39.33300
H  23.76300 60.90200 39.37500
H  23.68700 59.97800 40.85800
H  25.49700 55.29200 37.23300
H  24.93600 51.77000 38.37300
H  23.55600 52.02300 39.48100
H  25.28200 52.00700 39.99500

