158

Mg 0.88200 7.83400 27.39200
C  1.58500 10.09500 30.11600
C  1.01200 5.35200 29.85200
C  0.60700 5.58600 25.00700
C  1.47000 10.39600 25.33300
N  1.20500 7.79800 29.74900
C  1.29000 8.83000 30.56800
C  1.17400 8.48500 32.03700
C  1.38000 6.92400 31.89500
C  1.19200 6.62800 30.42200
C  2.63700 6.34400 32.47800
C  -0.13900 8.77400 32.83100
C  -0.04400 8.86800 34.37700
H  1.09900 8.13200 35.09100
N  0.75900 5.73500 27.44000
C  0.75800 4.92200 28.48500
C  0.53400 3.53600 28.03500
C  0.36300 3.61700 26.62000
C  0.47300 5.00100 26.31100
C  0.48500 2.30800 29.03600
C  0.21900 2.55200 25.58100
O  0.17900 2.73700 24.37700
C  0.13000 1.15900 26.11700
N  1.52000 7.91300 25.39900
C  1.01800 6.87300 24.57300
C  1.03800 7.28200 23.13100
C  1.05900 8.83800 23.26900
C  1.34800 9.07000 24.79600
C  2.31300 6.77100 22.39600
C  -0.12700 9.62800 22.59200
C  -1.38400 9.79600 23.49500
N  1.44200 9.83100 27.62600
C  1.64200 10.80600 26.68500
C  1.95800 12.09300 27.25200
C  1.98600 11.82100 28.68200
C  1.72200 10.45400 28.79100
C  2.05100 13.42800 26.64000
C  2.19200 12.41500 29.98400
O  2.41300 13.53900 30.33300
C  1.83900 11.28100 30.98000
C  2.92500 11.23800 31.92700
O  4.08500 11.07000 31.64300
O  2.42700 11.46800 33.20000
C  3.40200 11.25700 34.24600
H  1.16700 4.45700 30.45800
H  0.25600 5.04400 24.12600
H  1.38700 11.26300 24.67500
H  2.03700 8.83600 32.60300
H  0.65600 6.39700 32.51700
H  3.34100 7.12200 32.77600
H  3.10000 5.76400 31.68000
H  2.37900 5.65200 33.27900
H  -0.96300 8.09000 32.62900
H  -0.51300 9.76000 32.55500
H  -0.94800 8.41500 34.78500
H  -0.17300 9.91300 34.65600
H  -0.17800 2.59600 29.85200
H  1.42800 2.11600 29.54800
H  0.24300 1.33400 28.61100
H  -0.65400 1.10000 26.87100
H  1.14700 0.91600 26.42400
H  -0.22400 0.53600 25.29600
H  0.04500 6.98000 22.79600
H  1.90600 9.21000 22.69300
H  2.90800 7.51200 21.86300
H  2.21700 6.03900 21.59500
H  2.96500 6.36200 23.16800
H  -0.35400 9.06800 21.68500
H  0.11000 10.62700 22.22700
H  -2.29300 9.74600 22.89500
H  -1.59600 10.80900 23.83800
H  -1.45100 9.20500 24.40800
H  2.92600 13.46200 25.99000
H  2.07000 14.27800 27.32300
H  1.19500 13.70800 26.02700
H  0.89300 11.54600 31.45200
H  4.16600 10.54200 33.94100
H  2.85400 10.97900 35.14500
H  3.92900 12.18600 34.46500
Mg 26.48600 49.50400 26.30400
C  24.63900 50.80000 28.83600
C  28.93900 48.54500 28.57800
C  28.50600 48.45800 23.71800
C  24.40100 50.96300 23.98400
N  26.66900 49.62700 28.48400
C  25.78000 50.20400 29.36000
C  26.22000 49.97600 30.86800
C  27.70000 49.38100 30.66200
C  27.76600 49.18300 29.10200
C  28.92600 50.27700 31.24200
C  25.26000 48.98500 31.65700
C  24.86200 49.51500 33.03400
H  24.85700 48.47000 34.18400
N  28.52200 48.73500 26.19700
C  29.32200 48.41900 27.20000
C  30.50900 47.79400 26.70500
C  30.42200 47.75700 25.27700
C  29.12900 48.36800 25.00100
C  31.61100 47.32300 27.56300
C  31.33000 47.15300 24.24000
O  31.11300 47.19200 23.04800
C  32.61900 46.43500 24.69100
N  26.52800 49.74800 24.17000
C  27.34000 49.02200 23.31100
C  26.96100 49.24200 21.80100
C  25.55600 49.95400 21.89200
C  25.49700 50.28700 23.44300
C  28.12300 49.89800 20.93100
C  24.36600 49.07700 21.28400
C  23.26700 49.81000 20.40900
N  24.74400 50.50000 26.29100
C  24.04600 51.04800 25.30700
C  22.89200 51.73000 25.77100
C  23.04100 51.61800 27.18600
C  24.17100 50.85900 27.47100
C  21.97400 52.59900 24.96300
C  22.49000 52.01000 28.46900
O  21.54400 52.71000 28.72600
C  23.47600 51.43900 29.62700
C  23.87100 52.57400 30.47100
O  24.52300 53.52000 30.13300
O  23.33400 52.43300 31.72100
C  23.82100 53.49000 32.65900
H  29.59600 48.12000 29.33900
H  29.07800 48.29200 22.80200
H  23.60500 51.36300 23.35300
H  26.04700 50.94200 31.34300
H  27.86200 48.40900 31.12800
H  29.59100 50.78100 30.54200
H  29.41100 49.58500 31.93100
H  28.57700 51.10600 31.85800
H  25.84400 48.06600 31.70300
H  24.37700 48.77500 31.05300
H  23.85600 49.86300 32.79700
H  25.52100 50.34500 33.28900
H  31.78100 46.24700 27.60000
H  31.48600 47.64800 28.59600
H  32.62000 47.60400 27.26100
H  33.15700 46.07800 23.81300
H  32.38200 45.57000 25.31000
H  33.26800 47.17200 25.16400
H  26.88300 48.24200 21.37600
H  25.45200 50.98900 21.56500
H  28.99400 50.18600 21.52000
H  27.79000 50.79400 20.40700
H  28.56400 49.20600 20.21300
H  23.79800 48.65400 22.11200
H  24.73100 48.28600 20.62900
H  22.49300 49.93500 21.16600
H  22.98700 49.13100 19.60400
H  23.67900 50.75100 20.04300
H  22.56000 53.08300 24.18300
H  21.57000 53.45800 25.49800
H  21.23200 51.90900 24.56200
H  23.01200 50.66400 30.23800
H  23.94200 53.05900 33.65300
H  23.08700 54.29200 32.74900
H  24.77900 53.97600 32.47600

