158

Mg 46.67500 17.53100 29.30600
C  44.81600 16.80800 32.27200
C  48.95000 19.26000 31.35400
C  48.25200 18.63600 26.46200
C  44.23300 16.05800 27.51800
N  46.95400 17.73600 31.50000
C  46.03900 17.44100 32.53300
C  46.58200 17.91200 33.88100
C  47.72500 18.97200 33.55000
C  47.93100 18.60300 32.03400
C  47.38200 20.50000 33.87800
C  47.13500 16.76800 34.71700
C  47.38300 17.04800 36.21800
H  47.00500 18.36900 36.88500
N  48.34600 18.68200 28.96700
C  49.13600 19.31300 29.94600
C  50.16000 20.09500 29.19800
C  49.94700 20.01000 27.80200
C  48.82400 19.03700 27.67100
C  51.23300 20.91400 29.93900
C  50.73100 20.65400 26.65000
O  50.55200 20.48800 25.45300
C  51.99100 21.40800 26.87300
N  46.45200 17.12900 27.24800
C  47.12300 17.77100 26.23200
C  46.65500 17.32500 24.85200
C  45.40900 16.42500 25.23900
C  45.32100 16.57000 26.75400
C  46.35200 18.42900 23.71300
C  45.52400 14.91600 24.77300
C  46.47400 14.00900 25.62200
N  44.88700 16.58500 29.74200
C  43.97200 16.07900 28.88800
C  42.84000 15.54000 29.59900
C  43.13700 15.83200 30.93700
C  44.39300 16.44800 30.96600
C  41.67200 14.85600 28.98300
C  42.65400 15.68400 32.37900
O  41.67700 15.15600 32.90200
C  43.79300 16.31500 33.26700
C  43.18800 17.50500 34.01100
O  42.93400 18.57400 33.51200
O  42.97400 17.23500 35.33300
C  42.07300 18.16400 36.05900
H  49.73700 19.69000 31.97700
H  48.67900 18.93700 25.50300
H  43.52800 15.57100 26.84100
H  45.82500 18.49000 34.41200
H  48.57600 18.67900 34.16500
H  46.30800 20.66100 33.97300
H  47.64800 21.11700 33.02000
H  47.87300 20.77100 34.81300
H  48.03700 16.39500 34.23200
H  46.46400 15.90900 34.69600
H  48.44900 16.83100 36.28100
H  46.88000 16.32100 36.85400
H  51.72100 21.71200 29.37800
H  52.05900 20.26300 30.22600
H  50.85500 21.27300 30.89600
H  52.61700 20.86400 27.58000
H  51.81800 22.40800 27.27000
H  52.63000 21.42100 25.99000
H  47.37100 16.59500 24.47500
H  44.44300 16.85800 24.97900
H  45.27700 18.60800 23.73800
H  46.67000 18.16400 22.70500
H  46.77200 19.41200 23.92800
H  45.85600 14.85700 23.73600
H  44.58400 14.39300 24.94900
H  47.44300 14.50700 25.61200
H  46.56500 12.97800 25.27900
H  45.99000 13.87400 26.58900
H  41.10300 15.65100 28.50100
H  41.16700 14.25000 29.73500
H  42.03800 14.26200 28.14500
H  44.15400 15.56100 33.96700
H  41.13000 18.27300 35.52400
H  42.52200 19.15200 36.15900
H  41.86200 17.79700 37.06400
Mg 46.89900 25.54900 29.08800
C  48.02200 27.70200 31.61500
C  45.82700 23.44200 31.61000
C  46.27600 23.13400 26.66000
C  48.53300 27.38300 26.63100
N  46.89300 25.62100 31.39100
C  47.39400 26.63800 32.15700
C  47.06100 26.37300 33.62600
C  46.55700 24.90300 33.64700
C  46.38000 24.61300 32.12400
C  47.47900 23.79800 34.23600
C  46.02300 27.50200 34.18700
C  46.50100 28.13800 35.51600
H  45.29500 28.19200 36.54800
N  46.08000 23.66400 29.12700
C  45.64700 23.03200 30.27200
C  45.06100 21.74500 29.88600
C  45.06600 21.73300 28.43900
C  45.86000 22.86300 27.98300
C  44.39300 20.84100 30.90600
C  44.51600 20.73000 27.53400
O  44.70000 20.80400 26.32000
C  43.57500 19.64000 28.00300
N  47.41700 25.25500 26.91400
C  46.99500 24.22600 26.16800
C  47.56500 24.26300 24.77900
C  47.89900 25.84200 24.67300
C  47.96200 26.21600 26.14300
C  48.83500 23.37700 24.63200
C  46.80000 26.75000 23.92200
C  47.42400 27.32300 22.63100
N  48.08000 27.25300 29.01500
C  48.61400 27.92400 27.98400
C  49.24400 29.08400 28.51700
C  49.02200 29.06700 29.88200
C  48.25200 27.96300 30.15800
C  49.99900 30.06700 27.72000
C  49.25600 29.73800 31.16400
O  49.98700 30.70700 31.35800
C  48.60500 28.96400 32.33900
C  49.62200 28.63500 33.39700
O  50.54200 27.91200 33.26400
O  49.28400 29.25000 34.55300
C  50.02800 29.05000 35.75000
H  45.60800 22.84100 32.49500
H  46.07800 22.46900 25.81700
H  49.03900 28.02500 25.90700
H  47.93600 26.41200 34.27500
H  45.55900 24.82100 34.07800
H  48.26400 24.26600 34.82900
H  47.90800 23.18100 33.44700
H  46.87700 23.26400 34.97200
H  45.03400 27.04600 34.22700
H  45.97000 28.35900 33.51500
H  46.77500 29.15500 35.23500
H  47.31900 27.55500 35.93800
H  43.45900 20.37300 30.59400
H  44.10200 21.36800 31.81500
H  44.95800 19.92500 31.07400
H  42.66600 20.19300 28.24000
H  43.92900 18.98700 28.80000
H  43.31600 18.99200 27.16600
H  46.81300 23.96300 24.04900
H  48.90300 25.96300 24.26700
H  48.60500 22.37000 24.28400
H  49.34800 23.39700 25.59300
H  49.50100 23.86500 23.92000
H  46.40400 27.52700 24.57600
H  45.98200 26.05000 23.74800
H  46.81800 27.07500 21.76000
H  48.44800 27.03600 22.39200
H  47.44100 28.41100 22.69000
H  49.63900 30.04900 26.69100
H  51.05100 29.79700 27.62800
H  49.89300 31.11800 27.99000
H  47.85700 29.68500 32.66900
H  49.57000 29.57700 36.58800
H  51.02200 29.48800 35.65500
H  50.23100 27.98400 35.85200

