158

Mg 43.35200 4.80700 47.10600
C  41.50900 7.87700 46.90300
C  40.27400 3.17900 46.51100
C  45.00100 2.12200 46.30800
C  46.27000 6.67600 46.86200
N  41.11000 5.48600 46.59300
C  40.65700 6.76000 46.74100
C  39.16400 6.77900 46.73100
C  38.76200 5.30000 46.84700
C  40.08400 4.52200 46.64000
C  38.08200 4.95500 48.13700
C  38.36600 7.52300 45.55700
C  39.14400 8.02000 44.37800
H  38.82700 7.39100 43.02000
N  42.76700 2.92300 46.56300
C  41.49900 2.39600 46.34400
C  41.53900 0.95400 46.25500
C  42.90300 0.62600 45.97700
C  43.62300 1.92800 46.26100
C  40.32400 0.12300 46.28800
C  43.51900 -0.67100 45.52500
O  42.75400 -1.61400 45.45600
C  44.95300 -0.92100 45.25400
N  45.45600 4.43100 46.69600
C  45.86600 3.24500 46.49300
C  47.38700 3.17200 46.12400
C  47.77800 4.64100 46.21300
C  46.42100 5.33000 46.57900
C  48.23500 2.31300 47.17000
C  48.38300 5.15600 44.86100
C  49.76600 5.76200 44.99700
N  43.85800 6.86300 47.03800
C  45.07100 7.46300 47.03300
C  44.90500 8.93800 47.17500
C  43.45700 9.06800 47.16200
C  42.87000 7.78700 47.06900
C  45.84400 10.03200 46.91000
C  42.42400 10.11200 47.11200
O  42.52700 11.33200 47.07300
C  41.06200 9.32900 47.08500
C  40.19100 9.62900 48.23900
O  40.15500 8.92200 49.21000
O  39.31800 10.66600 47.90700
C  38.35000 11.07600 48.93100
H  39.34100 2.61100 46.51000
H  45.72600 1.32400 46.13400
H  47.19200 7.25700 46.93300
H  38.84700 7.33000 47.61700
H  38.21500 5.12900 45.92100
H  38.70100 4.49600 48.90800
H  37.23400 4.31000 47.90800
H  37.73600 5.82700 48.69200
H  37.96300 8.43300 46.00400
H  37.44400 6.98400 45.34000
H  40.20300 7.80400 44.51200
H  39.08800 9.10600 44.29600
H  39.76600 0.24000 45.35900
H  39.67400 0.49400 47.08100
H  40.51100 -0.93600 46.46900
H  45.44400 -0.76700 46.21500
H  45.38500 -0.27100 44.49300
H  45.05100 -1.94200 44.88700
H  47.45400 2.82000 45.09400
H  48.40700 4.82900 47.08300
H  48.31900 1.27900 46.83500
H  47.68900 2.44000 48.10500
H  49.23300 2.75100 47.15700
H  47.78100 5.83800 44.26100
H  48.54900 4.38200 44.11200
H  49.86500 6.17800 45.99900
H  50.00000 6.54100 44.27200
H  50.40800 4.90100 44.80900
H  45.59400 10.68000 46.06900
H  46.79000 9.64000 46.53700
H  46.10900 10.68700 47.74000
H  40.61700 9.62600 46.13500
H  38.58700 12.00900 49.44100
H  38.19200 10.29500 49.67500
H  37.44300 11.30400 48.37200
Mg 47.34600 25.95000 28.95100
C  48.80000 28.00400 31.53500
C  46.33500 23.77700 31.35900
C  46.78200 23.60900 26.60900
C  48.87900 28.00300 26.59500
N  47.57800 25.89900 31.24200
C  48.10800 26.90500 32.04700
C  47.89300 26.54000 33.49300
C  47.00500 25.28200 33.36100
C  46.98300 24.90400 31.91800
C  47.32300 23.97200 34.16400
C  47.19300 27.71400 34.31100
C  46.28200 27.38600 35.52300
H  46.85900 27.59900 36.94500
N  46.49900 24.01900 28.94600
C  46.18900 23.28000 30.02900
C  45.55800 21.99200 29.63500
C  45.58500 22.05000 28.19900
C  46.33100 23.26600 27.83300
C  44.85400 21.02300 30.55900
C  44.94700 21.00600 27.12700
O  45.04400 21.08000 25.90700
C  44.29900 19.72000 27.65600
N  47.92600 25.78400 26.94600
C  47.47400 24.76400 26.18300
C  47.79300 25.05000 24.70200
C  47.81800 26.59700 24.68700
C  48.37300 26.79500 26.14900
C  49.08100 24.33600 24.19900
C  46.40600 27.17200 24.56000
C  46.22400 28.05800 23.26700
N  48.55900 27.69400 28.99200
C  49.08900 28.41100 27.95300
C  49.78500 29.56600 28.46900
C  49.65800 29.46000 29.86000
C  48.91900 28.30300 30.12700
C  50.49400 30.50400 27.63000
C  50.06400 30.08100 31.14800
O  50.78300 31.07200 31.34600
C  49.40200 29.15300 32.28900
C  50.44900 28.75000 33.18800
O  51.36500 28.03000 32.87600
O  50.17400 29.23000 34.43500
C  50.92600 28.51200 35.47500
H  45.78400 23.14700 32.06100
H  46.56700 22.86200 25.84200
H  49.00400 28.70800 25.77000
H  48.81500 26.19200 33.96000
H  45.95900 25.53400 33.53100
H  48.02100 24.21800 34.96500
H  47.94500 23.25600 33.62900
H  46.46600 23.41000 34.53700
H  46.73800 28.46200 33.66100
H  48.01400 28.25700 34.78000
H  45.87700 26.37800 35.62100
H  45.37200 27.96300 35.36000
H  43.79600 20.96100 30.30400
H  44.80400 21.39700 31.58100
H  45.12800 19.96900 30.49900
H  45.06300 19.00600 27.96200
H  43.65300 19.25800 26.90900
H  43.74100 20.05400 28.53000
H  47.01900 24.74700 23.99700
H  48.52700 27.02200 23.97600
H  49.44700 23.69000 24.99700
H  49.75000 25.06900 23.74900
H  48.90800 23.68000 23.34600
H  46.30400 27.79600 25.44800
H  45.68900 26.37000 24.73700
H  45.14100 28.14400 23.17800
H  46.59900 27.55200 22.37700
H  46.59600 29.07500 23.39000
H  49.95700 31.45200 27.60300
H  50.71000 30.09700 26.64200
H  51.46100 30.79800 28.03900
H  48.56300 29.58100 32.83900
H  51.27500 27.54100 35.12400
H  50.26500 28.36900 36.33000
H  51.67200 29.21800 35.84200

