158

Mg 46.98100 25.69100 28.85000
C  47.94300 27.82500 31.60500
C  45.66500 23.51800 31.12300
C  46.64700 23.42900 26.33100
C  48.64200 27.75600 26.74200
N  46.78600 25.74600 31.10200
C  47.23100 26.69300 32.03200
C  46.88400 26.25200 33.44700
C  46.17400 24.89700 33.30400
C  46.21600 24.69400 31.75700
C  46.82600 23.76500 34.13300
C  46.01900 27.32700 34.19100
C  46.51900 27.76800 35.58100
H  45.48000 27.58300 36.69600
N  46.18800 23.78000 28.76600
C  45.70200 23.05400 29.80700
C  45.15800 21.81800 29.27600
C  45.44400 21.75800 27.87700
C  46.20300 22.99900 27.59300
C  44.37600 20.70100 30.11300
C  44.83500 20.72300 26.87000
O  45.20800 20.67900 25.67200
C  43.78900 19.70300 27.27400
N  47.38700 25.64700 26.80100
C  47.23500 24.61100 25.93700
C  47.78300 24.91800 24.53800
C  48.11000 26.38000 24.62000
C  48.10500 26.59500 26.16000
C  49.01500 23.97300 24.31700
C  47.10600 27.32500 23.82500
C  47.61300 28.02600 22.55600
N  48.01200 27.52500 29.05500
C  48.70200 28.15700 28.08500
C  49.44100 29.30200 28.70800
C  49.08700 29.26600 30.07400
C  48.29400 28.10100 30.25800
C  50.20600 30.37000 28.01200
C  49.26700 29.94400 31.36900
O  49.86000 30.96600 31.61700
C  48.48900 29.00300 32.45000
C  49.57800 28.64200 33.49300
O  50.58400 28.04200 33.24400
O  49.20600 29.11100 34.72300
C  50.11100 29.04800 35.84500
H  45.12600 22.79000 31.73300
H  46.65900 22.58400 25.63900
H  49.11500 28.40100 25.99900
H  47.88200 26.14600 33.87200
H  45.15600 24.98000 33.68700
H  46.05200 23.32000 34.75900
H  47.55000 24.08400 34.88400
H  47.27600 23.04400 33.45200
H  44.96800 27.03700 34.21100
H  46.04000 28.16800 33.49900
H  46.74400 28.82900 35.46900
H  47.44400 27.28100 35.89000
H  43.31800 20.64400 29.85400
H  44.37300 20.93600 31.17700
H  44.87400 19.75400 29.90400
H  44.29900 18.85500 27.73100
H  43.36200 19.30500 26.35300
H  42.90600 20.09100 27.78200
H  47.10900 24.68200 23.71400
H  49.10500 26.60900 24.23600
H  48.83400 22.97100 24.70700
H  49.86600 24.32700 24.89800
H  49.31100 23.90400 23.27000
H  46.92300 28.06800 24.60100
H  46.22000 26.71700 23.64400
H  48.69200 27.96000 22.41500
H  47.46100 29.08700 22.75400
H  47.14500 27.71600 21.62200
H  49.61200 30.64400 27.14000
H  51.17600 29.97200 27.71300
H  50.37400 31.14200 28.76300
H  47.64400 29.58000 32.82600
H  49.93600 29.95000 36.43100
H  51.16000 29.15500 35.57000
H  50.02300 28.10700 36.38900
Mg -1.82300 34.17700 25.94000
C  -3.16800 32.58200 28.66300
C  -0.51700 36.65100 28.13900
C  -0.59200 35.89700 23.31900
C  -3.95800 32.48100 23.87300
N  -2.06100 34.68800 28.12200
C  -2.47600 33.73600 29.01000
C  -2.17400 34.18400 30.44900
C  -1.47600 35.57000 30.26200
C  -1.34100 35.67600 28.75000
C  -2.36900 36.68000 30.73200
C  -1.46500 33.06800 31.32300
C  -2.15900 32.58400 32.59500
H  -1.26100 32.53200 33.85100
N  -0.48800 35.87300 25.77200
C  -0.06700 36.71800 26.78700
C  0.98400 37.58200 26.23400
C  1.02800 37.33100 24.87100
C  -0.04700 36.39200 24.57700
C  1.82900 38.53100 27.05200
C  1.96200 38.00100 23.79300
O  1.69500 37.99900 22.57000
C  3.20400 38.68200 24.24300
N  -2.35500 34.34000 23.94700
C  -1.67100 35.05200 23.00700
C  -2.12500 34.75400 21.57600
C  -3.12200 33.54000 21.76300
C  -3.16900 33.41200 23.30800
C  -2.81400 35.93900 20.89200
C  -2.67500 32.21500 21.03600
C  -1.61600 31.32400 21.74700
N  -3.31700 32.82400 26.20700
C  -4.06600 32.14300 25.25200
C  -4.74200 30.97400 25.97300
C  -4.44000 31.16400 27.27000
C  -3.58500 32.24700 27.38700
C  -5.54800 29.86200 25.40500
C  -4.58300 30.55900 28.53100
O  -5.07700 29.51800 28.86800
C  -3.85000 31.53000 29.57600
C  -4.97300 32.00600 30.49300
O  -5.81000 32.88800 30.37200
O  -4.98600 31.15700 31.49600
C  -5.90500 31.24300 32.61500
H  -0.07400 37.28100 28.91300
H  -0.16800 36.47000 22.49100
H  -4.52700 31.77300 23.26800
H  -3.13700 34.42200 30.90000
H  -0.53300 35.63100 30.80400
H  -2.45600 37.47800 29.99500
H  -1.82800 37.15300 31.55100
H  -3.33100 36.47600 31.20200
H  -0.48200 33.39900 31.65800
H  -1.15800 32.20300 30.73500
H  -2.51800 31.57800 32.37800
H  -2.97200 33.27600 32.81600
H  1.43500 38.68600 28.05700
H  1.80200 39.56400 26.70700
H  2.85800 38.17400 27.01100
H  3.78200 38.11100 24.97000
H  2.82900 39.58600 24.72400
H  3.73400 39.08500 23.38000
H  -1.25600 34.55500 20.94900
H  -4.14600 33.78300 21.47900
H  -2.79200 36.72500 21.64700
H  -3.78800 35.72700 20.45100
H  -2.13400 36.31700 20.12900
H  -2.18800 32.69100 20.18500
H  -3.60500 31.78100 20.66800
H  -1.36300 31.55100 22.78300
H  -0.69300 31.32900 21.16800
H  -2.12100 30.35800 21.75600
H  -5.27500 28.93800 25.91600
H  -5.28500 29.77100 24.35200
H  -6.62900 29.92900 25.52200
H  -3.20800 30.89900 30.19000
H  -5.97500 30.26500 33.09200
H  -6.83900 31.72300 32.32100
H  -5.38400 31.92700 33.28500

