158

Mg 42.18300 41.27600 26.36900
C  41.32700 43.69200 28.67200
C  43.43800 39.33800 28.81000
C  43.08200 39.14500 23.94400
C  41.44700 43.67300 23.73400
N  42.17100 41.50600 28.55800
C  41.79400 42.52400 29.35700
C  41.89500 42.26500 30.89700
C  42.68100 40.92300 30.79300
C  42.86100 40.57900 29.27800
C  43.98600 40.66800 31.63700
C  40.53400 42.20500 31.63000
C  40.28900 43.03900 32.86900
H  39.41600 42.52700 33.93400
N  43.02600 39.47800 26.39800
C  43.53600 38.87100 27.49000
C  44.04200 37.62500 27.09600
C  43.60000 37.41000 25.74300
C  43.21700 38.72500 25.32200
C  44.76600 36.73800 28.09300
C  43.65200 36.10000 24.99000
O  43.24500 36.04300 23.82400
C  44.08600 34.83800 25.63800
N  42.36100 41.46000 24.05700
C  42.71500 40.34700 23.31600
C  42.64800 40.62800 21.85400
C  42.24300 42.10400 21.80800
C  41.86700 42.41400 23.33300
C  43.88700 40.12300 21.00800
C  41.04900 42.47100 20.88600
C  41.08800 43.84700 20.05000
N  41.58400 43.18700 26.16000
C  41.30000 44.03600 25.07600
C  40.78200 45.28400 25.53400
C  40.79700 45.25300 26.90300
C  41.31000 43.91100 27.27000
C  40.41700 46.38700 24.54800
C  40.53800 45.98400 28.13000
O  40.19200 47.15400 28.30800
C  40.77100 44.90800 29.25900
C  41.54700 45.51600 30.41900
O  42.78300 45.64500 30.56500
O  40.58800 45.80000 31.32900
C  41.09100 46.34600 32.65600
H  43.65200 38.61200 29.59800
H  43.39800 38.38300 23.22800
H  41.25000 44.45000 22.99300
H  42.43400 42.99900 31.49600
H  42.02500 40.11900 31.12500
H  44.00000 39.89300 32.40400
H  44.29700 41.65600 31.97700
H  44.79100 40.29900 31.00000
H  40.26800 41.19700 31.94900
H  39.73600 42.49300 30.94500
H  39.74100 43.90400 32.49400
H  41.27800 43.34400 33.21000
H  45.07400 37.46100 28.84800
H  45.61900 36.23000 27.64400
H  44.16800 35.93100 28.51700
H  45.15600 34.85900 25.84400
H  43.72400 33.94300 25.13100
H  43.57700 34.79100 26.60100
H  41.84200 39.98700 21.49600
H  43.06700 42.76400 21.53700
H  44.45200 40.97300 20.62400
H  43.57200 39.45600 20.20600
H  44.55200 39.59000 21.68700
H  40.18000 42.50900 21.54400
H  40.96800 41.69500 20.12500
H  40.25500 44.47600 20.36500
H  41.03300 43.62200 18.98500
H  42.01700 44.39700 20.20000
H  39.77200 45.98600 23.76600
H  41.38800 46.73900 24.19900
H  39.83000 47.18800 24.99600
H  39.79000 44.52700 29.54500
H  41.55500 47.32700 32.56100
H  41.82600 45.79000 33.23700
H  40.25300 46.39900 33.35100
Mg 29.93500 58.91000 39.88200
C  27.53900 56.59700 38.95400
C  32.39400 56.82500 38.67900
C  32.16700 61.50000 40.08600
C  27.22900 61.18800 40.66500
N  29.96500 56.92000 38.98900
C  28.81900 56.17800 38.69200
C  29.28400 54.77600 38.02300
C  30.81300 54.77200 38.23500
C  31.07500 56.27500 38.68100
C  31.36200 53.60300 39.03700
C  28.74000 54.75600 36.57500
C  27.93300 53.50200 36.12400
H  27.10400 53.85900 34.86900
N  32.05000 59.16600 39.44400
C  32.86000 58.13600 38.98700
C  34.21000 58.71600 38.81900
C  34.18500 60.08800 39.26700
C  32.73400 60.26000 39.63000
C  35.34500 57.92200 38.32100
C  35.33500 61.02300 39.29700
O  36.43300 60.59000 38.92600
C  35.36900 62.36000 40.07300
N  29.71100 61.04100 40.28200
C  30.85100 61.82200 40.41800
C  30.42000 63.24100 40.86800
C  28.89000 63.16000 41.11800
C  28.55000 61.74900 40.65100
C  31.28500 63.84100 41.97800
C  28.08900 64.23400 40.38100
C  27.09600 65.02500 41.30200
N  27.83100 58.92600 39.93600
C  26.92400 59.90800 40.15800
C  25.58200 59.37500 39.97500
C  25.77700 58.12400 39.45700
C  27.13200 57.90200 39.43800
C  24.29900 60.13600 40.19100
C  25.08400 57.01700 38.88100
O  23.87200 56.81900 38.63500
C  26.21700 55.93000 38.61100
C  25.99100 54.76000 39.45600
O  26.44700 54.63900 40.56500
O  25.15300 53.84800 38.87600
C  24.69800 52.58700 39.60300
H  33.17700 56.09000 38.48300
H  32.85200 62.33200 40.26000
H  26.46300 61.92700 40.91200
H  28.80200 53.92800 38.50900
H  31.29500 54.67600 37.26200
H  31.48700 53.92400 40.07100
H  32.26000 53.18300 38.58200
H  30.74400 52.70900 39.11600
H  29.49800 54.82500 35.79400
H  28.21800 55.70200 36.42900
H  27.22600 53.31700 36.93200
H  28.55000 52.64200 35.86700
H  35.02900 56.88000 38.28800
H  36.16200 57.96300 39.04000
H  35.67500 58.21400 37.32400
H  34.74900 62.25000 40.96400
H  34.83500 63.09800 39.47500
H  36.38100 62.66800 40.33500
H  30.55500 63.97300 40.07200
H  28.72800 63.27900 42.18900
H  32.23500 63.30800 42.01200
H  30.74900 63.69200 42.91500
H  31.37700 64.91300 41.80700
H  27.55700 63.78500 39.54200
H  28.77500 64.99800 40.01700
H  26.40000 65.51000 40.61800
H  27.55400 65.77300 41.95000
H  26.60000 64.27700 41.92000
H  24.18300 60.43700 41.23200
H  23.41000 59.61100 39.84200
H  24.50600 61.05900 39.64900
H  26.11000 55.60000 37.57800
H  25.05600 52.65500 40.63000
H  25.24800 51.72900 39.21600
H  23.62500 52.45500 39.46300

