158

Mg 8.42500 3.05600 27.42200
C  9.34900 1.45500 30.29700
C  6.50000 5.15100 29.28400
C  7.00400 4.39300 24.59100
C  9.77200 0.50000 25.59800
N  8.02200 3.23600 29.54100
C  8.62700 2.59000 30.54000
C  8.18500 3.16500 31.94500
C  7.05100 4.11500 31.59200
C  7.15700 4.14600 30.04800
C  5.65200 3.79600 32.21600
C  9.36600 3.70100 32.86200
C  8.82600 4.43600 34.16500
H  9.74000 4.25400 35.40700
N  7.14500 4.70000 26.94400
C  6.48700 5.39300 27.90000
C  5.83700 6.46000 27.26100
C  6.03900 6.40800 25.86400
C  6.71400 5.12100 25.72500
C  4.95600 7.42400 28.02200
C  5.64900 7.40400 24.80500
O  5.74600 7.16600 23.62400
C  5.14700 8.81200 25.20200
N  8.27200 2.46800 25.38400
C  7.59500 3.13700 24.40200
C  7.90500 2.57600 22.98800
C  8.72500 1.25800 23.41300
C  8.97400 1.38900 24.92800
C  6.56900 2.28100 22.20500
C  10.04100 1.27300 22.59900
C  10.67400 -0.07000 22.16500
N  9.37700 1.37600 27.86200
C  9.90400 0.45000 27.00600
C  10.66300 -0.64000 27.75400
C  10.41300 -0.23900 29.13700
C  9.68300 0.95600 29.08500
C  11.36900 -1.81900 27.20800
C  10.59100 -0.55600 30.52300
O  11.21100 -1.54700 30.97200
C  9.81700 0.53700 31.38400
C  8.73600 -0.14100 32.12300
O  7.56800 -0.21000 31.74100
O  9.19900 -0.67000 33.30100
C  8.25100 -1.57400 33.98400
H  5.91200 5.86100 29.87100
H  6.61900 4.79100 23.65000
H  10.23500 -0.25700 24.96100
H  7.76300 2.29700 32.45000
H  7.36100 5.13400 31.82000
H  4.90900 3.54300 31.46000
H  5.23800 4.50300 32.93500
H  5.78300 3.01100 32.96100
H  9.97500 4.39300 32.27900
H  9.88400 2.79600 33.18000
H  7.86500 3.94300 34.30900
H  8.73700 5.49800 33.93900
H  5.50200 8.36500 28.09100
H  4.56000 7.06200 28.97100
H  4.09400 7.58900 27.37500
H  4.13000 8.80400 25.59400
H  5.08200 9.49000 24.35000
H  5.75900 9.19900 26.01700
H  8.49700 3.35900 22.51600
H  8.12800 0.37600 23.18300
H  6.36100 3.10000 21.51700
H  5.80500 1.99500 22.92900
H  6.76700 1.37200 21.63700
H  10.80300 1.78600 23.18400
H  10.00900 1.85000 21.67500
H  10.86700 -0.06900 21.09200
H  10.19900 -1.02200 22.40300
H  11.70600 -0.11200 22.51400
H  11.62400 -1.68500 26.15700
H  10.74600 -2.70700 27.31300
H  12.28300 -1.99900 27.77400
H  10.56000 1.05700 31.98900
H  8.17900 -2.45500 33.34500
H  7.22700 -1.20200 33.93300
H  8.58800 -1.95500 34.94800
Mg 25.71800 0.17300 28.86300
C  27.81400 -0.02800 31.71800
C  22.97300 0.28500 30.82700
C  23.77000 0.48600 25.98400
C  28.42300 -0.61700 26.85700
N  25.48700 0.12400 30.99400
C  26.48000 0.27800 31.99800
C  25.80600 0.48100 33.33900
C  24.32000 0.50400 33.01500
C  24.23600 0.28500 31.51700
C  23.38000 -0.27800 33.89000
C  26.49400 1.73800 34.03300
C  25.74900 2.38400 35.24300
H  26.48000 2.79800 36.51800
N  23.65200 0.42400 28.47100
C  22.66900 0.31000 29.45900
C  21.41200 0.27600 28.76300
C  21.64600 0.36700 27.37300
C  23.10700 0.42700 27.21900
C  20.16300 0.09000 29.54900
C  20.67400 0.35700 26.19500
O  20.98200 0.50600 25.00200
C  19.19800 0.12300 26.44500
N  26.10300 0.13800 26.69800
C  25.16200 0.35500 25.73900
C  25.71200 0.23100 24.30200
C  27.28300 -0.06600 24.62500
C  27.27500 -0.22500 26.11400
C  25.02700 -0.95400 23.54900
C  28.35500 1.02000 24.29000
C  27.94000 2.53900 24.46500
N  27.77600 -0.23900 29.15300
C  28.71900 -0.58200 28.23000
C  29.96500 -0.85000 28.93300
C  29.65700 -0.61800 30.32700
C  28.33200 -0.25400 30.42500
C  31.24200 -1.29500 28.32400
C  30.17200 -0.58600 31.68100
O  31.21900 -0.89600 32.19700
C  29.01100 -0.10200 32.56900
C  28.91900 -1.13200 33.60900
O  28.52000 -2.30500 33.38400
O  29.20400 -0.62500 34.82100
C  28.99700 -1.34500 36.09600
H  22.11800 0.48800 31.47500
H  23.17400 0.60100 25.07600
H  29.30800 -0.87500 26.27200
H  26.04400 -0.38600 33.95600
H  24.04800 1.54300 33.19800
H  22.36000 0.06600 33.71800
H  23.62800 -0.10800 34.93800
H  23.46500 -1.34100 33.66200
H  26.76800 2.53500 33.34200
H  27.40000 1.31800 34.47100
H  25.04600 1.63100 35.59800
H  25.27600 3.28100 34.84300
H  20.31200 -0.23900 30.57800
H  19.61700 -0.67900 29.00200
H  19.56100 0.99500 29.62100
H  18.64300 0.78600 27.10900
H  19.12100 -0.78700 27.04000
H  18.61400 -0.05300 25.54200
H  25.68600 1.19500 23.79300
H  27.49100 -1.00400 24.11000
H  24.51700 -1.63000 24.23600
H  25.67300 -1.46500 22.83500
H  24.19100 -0.51300 23.00600
H  28.49100 0.91500 23.21400
H  29.33900 0.86900 24.73400
H  27.35900 2.86400 25.32800
H  27.51100 2.96500 23.55800
H  28.86900 3.10600 24.52800
H  31.31900 -2.37000 28.48500
H  32.10600 -0.75700 28.71400
H  31.28100 -1.13000 27.24800
H  29.28600 0.88700 32.93600
H  28.30300 -2.16600 35.91900
H  28.47600 -0.54300 36.62000
H  29.87500 -1.76300 36.58800

