158

Mg 8.30400 3.20900 27.39500
C  9.47200 1.71700 30.32100
C  6.44400 5.35500 29.27000
C  6.85600 4.42200 24.59500
C  9.75700 0.74400 25.48100
N  7.91800 3.36800 29.63700
C  8.62100 2.80800 30.61200
C  8.48800 3.62900 31.96900
C  7.40500 4.72500 31.57100
C  7.28700 4.45900 30.05700
C  6.07800 4.73100 32.45800
C  9.76400 4.27800 32.46500
C  9.55300 4.85100 33.89600
H  10.48800 4.49700 35.09900
N  6.87200 4.74300 27.01200
C  6.25400 5.54800 27.87500
C  5.41900 6.53200 27.23100
C  5.47700 6.22000 25.82500
C  6.47500 5.08700 25.77400
C  4.57600 7.58900 27.94700
C  4.90700 6.84500 24.57600
O  5.21300 6.52700 23.41900
C  4.04800 8.12200 24.78000
N  8.36700 2.70800 25.30200
C  7.69400 3.36600 24.31700
C  8.20700 2.87100 22.94100
C  9.01600 1.60800 23.30300
C  9.08600 1.73400 24.79500
C  7.04200 2.56000 21.88200
C  10.33400 1.66500 22.41100
C  10.17100 1.19000 20.94600
N  9.36300 1.53200 27.75400
C  9.87800 0.55800 26.88200
C  10.66400 -0.37600 27.62200
C  10.61300 0.12700 28.97700
C  9.71300 1.18000 28.98500
C  11.49900 -1.56600 27.14700
C  11.13200 0.01900 30.31800
O  12.07400 -0.67100 30.73800
C  10.48100 1.05100 31.22700
C  9.92100 0.52100 32.51200
O  8.78200 0.18600 32.66100
O  10.79900 0.72100 33.58400
C  10.32400 0.48300 34.93800
H  6.05300 6.16600 29.88800
H  6.66200 4.98700 23.68200
H  10.21900 0.04200 24.78400
H  8.07000 3.10700 32.83000
H  7.97500 5.64600 31.69400
H  5.20000 4.73000 31.81100
H  6.32200 5.68700 32.91900
H  6.07500 4.00500 33.27100
H  10.09300 5.06900 31.79200
H  10.50900 3.48400 32.52800
H  8.52300 4.68400 34.20900
H  9.68500 5.92800 33.79400
H  4.98500 8.53300 27.58800
H  4.73700 7.76300 29.01100
H  3.51100 7.67300 27.73200
H  4.56500 8.94500 25.27300
H  3.21200 7.79700 25.40000
H  3.72100 8.58300 23.84700
H  8.89600 3.56700 22.46400
H  8.50600 0.67100 23.08100
H  6.93900 1.51200 21.60300
H  7.01300 3.09500 20.93200
H  6.13900 2.80200 22.44200
H  11.16600 1.12800 22.86700
H  10.71700 2.68300 22.35400
H  9.29200 1.69400 20.54400
H  10.02600 0.11100 20.99300
H  11.14100 1.35400 20.47600
H  11.60200 -1.61800 26.06300
H  11.11500 -2.52100 27.50500
H  12.50500 -1.38900 27.52600
H  11.34000 1.69100 31.43100
H  9.56100 1.25200 35.05800
H  11.15200 0.83400 35.55500
H  10.07400 -0.50900 35.31300
Mg 45.48700 5.26300 47.87000
C  43.07700 7.87200 47.10200
C  42.95100 3.03700 47.13800
C  47.75300 2.82700 48.07100
C  47.95000 7.68400 47.95200
N  43.29900 5.45500 47.22200
C  42.47600 6.57900 47.00500
C  41.08600 6.26200 46.56300
C  41.04000 4.74100 46.92100
C  42.55600 4.32800 47.11100
C  40.24200 4.29900 48.17600
C  40.79700 6.45700 45.02800
C  39.29900 6.29200 44.74600
H  38.66500 7.41200 43.93800
N  45.36500 3.15000 47.73400
C  44.25100 2.44300 47.36500
C  44.66100 0.99200 47.38400
C  46.05100 0.93700 47.84200
C  46.46100 2.36100 47.89900
C  43.68700 -0.19500 47.21500
C  46.83600 -0.36900 48.12300
O  46.21600 -1.42500 48.17500
C  48.25600 -0.34700 48.36200
N  47.53000 5.24200 47.97400
C  48.23200 4.09200 48.19500
C  49.73700 4.39700 48.33400
C  49.81400 5.96500 48.23400
C  48.32300 6.33700 48.04300
C  50.44600 3.69400 49.56200
C  50.75800 6.50500 47.05700
C  50.46300 6.15900 45.57500
N  45.61800 7.27800 47.59600
C  46.65800 8.20400 47.66600
C  46.16200 9.54100 47.38300
C  44.77100 9.44700 47.25600
C  44.48500 8.04900 47.34000
C  47.07400 10.75400 47.38700
C  43.57000 10.18700 47.04700
O  43.47700 11.37000 46.87600
C  42.38700 9.18300 46.82000
C  41.16500 9.39400 47.65500
O  40.97900 9.00800 48.82600
O  40.17500 10.11900 46.95200
C  39.07700 10.59500 47.76600
H  42.21200 2.24000 47.03700
H  48.53700 2.06800 48.03300
H  48.69400 8.46900 48.10400
H  40.33700 6.69300 47.22800
H  40.67300 4.22500 46.03300
H  39.74000 5.12800 48.67400
H  40.86300 3.76500 48.89500
H  39.45900 3.61200 47.85400
H  41.35600 5.66400 44.53300
H  41.16600 7.42000 44.67500
H  38.75300 6.20200 45.68500
H  39.17700 5.30600 44.29800
H  43.41400 -0.73300 48.12300
H  44.23400 -0.99300 46.71300
H  42.81600 0.07700 46.61900
H  48.68800 -1.32100 48.58800
H  48.56300 0.36400 49.12900
H  48.46500 0.02100 47.35800
H  50.19900 3.92600 47.46600
H  50.14700 6.41800 49.16800
H  49.77300 3.20600 50.26800
H  50.94200 4.48600 50.12300
H  51.09900 2.91300 49.17100
H  51.73100 6.10100 47.33700
H  50.84800 7.57800 47.23100
H  49.51600 5.61900 45.56300
H  51.20400 5.47400 45.16200
H  50.28100 7.07100 45.00600
H  46.69500 11.47400 46.66200
H  47.97800 10.43900 46.86600
H  47.45700 11.09100 48.35000
H  41.99200 9.12500 45.80600
H  38.29600 9.83500 47.80500
H  38.61400 11.44800 47.26900
H  39.45700 10.85300 48.75400

