158

Mg 47.39800 25.09300 28.76300
C  48.29300 27.18500 31.32900
C  46.14800 22.97500 31.25600
C  46.80400 22.96900 26.40000
C  48.77600 27.30700 26.42200
N  47.02800 25.18000 31.02400
C  47.46200 26.17200 31.82700
C  47.07100 25.96800 33.26800
C  46.54600 24.43700 33.27300
C  46.56800 24.17400 31.76500
C  47.24800 23.29800 34.06500
C  46.02700 26.99300 33.78100
C  46.23800 27.75800 35.13800
H  44.95600 28.08100 35.98700
N  46.51700 23.34300 28.79800
C  46.04200 22.59500 29.85100
C  45.43800 21.42600 29.43900
C  45.61800 21.35700 27.99000
C  46.38300 22.57200 27.67300
C  44.79400 20.41900 30.31400
C  45.32000 20.20100 27.04200
O  45.69100 20.25900 25.86200
C  44.74200 18.80700 27.49400
N  48.09200 24.98900 26.66800
C  47.40900 24.07700 25.91300
C  47.84600 24.24600 24.47000
C  48.14400 25.77900 24.41800
C  48.38500 26.07200 25.90200
C  49.09900 23.32200 24.16800
C  46.98700 26.59100 23.79300
C  47.03800 26.47900 22.21200
N  48.39100 26.86900 28.83900
C  48.86900 27.72000 27.79600
C  49.33000 28.93800 28.38300
C  49.22000 28.70600 29.75600
C  48.61200 27.48000 29.99200
C  49.84000 30.12800 27.64800
C  49.40100 29.31800 31.09500
O  49.82200 30.41500 31.45300
C  48.96800 28.25800 32.17300
C  50.05700 27.79200 33.11100
O  51.05400 27.15600 32.76100
O  49.82700 28.33100 34.38300
C  51.02300 28.23500 35.28500
H  45.64400 22.28900 31.94000
H  46.45300 22.28700 25.62200
H  49.10600 27.98100 25.63000
H  48.01100 26.02600 33.81700
H  45.48500 24.31700 33.49200
H  47.96600 22.70600 33.49800
H  46.56100 22.56300 34.48500
H  47.74900 23.79100 34.89900
H  45.04000 26.53300 33.79800
H  45.94200 27.79500 33.04700
H  46.77700 28.70500 35.11200
H  46.77500 27.10400 35.82500
H  45.54400 19.71000 30.66400
H  44.00200 19.84200 29.83800
H  44.36600 20.86700 31.21100
H  45.42400 18.43300 28.25800
H  44.67500 18.11000 26.65900
H  43.76100 18.97000 27.94200
H  47.06500 24.01100 23.74700
H  49.06300 25.99400 23.87300
H  49.16900 22.70200 25.06100
H  50.09100 23.76900 24.09400
H  48.98100 22.68100 23.29400
H  47.02700 27.63500 24.10500
H  46.04800 26.08300 24.00900
H  46.19900 26.07100 21.64700
H  47.93900 26.00300 21.82600
H  47.17100 27.51800 21.90900
H  50.88300 30.28100 27.92300
H  49.24400 30.97400 27.99000
H  49.71800 30.12800 26.56500
H  48.17100 28.81200 32.66800
H  50.88000 27.41200 35.98500
H  51.12700 29.21400 35.75200
H  51.93300 28.06400 34.71100
Mg 36.54700 48.79400 25.25700
C  36.49400 46.83900 28.18800
C  34.59400 51.04500 26.76800
C  36.17600 50.33900 22.23600
C  38.15200 46.12200 23.62900
N  35.58800 48.90700 27.22800
C  35.83300 48.07300 28.30800
C  35.48900 48.73300 29.66300
C  34.72200 50.02200 29.21000
C  34.97500 49.99400 27.63600
C  33.17100 50.02400 29.53500
C  36.70400 48.83000 30.64500
C  36.69600 48.07400 31.99800
H  35.36000 47.95400 32.66900
N  35.48200 50.46400 24.55200
C  34.73800 51.26200 25.36900
C  34.20700 52.38200 24.59700
C  34.67600 52.32000 23.26000
C  35.50700 51.00600 23.27000
C  33.38800 53.44600 25.30200
C  34.46600 53.18100 22.10400
O  35.21900 52.96500 21.13100
C  33.53200 54.37700 22.11100
N  37.08500 48.30200 23.24500
C  36.84400 49.12800 22.17400
C  37.50200 48.59600 20.88300
C  38.22100 47.32300 21.41900
C  37.89600 47.32900 22.86000
C  36.56500 48.37400 19.58700
C  39.79000 47.27700 21.30300
C  40.35300 46.90000 19.93100
N  37.29500 46.92800 25.77700
C  37.87700 45.95100 25.00500
C  38.15300 44.73600 25.85400
C  37.61600 45.07000 27.12900
C  37.14200 46.39400 26.99900
C  38.68700 43.39800 25.36800
C  37.42700 44.56200 28.45700
O  37.76000 43.51400 28.98900
C  36.73500 45.72500 29.27100
C  35.42600 45.17600 29.77400
O  34.44100 45.26800 29.09800
O  35.53900 44.49700 30.93500
C  34.28200 43.83700 31.37900
H  34.02200 51.76500 27.35800
H  36.12800 50.93100 21.31900
H  38.55200 45.17000 23.27300
H  34.82000 48.06600 30.20700
H  35.23200 50.89700 29.61200
H  32.84700 49.16900 30.12800
H  32.45700 50.07600 28.71300
H  33.04300 50.93800 30.11500
H  37.01500 49.84700 30.88300
H  37.44800 48.38300 29.98600
H  37.21100 48.75500 32.67500
H  37.29100 47.16500 31.90100
H  32.32700 53.23300 25.43500
H  33.49700 54.35900 24.71700
H  33.84300 53.70000 26.25900
H  32.52000 53.97900 22.17700
H  33.44700 54.76500 21.09600
H  33.75200 55.26300 22.70700
H  38.38100 49.15700 20.56500
H  37.79400 46.45900 20.91100
H  35.57100 48.79100 19.74800
H  36.43300 47.30800 19.40700
H  36.93000 48.94500 18.73300
H  40.15700 46.63700 22.10500
H  40.26400 48.22300 21.56300
H  41.02900 47.70000 19.62900
H  39.64100 46.72300 19.12500
H  40.90600 45.97300 20.08700
H  39.41700 43.56600 24.57700
H  37.91800 42.65700 25.14900
H  39.31400 42.95700 26.14300
H  37.40900 46.08500 30.05000
H  33.94400 43.09900 30.65100
H  33.47500 44.56400 31.47100
H  34.39400 43.45500 32.39400

