158

Mg 47.87900 14.46000 28.17300
C  45.85500 14.58200 31.04000
C  49.80500 17.03100 29.66900
C  49.86000 14.60600 25.40800
C  45.52800 12.76800 26.51400
N  47.80700 15.63200 30.16800
C  47.04800 15.33900 31.24400
C  47.70400 15.94700 32.45900
C  48.54300 17.07700 31.88500
C  48.70400 16.59600 30.43100
C  48.07000 18.50500 31.96400
C  48.37600 14.89800 33.31100
C  48.10100 14.90400 34.77100
H  49.20900 14.65000 35.75700
N  49.67700 15.61500 27.64300
C  50.38000 16.53600 28.42900
C  51.56900 17.00800 27.69900
C  51.57400 16.30900 26.43300
C  50.37800 15.42600 26.47200
C  52.55100 17.97900 28.36900
C  52.59000 16.50600 25.32600
O  52.51500 15.84700 24.26800
C  53.63200 17.55300 25.46600
N  47.70600 13.86400 26.26900
C  48.61400 13.96100 25.28900
C  48.19300 13.36500 23.94800
C  46.79600 12.78100 24.34200
C  46.67100 13.12000 25.82700
C  48.07200 14.38700 22.80200
C  46.45400 11.28400 23.98100
C  47.13600 10.16500 24.73500
N  46.09900 13.82100 28.61900
C  45.18100 13.17400 27.81900
C  44.02700 12.80900 28.60100
C  44.22300 13.36700 29.82200
C  45.48800 13.93100 29.83700
C  42.83000 12.14500 28.09200
C  43.60200 13.60200 31.08500
O  42.47300 13.35100 31.49300
C  44.65000 14.35500 31.89600
C  44.01700 15.56200 32.51500
O  44.10500 16.73600 32.20100
O  43.56800 15.10900 33.75500
C  43.07300 16.20300 34.66900
H  50.33400 17.82000 30.20700
H  50.52400 14.53400 24.54400
H  44.67600 12.15400 26.21500
H  46.89800 16.44700 32.99600
H  49.48400 17.15600 32.42900
H  47.47800 18.80200 31.09900
H  48.88800 19.21200 32.10300
H  47.48900 18.72600 32.86000
H  49.46100 15.00400 33.27200
H  48.19600 13.92800 32.84700
H  47.36700 14.17800 35.12100
H  47.72100 15.90200 34.98700
H  52.44300 19.04100 28.15300
H  53.61900 17.82000 28.21600
H  52.56400 17.85300 29.45200
H  54.48800 17.34000 26.10500
H  53.20300 18.48700 25.83000
H  54.07600 17.63700 24.47400
H  48.78400 12.54400 23.54200
H  46.05200 13.37500 23.81200
H  47.07000 14.37200 22.37300
H  48.89200 14.26000 22.09600
H  48.38600 15.34500 23.21500
H  46.72400 11.18200 22.92900
H  45.39100 11.07700 24.10800
H  47.82400 9.63800 24.07400
H  46.36000 9.48700 25.09100
H  47.63800 10.57900 25.61000
H  42.86000 11.05800 28.01700
H  42.50000 12.66900 27.19500
H  42.07100 12.24800 28.86700
H  44.84500 13.65100 32.70500
H  42.16400 16.59200 34.21000
H  43.76700 17.03900 34.76100
H  42.88700 15.79600 35.66300
Mg -1.52200 34.68800 27.35000
C  -3.28600 32.77200 29.99800
C  -0.29000 36.63600 29.80000
C  -0.84800 36.68400 24.97500
C  -3.41100 32.63600 25.07800
N  -1.84300 34.71100 29.68600
C  -2.49000 33.86100 30.49000
C  -2.18000 34.19000 32.00200
C  -1.24500 35.43000 31.89200
C  -1.10000 35.64600 30.36400
C  -1.68200 36.67800 32.65800
C  -1.45100 33.07200 32.77000
C  -2.21900 32.18400 33.72700
H  -1.69200 32.08700 35.21000
N  -0.57700 36.33200 27.39900
C  -0.08300 37.03200 28.49000
C  0.58900 38.22100 27.98300
C  0.46600 38.25500 26.57100
C  -0.35600 37.07300 26.26500
C  1.54200 39.06400 28.84400
C  1.04400 39.20900 25.59600
O  0.95800 39.09500 24.36600
C  1.57700 40.43700 26.04100
N  -2.14100 34.65300 25.26200
C  -1.62400 35.63000 24.51200
C  -1.96700 35.37300 23.00100
C  -2.48600 33.91700 23.06600
C  -2.69800 33.70200 24.54200
C  -3.01500 36.38300 22.44800
C  -1.53900 32.80600 22.41800
C  -0.34800 32.33300 23.36000
N  -2.99200 32.99200 27.46600
C  -3.59500 32.39200 26.44400
C  -4.30600 31.23500 26.91400
C  -4.31200 31.31700 28.37700
C  -3.44800 32.44100 28.62900
C  -4.97500 30.20400 25.95600
C  -4.79900 30.78500 29.64900
O  -5.47100 29.78000 29.89500
C  -4.11500 31.71800 30.72100
C  -5.14100 32.29100 31.59500
O  -5.88800 33.20900 31.29200
O  -5.21600 31.62600 32.77700
C  -6.25900 31.92400 33.71300
H  0.32600 37.11700 30.56400
H  -0.66200 37.40500 24.17600
H  -3.72500 31.96400 24.27700
H  -3.10800 34.55400 32.44300
H  -0.23700 35.24400 32.26300
H  -2.65300 36.96200 32.25100
H  -0.80900 37.33000 32.68800
H  -1.98100 36.37600 33.66200
H  -0.56900 33.41300 33.31300
H  -1.25900 32.40500 31.93000
H  -2.14300 31.21000 33.24200
H  -3.22800 32.57500 33.85700
H  2.37800 39.50100 28.29800
H  1.95600 38.58500 29.73200
H  1.08300 40.01700 29.10900
H  1.05800 40.85800 26.90100
H  1.71100 41.11800 25.20000
H  2.57100 40.08600 26.31800
H  -0.98200 35.35600 22.53500
H  -3.40000 33.74500 22.49800
H  -2.49700 36.84200 21.60500
H  -3.37200 37.07200 23.21300
H  -3.88200 35.85400 22.05100
H  -0.98200 33.11900 21.53500
H  -1.97800 31.85900 22.10300
H  -0.32700 32.87700 24.30500
H  0.62900 32.30400 22.87600
H  -0.45600 31.34500 23.80700
H  -4.31300 29.51400 25.43300
H  -5.41500 30.67900 25.07900
H  -5.68500 29.58600 26.50500
H  -3.57000 30.99500 31.32800
H  -6.86400 32.78300 33.42200
H  -5.80100 32.19600 34.66400
H  -6.83900 31.03600 33.96400

