158

Mg 10.04900 47.00300 26.16600
C  8.24400 46.99300 29.11200
C  12.78500 48.11900 27.86900
C  11.70400 47.10100 23.28200
C  6.94800 46.57800 24.39900
N  10.41300 47.49500 28.24500
C  9.56100 47.40000 29.28000
C  10.21000 47.76700 30.55500
C  11.43300 48.62300 29.96500
C  11.58400 48.00500 28.60800
C  11.10800 50.14400 29.91500
C  10.71800 46.54400 31.26900
C  10.89500 46.72400 32.76200
H  10.49400 45.62000 33.72200
N  11.94600 47.61700 25.60800
C  12.95000 47.95700 26.46900
C  14.22700 47.97300 25.82000
C  13.94300 47.60700 24.48700
C  12.47600 47.49600 24.34400
C  15.52000 48.35800 26.44100
C  15.03000 47.28400 23.45500
O  14.66200 47.14500 22.30000
C  16.51500 47.35400 23.77300
N  9.40100 47.07700 24.10700
C  10.39500 47.10100 23.12000
C  9.72400 46.83300 21.75200
C  8.20800 46.46200 22.13000
C  8.14100 46.81100 23.66900
C  9.87800 47.95700 20.78700
C  7.90700 45.02100 21.87300
C  8.68100 43.93700 22.69100
N  7.99000 46.79400 26.56300
C  6.86700 46.69900 25.79700
C  5.74900 46.47300 26.66600
C  6.21000 46.63900 28.00900
C  7.60500 46.78400 27.85400
C  4.37900 46.00100 26.28800
C  5.78200 46.65500 29.34900
O  4.63000 46.56500 29.84400
C  7.10800 46.85300 30.19100
C  7.33800 45.66800 31.05800
O  7.77000 44.59700 30.69000
O  6.80800 45.93500 32.32800
C  6.72900 44.75300 33.20900
H  13.68700 48.42700 28.40200
H  12.23700 46.98800 22.33500
H  6.05000 46.44000 23.79300
H  9.43400 48.13300 31.22600
H  12.34100 48.36500 30.51000
H  10.03800 50.28100 30.07200
H  11.27600 50.32400 28.85300
H  11.71600 50.71300 30.61800
H  11.65900 46.24500 30.80800
H  10.06600 45.69900 31.04400
H  10.54700 47.67200 33.17200
H  11.97800 46.73700 32.87900
H  15.48100 48.62900 27.49600
H  16.04000 49.22400 26.03100
H  16.09900 47.43500 26.47100
H  16.67500 46.50900 24.44400
H  16.89800 48.26600 24.23100
H  17.13900 47.11900 22.91100
H  10.29500 46.01300 21.31600
H  7.48300 47.10400 21.63100
H  10.38500 47.69100 19.85900
H  10.40000 48.74600 21.32800
H  8.87300 48.22200 20.45900
H  8.03700 44.74800 20.82600
H  6.81900 45.00800 21.94100
H  9.24400 44.37000 23.51800
H  9.53500 43.71600 22.05200
H  8.04100 43.09300 22.94800
H  4.33900 45.38100 25.39200
H  3.65600 46.81200 26.20200
H  4.01500 45.37200 27.10100
H  6.86500 47.72500 30.79900
H  7.54700 44.03300 33.18100
H  5.74300 44.28700 33.21900
H  6.86000 45.12000 34.22700
Mg -1.93200 34.23400 26.49100
C  -3.36200 32.38400 29.24900
C  -0.04600 36.00700 28.94300
C  -0.43000 35.77200 24.05600
C  -3.82800 32.30700 24.39100
N  -1.76800 34.22400 28.86400
C  -2.38500 33.32200 29.72400
C  -2.06300 33.67300 31.21200
C  -1.07100 34.88700 31.10800
C  -0.92700 35.06600 29.54100
C  -1.58100 36.24900 31.72800
C  -1.49400 32.52100 32.00800
C  -0.88000 32.76000 33.47100
H  -1.31200 31.98700 34.76500
N  -0.51200 35.67900 26.48500
C  0.19300 36.29300 27.53400
C  1.13800 37.26800 26.99700
C  0.94300 37.28500 25.64800
C  -0.08200 36.22900 25.30600
C  2.09700 38.08000 27.86700
C  1.65400 38.13900 24.60900
O  1.29100 38.06300 23.40400
C  2.81900 38.91000 25.06200
N  -2.09300 34.10200 24.45900
C  -1.39700 34.86900 23.62200
C  -1.74900 34.53700 22.10300
C  -2.85900 33.46400 22.27700
C  -2.95100 33.23800 23.83000
C  -2.11400 35.76900 21.25600
C  -2.70300 32.18900 21.32000
C  -1.82100 31.08900 21.86700
N  -3.40300 32.76100 26.69200
C  -4.05400 32.03600 25.75200
C  -4.85000 31.06400 26.33900
C  -4.66400 31.14800 27.71300
C  -3.80700 32.26800 27.91500
C  -5.86400 30.12800 25.67300
C  -4.99600 30.63400 28.97000
O  -5.76100 29.80200 29.28700
C  -4.20300 31.41200 30.08900
C  -5.10200 32.08800 31.13300
O  -5.85100 33.07200 30.87200
O  -5.13400 31.44800 32.26300
C  -6.05800 32.06400 33.33200
H  0.32100 36.73900 29.66500
H  0.00000 36.30300 23.20400
H  -4.44600 31.69100 23.73400
H  -3.01000 33.88000 31.71000
H  -0.11100 34.80700 31.61900
H  -2.19200 36.78700 31.00300
H  -0.75400 36.83300 32.13300
H  -2.15000 35.96300 32.61200
H  -0.58200 32.23000 31.48900
H  -2.16300 31.66100 32.00200
H  -1.09900 33.80400 33.69500
H  0.19400 32.58800 33.54900
H  3.09600 38.33300 27.51200
H  2.23700 37.46100 28.75300
H  1.61200 39.03600 28.06500
H  2.46900 39.61900 25.81200
H  3.28700 39.41300 24.21600
H  3.66300 38.35700 25.47500
H  -0.89400 34.03900 21.64500
H  -3.77900 33.99300 22.02900
H  -1.23200 36.37200 21.04000
H  -2.79500 36.38600 21.84200
H  -2.55900 35.50700 20.29600
H  -2.57300 32.42400 20.26300
H  -3.71000 31.78400 21.41600
H  -2.38100 30.19000 22.12600
H  -1.32300 31.46300 22.76200
H  -1.11400 30.91900 21.05500
H  -5.20200 29.60100 24.98600
H  -6.60200 30.76200 25.18300
H  -6.31000 29.55400 26.48500
H  -3.56800 30.60200 30.44800
H  -6.86200 32.58100 32.80700
H  -5.49700 32.66000 34.05200
H  -6.56300 31.25100 33.85300

