158

Mg 41.02600 41.23800 27.56200
C  40.14800 43.71200 29.79300
C  41.72400 39.26200 30.12700
C  41.83900 38.73000 25.21100
C  40.60100 43.35000 24.89900
N  40.84500 41.49500 29.78100
C  40.34400 42.53100 30.50100
C  40.07300 42.21200 31.97400
C  40.63600 40.72300 31.98100
C  41.08700 40.42300 30.53400
C  41.68100 40.37000 33.06100
C  38.59300 42.37500 32.41800
C  38.41500 41.93500 33.82300
H  38.75400 42.83500 35.06900
N  41.67300 39.27100 27.70400
C  41.92900 38.62300 28.91600
C  42.34400 37.28900 28.63400
C  42.41600 37.19000 27.20900
C  41.95200 38.46000 26.59500
C  42.58800 36.26400 29.78200
C  42.96300 36.03500 26.39500
O  43.22100 36.05500 25.22800
C  43.20700 34.66500 27.08600
N  41.17900 41.05000 25.39700
C  41.41800 39.91400 24.66100
C  41.36000 40.12300 23.13200
C  40.71200 41.54200 23.07200
C  40.79900 42.03400 24.55300
C  42.73100 40.04900 22.46800
C  39.24700 41.63500 22.52800
C  38.12500 41.13700 23.48300
N  40.52500 43.17600 27.35100
C  40.47200 43.92200 26.19300
C  40.14600 45.31000 26.57500
C  40.02800 45.25100 27.99400
C  40.24900 43.94800 28.40200
C  39.92500 46.51400 25.59500
C  39.79200 46.02000 29.19800
O  39.71400 47.23000 29.29500
C  39.78100 45.07100 30.37000
C  40.87800 45.46600 31.29200
O  42.04900 45.26800 31.15800
O  40.35700 46.08900 32.40100
C  41.30700 46.24800 33.54300
H  41.86100 38.69700 31.05100
H  42.24500 38.02600 24.48100
H  40.61600 44.01900 24.03600
H  40.68100 42.84100 32.62300
H  39.74100 40.10400 32.03800
H  41.24500 39.65200 33.75600
H  41.99200 41.27600 33.58200
H  42.58200 39.88200 32.69000
H  37.86800 41.82600 31.81600
H  38.41500 43.44800 32.47900
H  39.00000 41.03400 34.00400
H  37.35500 41.71500 33.95100
H  43.62400 35.94900 29.90600
H  41.91500 35.41900 29.63300
H  42.39400 36.71900 30.75300
H  42.35100 34.46400 27.73100
H  44.14700 34.92400 27.57200
H  43.36000 33.87200 26.35300
H  40.67900 39.41900 22.65300
H  41.37500 42.21700 22.53000
H  42.95500 40.71800 21.63700
H  42.88700 39.06200 22.03300
H  43.43800 40.08200 23.29700
H  39.22900 41.13400 21.56000
H  39.02100 42.67500 22.29000
H  38.61500 40.83400 24.40900
H  37.55500 40.30000 23.08000
H  37.46600 41.95300 23.77800
H  39.81900 46.17800 24.56300
H  40.70900 47.22500 25.85300
H  38.99700 46.93200 25.98400
H  38.83100 45.07300 30.90400
H  42.16900 46.76600 33.12300
H  41.59200 45.26800 33.92600
H  40.81300 46.74500 34.37800
Mg 36.16600 49.48200 25.98500
C  35.67600 47.61300 28.97700
C  35.84200 52.34500 27.65200
C  35.90900 51.00600 23.06700
C  36.54700 46.47200 24.26100
N  35.76500 49.93300 28.06300
C  35.64300 49.04000 29.14300
C  35.38800 49.82700 30.44100
C  35.70300 51.37800 30.01600
C  35.89200 51.17400 28.48800
C  34.53900 52.35600 30.47500
C  36.33100 49.37600 31.64000
C  35.70200 48.82000 32.86900
H  34.23700 49.17700 33.17900
N  35.85500 51.42200 25.42000
C  35.79400 52.45200 26.28900
C  35.64400 53.66800 25.55400
C  35.60100 53.34900 24.15000
C  35.83500 51.86200 24.16400
C  35.47500 55.01500 26.13700
C  35.41300 54.17600 22.90600
O  35.53800 53.78100 21.77900
C  35.33100 55.71300 23.05400
N  36.00800 48.78500 23.94700
C  35.89000 49.65500 22.94700
C  36.09000 48.97000 21.57300
C  36.50900 47.51200 21.96300
C  36.26700 47.58700 23.46500
C  34.92500 49.01800 20.50900
C  38.00400 47.15800 21.61200
C  38.12300 45.97700 20.60000
N  36.16400 47.38500 26.48200
C  36.39600 46.30900 25.65500
C  36.42600 45.10800 26.45800
C  36.13500 45.56500 27.83000
C  36.01000 46.97900 27.75000
C  36.67100 43.68300 26.08300
C  36.06200 45.12000 29.21100
O  36.27400 44.01600 29.75600
C  35.62500 46.53000 30.01600
C  34.33400 46.28700 30.66700
O  33.29300 46.69200 30.17000
O  34.49700 45.48600 31.78100
C  33.32600 45.18000 32.50000
H  35.92600 53.26500 28.23400
H  35.94400 51.52600 22.10700
H  36.75300 45.63400 23.59100
H  34.34200 49.77500 30.74500
H  36.61600 51.83500 30.39700
H  34.98900 53.16900 31.04600
H  33.93400 51.81200 31.20100
H  33.88500 52.70600 29.67700
H  36.94800 50.19900 31.99900
H  36.86700 48.52700 31.21500
H  36.23800 49.22300 33.72900
H  35.76400 47.73200 32.90100
H  36.29700 55.68100 25.87600
H  35.37700 55.02500 27.22200
H  34.59200 55.45500 25.67400
H  36.26500 56.04600 23.50500
H  34.43600 56.10500 23.53600
H  35.33900 56.05000 22.01700
H  36.94600 49.50600 21.16300
H  35.79700 46.83500 21.49000
H  34.96200 49.86600 19.82400
H  33.92200 49.07000 20.93200
H  35.00900 48.11400 19.90500
H  38.58500 46.90700 22.50000
H  38.42800 48.06600 21.18200
H  38.80700 46.36000 19.84200
H  37.20200 45.81400 20.04000
H  38.39700 45.03500 21.07700
H  37.70300 43.53200 26.40000
H  36.52900 43.48700 25.02100
H  36.04400 43.06200 26.72400
H  36.35700 46.56300 30.82300
H  32.82900 46.12100 32.73500
H  33.54300 44.59300 33.39300
H  32.60800 44.57500 31.94700

