158

Mg 54.35800 23.99700 44.08300
C  51.37700 25.99300 43.81200
C  52.32200 21.22100 43.80400
C  57.07400 22.03200 44.12800
C  56.10300 26.76000 44.81500
N  52.13200 23.68700 43.78800
C  51.07200 24.60400 43.69400
C  49.73600 23.94900 43.73800
C  50.08600 22.49100 44.15200
C  51.63200 22.43900 43.90200
C  49.75100 22.07700 45.61000
C  48.94100 24.05400 42.38500
C  49.62300 23.77700 41.06700
H  49.49500 24.58200 39.78100
N  54.66500 21.85900 43.73900
C  53.69400 20.88300 43.73400
C  54.32100 19.56500 43.63800
C  55.73600 19.79800 43.87300
C  55.93600 21.24600 43.90800
C  53.58900 18.23600 43.50900
C  56.83000 18.68700 44.10100
O  56.49900 17.52900 44.00900
C  58.26300 19.00900 44.42400
N  56.32300 24.39400 44.16300
C  57.23300 23.41800 44.34400
C  58.62400 23.93500 44.72500
C  58.32500 25.45100 45.01400
C  56.81400 25.54300 44.69800
C  59.44100 23.24500 45.84200
C  59.18900 26.39700 44.10800
C  59.44900 27.77900 44.73400
N  53.94400 26.03800 44.24800
C  54.77400 27.03300 44.49800
C  53.96700 28.25400 44.65400
C  52.68600 27.96600 44.37300
C  52.72400 26.57200 44.08100
C  54.50900 29.55800 45.09300
C  51.36700 28.44200 44.23200
O  50.94900 29.53500 44.46100
C  50.43400 27.23000 43.81900
C  49.95700 27.47300 42.41800
O  50.45700 27.04500 41.39900
O  48.81700 28.21500 42.60700
C  48.07900 28.51300 41.38700
H  51.64100 20.36800 43.78400
H  57.92000 21.34700 44.03100
H  56.54200 27.69400 45.17300
H  49.17200 24.50100 44.49000
H  49.59400 21.76900 43.50000
H  50.63900 22.27500 46.21000
H  49.52000 21.01100 45.61900
H  48.92800 22.64800 46.03900
H  48.47500 25.03900 42.36300
H  48.22000 23.24800 42.52600
H  49.38500 22.72700 40.89700
H  50.67500 23.62600 41.31000
H  52.53300 18.46400 43.36900
H  53.77200 17.67900 44.42800
H  54.03700 17.70900 42.66600
H  58.83400 18.16300 44.80700
H  58.19200 19.79500 45.17500
H  58.73200 19.35700 43.50400
H  59.14000 23.75200 43.78200
H  58.49700 25.70900 46.05900
H  59.23100 23.90600 46.68300
H  60.47400 23.34800 45.51100
H  59.07600 22.21800 45.86700
H  58.50000 26.53100 43.27400
H  60.05300 25.87300 43.70000
H  59.16000 28.57700 44.05100
H  60.48700 27.85700 45.05800
H  58.87400 27.96300 45.64100
H  53.68700 30.17400 45.45800
H  55.01500 30.00100 44.23500
H  55.23000 29.38400 45.89200
H  49.63100 27.12800 44.55000
H  47.16700 29.04100 41.66300
H  47.73500 27.60600 40.89000
H  48.65600 29.22600 40.79900
Mg 47.59800 25.44300 28.80600
C  49.11400 27.42100 31.35000
C  46.99900 23.06200 31.05800
C  46.84600 23.38900 26.21200
C  49.13100 27.69000 26.48500
N  47.95500 25.32900 30.98200
C  48.46700 26.27100 31.84800
C  48.19700 25.86900 33.29600
C  47.91500 24.36700 33.13900
C  47.70800 24.18700 31.62300
C  48.93800 23.42800 33.70500
C  47.10700 26.68900 34.08000
C  47.43900 27.14500 35.50700
H  46.29100 27.21400 36.53900
N  46.82600 23.51400 28.64300
C  46.58700 22.71300 29.70100
C  45.98900 21.46700 29.21500
C  45.78000 21.62500 27.81300
C  46.44700 22.86600 27.49600
C  45.69600 20.28000 30.13900
C  45.07600 20.77200 26.76200
O  45.03000 20.90400 25.55300
C  44.34700 19.59100 27.29100
N  47.91000 25.61100 26.69200
C  47.46700 24.57800 25.88200
C  47.76900 24.98400 24.41900
C  48.42300 26.38800 24.39600
C  48.47600 26.60600 25.93900
C  48.73000 23.93100 23.86300
C  47.46100 27.48100 23.77100
C  48.23800 28.60400 22.98100
N  48.74100 27.27200 28.95700
C  49.16200 28.07400 27.88100
C  49.89600 29.19100 28.46200
C  49.81700 29.03100 29.85000
C  49.17700 27.83800 30.05700
C  50.59200 30.18900 27.60500
C  50.40000 29.53000 31.16700
O  51.03800 30.51900 31.50500
C  49.73300 28.53100 32.21300
C  50.83400 28.14000 33.13000
O  51.69200 27.33200 32.88200
O  50.73000 28.69400 34.39400
C  51.68500 28.24400 35.40000
H  46.86500 22.28500 31.81300
H  46.71200 22.71900 25.36000
H  49.64100 28.30200 25.73800
H  49.16500 26.00700 33.77600
H  46.94100 24.17800 33.59000
H  49.18900 23.54300 34.76000
H  49.83500 23.36100 33.09000
H  48.45200 22.45200 33.67600
H  46.15400 26.17300 34.19900
H  46.87900 27.58600 33.50400
H  47.60000 28.21500 35.36800
H  48.32100 26.69300 35.96000
H  46.14000 19.41400 29.64900
H  44.66200 19.97900 30.30800
H  46.15500 20.53700 31.09400
H  43.53500 20.02500 27.87300
H  45.09300 18.95400 27.76700
H  43.84800 19.20500 26.40200
H  46.87600 24.98700 23.79500
H  49.46400 26.46200 24.08000
H  48.12700 23.23600 23.28000
H  49.23900 23.50600 24.72800
H  49.44600 24.36500 23.16600
H  46.85300 27.98800 24.51900
H  46.71600 27.08400 23.08200
H  47.83900 28.54500 21.96800
H  49.25700 28.22300 23.05300
H  48.09700 29.63500 23.30700
H  50.34500 30.12400 26.54500
H  51.61500 29.82600 27.51300
H  50.57200 31.20800 27.99100
H  49.12200 29.04800 32.95300
H  52.60300 28.83100 35.36600
H  51.83200 27.16700 35.32000
H  51.36400 28.45100 36.42100

