158

Mg 24.22100 -4.78700 45.48100
C  26.34400 -2.47000 44.02800
C  21.75600 -3.65500 43.45000
C  22.40600 -7.56300 46.08600
C  26.92100 -6.27800 47.04200
N  24.14400 -3.32700 43.82600
C  25.04000 -2.40800 43.53800
C  24.66000 -1.53900 42.32200
C  23.05100 -1.76600 42.37600
C  22.94100 -2.97600 43.33600
C  22.16700 -0.55800 42.82500
C  25.34000 -2.12200 41.04500
C  26.14800 -1.15500 40.20200
H  25.74400 -1.21500 38.66800
N  22.25300 -5.42200 45.02400
C  21.40800 -4.81300 44.13500
C  20.12300 -5.53400 44.05500
C  20.28200 -6.63100 44.90400
C  21.68700 -6.55800 45.42400
C  18.95700 -4.99200 43.33100
C  19.21400 -7.61000 45.19900
O  18.13900 -7.64100 44.70300
C  19.40300 -8.67700 46.28600
N  24.69100 -6.75200 46.42600
C  23.69700 -7.64000 46.59900
C  24.24800 -8.91600 47.32900
C  25.64100 -8.41500 47.84200
C  25.79700 -7.12700 47.01000
C  23.40600 -9.37300 48.54300
C  26.83500 -9.36000 47.62500
C  27.90300 -9.49300 48.72300
N  26.22800 -4.43500 45.59800
C  27.19600 -5.04200 46.35800
C  28.43300 -4.25800 46.26500
C  28.16800 -3.21200 45.39700
C  26.82300 -3.38700 45.02900
C  29.61100 -4.48300 47.12200
C  28.60500 -1.95800 44.78200
O  29.64300 -1.39500 44.92100
C  27.46600 -1.63700 43.73800
C  27.10400 -0.25800 44.02500
O  26.43000 0.14300 44.99400
O  27.58900 0.54600 43.02000
C  27.39500 1.96700 43.17200
H  20.96100 -3.23600 42.83100
H  21.87900 -8.51700 46.01600
H  27.73200 -6.72500 47.62000
H  24.75800 -0.46100 42.45300
H  22.73200 -2.12600 41.39800
H  21.37900 -0.42100 42.08500
H  22.70900 0.38000 42.70800
H  21.76200 -0.64100 43.83300
H  24.59800 -2.63700 40.43600
H  25.94900 -2.98800 41.30300
H  27.18200 -1.43500 40.40200
H  26.08200 -0.16500 40.65200
H  19.36200 -4.47000 42.46300
H  18.47000 -4.21500 43.91900
H  18.23800 -5.76300 43.05700
H  19.92600 -9.58000 45.97200
H  18.41200 -8.97300 46.63000
H  19.90400 -8.34000 47.19300
H  24.23900 -9.71900 46.59200
H  25.52500 -8.04100 48.86000
H  23.78400 -9.16000 49.54300
H  23.44200 -10.45500 48.42000
H  22.38900 -9.04900 48.32100
H  27.31500 -9.07100 46.68900
H  26.46500 -10.36300 47.41500
H  28.91000 -9.40700 48.31400
H  27.90700 -10.53800 49.03200
H  27.80500 -8.79900 49.55800
H  30.12000 -5.20300 46.48200
H  29.25700 -4.79700 48.10400
H  30.27100 -3.61700 47.18200
H  27.79900 -1.82600 42.71700
H  27.28100 2.33000 42.15100
H  28.21000 2.52100 43.63800
H  26.53900 2.24800 43.78600
Mg 35.73200 48.54600 25.03400
C  35.77000 46.74300 28.06300
C  34.26100 51.14600 26.68500
C  35.33200 50.11000 22.10100
C  36.66000 45.52600 23.36900
N  35.07700 48.82100 27.18800
C  35.31000 48.01300 28.24500
C  35.00600 48.78000 29.58500
C  34.20900 50.04800 29.04100
C  34.52800 50.02100 27.57500
C  32.67500 50.03700 29.50200
C  36.28800 49.19400 30.42000
C  36.15500 48.86400 31.90200
H  34.71200 48.72100 32.42900
N  35.03800 50.39800 24.48400
C  34.52700 51.33700 25.30400
C  34.30200 52.59000 24.62100
C  34.61200 52.30300 23.21500
C  35.00000 50.88300 23.24200
C  33.82800 53.88200 25.35800
C  34.67700 53.18500 21.98900
O  35.05200 52.72900 20.88800
C  34.24600 54.61500 21.99900
N  36.03600 47.91000 23.06700
C  35.77000 48.76900 22.00200
C  35.89500 48.00000 20.65000
C  36.61600 46.66200 21.12500
C  36.45300 46.68100 22.61300
C  34.59200 47.76700 19.90800
C  38.04900 46.46100 20.57900
C  39.23400 47.15400 21.18600
N  36.13100 46.51000 25.55200
C  36.44900 45.39300 24.75500
C  36.81400 44.29600 25.62700
C  36.56000 44.80400 26.94100
C  36.10300 46.10200 26.81300
C  37.31500 42.94300 25.19100
C  36.52800 44.41300 28.31000
O  36.87100 43.35200 28.86400
C  36.10700 45.70900 29.16100
C  34.83900 45.23300 29.88900
O  33.71400 45.39900 29.47900
O  35.21100 44.69300 31.14500
C  34.03500 44.37600 32.06700
H  33.60800 51.91300 27.10600
H  35.07700 50.58000 21.14800
H  37.06400 44.67200 22.82100
H  34.36400 48.10300 30.14800
H  34.69400 50.91600 29.48800
H  32.48000 49.08200 29.99100
H  31.95800 50.21400 28.70000
H  32.51800 50.83600 30.22700
H  36.53600 50.24900 30.30400
H  37.06000 48.59700 29.93500
H  36.70000 49.48400 32.61400
H  36.69800 47.92300 31.99300
H  32.76100 53.76900 25.55400
H  33.93300 54.79800 24.77800
H  34.33100 53.95200 26.32300
H  33.17700 54.61200 22.21300
H  34.41800 54.97200 20.98400
H  34.89300 55.20100 22.65100
H  36.54500 48.51100 19.94000
H  36.03600 45.76900 20.88700
H  34.61700 46.86600 19.29500
H  34.40900 48.55300 19.17700
H  33.75000 47.74500 20.60000
H  37.99700 46.55800 19.49500
H  38.27500 45.43400 20.86600
H  39.97300 46.56500 21.72800
H  38.76400 47.85900 21.87300
H  39.65000 47.72400 20.35500
H  38.17600 42.60100 25.76300
H  37.63600 43.07800 24.15800
H  36.55900 42.16200 25.27100
H  36.93000 46.07300 29.77600
H  34.43400 43.88400 32.95400
H  33.18200 43.75500 31.79300
H  33.59000 45.30900 32.41300

