158

Mg 47.46500 24.85300 27.74900
C  48.09300 27.26400 30.16300
C  46.65400 22.76900 30.36400
C  46.47400 22.59100 25.55600
C  48.67900 26.98100 25.24700
N  47.22300 25.07600 29.99800
C  47.51500 26.17500 30.74600
C  47.26500 25.96500 32.26700
C  47.05100 24.41500 32.32900
C  47.07900 24.04800 30.81700
C  48.07200 23.56400 33.19100
C  46.18100 26.91000 33.02300
C  45.48200 26.40000 34.31000
H  45.55400 27.37900 35.45300
N  46.81300 22.91600 27.95700
C  46.54100 22.14000 29.09400
C  46.10100 20.76800 28.80400
C  45.89900 20.84000 27.38000
C  46.44300 22.11400 26.90000
C  45.79000 19.67900 29.82600
C  45.24800 19.70100 26.49800
O  45.15700 19.82000 25.26200
C  44.60600 18.54000 27.16800
N  47.67900 24.73800 25.67900
C  47.02000 23.79500 24.99600
C  47.33700 24.02600 23.51800
C  47.83400 25.46800 23.46600
C  48.07700 25.76400 24.86400
C  48.19400 22.96900 22.74500
C  46.91900 26.50900 22.63500
C  47.64900 27.30500 21.58100
N  48.38000 26.64300 27.71300
C  48.81600 27.42500 26.59600
C  49.35900 28.70800 27.05900
C  49.04900 28.68600 28.48400
C  48.45800 27.44800 28.77400
C  50.23400 29.77400 26.24400
C  49.26200 29.43900 29.73000
O  49.90900 30.40200 29.98500
C  48.52900 28.53300 30.91300
C  49.51600 28.22500 32.01900
O  50.56100 27.67400 31.93000
O  49.07800 28.89600 33.08700
C  49.72600 28.60200 34.37000
H  46.49300 22.15500 31.25300
H  46.15800 21.99700 24.69600
H  48.99500 27.74200 24.53100
H  48.18200 26.16200 32.82300
H  46.05000 24.29900 32.74600
H  47.56700 22.96400 33.94900
H  48.82100 24.23400 33.61200
H  48.56200 22.88500 32.49300
H  45.39600 27.15000 32.30600
H  46.64600 27.85200 33.31300
H  46.00200 25.49300 34.61700
H  44.46500 26.13400 34.02000
H  46.35600 18.75300 29.72100
H  44.71100 19.52100 29.83800
H  45.86500 20.12500 30.81700
H  43.80400 18.84700 27.83900
H  45.40700 18.09400 27.75700
H  44.27500 17.83300 26.40700
H  46.29500 24.02000 23.19700
H  48.85000 25.48000 23.07000
H  48.70600 22.26500 23.40000
H  48.89500 23.43300 22.05100
H  47.63200 22.38200 22.01900
H  46.45500 27.28100 23.24900
H  46.12900 25.88100 22.22300
H  47.72900 26.80600 20.61500
H  48.66200 27.40400 21.96900
H  47.09800 28.24500 21.56100
H  49.83300 29.97200 25.25000
H  51.23100 29.35500 26.10500
H  50.24500 30.62600 26.92400
H  47.75100 29.21100 31.26400
H  49.37500 27.64100 34.74500
H  49.56200 29.42400 35.06700
H  50.79900 28.45100 34.25500
Mg -12.28800 38.48800 42.19100
C  -10.00500 35.89000 41.22100
C  -10.70100 40.56500 39.95200
C  -14.65400 40.49800 42.80900
C  -14.32300 35.72400 43.67300
N  -10.55300 38.14700 40.74600
C  -9.73300 37.05300 40.56100
C  -8.58800 37.34100 39.52700
C  -8.75300 38.92200 39.25600
C  -10.08100 39.26400 40.01700
C  -7.54000 39.86800 39.78800
C  -8.72900 36.37900 38.25200
C  -7.75800 35.16900 38.23700
H  -7.03200 34.97000 36.93700
N  -12.66900 40.33700 41.52500
C  -11.84600 41.08500 40.65500
C  -12.40400 42.42400 40.68500
C  -13.55800 42.42800 41.45800
C  -13.66500 41.04900 41.97000
C  -11.71400 43.63100 39.95900
C  -14.36900 43.66300 41.78500
O  -14.20600 44.68600 41.19200
C  -15.37100 43.79400 43.02300
N  -14.32500 38.04100 43.01100
C  -14.98100 39.16000 43.21800
C  -16.40800 38.82300 43.62400
C  -16.41200 37.25600 43.86800
C  -14.93300 36.98900 43.50100
C  -16.90200 39.70600 44.79400
C  -17.42200 36.39800 43.09200
C  -18.12400 35.23000 43.97200
N  -12.14700 36.33200 42.54000
C  -13.01900 35.39300 43.19400
C  -12.32500 34.10900 43.32000
C  -11.13900 34.30000 42.59600
C  -11.09000 35.63100 42.07700
C  -12.84200 32.89200 43.98200
C  -9.90300 33.64400 42.26500
O  -9.42100 32.55900 42.62000
C  -9.20800 34.65200 41.25800
C  -7.78700 34.75300 41.71400
O  -6.92800 34.01500 41.23500
O  -7.71100 35.68200 42.75200
C  -6.45000 35.89200 43.42000
H  -10.14600 41.31700 39.38800
H  -15.43400 41.24600 42.95800
H  -14.88900 35.00800 44.27200
H  -7.69300 37.01600 40.05600
H  -8.88400 39.06500 38.18300
H  -6.74600 39.20500 40.13200
H  -7.82400 40.41100 40.69000
H  -7.14600 40.45300 38.95700
H  -8.79500 37.01600 37.37000
H  -9.73800 35.97800 38.34900
H  -8.36300 34.27700 38.40400
H  -7.03900 35.20400 39.05500
H  -11.93600 44.65100 40.27400
H  -11.89500 43.60500 38.88500
H  -10.64300 43.50800 40.12400
H  -15.03800 43.24200 43.90200
H  -16.38700 43.46800 42.80200
H  -15.35300 44.84700 43.30200
H  -16.92500 39.07600 42.69800
H  -16.53900 37.08900 44.93800
H  -17.74000 40.40200 44.75200
H  -16.08100 40.30700 45.18600
H  -17.09300 39.02000 45.62000
H  -17.00500 35.97400 42.17900
H  -18.23500 37.05600 42.78600
H  -17.40300 34.62400 44.52000
H  -18.56000 34.40600 43.40800
H  -18.94000 35.60100 44.59100
H  -13.86300 32.78000 43.61700
H  -13.01500 32.99600 45.05300
H  -12.20000 32.01400 43.91000
H  -9.17400 34.12200 40.30700
H  -5.65100 36.13000 42.71900
H  -6.21800 35.06400 44.09000
H  -6.69800 36.76300 44.02700

