158

Mg 40.53100 8.03500 29.17600
C  42.45100 9.43000 31.73800
C  38.34500 6.79400 31.54900
C  38.95600 6.50300 26.70500
C  43.37300 8.50300 26.93500
N  40.47400 7.99000 31.39600
C  41.27000 8.77700 32.18100
C  40.81100 8.76400 33.66000
C  39.58600 7.75200 33.56300
C  39.44700 7.47800 32.10500
C  39.60600 6.43200 34.32100
C  40.44300 10.17700 34.09800
C  39.74300 10.22200 35.50400
H  40.25800 11.10500 36.59600
N  38.88000 6.86100 29.08300
C  38.08200 6.50100 30.20800
C  36.96100 5.69500 29.62500
C  37.13200 5.67200 28.20100
C  38.33900 6.38400 27.91100
C  35.81300 5.13500 30.53000
C  36.12600 5.17400 27.20400
O  36.24800 5.37800 25.99800
C  34.79100 4.60100 27.63400
N  41.09400 7.56300 27.11800
C  40.21400 7.02800 26.29500
C  40.74100 6.72600 24.89400
C  42.13800 7.32300 24.98700
C  42.23700 7.85000 26.41800
C  40.78000 5.20800 24.56100
C  42.40800 8.32800 23.93300
C  41.91500 9.75100 24.20300
N  42.48600 8.89300 29.20300
C  43.48700 9.03400 28.23600
C  44.62200 9.63200 28.81800
C  44.30600 9.84100 30.21400
C  42.97500 9.36200 30.38600
C  45.99800 9.91200 28.17500
C  44.77500 10.34800 31.47100
O  45.86000 10.89700 31.72400
C  43.54600 10.17500 32.51200
C  43.98300 9.39700 33.66900
O  44.47300 8.26300 33.58900
O  43.95300 10.10100 34.83300
C  44.23300 9.36100 36.08900
H  37.70600 6.43200 32.35600
H  38.43100 5.97100 25.90900
H  44.21200 8.52300 26.23600
H  41.56300 8.36300 34.33900
H  38.72500 8.36400 33.83000
H  40.43900 6.37600 35.02200
H  39.56500 5.51800 33.72900
H  38.66800 6.49800 34.87300
H  39.83600 10.61300 33.30400
H  41.28500 10.85400 34.25100
H  39.63400 9.18600 35.82700
H  38.67100 10.40300 35.42300
H  36.09200 5.28400 31.57300
H  35.84100 4.09400 30.20700
H  34.86400 5.63900 30.34800
H  34.08700 5.27200 28.12500
H  35.13600 3.79700 28.28400
H  34.25900 4.16100 26.79100
H  40.13200 7.27200 24.17400
H  43.02100 6.69000 25.06900
H  40.28900 4.53000 25.25900
H  41.80300 4.89700 24.35200
H  40.38700 4.95600 23.57600
H  41.91400 8.00500 23.01700
H  43.48100 8.34300 23.74200
H  42.77000 10.41300 24.34000
H  41.30800 9.82000 25.10600
H  41.37300 10.20200 23.37100
H  46.38400 8.94800 27.84200
H  46.80600 10.11600 28.87800
H  45.94800 10.68500 27.40800
H  43.23100 11.16200 32.85100
H  43.55800 8.51100 36.18200
H  43.91800 10.09400 36.83200
H  45.25500 9.05200 36.30700
Mg 30.93200 59.94700 40.57500
C  27.92700 58.46300 39.22200
C  32.65500 57.29700 39.06700
C  33.73500 61.51600 41.08800
C  29.01600 62.80200 41.37400
N  30.32500 58.12300 39.22900
C  29.08600 57.65300 38.91600
C  29.12200 56.38800 38.00800
C  30.64900 56.02100 38.15600
C  31.30600 57.21600 38.90700
C  31.06500 54.66000 38.79500
C  28.61200 56.70600 36.55200
C  27.62000 55.73800 35.91200
H  26.62200 56.28900 34.85000
N  32.87200 59.45800 40.31600
C  33.40100 58.32400 39.74100
C  34.83300 58.30100 39.82600
C  35.26000 59.49200 40.45800
C  33.91500 60.18100 40.65300
C  35.61800 57.25000 39.07500
C  36.76500 59.99900 40.81400
O  37.78100 59.37500 40.52800
C  36.98800 61.24300 41.64700
N  31.24500 61.86900 41.19400
C  32.59800 62.26800 41.29400
C  32.58500 63.80700 41.55600
C  31.10700 64.12500 41.90400
C  30.40100 62.87900 41.41800
C  33.71800 64.22000 42.60300
C  30.59200 65.49300 41.24200
C  29.73200 66.35900 42.16900
N  28.84900 60.57300 40.28600
C  28.23300 61.72600 40.77100
C  26.73500 61.60300 40.55800
C  26.65200 60.36200 39.88500
C  27.91200 59.74600 39.80300
C  25.71900 62.66400 40.74900
C  25.70400 59.46500 39.15700
O  24.55500 59.70000 38.77900
C  26.51500 58.18900 38.85400
C  25.92800 57.06500 39.57200
O  26.28900 56.64900 40.64200
O  24.92100 56.51400 38.82100
C  24.34500 55.23300 39.23200
H  33.27500 56.54800 38.56900
H  34.62600 62.14200 41.01100
H  28.52200 63.75500 41.57400
H  28.60200 55.58200 38.52500
H  31.05800 56.01600 37.14600
H  31.58700 54.08400 38.03100
H  30.26600 53.98800 39.11000
H  31.74800 54.70700 39.64400
H  29.45100 56.65700 35.85700
H  28.27100 57.73700 36.46200
H  27.06500 55.18700 36.67100
H  28.26100 54.97300 35.47300
H  35.53200 57.38500 37.99700
H  35.17500 56.28400 39.31700
H  36.66600 57.12700 39.35000
H  37.79900 61.18100 42.37200
H  36.10200 61.38700 42.26500
H  37.03900 62.11700 40.99800
H  32.89700 64.11900 40.55900
H  31.03100 64.23600 42.98500
H  34.12100 63.34400 43.11100
H  33.27400 64.84500 43.37900
H  34.54400 64.78900 42.17800
H  30.13900 65.25900 40.27800
H  31.44400 66.15400 41.08600
H  30.18700 67.32700 42.37600
H  29.44200 66.01600 43.16200
H  28.81600 66.62000 41.63800
H  25.94800 63.28700 41.61400
H  24.75500 62.19300 40.94400
H  25.79200 63.26400 39.84200
H  26.37100 58.01000 37.78900
H  23.32000 55.28400 39.60100
H  24.91100 54.67800 39.97900
H  24.36100 54.60300 38.34300

