158

Mg 53.50600 23.99700 45.24700
C  50.87700 26.36900 44.73000
C  51.32700 21.56800 44.61900
C  56.18300 22.20500 44.54100
C  55.64000 26.96400 45.39700
N  51.39300 23.99800 44.69200
C  50.52800 25.04800 44.45200
C  49.16100 24.56000 43.96900
C  49.18300 23.16700 44.65700
C  50.72100 22.82400 44.59800
C  48.64000 23.03400 46.15200
C  49.04800 24.52300 42.37900
C  47.67800 24.09300 41.79000
H  47.51600 24.06600 40.24800
N  53.78200 22.09700 44.70000
C  52.72200 21.21500 44.63500
C  53.25800 19.90900 44.40000
C  54.73400 19.99000 44.39000
C  54.99100 21.43700 44.53900
C  52.43300 18.64800 44.25000
C  55.68300 18.86800 44.36400
O  55.28100 17.74400 44.31900
C  57.13900 19.04000 44.30400
N  55.56600 24.54600 44.91200
C  56.47300 23.53300 44.71300
C  57.89200 24.12000 44.88700
C  57.68500 25.65800 44.72600
C  56.17800 25.76300 45.05000
C  58.58000 23.72900 46.21800
C  58.00800 26.33200 43.32300
C  56.78500 26.64600 42.40200
N  53.28200 26.21700 45.40600
C  54.23400 27.18000 45.58000
C  53.52600 28.47100 45.58800
C  52.22000 28.20700 45.25000
C  52.12500 26.80500 45.12600
C  54.24800 29.76600 45.70600
C  50.95600 28.77500 44.85800
O  50.57800 29.93300 44.82300
C  50.04800 27.61400 44.57100
C  49.39800 27.79000 43.18800
O  50.01900 27.76500 42.13200
O  48.03200 27.94500 43.36200
C  47.36300 28.04500 42.08400
H  50.68300 20.69100 44.70600
H  57.07900 21.60600 44.36600
H  56.25200 27.86300 45.48900
H  48.39000 25.22400 44.36100
H  48.73700 22.37200 44.05700
H  49.26000 22.45400 46.83600
H  47.59400 22.72900 46.12900
H  48.62500 24.00600 46.64600
H  49.72900 23.74200 42.04100
H  49.45900 25.41800 41.91000
H  46.87800 24.74000 42.14800
H  47.40600 23.10300 42.15900
H  51.41500 18.76000 44.62300
H  52.86600 17.80100 44.78300
H  52.35400 18.42900 43.18500
H  57.67600 18.19400 44.73400
H  57.25300 19.81800 45.05800
H  57.54600 19.24300 43.31300
H  58.56100 23.85600 44.06900
H  58.34800 26.08900 45.47600
H  59.03700 24.59200 46.70300
H  59.44300 23.09100 46.02900
H  57.86800 23.23900 46.88100
H  58.72800 25.72000 42.78100
H  58.65400 27.20000 43.45000
H  55.82000 26.14800 42.49300
H  56.95500 26.71600 41.32800
H  56.54400 27.67600 42.66500
H  54.51400 30.14400 44.71900
H  55.16200 29.71500 46.29700
H  53.51600 30.40800 46.19600
H  49.33000 27.56100 45.38900
H  46.39500 28.41000 42.42800
H  47.17800 27.11900 41.54000
H  47.73800 28.73200 41.32600
Mg 36.37900 49.39000 24.92200
C  36.31200 47.50700 27.86900
C  35.01500 51.98100 26.51800
C  36.14000 50.92200 21.88400
C  37.56600 46.48600 23.24200
N  35.64400 49.64500 26.92100
C  35.89700 48.84200 28.03000
C  35.64100 49.59900 29.31600
C  35.01900 50.96900 28.78700
C  35.22600 50.89700 27.32100
C  33.52400 51.17000 29.20600
C  36.88400 49.77200 30.13200
C  36.76600 49.66600 31.60800
H  35.39400 49.79100 32.40500
N  35.69400 51.27700 24.31300
C  35.18500 52.19700 25.13700
C  34.93900 53.38300 24.41500
C  35.37600 53.12000 23.05700
C  35.77700 51.73500 23.04000
C  34.13900 54.57600 24.87500
C  35.50300 54.02500 21.85300
O  36.01000 53.72400 20.75800
C  35.16800 55.48200 22.09400
N  36.62700 48.76200 22.90000
C  36.44600 49.57200 21.85300
C  36.64800 48.85400 20.51600
C  37.40400 47.57500 20.95900
C  37.17400 47.56100 22.42600
C  35.26800 48.54500 19.83200
C  38.92400 47.67900 20.62000
C  39.60600 46.51400 19.83600
N  36.90400 47.39900 25.47300
C  37.35600 46.34300 24.66000
C  37.69300 45.26400 25.50400
C  37.35500 45.67500 26.77800
C  36.77800 46.91500 26.69700
C  38.47000 44.03200 25.02000
C  37.30100 45.25600 28.14100
O  37.56200 44.17500 28.64800
C  36.68500 46.50300 28.93900
C  35.50400 46.06100 29.66600
O  34.53300 45.56600 29.18500
O  35.72100 46.17500 31.08600
C  34.83300 45.43400 32.00900
H  34.67800 52.86100 27.07000
H  36.02000 51.40000 20.91000
H  38.02800 45.58500 22.83200
H  34.94100 49.03000 29.92700
H  35.53400 51.82600 29.22000
H  33.13100 50.29100 29.71600
H  32.85500 51.37700 28.37100
H  33.42600 52.06100 29.82600
H  37.33100 50.71900 29.83000
H  37.61000 49.02600 29.80700
H  37.51300 50.28900 32.09900
H  37.05400 48.62300 31.74500
H  33.48900 54.94200 24.08100
H  34.87400 55.36400 25.04100
H  33.57000 54.48300 25.80000
H  35.59300 56.02500 22.93800
H  34.10500 55.69300 21.97900
H  35.50300 55.88500 21.13800
H  37.19500 49.52500 19.85300
H  37.04100 46.61200 20.59900
H  35.02000 49.25700 19.04500
H  34.49600 48.57700 20.60100
H  35.22400 47.57100 19.34500
H  39.46200 47.77800 21.56300
H  39.14900 48.58200 20.05200
H  38.88600 45.70900 19.68500
H  40.31100 46.04500 20.52200
H  40.14700 46.81900 18.94000
H  39.06000 44.20500 24.12000
H  37.66200 43.36200 24.72500
H  39.09700 43.57000 25.78300
H  37.41000 46.83000 29.68400
H  34.56300 44.47200 31.57500
H  33.93200 46.01600 32.20200
H  35.38200 45.34800 32.94700

