158

Mg 35.29100 3.47800 29.61400
C  32.76500 4.02600 32.15200
C  37.63300 3.63400 31.96500
C  37.48100 2.40400 27.26800
C  32.86900 3.80900 27.11900
N  35.17700 4.04700 31.75700
C  34.12500 4.05000 32.61900
C  34.58100 3.99700 34.06700
C  36.14000 4.26700 33.92800
C  36.32800 3.91400 32.46800
C  36.61900 5.67900 34.33200
C  34.35800 2.56600 34.68300
C  34.33000 2.50900 36.17700
H  35.15100 3.56400 36.85900
N  37.30300 3.08000 29.59600
C  38.06400 3.17100 30.70100
C  39.42600 2.86200 30.32700
C  39.47100 2.40600 28.94000
C  38.05300 2.53400 28.54400
C  40.41400 2.75400 31.48300
C  40.59300 1.67800 28.11400
O  40.44800 1.12400 26.98700
C  42.04000 1.61200 28.70400
N  35.18300 3.30000 27.52100
C  36.20200 2.79500 26.76200
C  35.81400 2.58100 25.28500
C  34.27500 3.06200 25.23300
C  34.10600 3.38800 26.65900
C  36.72700 3.42700 24.29800
C  33.36400 1.91600 24.68700
C  32.35700 2.45800 23.66100
N  33.16300 3.88600 29.55700
C  32.33300 3.92500 28.51900
C  30.99100 4.18400 28.90700
C  31.10600 4.23900 30.36000
C  32.45100 4.03300 30.73900
C  29.75600 4.28500 28.04400
C  30.34500 4.22900 31.58500
O  29.12600 4.17100 31.68900
C  31.40100 4.16800 32.80200
C  31.42000 5.47800 33.62300
O  31.72300 6.58000 33.22300
O  31.02000 5.18500 34.91100
C  31.20600 6.15600 36.03000
H  38.33700 3.86100 32.76700
H  38.18300 2.05900 26.50600
H  32.17200 3.72900 26.28200
H  33.97100 4.66500 34.67500
H  36.67400 3.51000 34.50300
H  36.60700 5.73900 35.42000
H  35.84000 6.32400 33.92600
H  37.57600 5.87100 33.84600
H  35.18200 1.93900 34.34000
H  33.40200 2.25100 34.26400
H  34.74300 1.54400 36.47200
H  33.30000 2.56000 36.52900
H  40.35500 3.56200 32.21300
H  41.46600 2.79900 31.20200
H  40.10900 1.81900 31.95200
H  42.38100 2.63500 28.86500
H  42.67300 1.10500 27.97600
H  42.06900 1.15000 29.69100
H  35.82900 1.51200 25.07300
H  34.17900 4.05100 24.78400
H  37.48700 2.84700 23.77400
H  37.32200 4.16900 24.83200
H  36.24100 4.06400 23.55900
H  32.79300 1.54300 25.53800
H  33.89800 1.10000 24.20100
H  32.55600 3.46200 23.28800
H  31.33300 2.41000 24.03400
H  32.34600 1.73900 22.84200
H  28.89200 4.02600 28.65600
H  29.75400 3.38600 27.42800
H  29.64700 5.15900 27.40200
H  31.26000 3.30000 33.44700
H  30.25300 6.62900 36.26600
H  31.88500 7.00300 35.93000
H  31.55800 5.64000 36.92300
Mg 48.82200 45.14000 43.00900
C  45.48300 45.51300 41.89000
C  48.48500 41.70500 42.79200
C  52.18500 44.84200 43.44300
C  49.17900 48.73400 42.88300
N  47.17900 43.84800 42.29600
C  45.89500 44.12200 41.92000
C  45.01200 42.85400 41.66200
C  46.02400 41.74400 42.12500
C  47.31700 42.50000 42.44500
C  45.44000 40.91700 43.32900
C  44.58000 42.60100 40.15500
C  45.54500 43.04800 39.08100
H  45.48000 42.18300 37.84500
N  50.17400 43.50400 43.01800
C  49.84100 42.18700 43.00200
C  51.03400 41.45700 42.89100
C  52.16200 42.25400 43.17100
C  51.53900 43.59000 43.25200
C  51.02600 39.99600 42.48900
C  53.54600 41.82000 43.23600
O  53.87200 40.62900 43.23300
C  54.78700 42.75700 43.23000
N  50.44400 46.55700 42.95900
C  51.66800 46.19200 43.39200
C  52.62600 47.40600 43.59500
C  51.71800 48.61000 43.39100
C  50.37700 47.88100 43.02800
C  53.49400 47.49900 44.89300
C  52.14700 49.58300 42.21300
C  52.07000 50.99200 42.58500
N  47.54800 46.89200 42.64000
C  47.84200 48.26500 42.65600
C  46.53600 48.97600 42.35700
C  45.68700 47.92000 42.10700
C  46.26200 46.69400 42.26000
C  46.33500 50.51200 42.24600
C  44.31700 47.66600 41.67200
O  43.41600 48.47100 41.49300
C  44.13100 46.05800 41.43500
C  42.96700 45.48700 42.25100
O  42.29400 44.51100 41.92700
O  42.67400 46.17900 43.38600
C  41.68000 45.57700 44.28600
H  48.39700 40.62200 42.90000
H  53.20700 44.79000 43.82600
H  49.19100 49.82200 42.97200
H  44.08800 42.90700 42.23800
H  46.11300 41.01500 41.32000
H  45.63500 39.92000 42.93400
H  44.40000 41.18300 43.51900
H  46.05900 41.04300 44.21700
H  43.62600 43.12800 40.17900
H  44.36000 41.54700 39.98300
H  46.56600 43.13000 39.45500
H  45.27700 44.08100 38.86000
H  51.27600 39.97000 41.42800
H  50.07100 39.50300 42.67200
H  51.62000 39.31700 43.10100
H  54.49200 43.62000 42.63400
H  55.72600 42.32900 42.87900
H  54.90600 43.03300 44.27800
H  53.38200 47.37700 42.81000
H  51.62800 49.15100 44.33300
H  53.13200 48.23500 45.61000
H  54.49900 47.73200 44.54000
H  53.53600 46.49800 45.32200
H  51.61500 49.38600 41.28200
H  53.19000 49.36300 41.98600
H  51.46300 51.18200 43.47000
H  51.70200 51.55500 41.72800
H  53.10100 51.30800 42.74200
H  46.47500 50.83400 41.21400
H  46.95100 51.16900 42.86100
H  45.31200 50.72100 42.55900
H  44.00200 45.78700 40.38700
H  40.69200 45.74300 43.85600
H  41.74400 46.02000 45.28000
H  41.78200 44.49200 44.30000

