158

Mg -2.08900 17.13700 26.71500
C  -2.63100 15.10600 29.50700
C  -2.91700 19.92800 28.76000
C  -1.75500 19.13700 24.12800
C  -2.09500 14.33300 24.63600
N  -2.69200 17.55300 28.89700
C  -2.70800 16.55300 29.84200
C  -2.97700 17.11400 31.24400
C  -3.30800 18.63600 30.93200
C  -2.97500 18.73800 29.42600
C  -4.71500 19.23500 31.15500
C  -1.78200 16.80300 32.17400
C  -2.16200 16.55000 33.64000
H  -1.12800 16.74400 34.76600
N  -2.25800 19.26600 26.48400
C  -2.53700 20.23500 27.42400
C  -2.47000 21.52900 26.75600
C  -2.08200 21.36300 25.46100
C  -2.04900 19.85300 25.27500
C  -2.86800 22.75500 27.48200
C  -1.73200 22.43600 24.48800
O  -1.48300 22.20600 23.32900
C  -1.80800 23.95000 24.88400
N  -2.04200 16.73300 24.68000
C  -1.94500 17.74500 23.77800
C  -1.81300 17.26400 22.36700
C  -1.70100 15.70900 22.54500
C  -1.90200 15.56100 24.04700
C  -2.87100 17.65700 21.29400
C  -0.40500 15.04800 22.12700
C  0.78900 15.37100 23.01800
N  -2.38600 15.11800 26.95900
C  -2.33600 14.10100 26.01500
C  -2.58900 12.85900 26.77700
C  -2.59300 13.18200 28.12700
C  -2.48900 14.58400 28.24200
C  -2.76200 11.48300 26.22300
C  -2.68800 12.63200 29.43100
O  -2.75200 11.44300 29.71600
C  -2.65000 13.86500 30.44700
C  -1.42100 13.57600 31.26100
O  -0.27100 13.61700 30.81400
O  -1.76100 13.24100 32.56500
C  -0.61100 12.95700 33.50900
H  -3.10900 20.78600 29.40800
H  -1.70000 19.75500 23.23000
H  -1.99100 13.43400 24.02400
H  -3.87900 16.58300 31.54900
H  -2.67700 19.33600 31.47900
H  -5.26800 18.36400 31.50600
H  -5.30400 19.65900 30.34200
H  -4.69200 19.97600 31.95400
H  -1.13800 17.67800 32.09500
H  -1.20000 16.06300 31.62400
H  -2.40400 15.48700 33.63000
H  -3.07400 17.11000 33.84500
H  -3.47700 22.44400 28.33000
H  -3.56200 23.37800 26.91800
H  -1.89500 23.20500 27.67600
H  -1.29400 24.43500 24.05400
H  -1.18200 24.09700 25.76300
H  -2.88500 24.09000 24.98400
H  -0.86900 17.70500 22.04900
H  -2.48200 15.13100 22.05000
H  -2.38700 17.60300 20.31900
H  -3.20200 18.68900 21.41000
H  -3.65900 16.90500 21.34700
H  -0.24200 15.41700 21.11400
H  -0.60300 13.97700 22.10200
H  0.58100 16.25500 23.62000
H  1.60700 15.58400 22.33000
H  1.01300 14.51100 23.64900
H  -3.83300 11.34700 26.07700
H  -2.27000 10.76600 26.88100
H  -2.42900 11.23700 25.21500
H  -3.45600 13.90700 31.17900
H  -0.31600 13.75300 34.19300
H  0.28500 12.53000 33.05900
H  -0.89100 12.10700 34.13000
Mg 1.68300 -1.46100 44.39900
C  5.03700 -0.70000 44.02300
C  0.93800 1.43900 42.73900
C  -1.57700 -2.62700 43.99300
C  2.56800 -4.64900 45.62900
N  2.85500 0.04900 43.28300
C  4.20000 0.26300 43.44000
C  4.63400 1.63600 42.97200
C  3.31800 2.34100 42.69800
C  2.24400 1.20900 43.00200
C  3.02800 3.61100 43.61100
C  5.68900 1.79400 41.79100
C  5.38600 0.94800 40.55300
H  6.21200 1.30700 39.29200
N  -0.15800 -0.59000 43.58600
C  -0.20000 0.61900 43.00100
C  -1.63700 0.88400 42.70500
C  -2.34700 -0.33900 43.01800
C  -1.35400 -1.31800 43.59700
C  -2.06100 2.14500 42.03000
C  -3.93700 -0.53300 42.86900
O  -4.67600 0.27400 42.26500
C  -4.59800 -1.76000 43.43800
N  0.57800 -3.37500 44.93200
C  -0.73700 -3.59300 44.67800
C  -1.12000 -5.04500 44.98600
C  0.27600 -5.71000 45.39600
C  1.20600 -4.45800 45.40500
C  -2.13900 -5.24800 46.08900
C  0.75100 -6.86900 44.53400
C  1.69900 -6.68500 43.33800
N  3.40600 -2.49100 44.78200
C  3.66300 -3.78000 45.36200
C  5.08600 -4.00800 45.41300
C  5.69500 -2.82100 44.95300
C  4.63100 -1.95800 44.52000
C  5.78700 -5.21800 45.94400
C  6.93100 -2.03300 44.76900
O  8.10000 -2.27900 45.03200
C  6.51200 -0.61900 44.28700
C  6.87300 0.45300 45.22700
O  6.36600 0.68300 46.29300
O  7.93400 1.14300 44.67800
C  8.50600 2.23300 45.52200
H  0.71600 2.46900 42.45400
H  -2.57300 -3.00200 43.74900
H  2.68600 -5.64000 46.07100
H  5.12500 2.07700 43.83900
H  3.28000 2.51100 41.62200
H  3.89300 3.81100 44.24300
H  2.16600 3.57800 44.27700
H  2.73900 4.41800 42.93800
H  6.69000 1.68600 42.20900
H  5.61300 2.85900 41.57000
H  4.35100 0.87800 40.21800
H  5.53300 -0.09400 40.83700
H  -2.78700 1.92100 41.24900
H  -1.23200 2.54400 41.44700
H  -2.36800 2.92800 42.72400
H  -5.68600 -1.70000 43.43300
H  -4.30500 -1.96400 44.46800
H  -4.56700 -2.60900 42.75400
H  -1.49100 -5.49600 44.06500
H  0.35900 -5.95500 46.45500
H  -1.78200 -5.94400 46.84800
H  -3.06200 -5.56600 45.60500
H  -2.47400 -4.31600 46.54400
H  -0.08700 -7.48800 44.21200
H  1.29000 -7.45700 45.27600
H  1.63100 -5.69800 42.88100
H  1.53500 -7.57200 42.72500
H  2.73200 -6.80500 43.66500
H  5.91300 -5.97600 45.17100
H  5.20600 -5.62300 46.77200
H  6.68700 -4.96800 46.50600
H  7.08700 -0.37300 43.39500
H  7.75400 2.93300 45.88500
H  9.30600 2.70900 44.95400
H  8.85300 1.70300 46.40900

