158

Mg 16.67700 -2.31200 28.89000
C  15.70200 -0.14400 31.48000
C  18.97600 -3.69900 31.00100
C  17.75800 -4.02000 26.26300
C  14.59700 -0.42600 26.64700
N  17.17600 -1.98700 31.05200
C  16.55100 -1.14800 31.92700
C  16.97400 -1.36800 33.32500
C  18.05300 -2.50200 33.19500
C  18.18300 -2.70700 31.65500
C  19.38900 -2.27700 33.96400
C  15.82900 -1.81800 34.36200
C  15.69500 -1.17200 35.72300
H  17.04000 -0.65800 36.24000
N  18.13000 -3.69600 28.67600
C  19.01300 -4.17300 29.61500
C  19.81500 -5.24000 29.06100
C  19.52600 -5.23600 27.68300
C  18.42200 -4.35000 27.46200
C  20.74100 -6.10000 29.91200
C  20.11400 -6.18000 26.58800
O  19.73800 -6.15200 25.41100
C  21.07500 -7.25300 26.98100
N  16.18200 -2.37600 26.79400
C  16.75800 -3.14200 25.91900
C  16.28000 -2.93600 24.49400
C  15.04600 -2.05600 24.73400
C  15.32000 -1.53100 26.15600
C  17.46300 -2.24500 23.63900
C  13.70100 -2.73600 24.63200
C  12.96500 -2.47300 23.25300
N  15.38000 -0.62700 28.98400
C  14.69800 0.03800 27.95500
C  13.91400 1.09800 28.54200
C  14.32900 1.09000 29.93500
C  15.21400 0.05800 30.14300
C  12.93400 2.04300 27.93700
C  14.20400 1.75000 31.20600
O  13.59800 2.73700 31.57100
C  14.93500 0.90700 32.23800
C  15.69100 1.77600 33.26700
O  16.70100 2.42000 33.04500
O  14.91200 1.91400 34.40800
C  15.23400 3.01300 35.25600
H  19.61600 -4.18900 31.73700
H  18.05700 -4.68500 25.45000
H  13.95400 0.00700 25.87800
H  17.45900 -0.46300 33.68800
H  17.64900 -3.42900 33.60200
H  20.14000 -1.93900 33.25100
H  19.58000 -3.20800 34.49900
H  19.38700 -1.53100 34.75900
H  15.94600 -2.89000 34.52300
H  14.87400 -1.76600 33.84100
H  15.44100 -1.95000 36.44400
H  14.96800 -0.36400 35.64300
H  20.87100 -5.64100 30.89200
H  21.69100 -6.26600 29.40500
H  20.29200 -7.06700 30.13900
H  20.63700 -7.68300 27.88200
H  22.07400 -6.90300 27.24200
H  21.15600 -7.96600 26.16100
H  15.96400 -3.83400 23.96200
H  15.05700 -1.26500 23.98400
H  17.25900 -1.17500 23.60400
H  17.28400 -2.68200 22.65600
H  18.42000 -2.55500 24.05800
H  12.99700 -2.47000 25.42000
H  13.87300 -3.81000 24.69800
H  12.21300 -1.69000 23.34600
H  12.47800 -3.37300 22.87700
H  13.55500 -2.15800 22.39300
H  13.30500 2.50400 27.02200
H  12.61800 2.73600 28.71700
H  12.09800 1.42500 27.61100
H  14.32400 0.24500 32.85100
H  15.73700 3.77400 34.66000
H  15.89500 2.59800 36.01600
H  14.32400 3.43200 35.68600
Mg -11.81100 38.57900 40.76900
C  -9.55500 35.91200 40.27100
C  -9.37100 40.66900 39.18100
C  -13.99300 41.03900 40.43900
C  -14.15800 36.26200 41.85700
N  -9.63400 38.32400 39.87200
C  -8.97200 37.14100 39.75800
C  -7.73300 37.28100 38.88000
C  -7.46000 38.83000 39.03800
C  -8.91500 39.32800 39.37300
C  -6.28700 39.07100 39.99400
C  -7.96800 36.81000 37.45200
C  -6.95100 35.81600 36.90000
H  -6.02900 36.31200 35.74000
N  -11.68700 40.64500 39.95400
C  -10.65100 41.25000 39.38200
C  -10.98000 42.68600 39.19300
C  -12.29400 42.84400 39.56500
C  -12.74600 41.48700 40.02400
C  -10.15600 43.71200 38.49900
C  -13.19800 44.11200 39.40200
O  -12.76500 45.15200 38.87200
C  -14.60900 44.20700 39.86900
N  -13.78400 38.59800 40.88800
C  -14.49800 39.76700 40.83900
C  -15.89400 39.67500 41.50200
C  -15.90400 38.14000 41.93300
C  -14.54700 37.58900 41.57300
C  -15.99700 40.58700 42.65600
C  -17.06800 37.26800 41.29700
C  -18.21600 37.02200 42.24900
N  -11.87700 36.53400 41.15800
C  -12.90200 35.74500 41.61600
C  -12.35300 34.36700 41.89000
C  -11.07600 34.39000 41.29100
C  -10.81600 35.74100 40.90800
C  -12.97800 33.11000 42.62100
C  -9.84200 33.59200 40.91500
O  -9.61300 32.41200 41.11100
C  -8.88000 34.52900 40.18900
C  -7.62500 34.47100 40.85700
O  -6.63600 33.92800 40.34700
O  -7.70600 35.19100 42.02400
C  -6.64500 35.19800 43.03800
H  -8.58700 41.37700 38.90200
H  -14.83800 41.73100 40.41800
H  -14.96900 35.64400 42.24900
H  -6.93800 36.68000 39.32400
H  -7.23500 39.30300 38.08200
H  -5.52300 38.29700 39.92600
H  -6.71500 38.90400 40.98300
H  -5.84500 40.06700 39.99200
H  -8.04300 37.69800 36.82400
H  -8.97500 36.39300 37.42000
H  -7.36900 34.83000 36.69700
H  -6.24200 35.58900 37.69700
H  -10.43100 43.98700 37.48000
H  -9.12400 43.36200 38.52900
H  -10.07100 44.58200 39.15000
H  -14.64600 43.88500 40.91000
H  -15.24700 43.58300 39.24300
H  -15.08500 45.17800 39.72900
H  -16.60600 39.88300 40.70300
H  -15.93100 38.05400 43.02000
H  -16.53100 41.53100 42.55200
H  -14.99800 40.93600 42.91700
H  -16.45600 40.16400 43.54900
H  -16.69800 36.33500 40.87300
H  -17.52100 37.73700 40.42300
H  -18.19900 37.48800 43.23400
H  -18.26800 35.94500 42.40900
H  -19.14900 37.25400 41.73600
H  -12.58400 32.14100 42.31500
H  -14.06500 33.14100 42.55900
H  -12.74000 33.46100 43.62600
H  -8.84500 34.22600 39.14200
H  -5.93900 34.39800 42.81100
H  -7.17500 35.04000 43.97700
H  -6.11300 36.14600 43.10400

