158

Mg 48.02500 35.29100 27.06700
C  46.23900 33.41800 29.57700
C  48.14700 37.80100 29.33000
C  49.11700 37.07100 24.49600
C  47.00600 32.69500 24.83000
N  47.33300 35.50800 29.24800
C  46.74000 34.60600 30.04800
C  46.72100 35.08500 31.52700
C  46.98900 36.64200 31.33300
C  47.54000 36.67500 29.90400
C  45.73500 37.55900 31.60000
C  47.97100 34.43900 32.26400
C  47.95000 34.37000 33.81900
H  47.02300 35.34800 34.51500
N  48.68800 37.14500 26.96600
C  48.79000 38.04400 28.03500
C  49.51100 39.22800 27.55200
C  49.73300 39.01200 26.11100
C  49.16400 37.68400 25.74700
C  49.78600 40.46100 28.40400
C  50.51400 39.90700 25.11200
O  50.66600 39.58700 23.97100
C  51.01400 41.23300 25.63600
N  48.05900 34.89000 25.01100
C  48.61600 35.81900 24.14600
C  48.66000 35.37100 22.75200
C  47.97600 33.93900 22.86500
C  47.66500 33.80000 24.34600
C  47.85900 36.31800 21.81300
C  48.98400 32.82500 22.42900
C  50.13600 32.44500 23.30700
N  47.08500 33.32900 27.18900
C  46.75600 32.40400 26.15300
C  46.11200 31.23700 26.78200
C  45.81900 31.55900 28.02800
C  46.41000 32.85000 28.27300
C  45.74700 29.95600 26.03300
C  45.11700 31.14100 29.23700
O  44.52400 30.16800 29.54100
C  45.39100 32.32100 30.26400
C  45.74500 31.94100 31.62600
O  46.82700 31.36000 31.83300
O  44.96900 32.30800 32.66500
C  45.17500 31.63800 33.94700
H  48.13500 38.62400 30.04800
H  49.57200 37.59800 23.65400
H  46.58000 31.95400 24.15200
H  45.75000 34.90600 31.99000
H  47.83800 37.00500 31.91100
H  44.95700 37.06900 32.18500
H  45.34100 38.00100 30.68400
H  46.00100 38.36200 32.28700
H  48.88700 34.96100 31.98600
H  48.13800 33.44300 31.85500
H  48.92400 34.42100 34.30600
H  47.59700 33.39100 34.14100
H  49.37400 40.17900 29.37300
H  49.22200 41.30900 28.01600
H  50.83600 40.60100 28.66100
H  50.24400 41.87600 26.06500
H  51.33800 41.77100 24.74500
H  51.79800 41.08500 26.37900
H  49.68200 35.43100 22.37900
H  47.07800 33.89900 22.24900
H  47.53700 37.12000 22.47800
H  47.00900 35.80900 21.36000
H  48.52800 36.65100 21.01900
H  49.38300 33.25500 21.51100
H  48.38300 31.94100 22.21400
H  51.11300 32.61900 22.85600
H  50.00200 31.36700 23.40300
H  50.14200 32.94400 24.27600
H  46.53900 29.29600 26.38700
H  45.71100 30.12200 24.95600
H  44.84100 29.46700 26.39100
H  44.37600 32.70000 30.38400
H  44.77600 30.62300 33.94200
H  44.70900 32.27300 34.70100
H  46.22700 31.51100 34.20200
Mg -11.91100 16.79500 41.91100
C  -8.71000 15.44700 41.73300
C  -10.60500 19.84800 40.79800
C  -14.92900 18.04900 41.96700
C  -13.16000 13.59600 42.78100
N  -9.88400 17.52300 41.26300
C  -8.71100 16.77500 41.27100
C  -7.58900 17.54000 40.65900
C  -8.11400 19.07600 40.73600
C  -9.64400 18.83600 41.02300
C  -7.44300 19.99200 41.80100
C  -7.33400 17.19300 39.09100
C  -5.86300 17.39800 38.66600
H  -5.58500 18.25000 37.35200
N  -12.59600 18.66600 41.43200
C  -11.93200 19.79500 41.05200
C  -12.87100 20.87600 40.93600
C  -14.20400 20.39700 41.33400
C  -13.93000 19.00800 41.61500
C  -12.51000 22.26500 40.48100
C  -15.43300 21.20100 41.52700
O  -15.42900 22.34100 41.08400
C  -16.61700 20.78200 42.39200
N  -13.74400 16.00500 42.36300
C  -14.90300 16.68800 42.21800
C  -16.14000 15.82400 42.40400
C  -15.53200 14.53400 42.95800
C  -14.03900 14.69700 42.68500
C  -17.18400 16.54800 43.27100
C  -16.12200 13.24800 42.22300
C  -15.96700 11.85100 42.91900
N  -11.11800 14.89000 42.18000
C  -11.77700 13.70000 42.48100
C  -10.71200 12.61400 42.49800
C  -9.50900 13.29300 42.21200
C  -9.81300 14.62000 42.05800
C  -10.90100 11.15900 42.63100
C  -8.07400 13.07600 42.13000
O  -7.46900 11.98900 42.23100
C  -7.50900 14.55700 41.74300
C  -6.47100 14.98700 42.73600
O  -6.55000 15.24700 43.96800
O  -5.25200 15.02500 42.05200
C  -4.07000 15.13300 42.81900
H  -10.11800 20.82000 40.69300
H  -15.91700 18.51500 42.00100
H  -13.58600 12.60300 42.93900
H  -6.75100 17.40500 41.34200
H  -8.04400 19.58800 39.77700
H  -8.07500 20.19000 42.66700
H  -7.30200 20.98800 41.38100
H  -6.43300 19.67100 42.05600
H  -7.94100 17.88600 38.50800
H  -7.74500 16.19600 38.92900
H  -5.47700 16.40700 38.42800
H  -5.32500 17.73800 39.55100
H  -11.43600 22.44600 40.45300
H  -12.80900 22.97500 41.25200
H  -12.98700 22.43700 39.51600
H  -17.04500 21.76500 42.59100
H  -16.24700 20.27600 43.28300
H  -17.22300 20.19000 41.70700
H  -16.41600 15.63900 41.36600
H  -15.51300 14.43100 44.04300
H  -17.46300 15.97500 44.15500
H  -18.04400 16.63700 42.60700
H  -16.87100 17.54500 43.58200
H  -15.75300 13.24400 41.19700
H  -17.20000 13.39500 42.29300
H  -16.94800 11.53600 43.27200
H  -15.26800 11.91800 43.75300
H  -15.56300 11.15000 42.18700
H  -11.43800 10.85300 43.52900
H  -9.93500 10.65600 42.65300
H  -11.47000 10.76200 41.79100
H  -6.99800 14.46800 40.78500
H  -3.32500 14.84200 42.07800
H  -3.94800 14.39000 43.60700
H  -3.81700 16.10100 43.25000

