158

Mg -2.11900 16.56300 26.92800
C  -2.43000 14.43900 29.60300
C  -2.56400 19.24700 28.92700
C  -2.07900 18.64600 24.13900
C  -1.74900 13.82400 24.80100
N  -2.68800 16.75000 29.03900
C  -2.57100 15.77700 30.00400
C  -2.75400 16.37400 31.43100
C  -2.94900 17.88200 31.04600
C  -2.63500 17.97400 29.58400
C  -4.37800 18.48700 31.45200
C  -1.58700 16.06400 32.38600
C  -1.32100 16.96100 33.57000
H  -0.80700 16.39000 34.87500
N  -2.29900 18.74700 26.61300
C  -2.46400 19.66700 27.56700
C  -2.50500 21.01900 27.00000
C  -2.38300 20.82900 25.55200
C  -2.30700 19.36500 25.38000
C  -2.53400 22.31000 27.82600
C  -2.38900 21.90700 24.47100
O  -2.52100 21.67500 23.25500
C  -2.40300 23.34000 24.84200
N  -1.79200 16.33800 24.88700
C  -1.91000 17.33800 23.90800
C  -1.70400 16.75500 22.49800
C  -1.38100 15.22800 22.74900
C  -1.63200 15.07500 24.23800
C  -2.86300 16.94200 21.41100
C  -0.01900 14.74800 22.17100
C  0.09800 13.31400 21.61400
N  -2.09300 14.57500 27.10900
C  -1.91000 13.59100 26.14300
C  -2.05800 12.32300 26.83200
C  -2.18800 12.60200 28.15500
C  -2.13700 13.96600 28.29400
C  -2.21300 11.00200 26.11700
C  -2.36900 12.03900 29.44300
O  -2.37400 10.85700 29.75900
C  -2.45100 13.20500 30.46800
C  -1.28100 13.05400 31.34600
O  -0.17500 13.47900 31.12900
O  -1.59800 12.27800 32.44800
C  -0.44800 11.92000 33.26200
H  -2.50300 20.13200 29.56400
H  -2.07000 19.29600 23.26300
H  -1.72500 12.94500 24.15400
H  -3.66200 16.09800 31.96700
H  -2.18000 18.37900 31.63600
H  -4.18100 19.30300 32.14800
H  -5.01600 17.76900 31.96600
H  -4.89100 19.02100 30.65200
H  -0.70300 15.92400 31.76400
H  -1.90800 15.12000 32.82600
H  -2.29100 17.43900 33.71200
H  -0.58100 17.71300 33.29800
H  -2.80400 22.17200 28.87300
H  -3.31500 22.96100 27.43400
H  -1.57200 22.76100 27.58300
H  -3.31600 23.44400 25.42800
H  -2.48200 24.07000 24.03600
H  -1.68400 23.56300 25.63000
H  -0.74300 17.15700 22.17800
H  -2.12400 14.54200 22.34000
H  -3.68500 16.22700 21.42700
H  -2.36300 16.83300 20.44900
H  -3.20900 17.96400 21.56800
H  0.70200 14.80200 22.98700
H  0.47100 15.45000 21.49600
H  0.48400 13.32800 20.59500
H  -0.82700 12.74400 21.53400
H  0.82000 12.69200 22.14300
H  -2.72300 10.29000 26.76600
H  -1.23300 10.67100 25.77400
H  -2.85500 11.23000 25.26600
H  -3.39600 12.98900 30.96700
H  0.42900 11.55500 32.72800
H  -0.85200 11.21700 33.99100
H  -0.05000 12.85800 33.65100
Mg 2.25700 -1.34000 44.67100
C  5.39600 0.04200 44.00600
C  0.80100 1.48500 43.28200
C  -0.67200 -2.86200 44.63900
C  3.86100 -4.34400 45.44700
N  3.05700 0.57700 43.72900
C  4.36000 0.89200 43.57600
C  4.46700 2.29300 42.78000
C  3.06800 2.88400 43.06200
C  2.19600 1.61800 43.39400
C  2.84900 3.98200 44.16900
C  4.93100 2.22700 41.28700
C  6.41100 2.64400 41.09000
H  7.15400 1.74200 40.05900
N  0.32300 -0.79100 44.08400
C  -0.11100 0.42800 43.56100
C  -1.55400 0.46500 43.38800
C  -1.99000 -0.80000 43.84800
C  -0.79900 -1.57000 44.23900
C  -2.36100 1.60000 42.78500
C  -3.41000 -1.24700 43.94600
O  -4.25700 -0.31800 43.85400
C  -3.91800 -2.68500 44.37700
N  1.76400 -3.42600 44.81200
C  0.41600 -3.77500 44.82700
C  0.18300 -5.13900 45.59100
C  1.66100 -5.69500 45.67600
C  2.46500 -4.46600 45.31100
C  -0.61300 -5.03200 46.94800
C  1.99800 -6.84700 44.75000
C  2.54000 -8.09900 45.49300
N  4.23900 -2.06000 44.71900
C  4.72600 -3.29400 45.05700
C  6.15200 -3.17000 45.15000
C  6.49200 -1.90000 44.71000
C  5.27800 -1.27500 44.46200
C  7.12800 -4.21700 45.58400
C  7.56700 -0.99800 44.47300
O  8.75600 -1.09600 44.67400
C  6.86500 0.30100 43.98000
C  7.27900 1.28600 44.98300
O  7.18200 1.21900 46.21400
O  7.70300 2.38900 44.33100
C  8.33200 3.47000 45.16000
H  0.37800 2.41300 42.89100
H  -1.61300 -3.39200 44.79600
H  4.38000 -5.23000 45.81900
H  5.13200 2.95700 43.33300
H  2.71100 3.36000 42.14800
H  3.74400 4.05000 44.78700
H  1.98700 3.80400 44.81200
H  2.79900 4.93600 43.64400
H  4.37200 2.94400 40.68500
H  4.80300 1.19000 40.97700
H  6.98000 2.58800 42.01800
H  6.39400 3.67800 40.74400
H  -2.74700 1.38800 41.78800
H  -1.84700 2.54600 42.61500
H  -3.17900 1.83600 43.46500
H  -3.47600 -3.42800 43.71400
H  -4.98400 -2.67400 44.15000
H  -3.80600 -2.82100 45.45300
H  -0.38100 -5.66200 44.81900
H  1.94000 -5.97100 46.69300
H  -1.22800 -4.13200 46.98500
H  0.16200 -5.09800 47.71100
H  -1.24400 -5.90900 47.09200
H  2.72300 -6.54800 43.99300
H  1.05300 -7.15100 44.29800
H  1.82300 -8.91700 45.41700
H  2.64300 -7.73000 46.51300
H  3.47900 -8.46300 45.07700
H  6.70200 -5.21400 45.47400
H  7.52400 -3.94600 46.56200
H  7.87600 -4.07200 44.80400
H  7.34500 0.44900 43.01200
H  9.24400 3.56800 44.57000
H  8.56600 3.19100 46.18700
H  7.76800 4.40200 45.12900

