158

Mg 16.62900 -1.78100 27.35700
C  15.76600 0.24200 30.00200
C  18.73000 -3.67600 29.47600
C  18.03900 -3.40400 24.65100
C  14.85600 0.26900 25.21600
N  17.17700 -1.61400 29.52700
C  16.67700 -0.73200 30.45300
C  17.12300 -1.21200 31.86400
C  18.26600 -2.27100 31.56000
C  18.06300 -2.57100 30.10800
C  19.69100 -1.84400 31.96600
C  15.92200 -1.65800 32.77600
C  15.97000 -1.26600 34.26600
H  17.01200 -0.30300 34.75500
N  18.00800 -3.40600 27.14100
C  18.75000 -3.99700 28.07300
C  19.44000 -5.14600 27.50300
C  19.13900 -5.22500 26.16000
C  18.34700 -3.93500 25.88000
C  20.20800 -6.14200 28.36800
C  19.56500 -6.14300 25.11300
O  19.41200 -5.92200 23.89900
C  20.17600 -7.48600 25.54500
N  16.39600 -1.64400 25.22500
C  17.16000 -2.38100 24.35800
C  16.93300 -1.93500 22.86300
C  15.93800 -0.73000 23.08600
C  15.69800 -0.69300 24.59400
C  18.25700 -1.50200 22.12600
C  14.51000 -0.88700 22.40900
C  13.92000 0.30100 21.57900
N  15.42000 -0.03100 27.49700
C  14.78400 0.68000 26.54600
C  13.91200 1.68800 27.23200
C  14.37600 1.59500 28.58300
C  15.29900 0.60700 28.67500
C  13.09100 2.71500 26.62200
C  14.11900 2.08900 29.86000
O  13.37100 2.93900 30.24600
C  15.06600 1.32300 30.88100
C  15.85800 2.24500 31.71700
O  17.05500 2.42500 31.66600
O  15.06100 2.87800 32.70100
C  15.71100 3.72200 33.67300
H  19.19400 -4.22600 30.29800
H  18.46700 -3.90200 23.77800
H  14.29900 0.90600 24.52600
H  17.60600 -0.31000 32.23900
H  18.03100 -3.22200 32.03900
H  20.11500 -2.84800 32.00400
H  19.89600 -1.37000 32.92600
H  20.16300 -1.17200 31.25000
H  15.89300 -2.74700 32.74500
H  14.97300 -1.37100 32.32400
H  16.12100 -2.18400 34.83500
H  14.95800 -0.89400 34.42900
H  21.01700 -6.51400 27.74000
H  19.60000 -7.00700 28.63300
H  20.63300 -5.68100 29.25900
H  20.19400 -8.21600 24.73600
H  19.63700 -7.86900 26.41200
H  21.23600 -7.28300 25.69400
H  16.45600 -2.78400 22.37300
H  16.31300 0.23600 22.74800
H  17.97400 -0.97600 21.21400
H  19.03100 -2.22500 21.87100
H  18.74800 -0.70000 22.67800
H  13.76000 -1.21100 23.13100
H  14.58400 -1.66700 21.65100
H  12.84500 0.36700 21.75000
H  14.03800 -0.06900 20.56100
H  14.42900 1.22500 21.85500
H  12.44800 2.31000 25.84100
H  13.79000 3.44900 26.22100
H  12.45100 3.08200 27.42400
H  14.48200 0.77900 31.62400
H  15.09500 4.54600 34.03400
H  16.48500 4.27200 33.13700
H  16.19500 3.19500 34.49600
Mg 25.31700 1.55500 29.15800
C  27.31000 1.32800 32.13500
C  22.61300 1.84000 31.13900
C  23.71000 1.41800 26.42300
C  28.41000 0.62100 27.37900
N  25.06700 1.73900 31.38900
C  25.98700 1.72500 32.36300
C  25.31000 2.07900 33.69700
C  23.76700 2.13900 33.37500
C  23.78600 1.88100 31.88500
C  22.93900 1.09700 34.21300
C  25.92100 3.41300 34.28000
C  25.17400 4.03700 35.58600
H  26.09300 4.21500 36.86100
N  23.34200 1.67100 28.87000
C  22.34100 1.75700 29.78100
C  21.06500 1.57000 29.05400
C  21.39300 1.50800 27.61500
C  22.83700 1.49800 27.60000
C  19.76200 1.37000 29.79600
C  20.44900 1.35300 26.43900
O  20.87400 1.36300 25.28100
C  18.99400 1.14900 26.68000
N  25.92300 1.06400 27.17200
C  25.05500 1.23400 26.19500
C  25.64300 0.97900 24.80800
C  27.20600 0.88100 25.06700
C  27.23200 0.86300 26.66300
C  25.09000 -0.31400 24.13600
C  28.06500 2.03900 24.48400
C  27.56200 3.47100 24.84200
N  27.41700 1.19000 29.59800
C  28.52700 0.82800 28.78800
C  29.66100 0.65300 29.59900
C  29.24800 0.75400 30.91100
C  27.90700 1.13100 30.86800
C  31.01000 0.12300 29.12700
C  29.62400 0.69100 32.30200
O  30.69400 0.50600 32.83500
C  28.39200 1.18500 33.08000
C  28.14900 0.29700 34.26700
O  27.54600 -0.76800 34.22500
O  28.77300 0.91600 35.37200
C  28.41200 0.25800 36.64900
H  21.78200 2.16300 31.76900
H  23.18100 1.36600 25.47000
H  29.33100 0.59200 26.79400
H  25.49900 1.21200 34.33000
H  23.44700 3.16500 33.55800
H  23.06500 0.09900 33.79300
H  21.89500 1.38900 34.33000
H  23.36400 1.16900 35.21400
H  25.94200 4.14100 33.46900
H  26.93100 3.11800 34.56500
H  24.34800 3.36100 35.80600
H  24.71200 4.97600 35.27900
H  19.41200 0.41300 29.40900
H  19.04000 2.15500 29.57200
H  19.97400 1.35300 30.86500
H  18.67100 1.81300 27.48200
H  18.87200 0.13400 27.05600
H  18.34300 1.27800 25.81400
H  25.37100 1.84700 24.20700
H  27.59400 -0.11000 24.83400
H  24.00100 -0.27000 24.11900
H  25.48000 -1.27300 24.47800
H  25.48900 -0.30900 23.12200
H  28.24200 2.05100 23.40900
H  29.05800 1.88900 24.90800
H  26.59800 3.35800 25.33800
H  27.38400 3.96700 23.88700
H  28.27100 4.11900 25.35700
H  31.26300 -0.92100 29.31200
H  31.76800 0.75400 29.59100
H  31.18000 0.23600 28.05600
H  28.67900 2.19900 33.36100
H  28.42300 -0.82700 36.54700
H  27.43500 0.63100 36.95700
H  29.27600 0.57200 37.23400

