158

Mg 40.98500 41.35000 25.90900
C  40.39400 43.41900 28.55000
C  42.23900 38.98700 28.48400
C  42.46500 39.49100 23.49100
C  40.08500 43.73300 23.68000
N  41.27000 41.15000 28.24800
C  40.91900 42.23100 29.04000
C  41.08700 41.83900 30.52200
C  41.82000 40.45400 30.49200
C  41.83400 40.17900 29.00400
C  43.19500 40.51100 31.15300
C  39.71900 41.89000 31.26600
C  39.66300 42.80200 32.46300
H  39.03600 42.31400 33.85700
N  42.08900 39.47700 25.92600
C  42.34300 38.66700 27.07600
C  43.01300 37.48600 26.54900
C  43.21300 37.57500 25.17800
C  42.56600 38.87300 24.80700
C  43.23900 36.22000 27.36800
C  43.79300 36.58100 24.06800
O  43.91600 36.81400 22.88700
C  44.16600 35.20100 24.54900
N  41.23400 41.51000 23.96000
C  41.87400 40.69300 23.14900
C  41.68500 41.07400 21.62400
C  40.65600 42.17100 21.75600
C  40.66200 42.55200 23.22300
C  42.91100 41.36400 20.78300
C  39.22600 41.84500 21.23400
C  38.32400 40.77500 21.99700
N  40.30400 43.24500 26.05600
C  39.94700 44.12200 25.04200
C  39.69100 45.39000 25.61100
C  39.83900 45.17900 27.00900
C  40.20700 43.82400 27.22600
C  39.39000 46.68100 24.89400
C  39.68300 45.80300 28.28200
O  39.36100 46.93900 28.66600
C  39.97100 44.69900 29.35500
C  41.03300 45.28000 30.27700
O  42.24200 44.95300 30.24500
O  40.39600 46.06400 31.24100
C  41.31500 46.85700 32.03000
H  42.56200 38.24300 29.21500
H  42.97400 39.06900 22.62200
H  39.79500 44.39400 22.86000
H  41.73200 42.58700 30.98400
H  41.19800 39.74400 31.03800
H  43.94600 40.59700 30.36800
H  43.48400 39.63700 31.73700
H  43.40900 41.35300 31.81100
H  39.23600 40.96300 31.57400
H  39.02800 42.36100 30.56600
H  38.94000 43.57900 32.21300
H  40.62200 43.31500 32.51600
H  44.25700 35.84000 27.28100
H  42.52200 35.46600 27.04300
H  43.17000 36.45000 28.43100
H  45.09500 35.32700 25.10400
H  44.27900 34.42500 23.79100
H  43.47400 34.75300 25.26200
H  41.20900 40.20000 21.17900
H  41.04600 43.06800 21.27500
H  43.83600 41.64300 21.28800
H  42.72400 42.06500 19.96900
H  43.00500 40.47400 20.16100
H  39.25000 41.65000 20.16200
H  38.73600 42.78200 21.49800
H  37.89300 41.28700 22.85700
H  38.82800 39.83100 22.20900
H  37.53000 40.59100 21.27400
H  38.92100 46.42500 23.94500
H  40.34300 47.16100 24.67000
H  38.68400 47.27100 25.47900
H  39.06200 44.53900 29.93400
H  42.22800 47.08300 31.47900
H  41.57500 46.39100 32.98000
H  40.80800 47.79600 32.25600
Mg 7.93600 48.51400 27.88400
C  6.10800 47.79900 30.76500
C  10.65800 49.15100 29.72300
C  9.51700 49.65100 25.05100
C  4.92700 48.75000 26.08900
N  8.35600 48.37000 30.05500
C  7.47600 48.08300 31.08200
C  8.07100 48.20700 32.42000
C  9.52400 48.77900 32.07100
C  9.61200 48.76000 30.52800
C  9.83800 50.20100 32.61100
C  8.06300 46.89200 33.24300
C  9.20100 46.58500 34.19700
H  8.83500 45.60700 35.35500
N  9.87800 49.02500 27.37400
C  10.87300 49.11400 28.32700
C  12.14600 49.32800 27.70100
C  11.83300 49.47200 26.32900
C  10.35300 49.38400 26.19800
C  13.54600 49.45400 28.41400
C  12.72900 49.71400 25.05700
O  12.27500 49.97600 23.94800
C  14.20300 49.80600 25.29100
N  7.27100 49.14700 25.83800
C  8.13500 49.56400 24.93100
C  7.41200 50.02700 23.70400
C  5.97900 49.54000 23.87000
C  6.02600 49.01600 25.29500
C  7.56400 51.46600 23.35800
C  5.42900 48.46200 22.82200
C  6.22900 47.13200 22.50900
N  5.94900 48.17500 28.27400
C  4.86200 48.31300 27.42100
C  3.65800 47.86200 28.23400
C  4.07700 47.62900 29.47700
C  5.40200 47.92600 29.50800
C  2.22300 47.86200 27.75400
C  3.67700 47.32000 30.79500
O  2.59900 46.99700 31.31700
C  4.95100 47.41900 31.67100
C  5.01800 46.08400 32.25800
O  5.46600 45.07200 31.71800
O  4.42800 46.11400 33.53800
C  4.62100 44.92200 34.33700
H  11.56800 49.33100 30.29900
H  9.85000 49.94000 24.05200
H  3.98400 48.79700 25.54000
H  7.51000 48.96900 32.96200
H  10.26100 48.03500 32.37500
H  9.98600 50.96400 31.84700
H  10.74300 50.08000 33.20700
H  9.13200 50.54100 33.36800
H  7.84200 46.07100 32.56100
H  7.19900 46.93600 33.90600
H  9.63000 47.52800 34.53400
H  9.95100 46.22000 33.49600
H  13.79700 50.50600 28.55100
H  14.24600 48.92100 27.77100
H  13.55000 48.95300 29.38200
H  14.61700 50.30700 24.41600
H  14.73500 48.86600 25.43900
H  14.32300 50.49900 26.12400
H  7.92000 49.37100 22.99800
H  5.23700 50.33400 23.78300
H  8.19000 51.93700 24.11600
H  6.66900 52.08300 23.44500
H  8.01400 51.63900 22.38100
H  5.11900 48.90100 21.87300
H  4.42500 48.31000 23.21800
H  5.58500 46.25300 22.54300
H  7.07700 46.84300 23.13000
H  6.63400 47.29800 21.51100
H  1.96400 48.74400 27.17000
H  1.49600 47.67500 28.54500
H  2.19800 47.04600 27.03200
H  4.71200 48.17700 32.41800
H  4.59600 45.31500 35.35300
H  5.64000 44.58600 34.14400
H  3.98900 44.07000 34.09100

