158

Mg 2.74800 -2.44700 43.68600
C  6.04300 -1.48800 43.11000
C  1.58600 0.03800 41.51900
C  -0.24400 -3.95500 43.58900
C  4.04300 -5.35400 45.17700
N  3.73300 -0.94200 42.48000
C  5.15000 -0.68000 42.37700
C  5.44000 0.49100 41.40800
C  3.95100 0.97000 41.08300
C  2.99600 -0.06000 41.69400
C  3.60400 2.34500 41.62100
C  6.40700 -0.03400 40.23200
C  7.71600 0.78800 40.06600
H  8.30400 0.97200 38.66100
N  0.84600 -1.79000 42.96500
C  0.59200 -0.76600 42.08700
C  -0.80600 -0.67700 41.83200
C  -1.35700 -1.88000 42.34300
C  -0.30400 -2.60400 43.01800
C  -1.39000 0.59500 41.07700
C  -2.82700 -2.27500 42.16300
O  -3.57800 -1.47900 41.52000
C  -3.49700 -3.54600 42.54700
N  2.06500 -4.44600 44.17000
C  0.72500 -4.74800 44.16100
C  0.43200 -6.23600 44.58800
C  1.74600 -6.51800 45.34700
C  2.72000 -5.43100 44.81600
C  -0.88300 -6.37500 45.44200
C  2.34200 -7.95900 45.12600
C  2.94200 -8.79300 46.27700
N  4.59800 -3.22500 44.25400
C  4.97800 -4.40400 44.82100
C  6.41500 -4.40300 45.11700
C  6.80500 -3.18800 44.49900
C  5.69000 -2.62600 43.88900
C  7.18800 -5.45100 45.88000
C  7.96000 -2.40600 44.21100
O  9.10900 -2.62600 44.51900
C  7.48500 -1.23900 43.35500
C  7.72200 0.02700 44.13800
O  7.26000 0.25300 45.24500
O  8.46800 0.86800 43.32400
C  8.63400 2.17200 43.84400
H  1.18500 0.84100 40.89600
H  -1.21900 -4.44300 43.52900
H  4.37300 -6.19500 45.79000
H  6.00300 1.24600 41.95700
H  3.81400 1.08800 40.00800
H  4.53000 2.90300 41.76200
H  3.03200 2.24000 42.54300
H  3.01900 2.88500 40.87700
H  5.90900 0.18300 39.28700
H  6.63500 -1.09600 40.31800
H  8.41700 0.24300 40.69800
H  7.53300 1.79100 40.44900
H  -2.40900 0.76900 41.42300
H  -1.34200 0.45700 39.99600
H  -0.81400 1.51500 41.17300
H  -3.43100 -3.92500 43.56600
H  -3.02400 -4.28300 41.89900
H  -4.57700 -3.43000 42.45800
H  0.31300 -6.77200 43.64700
H  1.64400 -6.29800 46.41000
H  -1.21900 -5.34100 45.51200
H  -0.71900 -6.95900 46.34800
H  -1.72900 -6.82500 44.92300
H  3.04200 -7.91000 44.29200
H  1.48900 -8.56600 44.82500
H  3.04200 -8.17100 47.16600
H  3.98300 -8.96900 46.00600
H  2.31300 -9.64800 46.52200
H  8.20200 -5.05800 45.79600
H  7.02100 -6.39900 45.36900
H  6.87900 -5.47900 46.92500
H  7.99400 -1.28700 42.39200
H  8.66300 2.79300 42.94900
H  9.43900 2.21600 44.57800
H  7.87900 2.60700 44.49900
Mg 25.73600 1.89900 29.29100
C  27.50700 1.59000 32.13000
C  22.78700 2.00300 31.04500
C  24.03700 1.76000 26.25900
C  28.62200 1.09900 27.46500
N  25.28100 1.93200 31.41500
C  26.16500 1.81300 32.40800
C  25.47900 2.04200 33.76800
C  23.86800 2.11200 33.39900
C  23.92200 2.09400 31.86900
C  22.97300 1.10500 34.04900
C  26.10200 3.17600 34.63100
C  26.55800 2.91600 36.16000
H  25.96700 3.81100 37.25600
N  23.68200 1.93300 28.75700
C  22.67700 2.07400 29.59200
C  21.46300 2.23100 28.82600
C  21.80400 1.98900 27.46800
C  23.22500 1.91400 27.44000
C  20.09000 2.41600 29.45100
C  20.91400 1.80700 26.27200
O  21.30200 1.50400 25.14400
C  19.38400 1.90000 26.29900
N  26.36200 1.79400 27.17900
C  25.45300 1.69600 26.14700
C  26.10300 1.59500 24.77100
C  27.63100 1.40100 25.17100
C  27.55900 1.49800 26.65800
C  25.51300 0.51600 23.85900
C  28.57600 2.46500 24.49900
C  29.64300 1.87000 23.55500
N  27.76400 1.43200 29.62600
C  28.81400 1.00100 28.82900
C  29.96900 0.75700 29.61200
C  29.50400 0.90700 30.92600
C  28.20500 1.32800 30.85700
C  31.36200 0.51500 29.09700
C  29.88000 1.02900 32.34600
O  30.98400 0.89100 32.90100
C  28.66500 1.49700 33.18900
C  28.38700 0.56800 34.31100
O  27.78400 -0.45800 34.21100
O  29.02800 0.83500 35.47600
C  28.89300 -0.13000 36.57600
H  21.91200 2.06500 31.69500
H  23.49300 1.74000 25.31300
H  29.53700 1.02400 26.87300
H  25.62900 1.11100 34.31400
H  23.51700 3.10800 33.66800
H  22.57700 0.30000 33.42900
H  22.13100 1.63300 34.49600
H  23.47500 0.54300 34.83600
H  25.43900 4.03800 34.69800
H  26.96100 3.47100 34.02800
H  27.62900 3.02200 36.33300
H  26.24200 1.91200 36.44300
H  19.47400 3.02000 28.78500
H  20.10100 2.82800 30.46000
H  19.77900 1.37100 29.47500
H  19.11300 1.56700 25.29700
H  19.04300 2.93500 26.31400
H  18.87400 1.33400 27.07800
H  25.99300 2.56400 24.28400
H  28.06000 0.41500 24.99300
H  24.87100 -0.13700 24.45000
H  26.29000 -0.13700 23.46100
H  24.90800 1.05100 23.12700
H  29.13100 2.99300 25.27500
H  28.04800 3.24500 23.95100
H  30.45600 1.26300 23.95300
H  30.21300 2.67700 23.09400
H  29.15000 1.23600 22.81800
H  31.43800 0.74400 28.03400
H  31.59300 -0.53200 29.28900
H  32.00200 1.16800 29.69000
H  28.89000 2.48000 33.60200
H  28.90800 -1.18400 36.29500
H  28.10800 0.07700 37.30300
H  29.85600 0.07800 37.04200

