158

Mg 1.06500 -1.79700 44.80000
C  4.47300 -1.39100 44.01900
C  0.41000 0.78100 42.53900
C  -2.23700 -2.61900 44.97000
C  1.87000 -4.78300 46.36000
N  2.32900 -0.62500 43.17900
C  3.68900 -0.57700 43.22800
C  4.21500 0.44000 42.13100
C  2.82800 1.22200 41.78600
C  1.78400 0.47400 42.50800
C  2.96100 2.76000 41.99600
C  4.88700 -0.32100 40.94100
C  6.27300 0.30900 40.55000
H  6.35000 1.50800 39.53100
N  -0.70200 -0.97900 43.88400
C  -0.71200 0.10300 43.08200
C  -2.09300 0.54900 42.89600
C  -3.00400 -0.42500 43.60000
C  -1.99100 -1.38900 44.23200
C  -2.50100 1.79100 42.06600
C  -4.53900 -0.44600 43.69300
O  -5.12300 0.48500 43.12300
C  -5.32000 -1.42500 44.40000
N  0.00700 -3.46600 45.66000
C  -1.36500 -3.52700 45.61600
C  -1.87600 -4.82300 46.35200
C  -0.55900 -5.54900 46.88500
C  0.47300 -4.62900 46.16700
C  -3.00100 -4.48700 47.45100
C  -0.36500 -7.10700 46.75500
C  -1.47200 -8.01500 47.31800
N  2.73800 -2.82900 45.24100
C  2.97800 -4.05600 45.86200
C  4.40200 -4.27600 46.16000
C  4.96900 -3.21400 45.46600
C  3.96900 -2.44300 44.90100
C  5.09700 -5.38700 46.90200
C  6.34000 -2.63600 45.09100
O  7.46800 -3.01200 45.36400
C  5.96200 -1.46900 44.13600
C  6.45100 -0.15200 44.67500
O  6.21300 0.19600 45.80700
O  7.29800 0.45700 43.79000
C  7.90500 1.72000 44.20500
H  0.14200 1.66700 41.95900
H  -3.28600 -2.80300 45.21100
H  2.25000 -5.56500 47.02100
H  4.93100 1.14400 42.55300
H  2.67800 1.18800 40.70700
H  3.89700 2.97200 42.51300
H  2.13500 3.09400 42.62300
H  2.95200 3.38800 41.10500
H  4.19200 -0.28700 40.10200
H  5.11700 -1.37700 41.07600
H  6.76700 -0.58300 40.16400
H  6.77400 0.58500 41.47800
H  -2.81500 1.46500 41.07500
H  -1.77500 2.60100 41.99400
H  -3.38200 2.18000 42.57700
H  -6.39700 -1.36800 44.24000
H  -5.11900 -1.28300 45.46100
H  -5.00200 -2.44600 44.18700
H  -2.26300 -5.49100 45.58200
H  -0.54600 -5.43700 47.96900
H  -3.86700 -5.13100 47.29400
H  -3.26500 -3.43300 47.36500
H  -2.71100 -4.61600 48.49400
H  0.55000 -7.39800 47.27200
H  -0.23200 -7.38700 45.71000
H  -1.83100 -8.60500 46.47500
H  -2.22400 -7.40600 47.81900
H  -1.09000 -8.77300 48.00200
H  5.31800 -6.22200 46.23900
H  4.56200 -5.68400 47.80500
H  6.00300 -4.87400 47.22600
H  6.46700 -1.62800 43.18300
H  8.93100 1.43300 44.43700
H  7.46700 2.03000 45.15300
H  7.73800 2.49500 43.45700
Mg 9.23200 48.33700 25.72300
C  7.27300 48.68900 28.48500
C  11.99300 49.54100 27.54100
C  11.24300 47.69600 23.06700
C  6.53200 47.57700 23.88100
N  9.61600 49.07500 27.77100
C  8.62900 49.06900 28.70400
C  9.14200 49.63100 30.07400
C  10.63600 50.14100 29.64000
C  10.78000 49.50300 28.27600
C  10.80100 51.74700 29.60200
C  9.17400 48.66400 31.27000
C  9.13100 49.33300 32.61000
H  8.63000 48.56000 33.82300
N  11.33200 48.67700 25.29300
C  12.22500 49.14600 26.21900
C  13.53900 49.01500 25.63000
C  13.42900 48.40600 24.32000
C  11.94000 48.25900 24.18800
C  14.86500 49.37800 26.35100
C  14.44300 48.12000 23.17900
O  14.14000 47.57100 22.09100
C  15.92100 48.33700 23.49900
N  8.95600 47.63200 23.70700
C  9.89200 47.41100 22.83100
C  9.31200 46.85800 21.51800
C  7.82600 47.29300 21.71600
C  7.73000 47.41200 23.22300
C  9.74600 47.66000 20.20500
C  6.94300 46.26200 20.94900
C  5.63300 46.83900 20.27300
N  7.22400 48.14900 25.99000
C  6.20500 47.89700 25.17000
C  4.96200 47.89200 25.92000
C  5.29000 48.26500 27.21300
C  6.69400 48.30900 27.21200
C  3.61600 47.50500 25.44000
C  4.83300 48.46700 28.59600
O  3.67100 48.38300 28.98500
C  6.06700 48.84000 29.44800
C  5.99500 47.69600 30.41400
O  6.10500 46.51700 30.18200
O  5.66600 48.24700 31.63000
C  5.09400 47.16700 32.51600
H  12.69100 50.05000 28.20900
H  11.76100 47.51500 22.12200
H  5.65000 47.45100 23.25000
H  8.45800 50.40100 30.42900
H  11.38900 49.63500 30.24300
H  10.09500 52.28400 30.23600
H  10.78100 52.03100 28.54900
H  11.77700 51.96300 30.03600
H  10.16900 48.22400 31.20800
H  8.44600 47.86400 31.14000
H  8.53300 50.24100 32.53800
H  10.18900 49.58400 32.68100
H  15.75900 48.78900 26.14300
H  14.71700 49.39700 27.43100
H  15.13300 50.37300 25.99700
H  16.58800 48.05900 22.68300
H  16.14100 47.74200 24.38600
H  16.15200 49.37200 23.75100
H  9.47300 45.79400 21.34300
H  7.65000 48.27400 21.27300
H  8.91300 47.82300 19.52200
H  10.42300 47.06000 19.59700
H  10.24800 48.60300 20.42400
H  6.71500 45.53000 21.72300
H  7.53000 45.79100 20.16100
H  4.75500 46.47200 20.80500
H  5.73400 46.54600 19.22800
H  5.47200 47.91600 20.31700
H  3.15300 46.67100 25.96600
H  3.72500 47.18800 24.40300
H  2.99900 48.38800 25.60600
H  6.07100 49.84200 29.87700
H  4.13100 46.93700 32.05900
H  5.10900 47.56600 33.53000
H  5.62600 46.21600 32.52700

