158

Mg 1.95500 -1.28200 44.36400
C  5.34400 -0.66400 43.96700
C  1.35000 1.71400 42.73700
C  -1.31500 -2.27800 44.00500
C  2.57400 -4.53700 45.50600
N  3.22100 0.24200 43.23800
C  4.57400 0.33400 43.39500
C  5.13900 1.66500 42.82900
C  3.79900 2.47000 42.51200
C  2.74000 1.49300 42.91100
C  3.62700 3.91100 43.23900
C  5.99000 1.46000 41.50900
C  7.43500 1.80600 41.50400
H  8.27000 2.04900 40.24600
N  0.31400 -0.44200 43.56000
C  0.21000 0.84400 42.92300
C  -1.19400 1.11500 42.58800
C  -1.90300 -0.01300 43.10000
C  -0.94600 -1.00000 43.58800
C  -1.72400 2.36500 41.88000
C  -3.44700 -0.01700 42.91400
O  -4.09200 0.77300 42.24800
C  -4.24000 -1.14000 43.54600
N  0.78000 -3.22400 44.75400
C  -0.53700 -3.30300 44.55600
C  -1.00900 -4.74000 44.69800
C  0.23800 -5.50200 45.32600
C  1.25100 -4.36500 45.21000
C  -2.34300 -5.04200 45.56500
C  0.62500 -6.77100 44.50500
C  1.09400 -7.94600 45.16000
N  3.53000 -2.38600 44.81900
C  3.66500 -3.63400 45.31000
C  5.04000 -3.83700 45.69200
C  5.72900 -2.68800 45.17900
C  4.77800 -1.84200 44.60100
C  5.66300 -5.14700 46.17600
C  7.05900 -2.07000 45.00400
O  8.13500 -2.52700 45.38400
C  6.82900 -0.74300 44.29700
C  7.22700 0.35200 45.21000
O  6.66200 0.58800 46.29800
O  8.23500 1.18100 44.73300
C  8.77600 2.29300 45.46300
H  1.13300 2.73300 42.41100
H  -2.35500 -2.54600 43.80600
H  2.84800 -5.50700 45.92800
H  5.69400 2.18500 43.61000
H  3.61200 2.81300 41.49400
H  2.88700 3.85600 44.03700
H  3.25300 4.74200 42.64100
H  4.56600 4.21700 43.70100
H  5.57900 1.95100 40.62700
H  5.96300 0.39300 41.28600
H  7.91100 1.00200 42.06600
H  7.50800 2.64100 42.20100
H  -0.99100 3.16500 41.77300
H  -2.42900 2.87300 42.53800
H  -2.19800 2.17900 40.91600
H  -5.28300 -0.84700 43.65900
H  -3.98400 -1.16600 44.60500
H  -4.24400 -2.03500 42.92400
H  -1.17500 -5.16400 43.70800
H  0.03700 -5.91400 46.31500
H  -2.33100 -6.05900 45.95600
H  -3.16300 -5.01700 44.84700
H  -2.55900 -4.31500 46.34800
H  1.48200 -6.59400 43.85400
H  -0.22900 -7.12800 43.93000
H  1.49000 -7.58900 46.11000
H  1.95500 -8.44100 44.71000
H  0.47600 -8.82800 45.32500
H  5.26800 -5.44200 47.14800
H  6.74600 -5.04000 46.23700
H  5.40800 -5.98500 45.52600
H  7.52100 -0.59100 43.46900
H  8.58900 3.25000 44.97500
H  9.86200 2.19600 45.43000
H  8.58200 2.34700 46.53400
Mg 50.50800 45.62000 42.30300
C  47.49100 47.05000 41.04100
C  49.54300 42.59600 41.23400
C  53.70200 44.62700 42.78300
C  51.62300 48.96800 42.82000
N  48.84200 44.99200 41.13600
C  47.71100 45.69600 40.83300
C  46.63500 44.73100 40.31900
C  47.19100 43.38200 40.53500
C  48.62200 43.64900 41.06900
C  46.33200 42.43100 41.50900
C  46.39200 45.05800 38.81000
C  44.91200 45.11800 38.37400
H  44.29500 43.91000 37.59700
N  51.53000 43.77500 42.03500
C  50.88500 42.64000 41.67800
C  51.87600 41.57800 41.70100
C  53.12500 42.15200 42.09100
C  52.85100 43.59200 42.30500
C  51.52600 40.14300 41.30700
C  54.43800 41.42700 42.25700
O  54.48800 40.20800 42.22000
C  55.74500 42.12500 42.46200
N  52.37200 46.75200 42.65000
C  53.48500 46.03200 42.95700
C  54.65300 46.87300 43.46500
C  54.00800 48.20400 43.36800
C  52.51200 48.00200 43.09000
C  55.29800 46.56900 44.89200
C  54.66900 49.30800 42.42500
C  55.64300 50.32200 42.99800
N  49.72400 47.58500 42.04900
C  50.30600 48.86100 42.30200
C  49.36900 49.95600 42.01900
C  48.21700 49.24000 41.66900
C  48.49400 47.83900 41.63100
C  49.61100 51.40600 42.15300
C  46.80200 49.41500 41.34300
O  46.06700 50.38200 41.28400
C  46.37800 48.04100 40.80400
C  45.10300 47.63400 41.55600
O  44.96400 47.44900 42.74500
O  44.11600 47.41600 40.58800
C  42.86700 47.16500 41.21100
H  48.98900 41.71800 40.89400
H  54.71300 44.40800 43.13200
H  52.07600 49.88000 43.21400
H  45.81000 44.84300 41.02300
H  47.41600 42.83200 39.62200
H  45.44200 42.92700 41.89500
H  46.97100 42.05900 42.31000
H  45.95100 41.61900 40.88900
H  46.94200 44.27700 38.28600
H  46.75700 46.04600 38.52800
H  44.73800 46.13900 38.03400
H  44.33800 45.01900 39.29500
H  52.09400 39.78100 40.45000
H  50.48100 39.94900 41.06900
H  51.79300 39.48800 42.13700
H  55.93300 42.57700 43.43600
H  55.84200 42.96300 41.77300
H  56.55800 41.42700 42.26000
H  55.34400 46.63800 42.65500
H  53.90500 48.58100 44.38600
H  56.30000 46.21600 44.65100
H  54.76100 45.64900 45.12400
H  55.14700 47.36100 45.62600
H  53.93100 49.77100 41.77000
H  55.30000 48.72100 41.75700
H  56.61700 50.14700 42.54000
H  55.78000 50.15000 44.06600
H  55.17700 51.28800 42.80300
H  48.72800 52.01300 41.95500
H  50.40500 51.71000 41.47100
H  49.96500 51.67000 43.15000
H  46.07600 48.15200 39.76200
H  42.66700 47.79300 42.07800
H  42.66600 46.12300 41.45900
H  42.16600 47.42600 40.41800

