158

Mg 1.06600 -3.08600 44.18700
C  4.25000 -2.13900 43.30700
C  -0.23800 -0.65000 42.12600
C  -2.12300 -4.28200 44.77900
C  2.32200 -6.03800 45.60900
N  1.88400 -1.60900 42.78400
C  3.27800 -1.41300 42.60000
C  3.54000 -0.11100 41.65100
C  2.05200 0.33200 41.44400
C  1.14900 -0.66400 42.14000
C  1.70400 1.83700 41.72900
C  4.19300 -0.49900 40.25800
C  5.49800 0.31100 39.98100
H  5.91500 0.50200 38.51200
N  -0.95300 -2.51600 43.58700
C  -1.21900 -1.37800 42.87800
C  -2.66600 -1.26200 42.76500
C  -3.25100 -2.37100 43.38800
C  -2.08000 -3.08200 43.97900
C  -3.26100 -0.21600 41.85000
C  -4.76400 -2.62900 43.41000
O  -5.54800 -1.94000 42.85100
C  -5.25300 -3.77500 44.02300
N  0.22700 -5.09000 44.81600
C  -1.11600 -5.18600 45.23400
C  -1.39400 -6.48600 45.95900
C  0.05500 -7.13100 46.03500
C  0.97400 -5.96800 45.57100
C  -2.12300 -6.40200 47.33100
C  0.11200 -8.38600 45.25800
C  -0.59600 -9.62300 45.79600
N  2.87600 -3.85100 44.66100
C  3.26600 -5.11500 45.16400
C  4.71800 -5.13500 45.23000
C  5.06800 -3.99100 44.55400
C  3.93800 -3.28000 44.19900
C  5.56800 -6.15700 45.91700
C  6.24000 -3.28000 44.10800
O  7.43500 -3.57400 44.14000
C  5.76700 -2.01200 43.32300
C  6.27200 -0.70700 43.81900
O  6.84600 0.10200 43.11300
O  5.79500 -0.53300 45.07600
C  6.13700 0.81100 45.58300
H  -0.63600 0.17600 41.53200
H  -3.12000 -4.60000 45.09100
H  2.83300 -6.80100 46.20000
H  4.20800 0.57500 42.17300
H  1.85700 0.21500 40.37800
H  0.77700 1.81000 42.30000
H  1.51500 2.30900 40.76500
H  2.43900 2.35600 42.34500
H  3.51900 -0.49900 39.40200
H  4.44800 -1.53600 40.47300
H  6.28900 -0.36000 40.31600
H  5.48000 1.15100 40.67500
H  -4.24700 0.08100 42.20700
H  -3.33400 -0.33300 40.76900
H  -2.72100 0.71500 42.02600
H  -4.78800 -3.63200 44.99900
H  -4.89100 -4.69600 43.56600
H  -6.33700 -3.87200 44.07700
H  -2.06800 -7.05700 45.32000
H  0.31900 -7.28900 47.08100
H  -1.70600 -7.16500 47.98900
H  -3.15900 -6.63400 47.08500
H  -2.11800 -5.38200 47.71500
H  1.16800 -8.65800 45.27200
H  -0.27200 -8.21900 44.25100
H  -1.31900 -10.02600 45.08600
H  -1.15000 -9.51600 46.72800
H  0.21600 -10.33300 45.95400
H  5.30100 -6.40300 46.94500
H  6.58700 -5.77200 45.95800
H  5.71000 -7.01300 45.25800
H  6.13800 -2.19700 42.31500
H  5.89800 0.85700 46.64600
H  5.55000 1.56800 45.06300
H  7.20000 0.97200 45.40100
Mg 1.96600 41.37900 25.38500
C  4.03900 41.62600 28.15000
C  -0.69900 40.61500 27.47300
C  -0.06800 41.19600 22.61200
C  4.72100 41.65400 23.39500
N  1.77300 41.15400 27.52600
C  2.69000 41.27500 28.46400
C  2.16000 41.26000 29.80200
C  0.69600 40.71500 29.62200
C  0.57600 40.80900 28.08700
C  0.48000 39.34200 30.21500
C  2.12800 42.63500 30.53400
C  1.99900 42.57200 32.09800
H  1.80500 41.22600 32.86800
N  -0.13200 41.02000 25.10900
C  -1.06700 40.65900 26.07700
C  -2.29900 40.36700 25.43300
C  -2.18100 40.58400 24.03800
C  -0.75600 41.02600 23.89400
C  -3.52100 39.88300 26.17900
C  -3.14200 40.36000 22.95500
O  -2.86900 40.63100 21.75700
C  -4.55500 40.04900 23.29600
N  2.29800 41.44300 23.30100
C  1.26800 41.39300 22.35500
C  1.95300 41.24600 20.93400
C  3.43300 41.77300 21.24800
C  3.49700 41.55100 22.73900
C  1.86500 39.82500 20.33900
C  3.74200 43.25700 20.72300
C  3.63100 44.47100 21.51500
N  3.97500 41.51700 25.63200
C  5.04000 41.60500 24.74700
C  6.29200 41.83600 25.44600
C  5.96900 41.80400 26.79000
C  4.56800 41.66400 26.85600
C  7.66500 42.15700 24.88700
C  6.52400 41.82000 28.14600
O  7.70600 41.94000 28.54100
C  5.24800 41.72500 29.11100
C  5.52000 40.57900 29.97500
O  5.33500 39.39100 29.76700
O  5.94600 41.12400 31.09900
C  6.10900 40.20000 32.16100
H  -1.60900 40.52700 28.07000
H  -0.65600 40.97700 21.71800
H  5.49600 41.76900 22.63400
H  2.79200 40.52700 30.30300
H  0.10100 41.43900 30.17900
H  -0.34300 39.43000 30.92400
H  1.29700 38.77200 30.65800
H  0.01300 38.74000 29.43600
H  1.38300 43.31400 30.11900
H  3.07900 43.13400 30.34700
H  1.14500 43.23500 32.23900
H  2.85900 43.07200 32.54300
H  -3.31700 39.59900 27.21100
H  -3.90500 39.04500 25.59700
H  -4.32200 40.61700 26.26000
H  -4.94900 40.79600 23.98400
H  -4.85000 39.13300 23.81000
H  -5.04600 40.06900 22.32300
H  1.45700 41.94700 20.26200
H  4.17600 41.04700 20.91700
H  2.85600 39.37300 20.36800
H  1.48900 39.77200 19.31700
H  1.15800 39.22000 20.90700
H  3.27800 43.46700 19.75900
H  4.79200 43.17400 20.44300
H  3.21000 44.21300 22.48700
H  2.96100 45.16800 21.01300
H  4.60900 44.93500 21.64600
H  7.75500 41.50900 24.01500
H  8.38400 41.96900 25.68400
H  7.87900 43.15800 24.51300
H  5.15800 42.63700 29.70100
H  6.69700 39.30900 31.94300
H  5.14900 39.90900 32.58800
H  6.61200 40.70200 32.98800

