158

Mg 2.13500 -1.41800 43.99900
C  5.38200 -0.23500 43.78100
C  1.04500 1.42700 42.62300
C  -0.78700 -2.97700 43.24000
C  3.49600 -4.59800 44.74800
N  3.10600 0.40900 43.33700
C  4.46900 0.66700 43.33300
C  4.72600 2.11400 42.98600
C  3.20600 2.73600 43.18000
C  2.38400 1.50000 42.97900
C  2.93900 3.45500 44.59200
C  5.32300 2.29000 41.60000
C  6.70900 2.90700 41.48200
H  7.76600 2.32900 40.47800
N  0.36200 -0.80700 43.10900
C  0.12200 0.39800 42.56200
C  -1.25300 0.51600 42.18200
C  -1.85600 -0.66400 42.41200
C  -0.80200 -1.60400 42.99400
C  -1.85600 1.85400 41.69300
C  -3.33300 -1.02400 42.19000
O  -4.05400 -0.18700 41.66700
C  -3.83000 -2.25300 42.66900
N  1.43100 -3.46100 44.06400
C  0.15400 -3.82600 43.81700
C  -0.04600 -5.31600 43.97200
C  1.27500 -5.81900 44.57600
C  2.16800 -4.57300 44.48200
C  -1.25400 -5.77000 44.81400
C  1.90500 -7.16100 43.93900
C  1.80900 -8.37700 44.95800
N  4.00300 -2.28800 44.37900
C  4.42400 -3.56100 44.67000
C  5.85600 -3.56300 44.93900
C  6.27500 -2.30700 44.51700
C  5.06800 -1.59700 44.18200
C  6.75700 -4.65600 45.53700
C  7.43500 -1.44400 44.41100
O  8.57200 -1.67300 44.66100
C  6.90800 -0.10200 43.96200
C  7.31800 0.91800 44.92600
O  6.59200 1.19900 45.88400
O  8.43400 1.64500 44.50300
C  8.83200 2.91300 45.15500
H  0.63200 2.37700 42.27900
H  -1.73200 -3.52200 43.18900
H  3.96000 -5.54800 45.02200
H  5.34100 2.57200 43.76100
H  2.98100 3.47000 42.40600
H  3.08800 4.53500 44.58000
H  3.57400 3.08800 45.39800
H  1.86700 3.33900 44.75300
H  4.61000 2.85300 40.99800
H  5.32100 1.35400 41.04000
H  7.17300 2.80800 42.46400
H  6.53200 3.95800 41.25600
H  -2.59500 1.73800 40.90000
H  -1.09000 2.48600 41.24400
H  -2.26500 2.32800 42.58500
H  -3.54000 -2.27000 43.72000
H  -3.39700 -3.07400 42.09900
H  -4.89900 -2.20800 42.45900
H  -0.17800 -5.66400 42.94800
H  1.19400 -5.95200 45.65500
H  -0.89200 -6.42400 45.60700
H  -1.88000 -6.43200 44.21600
H  -1.81200 -4.93800 45.24400
H  2.98900 -7.05300 43.90100
H  1.45500 -7.45000 42.98900
H  2.78700 -8.53500 45.41100
H  1.43000 -9.26900 44.45800
H  1.10700 -8.19300 45.77200
H  6.70100 -5.46000 44.80300
H  6.48800 -5.10500 46.49300
H  7.78400 -4.30500 45.43800
H  7.41100 0.05900 43.00900
H  7.99500 3.36000 45.69100
H  9.32700 3.59200 44.46000
H  9.44700 2.63800 46.01100
Mg 43.15500 41.88200 25.67700
C  42.35500 44.41900 28.00000
C  44.32700 39.97500 28.26100
C  44.27500 39.69300 23.42900
C  42.68800 44.27800 23.20700
N  43.18700 42.14600 27.90500
C  42.84000 43.24900 28.63500
C  43.00100 43.11000 30.05900
C  43.81900 41.76900 30.12400
C  43.80200 41.23300 28.67600
C  45.25600 41.93600 30.60700
C  41.75500 43.21900 31.02200
C  41.70000 42.27100 32.23500
H  40.74200 42.74100 33.37700
N  43.95100 39.94300 25.87300
C  44.41400 39.37500 27.02900
C  44.95200 38.06900 26.70500
C  44.85100 37.90200 25.27100
C  44.33800 39.21400 24.81800
C  45.59500 37.14100 27.69800
C  45.25500 36.69400 24.33700
O  45.10900 36.84900 23.12500
C  45.77800 35.47200 24.80600
N  43.43400 41.99900 23.59200
C  43.88800 40.95100 22.90000
C  44.01400 41.30900 21.36200
C  43.42400 42.76500 21.32400
C  43.04100 42.98300 22.83900
C  45.46800 41.08000 20.79300
C  42.23900 42.82200 20.30700
C  40.87300 42.39700 20.87600
N  42.59900 43.91900 25.57000
C  42.41100 44.75200 24.46000
C  41.96200 46.06400 24.90400
C  41.82900 45.91200 26.25500
C  42.24700 44.60300 26.62300
C  41.84000 47.25900 24.05100
C  41.41600 46.60500 27.44800
O  41.06700 47.79400 27.63900
C  41.65000 45.60500 28.64000
C  42.45400 46.34800 29.66200
O  43.64100 46.58200 29.50000
O  41.72000 46.61600 30.78000
C  42.55600 47.03200 31.88300
H  44.81600 39.39500 29.04600
H  44.63700 39.09000 22.59400
H  42.52700 44.95400 22.36400
H  43.55500 44.00300 30.34600
H  43.38500 41.09200 30.85900
H  45.61000 42.92600 30.89500
H  45.92900 41.62000 29.81000
H  45.45700 41.23500 31.41800
H  40.83700 42.99800 30.47800
H  41.75800 44.28000 31.27100
H  42.66400 41.93400 32.61600
H  41.24100 41.38800 31.79000
H  46.55100 36.88400 27.24100
H  45.01200 36.23300 27.85300
H  45.80000 37.50500 28.70500
H  45.63300 34.67800 24.07400
H  45.17000 35.25200 25.68400
H  46.81100 35.58700 25.13600
H  43.30900 40.69900 20.79700
H  44.07200 43.55200 20.93700
H  46.06700 40.31900 21.29200
H  46.05000 42.00200 20.82600
H  45.44700 40.74000 19.75800
H  42.42100 42.18300 19.44300
H  42.11600 43.85800 19.99300
H  40.29300 43.31600 20.96300
H  40.92600 41.84300 21.81300
H  40.46900 41.64400 20.20100
H  41.56900 46.94800 23.04200
H  42.80500 47.75700 24.13800
H  40.94600 47.78000 24.39300
H  40.68500 45.38200 29.09400
H  42.07700 47.88400 32.36800
H  43.55000 47.42500 31.66900
H  42.63500 46.20600 32.59000

