158

Mg -0.90000 17.81500 27.49300
C  -1.65300 15.23400 30.02200
C  -1.55200 20.05300 30.05100
C  -0.94400 20.08400 25.17200
C  -0.84000 15.20300 25.21200
N  -1.47800 17.61300 29.79200
C  -1.67600 16.54700 30.52600
C  -1.76500 16.92200 32.06800
C  -1.93400 18.50900 32.03900
C  -1.46900 18.77300 30.57600
C  -3.39300 19.02500 32.41900
C  -0.59400 16.34200 32.86900
C  -0.01300 17.07200 34.13600
H  0.63300 16.27900 35.26300
N  -1.22600 19.73500 27.57400
C  -1.56800 20.47700 28.66800
C  -1.73100 21.87600 28.29100
C  -1.57000 21.96400 26.90200
C  -1.15200 20.57100 26.51300
C  -2.04800 22.94800 29.24000
C  -1.72700 23.15300 25.93000
O  -1.55100 23.12800 24.71100
C  -1.96500 24.46300 26.48100
N  -0.86000 17.60500 25.51400
C  -0.78500 18.78800 24.74800
C  -0.66500 18.36600 23.23300
C  -0.39600 16.78300 23.30400
C  -0.67100 16.49500 24.77300
C  -1.89200 18.80100 22.37300
C  0.98700 16.20100 22.88200
C  2.11700 16.40300 23.96600
N  -1.11000 15.61800 27.60400
C  -1.14100 14.74000 26.49500
C  -1.31100 13.35800 27.00300
C  -1.57200 13.51500 28.39200
C  -1.41400 14.91700 28.65100
C  -1.32500 12.11400 26.25800
C  -1.94700 12.84500 29.59600
O  -2.16600 11.62800 29.78400
C  -1.97300 13.92100 30.73900
C  -0.85800 13.48000 31.60000
O  0.35800 13.72200 31.42500
O  -1.35500 12.83900 32.68400
C  -0.32500 12.28500 33.65100
H  -1.78500 20.81200 30.80100
H  -0.84800 20.88200 24.43300
H  -0.68700 14.49500 24.39500
H  -2.74000 16.55700 32.38900
H  -1.17100 18.97300 32.66500
H  -3.92700 18.40800 33.14200
H  -3.98700 19.18800 31.51900
H  -3.36100 19.99000 32.92500
H  0.30600 16.23300 32.26400
H  -0.89000 15.41100 33.35200
H  -0.85900 17.61300 34.56000
H  0.77800 17.76600 33.85400
H  -3.12300 22.93100 29.41900
H  -1.84600 23.96500 28.90700
H  -1.67600 22.82500 30.25700
H  -2.87000 24.31300 27.07000
H  -2.14500 25.06000 25.58700
H  -1.06800 24.78700 27.00800
H  0.11000 18.97600 22.76900
H  -1.19300 16.32500 22.71900
H  -2.47600 17.98700 21.94500
H  -1.60600 19.40700 21.51300
H  -2.59100 19.33300 23.01900
H  1.25600 16.62600 21.91500
H  0.96600 15.11400 22.80300
H  2.19600 15.49500 24.56400
H  2.09300 17.23400 24.67000
H  3.07200 16.56400 23.46600
H  -0.64300 12.13900 25.40800
H  -2.32600 11.96500 25.85300
H  -1.05400 11.24300 26.85500
H  -2.92800 13.85900 31.26100
H  0.68400 12.25300 33.23900
H  -0.64100 11.29700 33.98700
H  -0.38900 12.92500 34.53100
Mg 54.66700 23.49200 44.13700
C  52.37800 26.12600 43.43200
C  52.40000 21.39700 42.94100
C  57.15400 21.08400 43.97400
C  57.16900 25.85500 44.87200
N  52.51700 23.80000 43.57400
C  51.85400 24.89300 43.15100
C  50.40200 24.60600 42.80300
C  50.44000 23.03900 42.74600
C  51.86700 22.64800 43.11800
C  49.44100 22.41600 43.74400
C  49.78000 25.42000 41.62800
C  48.60000 24.76000 40.85500
H  48.84000 24.18200 39.48400
N  54.75900 21.48500 43.62100
C  53.69600 20.77200 43.11900
C  54.09100 19.42500 42.75500
C  55.45600 19.33800 42.95800
C  55.85700 20.70400 43.54600
C  53.09200 18.45400 42.12100
C  56.31300 18.10700 42.69400
O  55.84600 17.11500 42.11300
C  57.70700 17.99100 43.14400
N  56.82800 23.49800 44.47600
C  57.61800 22.35500 44.43800
C  59.04400 22.69100 44.91900
C  59.14200 24.22600 44.90500
C  57.63500 24.57300 44.73100
C  59.59300 22.02500 46.24900
C  60.08200 24.81200 43.82200
C  60.74300 26.17700 44.09400
N  54.77000 25.52000 44.28500
C  55.89600 26.34600 44.71700
C  55.43300 27.70700 44.71100
C  54.06800 27.66800 44.24700
C  53.70500 26.33700 44.00200
C  56.20900 28.98700 44.98900
C  52.90400 28.50300 43.95600
O  52.69200 29.65300 44.09200
C  51.85600 27.53500 43.32500
C  51.65500 27.91800 41.97700
O  52.26800 27.51800 40.97800
O  50.55700 28.72900 41.96200
C  50.06600 29.01500 40.64100
H  51.58100 20.76700 42.58900
H  57.99100 20.38800 44.05800
H  57.83900 26.70800 45.00100
H  49.83800 24.96200 43.66500
H  50.19700 22.67500 41.74800
H  49.95400 21.84600 44.51800
H  48.65700 21.80100 43.30300
H  48.89900 23.17800 44.30400
H  50.60400 25.55300 40.92700
H  49.61900 26.41500 42.04300
H  47.84000 25.52100 40.68000
H  48.07800 24.08000 41.52900
H  52.99600 18.87700 41.12200
H  52.16400 18.70000 42.63800
H  53.31800 17.38800 42.08400
H  58.23600 18.85300 42.73600
H  58.20800 17.11100 42.74100
H  57.83000 17.91800 44.22400
H  59.70500 22.32700 44.13300
H  59.50900 24.60900 45.85700
H  60.22600 21.18400 45.96400
H  58.73800 21.60800 46.78000
H  60.23600 22.76500 46.72600
H  59.47500 24.91300 42.92300
H  60.88900 24.08400 43.73300
H  60.09400 27.05100 44.04500
H  61.44000 26.44700 43.30100
H  61.24200 26.14200 45.06300
H  56.06300 29.71100 44.18800
H  57.28500 28.88900 45.13500
H  55.81400 29.56800 45.82300
H  50.89900 27.53700 43.84500
H  50.93900 29.18200 40.01000
H  49.30300 29.78800 40.54400
H  49.58100 28.14600 40.19700

