158

Mg 25.14400 -6.75200 48.29800
C  26.35700 -3.95600 46.55100
C  22.32500 -6.63300 46.24000
C  24.10500 -9.60900 49.61600
C  28.08200 -6.77800 50.07000
N  24.51900 -5.56800 46.45200
C  25.21000 -4.52100 45.99100
C  24.55300 -3.94600 44.69200
C  23.12300 -4.69500 44.78400
C  23.23500 -5.67700 45.89600
C  21.91000 -3.75800 44.78000
C  25.32600 -4.14700 43.42200
C  25.71900 -2.85000 42.67300
H  25.33400 -2.72600 41.13700
N  23.37800 -7.99000 48.02800
C  22.41100 -7.76200 47.14400
C  21.46100 -8.87100 47.29100
C  21.96800 -9.71100 48.29000
C  23.20800 -9.16600 48.71400
C  20.19100 -8.98900 46.50800
C  21.29500 -10.95000 48.79800
O  20.18100 -11.20300 48.35700
C  21.77000 -12.02700 49.77400
N  26.04600 -8.08800 49.60100
C  25.40600 -9.20700 50.07300
C  26.37900 -10.05000 50.92600
C  27.71800 -9.13700 50.94100
C  27.20000 -7.91400 50.17700
C  25.81200 -10.35300 52.41800
C  29.01200 -9.69700 50.35000
C  30.30000 -9.57300 51.12800
N  26.85900 -5.50000 48.43100
C  27.94100 -5.63800 49.23300
C  28.82600 -4.44300 49.00500
C  28.21100 -3.77900 47.92400
C  27.05400 -4.43400 47.63300
C  30.08200 -4.06500 49.72400
C  28.32200 -2.67500 47.06900
O  29.17600 -1.81100 46.96400
C  27.08700 -2.64000 46.14700
C  26.27200 -1.32500 46.20100
O  26.63900 -0.24900 45.78400
O  25.00500 -1.63800 46.71700
C  24.22000 -0.47600 47.12000
H  21.43200 -6.50700 45.62300
H  23.89700 -10.53800 50.15200
H  28.95800 -6.80900 50.72000
H  24.28500 -2.90600 44.87500
H  22.81300 -5.23100 43.88700
H  22.25500 -2.77500 44.46100
H  21.37600 -3.78700 45.72900
H  21.12000 -4.05000 44.08800
H  24.88400 -4.82600 42.69300
H  26.25700 -4.63600 43.70600
H  26.80300 -2.73200 42.67700
H  25.18900 -2.03000 43.15700
H  19.22000 -9.06000 46.99800
H  20.40600 -9.83700 45.85800
H  19.94500 -8.15100 45.85500
H  22.70200 -12.42600 49.37300
H  21.05700 -12.84400 49.88100
H  21.89900 -11.44900 50.68900
H  26.59900 -11.01000 50.45900
H  27.95200 -8.84300 51.96500
H  24.83300 -10.80900 52.27100
H  25.50100 -9.37500 52.78400
H  26.52700 -10.86800 53.06000
H  29.04300 -9.26700 49.34900
H  28.88800 -10.77200 50.22400
H  31.11800 -9.32000 50.45400
H  30.51400 -10.47300 51.70400
H  30.11600 -8.74900 51.81700
H  30.71600 -3.38400 49.15500
H  30.76700 -4.86000 50.01800
H  29.89400 -3.58300 50.68300
H  27.43200 -2.67900 45.11300
H  24.29700 0.32400 46.38300
H  24.56000 -0.04300 48.06100
H  23.27000 -0.91800 47.41900
Mg 35.25700 1.74300 30.82500
C  32.66100 3.09600 32.78800
C  37.03000 1.39000 33.61400
C  37.77900 0.75700 28.84500
C  33.18100 1.99200 27.96600
N  34.80000 2.07900 33.03100
C  33.69700 2.67200 33.57200
C  33.88100 2.77500 35.14100
C  35.40700 2.37100 35.31400
C  35.75200 1.91100 33.89500
C  36.28100 3.44800 35.92800
C  32.99900 1.76100 35.85500
C  32.11100 2.34700 36.98500
H  32.62100 3.48500 37.89500
N  37.16200 1.11700 31.18800
C  37.75400 1.05700 32.39200
C  39.15700 0.64400 32.25600
C  39.41700 0.55600 30.83500
C  38.06100 0.76100 30.22600
C  40.05700 0.38500 33.45300
C  40.69900 0.19300 30.07700
O  40.71000 -0.06200 28.90700
C  41.98900 0.18900 30.84400
N  35.40500 1.27500 28.68600
C  36.59500 0.94800 28.13000
C  36.49900 1.03100 26.56300
C  34.98000 0.98300 26.38300
C  34.44300 1.46100 27.75600
C  37.18300 2.26900 25.91100
C  34.42300 -0.40000 25.96100
C  32.98900 -0.93500 26.34700
N  33.36300 2.45700 30.42600
C  32.68200 2.50400 29.23300
C  31.36800 3.11600 29.45500
C  31.33200 3.46300 30.81500
C  32.53500 2.93000 31.38600
C  30.27000 3.22700 28.40900
C  30.56400 4.04500 31.85700
O  29.50900 4.62800 31.79900
C  31.41600 3.90700 33.21600
C  31.78000 5.22300 33.69100
O  32.72800 5.87100 33.33700
O  30.86700 5.61800 34.68200
C  31.22000 6.97400 35.25400
H  37.67200 1.28700 34.49200
H  38.57300 0.55300 28.12300
H  32.69700 2.02800 26.98700
H  33.59600 3.81600 35.29400
H  35.60200 1.44700 35.86000
H  35.71700 4.17900 36.50700
H  36.77700 3.91400 35.07700
H  36.92400 2.86600 36.58800
H  33.59300 0.99800 36.35900
H  32.30800 1.30500 35.14600
H  31.91300 1.55700 37.71000
H  31.20000 2.57400 36.43200
H  39.56700 0.29300 34.42200
H  40.87100 1.10800 33.51400
H  40.43600 -0.61000 33.22100
H  41.94900 -0.40500 31.75700
H  42.23700 1.18600 31.20900
H  42.87100 -0.09900 30.27300
H  37.02800 0.16700 26.16200
H  34.63800 1.65200 25.59300
H  38.09900 1.92200 25.43300
H  37.39200 2.99000 26.70100
H  36.54700 2.74600 25.16500
H  35.10400 -1.09900 26.44700
H  34.65200 -0.63500 24.92200
H  32.24100 -0.18400 26.59700
H  33.10200 -1.65900 27.15400
H  32.69000 -1.56000 25.50600
H  29.58100 4.02400 28.68900
H  29.74400 2.28500 28.26000
H  30.68900 3.52000 27.44600
H  30.72800 3.44100 33.92100
H  30.33600 7.25000 35.83000
H  31.55000 7.69400 34.50500
H  32.09300 6.83300 35.89100

