158

Mg 47.60800 15.97700 28.61800
C  45.34800 15.61300 31.30700
C  49.33400 18.16300 30.52000
C  49.50500 16.70800 25.87900
C  45.50000 13.99900 26.59400
N  47.36000 16.67000 30.65500
C  46.40600 16.43400 31.68400
C  46.80200 17.06800 32.97000
C  47.88900 18.07500 32.55300
C  48.19800 17.62800 31.13100
C  47.49500 19.61300 32.69000
C  47.26400 16.16800 34.17100
C  47.57300 16.98300 35.48500
H  48.60600 16.37000 36.47800
N  49.20000 17.24300 28.28300
C  49.81200 18.01500 29.22200
C  50.97000 18.79700 28.63800
C  51.04400 18.35700 27.24800
C  49.88900 17.36900 27.06100
C  51.78000 19.80300 29.42500
C  51.94700 18.81800 26.09900
O  51.96400 18.24000 25.00500
C  52.67000 20.06000 26.22800
N  47.50800 15.38100 26.57800
C  48.43600 15.78700 25.63600
C  48.30700 14.99200 24.29900
C  47.22000 13.91800 24.67800
C  46.74100 14.43600 26.06100
C  47.92000 15.96900 23.10600
C  47.74000 12.47000 24.64000
C  48.88900 12.04300 23.71700
N  45.82600 15.07400 28.85200
C  45.00600 14.38300 27.92700
C  43.77400 13.96800 28.56100
C  43.91900 14.36800 29.87500
C  45.11600 15.03600 30.02600
C  42.62600 13.24300 28.02600
C  43.24800 14.41100 31.15900
O  42.12700 14.00700 31.49500
C  44.19700 15.13700 32.21400
C  43.47000 16.19300 32.86800
O  42.73300 16.99700 32.30300
O  43.86000 16.28800 34.19400
C  43.12200 17.36000 34.92000
H  49.92100 18.89200 31.08300
H  50.13400 16.72100 24.98600
H  44.95100 13.31000 25.94900
H  46.00300 17.67900 33.38900
H  48.81100 17.98200 33.12700
H  46.44800 19.81400 32.91900
H  47.77600 20.24800 31.85100
H  48.05900 19.95400 33.55800
H  48.24600 15.80900 33.86500
H  46.63200 15.32500 34.45200
H  46.61300 17.02700 36.00000
H  47.95400 17.99100 35.32100
H  51.48300 19.97700 30.45900
H  51.82900 20.85300 29.13700
H  52.82400 19.49200 29.46400
H  52.00700 20.90500 26.41300
H  53.09200 20.28100 25.24700
H  53.56100 19.94300 26.84500
H  49.31200 14.62600 24.09000
H  46.36400 14.00000 24.00800
H  46.95900 15.68000 22.67900
H  48.69300 15.93700 22.33900
H  47.87200 17.04200 23.29200
H  46.90400 11.79600 24.45800
H  48.15300 12.25100 25.62400
H  48.58800 11.17200 23.13400
H  49.76000 11.72500 24.28800
H  49.33200 12.78300 23.05000
H  42.96600 12.82000 27.08100
H  41.81500 13.96000 27.89200
H  42.19200 12.52000 28.71700
H  44.58000 14.44500 32.96400
H  43.55600 17.29400 35.91800
H  42.03700 17.32000 35.01600
H  43.36400 18.33900 34.50500
Mg -8.87600 18.45000 42.11700
C  -5.36700 17.91400 42.18400
C  -8.34500 21.65000 41.24900
C  -12.11200 18.65800 41.64500
C  -9.25200 14.94200 42.42600
N  -7.03100 19.63400 41.76000
C  -5.75800 19.18200 41.72100
C  -4.85400 20.38700 41.30000
C  -5.74800 21.60400 40.96800
C  -7.12200 20.95600 41.38100
C  -5.44000 22.88700 41.86800
C  -3.79300 19.96700 40.34100
C  -4.32700 19.20400 39.03200
H  -4.12900 19.76000 37.64500
N  -10.09100 20.00500 41.66000
C  -9.71400 21.28000 41.33500
C  -10.84400 22.08900 41.21600
C  -11.98200 21.28000 41.44700
C  -11.46200 19.90900 41.51800
C  -10.86300 23.60200 41.06700
C  -13.49300 21.67900 41.47300
O  -13.84900 22.81300 41.31700
C  -14.59700 20.74500 42.03400
N  -10.44300 17.00600 41.98000
C  -11.67600 17.34100 41.80800
C  -12.58800 16.17300 41.88400
C  -11.69600 14.95100 42.16100
C  -10.31400 15.65000 42.22800
C  -13.65300 16.37300 42.99800
C  -11.78600 13.73700 41.19300
C  -13.16200 13.36400 40.60600
N  -7.58000 16.74300 42.35800
C  -7.92500 15.44100 42.53300
C  -6.70500 14.64700 42.69500
C  -5.66700 15.59500 42.58900
C  -6.24300 16.83000 42.37100
C  -6.50100 13.22300 42.79100
C  -4.23800 15.78800 42.59500
O  -3.35600 14.95000 42.78600
C  -3.93000 17.33000 42.43300
C  -3.40000 17.78100 43.72100
O  -2.25200 18.14200 43.91700
O  -4.38100 17.54700 44.66400
C  -3.81200 17.51900 45.99300
H  -8.05600 22.64500 40.90400
H  -13.16700 18.76900 41.38700
H  -9.40600 13.86200 42.47200
H  -4.29600 20.67500 42.19100
H  -5.60000 21.81900 39.91000
H  -4.49300 22.78400 42.39800
H  -6.22900 23.00000 42.61100
H  -5.42700 23.79400 41.26200
H  -2.88700 19.62900 40.84300
H  -3.46500 20.92900 39.94600
H  -5.39700 19.01400 39.12100
H  -3.82800 18.23600 39.07000
H  -11.66600 23.99000 40.44000
H  -9.90900 23.81400 40.58500
H  -10.90200 24.15000 42.00800
H  -14.25300 20.20700 42.91700
H  -14.99600 20.05200 41.29300
H  -15.45400 21.34800 42.33500
H  -13.06300 16.05700 40.91000
H  -11.81300 14.61100 43.19000
H  -14.59300 16.41100 42.44700
H  -13.47100 17.32000 43.50500
H  -13.75400 15.58300 43.74200
H  -11.61900 12.85600 41.81200
H  -10.99300 13.72300 40.44500
H  -13.16700 13.59500 39.54100
H  -13.89100 13.92600 41.19100
H  -13.36800 12.33900 40.91300
H  -5.62800 13.12800 42.14500
H  -7.35700 12.70800 42.35600
H  -6.37600 12.93200 43.83400
H  -3.24200 17.65000 41.65000
H  -2.93900 16.87600 45.88300
H  -4.53100 17.12900 46.71400
H  -3.44000 18.49000 46.32000

