158

Mg 24.27200 -6.59100 46.18000
C  26.72900 -4.32000 45.04400
C  22.03500 -5.10500 43.96100
C  22.20200 -9.35900 46.44700
C  26.69900 -8.23400 47.87300
N  24.44600 -5.03400 44.64400
C  25.51400 -4.12300 44.47300
C  25.10600 -3.02100 43.47400
C  23.54300 -3.12000 43.52400
C  23.32200 -4.53200 44.07800
C  22.90500 -2.01600 44.45500
C  25.77400 -3.37300 42.08700
C  26.27500 -2.22800 41.13300
H  25.53100 -2.11000 39.73700
N  22.34000 -7.13800 45.42700
C  21.54500 -6.29800 44.62400
C  20.20200 -6.77900 44.57500
C  20.23000 -8.06400 45.21800
C  21.65600 -8.27200 45.72500
C  19.11100 -6.10800 43.70500
C  19.04200 -9.06700 45.15500
O  17.95600 -8.68400 44.70800
C  19.19400 -10.46700 45.57600
N  24.48900 -8.55700 46.83300
C  23.48600 -9.49200 46.89900
C  24.02000 -10.77300 47.62500
C  25.25400 -10.23100 48.44500
C  25.53000 -8.96000 47.62500
C  23.09900 -11.61200 48.50100
C  26.40600 -11.28600 48.52500
C  26.69900 -11.83700 49.88100
N  26.36100 -6.32200 46.59100
C  27.16000 -7.07600 47.26800
C  28.52900 -6.49600 47.29800
C  28.37800 -5.36100 46.43600
C  27.05000 -5.36100 46.02800
C  29.70200 -7.12300 47.91800
C  29.07500 -4.24200 45.77800
O  30.19700 -3.82400 45.80900
C  28.04000 -3.57300 44.79400
C  27.99100 -2.10300 44.91100
O  28.51900 -1.33000 44.10700
O  27.37300 -1.71800 46.09300
C  27.22600 -0.29100 46.22400
H  21.34500 -4.49800 43.36900
H  21.48800 -10.16500 46.62700
H  27.42800 -8.73900 48.51000
H  25.38300 -1.99700 43.72200
H  23.08700 -2.92900 42.55300
H  23.70100 -1.44500 44.93300
H  22.52300 -2.45600 45.37600
H  22.35700 -1.28400 43.86100
H  25.04100 -4.03100 41.62200
H  26.62400 -4.02200 42.30000
H  27.34100 -2.28900 40.91500
H  25.97100 -1.35300 41.70800
H  18.80400 -5.12900 44.07400
H  18.18200 -6.60200 43.42100
H  19.52100 -5.83100 42.73300
H  19.39400 -10.70800 46.62000
H  20.00000 -10.82300 44.93400
H  18.31100 -10.99400 45.21400
H  24.40300 -11.40200 46.82100
H  24.95500 -9.80100 49.40100
H  22.39800 -10.86800 48.87900
H  23.55200 -12.15400 49.33100
H  22.45300 -12.25200 47.90000
H  27.36300 -10.79500 48.34700
H  26.24500 -12.07700 47.79200
H  25.78900 -12.06200 50.43700
H  27.44700 -11.19600 50.34600
H  27.08800 -12.84300 49.72700
H  29.80200 -8.10700 47.46000
H  29.68100 -7.22600 49.00300
H  30.56300 -6.48300 47.72800
H  28.29100 -3.73000 43.74500
H  26.37800 0.06100 45.63700
H  28.09900 0.31200 45.97400
H  26.91900 0.00600 47.22700
Mg 6.69400 54.32700 41.97800
C  5.89200 50.97600 41.67300
C  9.85600 53.66400 40.71500
C  7.33100 57.65300 41.45500
C  3.40300 55.02300 42.88900
N  7.70000 52.57300 41.12600
C  7.23000 51.27000 41.25800
C  8.32900 50.22900 40.85600
C  9.65500 51.06700 41.01900
C  9.06800 52.52700 40.93700
C  10.55900 50.80000 42.32400
C  8.11400 49.62300 39.40900
C  7.78800 50.56000 38.21900
H  6.60200 50.21500 37.32500
N  8.36000 55.54400 41.12400
C  9.56000 55.03700 40.69700
C  10.44900 56.13000 40.36100
C  9.72700 57.33400 40.49500
C  8.41100 56.85000 41.01900
C  11.80700 55.97300 39.84700
C  10.31100 58.65800 40.09600
O  11.29500 58.76000 39.37700
C  9.57800 59.99800 40.48500
N  5.47000 56.01800 41.94600
C  6.00600 57.30700 41.93900
C  5.11400 58.34100 42.52900
C  3.77300 57.51900 42.71000
C  4.23000 56.06600 42.57100
C  5.62300 58.91600 43.89700
C  2.62100 57.98500 41.76800
C  1.42900 58.69900 42.43900
N  4.92100 53.31000 42.24200
C  3.72500 53.69400 42.61600
C  2.90300 52.49000 42.82500
C  3.69400 51.44100 42.48400
C  4.93900 51.96100 42.10600
C  1.41500 52.58500 43.27000
C  3.73400 50.00900 42.36200
O  2.80600 49.23300 42.42400
C  5.10200 49.64800 41.86900
C  4.89800 48.92300 40.63700
O  4.29700 49.32000 39.68100
O  5.46600 47.69500 40.75100
C  5.24900 46.68700 39.64500
H  10.88200 53.36400 40.49000
H  7.51200 58.71800 41.30000
H  2.38600 55.20400 43.24500
H  8.44500 49.41500 41.57200
H  10.32300 50.88400 40.17800
H  10.53200 51.63300 43.02800
H  11.60700 50.64600 42.06600
H  10.19700 49.92100 42.85700
H  7.38000 48.81800 39.45300
H  9.10600 49.24500 39.16000
H  8.72600 50.56200 37.66500
H  7.73800 51.62300 38.45800
H  11.76700 55.06500 39.24500
H  12.45200 55.77600 40.70300
H  12.42400 56.60300 39.20600
H  8.69900 60.05200 39.84200
H  10.27200 60.80600 40.25800
H  9.36600 59.90800 41.55000
H  5.02500 59.02000 41.68100
H  3.27300 57.62500 43.67300
H  6.51500 58.32900 44.11500
H  4.87200 58.81300 44.67900
H  5.94600 59.95700 43.92800
H  2.13900 57.08000 41.39800
H  3.03600 58.49800 40.90000
H  1.69800 59.02700 43.44300
H  0.53000 58.10600 42.26400
H  1.33000 59.61700 41.86000
H  0.76400 53.01700 42.51100
H  1.22800 52.97600 44.27100
H  1.06400 51.55500 43.34300
H  5.60000 49.05500 42.63600
H  4.21100 46.38600 39.50600
H  5.70400 45.71900 39.85500
H  5.74300 47.18200 38.80900

