158

Mg 25.96500 0.37300 28.86100
C  27.89100 -0.20900 31.93300
C  23.32900 0.74200 30.82400
C  24.31200 0.94800 26.07100
C  28.92600 -0.30300 27.11100
N  25.66500 0.27600 31.19800
C  26.54200 -0.02400 32.23900
C  25.86500 0.18600 33.57000
C  24.28900 0.14700 33.11200
C  24.42500 0.46700 31.61400
C  23.55400 -1.11700 33.31400
C  26.42900 1.57100 34.20300
C  27.00700 1.43400 35.64100
H  26.46600 2.46300 36.71400
N  24.04700 0.83900 28.52600
C  23.09500 0.89200 29.40800
C  21.86300 1.23300 28.73400
C  22.10400 1.34400 27.33900
C  23.49700 0.96600 27.23700
C  20.61100 1.49200 29.51300
C  21.18600 1.74400 26.30300
O  21.53700 1.94800 25.14700
C  19.77000 2.00600 26.62600
N  26.50700 0.05900 26.90300
C  25.63500 0.55300 25.94200
C  26.25700 0.54300 24.52300
C  27.77300 0.33300 24.89400
C  27.76300 0.00700 26.38100
C  25.68900 -0.46000 23.52900
C  28.70800 1.43100 24.36500
C  29.67300 0.90900 23.33500
N  27.96900 -0.18000 29.34800
C  29.01900 -0.36100 28.52100
C  30.20300 -0.74600 29.33200
C  29.82400 -0.56500 30.65600
C  28.47500 -0.29200 30.65600
C  31.47600 -1.14100 28.78400
C  30.23700 -0.54500 31.99000
O  31.34000 -0.75500 32.46400
C  29.02700 -0.17900 32.91500
C  28.80200 -1.32000 33.88300
O  28.42900 -2.41900 33.57400
O  29.02400 -0.91900 35.20400
C  28.76700 -1.91300 36.26300
H  22.45600 0.72400 31.47900
H  23.83200 1.23500 25.13400
H  29.86300 -0.46900 26.57600
H  26.08500 -0.63700 34.25000
H  23.71200 0.86800 33.69100
H  23.12900 -1.54500 32.40600
H  22.73700 -0.89700 34.00100
H  24.13000 -1.89400 33.81600
H  25.66000 2.34200 34.17300
H  27.23800 1.96200 33.58700
H  28.07700 1.59000 35.50000
H  26.72000 0.44700 36.00300
H  20.29000 2.52600 29.39000
H  20.67300 1.16900 30.55200
H  19.89100 0.81400 29.05400
H  19.12300 2.27100 25.79000
H  19.78900 2.90500 27.24300
H  19.36700 1.12200 27.12000
H  26.08400 1.54300 24.12400
H  28.06700 -0.61800 24.44800
H  26.43200 -0.46800 22.73200
H  24.72500 -0.18500 23.10200
H  25.67700 -1.47600 23.92300
H  29.24300 2.03100 25.10200
H  28.05300 2.21100 23.97700
H  29.36100 0.08100 22.69900
H  30.52000 0.62300 23.95900
H  30.19400 1.66600 22.74900
H  32.27400 -0.52200 29.19300
H  31.68800 -1.18300 27.71500
H  31.66400 -2.12500 29.21200
H  29.17400 0.78900 33.39500
H  29.67500 -2.37100 36.65600
H  27.99700 -2.60100 35.91400
H  28.29900 -1.44700 37.13100
Mg 15.87000 51.63000 24.75000
C  17.92200 50.56900 27.42300
C  13.52900 52.50700 26.98400
C  14.19900 52.62600 22.24300
C  18.46400 50.28200 22.59400
N  15.64600 51.31800 26.86500
C  16.69000 51.11200 27.75000
C  16.28000 51.49100 29.18000
C  14.72400 51.68000 29.07000
C  14.64200 51.91400 27.56000
C  13.90000 50.50600 29.53000
C  17.03500 52.67700 29.62800
C  16.90200 53.08500 31.15400
H  15.83600 52.26000 31.97800
N  14.01000 52.50300 24.59700
C  13.26700 52.80900 25.65800
C  12.05300 53.43900 25.15300
C  12.20200 53.47400 23.69600
C  13.52300 52.87100 23.47600
C  10.91100 53.98400 25.91200
C  11.27400 54.01700 22.60800
O  11.55000 54.05300 21.41600
C  9.93800 54.71600 22.97100
N  16.28500 51.43500 22.76700
C  15.40800 51.96700 21.87500
C  15.89800 52.01500 20.47300
C  17.15900 51.12200 20.52800
C  17.32600 50.89900 22.06300
C  14.81100 51.51500 19.43600
C  18.37300 51.75900 19.89200
C  19.31100 50.89000 18.94400
N  17.87500 50.66600 24.92700
C  18.78800 50.12500 23.97000
C  19.92900 49.60900 24.58400
C  19.61300 49.76500 26.02700
C  18.39100 50.39600 26.12200
C  21.06800 49.00500 23.80100
C  20.08400 49.42100 27.34800
O  21.10900 48.83200 27.76500
C  19.03300 50.05400 28.36100
C  18.61000 48.90900 29.29400
O  17.68800 48.14800 29.15500
O  19.44600 48.93000 30.34000
C  18.89100 48.39200 31.57900
H  12.67200 52.77800 27.60400
H  13.64300 52.98800 21.37600
H  19.16200 49.90200 21.84500
H  16.43200 50.69000 29.90300
H  14.27900 52.55600 29.54200
H  12.98100 50.93600 29.92800
H  14.34400 49.79000 30.22100
H  13.69900 49.84400 28.68800
H  16.76600 53.60200 29.11800
H  18.11800 52.56100 29.61500
H  16.62500 54.13900 31.19700
H  17.89500 53.01900 31.59800
H  10.86100 55.07200 25.87200
H  11.02500 53.71900 26.96300
H  9.98700 53.49700 25.59800
H  10.21800 55.60100 23.54200
H  9.27600 54.07500 23.55300
H  9.47700 54.97000 22.01600
H  16.09900 53.07700 20.33000
H  16.88700 50.14200 20.13600
H  14.10300 50.91100 20.00300
H  15.26200 51.02000 18.57600
H  14.37000 52.44200 19.06900
H  19.03500 51.98400 20.72800
H  18.05800 52.60000 19.27300
H  19.29500 51.16800 17.89000
H  18.96200 49.85700 18.92600
H  20.35100 50.92300 19.26900
H  20.92000 48.71900 22.76000
H  21.33400 48.15000 24.42300
H  21.86100 49.75300 23.79900
H  19.59300 50.76800 28.96400
H  18.27500 47.51600 31.37500
H  18.27600 49.15900 32.05000
H  19.74400 48.10200 32.19200

