158

Mg 41.36300 41.13400 27.20400
C  40.59200 43.54700 29.45200
C  42.32400 38.97700 29.67200
C  42.02200 38.83900 24.72300
C  40.72900 43.60500 24.69800
N  41.40800 41.28900 29.21000
C  41.00500 42.33200 30.00700
C  41.00700 41.98000 31.47900
C  41.61400 40.58100 31.51100
C  41.89000 40.25000 29.99800
C  42.83700 40.45700 32.47100
C  39.73100 42.21900 32.35500
C  39.78500 43.32200 33.35700
H  39.13600 43.01400 34.73700
N  42.09000 39.14500 27.21000
C  42.43600 38.45200 28.34000
C  42.79600 37.07800 27.90300
C  42.64200 37.02200 26.45700
C  42.26000 38.41300 26.06700
C  43.24200 36.00900 28.93600
C  42.81100 35.84500 25.53500
O  42.44300 35.92800 24.34200
C  43.24500 34.47500 26.09600
N  41.57700 41.26500 25.00100
C  41.66900 40.10700 24.22900
C  41.31300 40.43600 22.70400
C  40.64200 41.79800 22.84200
C  40.95800 42.26200 24.25600
C  42.60100 40.40000 21.80400
C  39.08800 41.92300 22.70200
C  38.31500 40.87700 23.32100
N  40.92300 43.17100 27.00900
C  40.80500 44.05300 25.92800
C  40.67200 45.37900 26.41000
C  40.44200 45.23500 27.82200
C  40.71400 43.90000 28.11700
C  40.46600 46.65400 25.71500
C  40.08000 45.89700 29.09900
O  39.70300 47.04300 29.35700
C  40.26500 44.85700 30.17500
C  41.36000 45.43500 30.97000
O  42.58500 45.27800 30.92400
O  40.83500 46.11200 32.08100
C  41.77000 46.83100 32.97400
H  42.51300 38.40000 30.57900
H  42.29300 38.17900 23.89700
H  40.32000 44.28700 23.94900
H  41.78300 42.58700 31.94500
H  40.96700 39.89000 32.05200
H  43.16300 39.41700 32.48300
H  42.60600 40.83000 33.46900
H  43.62500 41.13700 32.14800
H  39.52300 41.27500 32.85800
H  38.87500 42.47600 31.73000
H  39.09600 44.09100 33.00900
H  40.72600 43.85700 33.48400
H  42.82100 36.20100 29.92200
H  44.32300 36.13800 28.87400
H  42.99200 35.00300 28.59900
H  44.10600 34.63700 26.74400
H  43.53500 33.75300 25.33300
H  42.38700 33.97500 26.54600
H  40.62400 39.73100 22.23700
H  41.14500 42.55400 22.23800
H  42.45400 39.73400 20.95400
H  43.51000 40.15200 22.35200
H  42.81500 41.39400 21.41100
H  39.09200 41.66500 21.64300
H  38.82800 42.97300 22.83800
H  39.00500 40.16100 23.76700
H  37.68300 40.39600 22.57500
H  37.72100 41.41400 24.06100
H  39.52000 46.73100 25.17900
H  41.24900 46.77000 24.96500
H  40.61700 47.50600 26.37800
H  39.34900 44.70600 30.74700
H  42.58800 47.33000 32.45500
H  42.25000 46.11000 33.63500
H  41.17200 47.48600 33.60800
Mg 16.25000 51.81300 24.91500
C  18.33200 51.03200 27.50700
C  13.85600 52.54800 27.12300
C  14.30800 52.39700 22.26700
C  18.85300 50.96500 22.72300
N  16.10900 51.76500 27.07000
C  17.12400 51.47800 27.93700
C  16.66100 51.67000 29.38600
C  15.10400 51.94900 29.28900
C  14.99000 52.06300 27.77900
C  14.22900 50.82400 29.79800
C  17.38800 52.84000 30.18000
C  17.51000 52.72700 31.80000
H  16.69400 51.67600 32.61700
N  14.40600 52.38500 24.71800
C  13.55000 52.71900 25.74100
C  12.32400 53.14800 25.18900
C  12.40700 53.11800 23.73700
C  13.73800 52.66100 23.51700
C  11.20200 53.50900 26.10300
C  11.29900 53.34500 22.64600
O  11.41400 53.09900 21.44200
C  9.92400 53.92000 23.06700
N  16.54300 51.63200 22.79000
C  15.57200 51.86600 21.90000
C  16.00000 51.60000 20.45300
C  17.55800 51.46500 20.68000
C  17.70500 51.40700 22.12300
C  15.20300 50.47700 19.83800
C  18.43400 52.63500 20.01100
C  19.63300 52.09400 19.20600
N  18.20300 51.20100 25.02700
C  19.17100 50.89300 24.08100
C  20.44200 50.55200 24.69900
C  20.09700 50.53200 26.09100
C  18.79300 50.96600 26.20200
C  21.75200 50.21100 24.05700
C  20.65100 50.28200 27.42100
O  21.74900 49.94200 27.82600
C  19.51000 50.69700 28.40900
C  19.22400 49.58500 29.32700
O  18.70400 48.53500 29.00100
O  19.70200 49.88600 30.53400
C  19.57000 48.89800 31.66100
H  13.02600 52.87600 27.75400
H  13.74200 52.57300 21.35100
H  19.69400 50.91500 22.02900
H  16.85200 50.71200 29.87000
H  14.79100 52.89000 29.74100
H  14.58900 49.95300 30.34700
H  13.58200 50.51900 28.97600
H  13.54700 51.31800 30.49100
H  16.98100 53.82100 29.93600
H  18.36200 52.84500 29.69100
H  17.09600 53.67600 32.14000
H  18.56900 52.69400 32.05400
H  10.51700 54.25600 25.70200
H  11.58500 53.92800 27.03400
H  10.60500 52.60200 26.19500
H  10.06900 54.84500 23.62500
H  9.42900 53.13800 23.64400
H  9.32600 54.05000 22.16500
H  15.66000 52.43400 19.83900
H  17.76600 50.50000 20.21700
H  14.61000 51.00200 19.09000
H  14.60500 49.90200 20.54500
H  15.90800 49.84300 19.30100
H  18.85300 53.25800 20.80100
H  17.72700 53.21200 19.41600
H  19.58200 52.64800 18.26900
H  19.51700 51.01300 19.12500
H  20.61300 52.31700 19.62700
H  21.87300 50.67600 23.07800
H  21.63800 49.15000 23.83400
H  22.58900 50.49500 24.69400
H  19.88400 51.45700 29.09500
H  19.67700 49.31600 32.66300
H  20.32000 48.10700 31.63800
H  18.62700 48.35500 31.71700

