158

Mg 16.18800 52.20600 26.29800
C  18.19300 51.37800 29.09300
C  13.65600 52.93000 28.57300
C  14.52300 53.28000 23.78900
C  18.79400 51.08800 24.25500
N  16.01800 52.29600 28.63200
C  16.91700 51.79300 29.49900
C  16.32600 51.93100 30.99700
C  14.75200 52.17600 30.73100
C  14.74000 52.46900 29.24300
C  13.88200 50.95800 31.17100
C  16.95200 53.23300 31.62000
C  17.53900 52.99500 33.09600
H  16.60600 52.26200 34.12700
N  14.31300 52.99300 26.13500
C  13.44500 53.23000 27.13900
C  12.28800 53.85400 26.59400
C  12.54500 54.06000 25.24400
C  13.84200 53.47700 24.99400
C  11.13500 54.45800 27.46100
C  11.75700 54.86600 24.16000
O  12.07200 54.93000 22.98300
C  10.45300 55.38600 24.50600
N  16.66200 52.12900 24.30200
C  15.76700 52.70600 23.40500
C  16.29300 52.63200 21.95500
C  17.72300 52.10100 22.20000
C  17.74200 51.74900 23.72100
C  15.33700 51.80300 20.88500
C  18.88100 53.12000 21.83900
C  20.22300 52.50000 21.47300
N  18.05500 51.29900 26.54900
C  18.98100 50.95200 25.61800
C  20.16800 50.47900 26.31200
C  19.87200 50.64500 27.66000
C  18.61300 51.20100 27.76000
C  21.29600 49.87000 25.70800
C  20.41700 50.50500 29.05100
O  21.49500 50.07400 29.48200
C  19.35100 51.01700 29.99800
C  18.98400 49.81300 30.83200
O  18.28000 48.86900 30.45200
O  19.37800 50.07100 32.10500
C  18.67400 49.20100 33.02900
H  12.75400 53.18000 29.13600
H  14.03000 53.66900 22.89500
H  19.55300 50.79300 23.52700
H  16.50100 50.98800 31.51500
H  14.34300 53.09500 31.14900
H  13.08200 50.73100 30.46700
H  13.40100 51.20900 32.11600
H  14.45400 50.03600 31.28000
H  16.21500 54.03200 31.69900
H  17.77800 53.64400 31.03900
H  17.85400 53.94700 33.52300
H  18.44900 52.39800 33.03700
H  11.14100 54.12400 28.49900
H  10.20800 54.11800 26.99900
H  11.18600 55.54400 27.53500
H  9.78400 55.65600 23.68800
H  10.50700 56.23500 25.18800
H  9.97900 54.51000 24.94700
H  16.30200 53.63100 21.51800
H  17.86100 51.21000 21.58800
H  14.64400 51.17200 21.44100
H  15.93000 51.31900 20.10900
H  14.71200 52.58500 20.45300
H  19.15200 53.79400 22.65000
H  18.58900 53.79400 21.03400
H  20.09800 51.56500 20.92600
H  20.77400 52.30900 22.39400
H  20.79900 53.17800 20.84400
H  21.02500 49.07200 25.01600
H  21.92900 49.44600 26.48800
H  21.86200 50.58200 25.10800
H  19.65700 51.80800 30.68300
H  18.89800 49.76100 33.93600
H  19.04300 48.18700 33.18400
H  17.62700 49.15300 32.72700
Mg 0.08100 43.85400 26.73400
C  2.34200 44.06200 29.31000
C  -2.50500 43.27600 29.04700
C  -1.85700 42.73500 24.26600
C  2.71000 44.31900 24.44700
N  -0.01700 43.75400 28.91800
C  1.00700 43.93300 29.81400
C  0.56500 43.91300 31.27200
C  -0.90400 43.36300 31.11500
C  -1.22900 43.54100 29.62400
C  -1.10400 41.99800 31.85600
C  0.71300 45.31400 32.00300
C  1.22600 45.35200 33.45500
H  0.91500 44.14600 34.20700
N  -2.00100 43.38200 26.64300
C  -2.86200 43.21600 27.69500
C  -4.17100 42.90100 27.18100
C  -4.09600 42.75500 25.79200
C  -2.60300 42.95500 25.48500
C  -5.43300 42.89800 28.11300
C  -5.08500 42.53800 24.75500
O  -4.81500 42.55900 23.55200
C  -6.50800 42.30500 25.19900
N  0.33300 43.48300 24.68000
C  -0.56000 42.89400 23.89200
C  -0.07500 42.62200 22.52400
C  1.23900 43.53900 22.49000
C  1.45900 43.82900 23.95700
C  0.23100 41.07400 22.18900
C  1.24200 44.75700 21.45300
C  1.78500 44.30900 20.04500
N  2.04200 44.11900 26.77700
C  3.04200 44.27900 25.79900
C  4.29400 44.44000 26.35100
C  4.10500 44.35700 27.73800
C  2.74700 44.11400 27.95300
C  5.54600 44.60300 25.68700
C  4.79600 44.41500 29.00100
O  5.97000 44.57700 29.29000
C  3.64800 44.21600 30.12400
C  4.03400 43.13900 31.09800
O  3.97300 41.92500 30.90500
O  4.58300 43.66500 32.16500
C  4.71000 42.65700 33.25900
H  -3.22100 43.00600 29.82600
H  -2.51800 42.11100 23.66000
H  3.46700 44.70400 23.76100
H  1.16300 43.18800 31.82400
H  -1.61400 43.96700 31.68000
H  -1.96800 42.07000 32.51600
H  -0.28000 41.65000 32.47800
H  -1.39100 41.23000 31.13800
H  -0.26900 45.78700 32.02400
H  1.40700 45.92900 31.43000
H  0.88200 46.24500 33.97700
H  2.31300 45.39900 33.38700
H  -5.27900 43.22600 29.14100
H  -5.70500 41.84300 28.13000
H  -6.25900 43.50800 27.74600
H  -7.06500 43.19900 25.47800
H  -6.47000 41.55800 25.99200
H  -7.08200 41.87600 24.37800
H  -0.83100 42.92100 21.79800
H  2.12800 42.94900 22.26900
H  1.15300 40.89300 21.63700
H  -0.65100 40.73900 21.64300
H  0.23400 40.64000 23.18900
H  1.86800 45.58500 21.78400
H  0.25200 45.21200 21.40300
H  1.27200 44.86500 19.26000
H  1.81500 43.22500 19.93600
H  2.82800 44.59300 19.90300
H  5.77400 45.65400 25.50500
H  5.46800 44.16800 24.69100
H  6.33100 44.08100 26.23500
H  3.56900 45.16900 30.64700
H  5.49900 41.92500 33.08700
H  3.80100 42.07300 33.40700
H  4.90400 43.20800 34.17900

