158

Mg 44.66000 4.12200 49.31200
C  42.35200 6.53300 48.03200
C  42.17900 1.68000 48.94400
C  46.97800 1.77300 49.94300
C  47.14500 6.56500 49.18000
N  42.52100 4.06600 48.63000
C  41.88500 5.19000 48.07300
C  40.46800 4.84400 47.57100
C  40.38900 3.27200 47.87600
C  41.76300 2.97000 48.58800
C  39.21200 2.76300 48.67600
C  40.29800 5.16200 46.02300
C  39.05100 5.95900 45.62200
H  38.42300 5.67900 44.22600
N  44.63600 2.03600 49.33000
C  43.50700 1.30100 49.26100
C  43.96100 -0.07300 49.27500
C  45.32200 -0.17200 49.43600
C  45.72800 1.24900 49.65000
C  42.94900 -1.26200 49.11700
C  46.16400 -1.48000 49.37400
O  45.66500 -2.62400 49.25900
C  47.67000 -1.36800 49.44900
N  46.75300 4.14000 49.29800
C  47.41500 3.03300 49.81200
C  48.90600 3.40000 50.08400
C  48.97200 4.95800 49.85300
C  47.54900 5.26900 49.43200
C  49.56400 2.92500 51.42600
C  50.09100 5.39800 48.82600
C  51.34500 6.04400 49.46100
N  44.82800 6.17100 48.70100
C  45.90000 7.01400 48.74700
C  45.45200 8.34000 48.21500
C  44.07800 8.15700 47.96500
C  43.73600 6.80900 48.26900
C  46.25600 9.61800 48.12700
C  42.87100 8.87800 47.61800
O  42.74000 10.05300 47.29600
C  41.73100 7.81800 47.63200
C  40.58600 8.13600 48.50900
O  40.39600 7.55400 49.57000
O  39.76700 9.13300 48.07400
C  38.64500 9.48300 48.98900
H  41.31800 1.02600 48.78700
H  47.72500 1.08500 50.34400
H  47.98700 7.24800 49.05200
H  39.79500 5.40700 48.21800
H  40.27500 2.65500 46.98400
H  38.44000 3.52500 48.78600
H  39.45600 2.58800 49.72400
H  38.75500 1.84300 48.31100
H  40.27100 4.29400 45.36500
H  41.17100 5.71800 45.68100
H  39.37100 6.99700 45.53200
H  38.28400 5.96400 46.39700
H  41.92500 -0.90900 48.99700
H  42.98400 -1.69200 50.11800
H  43.35200 -1.90200 48.33300
H  48.04800 -0.59000 48.78600
H  48.06800 -2.31400 49.08300
H  47.86700 -1.16800 50.50200
H  49.52800 2.85100 49.37700
H  49.17300 5.45400 50.80300
H  50.02400 1.95600 51.22800
H  48.78300 2.64300 52.13100
H  50.17700 3.67100 51.93200
H  49.79100 6.06800 48.02000
H  50.50400 4.51600 48.33600
H  51.39200 7.04300 49.02800
H  52.16900 5.34400 49.32300
H  51.17600 6.23200 50.52100
H  46.42900 10.08300 49.09700
H  45.98000 10.38800 47.40600
H  47.18600 9.18500 47.75700
H  41.25200 7.74300 46.65600
H  38.93900 9.60600 50.03100
H  37.85300 8.73400 48.99600
H  38.19800 10.42500 48.67100
Mg -6.11300 25.26500 25.68100
C  -4.59200 26.66600 28.60200
C  -7.79200 22.95000 27.74500
C  -7.32200 23.81200 22.85000
C  -4.20500 27.52000 23.71400
N  -6.05100 24.83200 27.96300
C  -5.51000 25.67000 28.91200
C  -6.08500 25.26000 30.21100
C  -6.93100 23.93100 29.94500
C  -6.92800 23.86600 28.44600
C  -6.30600 22.66000 30.73000
C  -6.87400 26.43000 30.88700
C  -6.63900 26.56200 32.37600
H  -6.12400 25.35400 33.19700
N  -7.41800 23.70200 25.36300
C  -8.00200 22.87000 26.30100
C  -8.75800 21.85500 25.66200
C  -8.61800 22.06500 24.22200
C  -7.78900 23.29900 24.09500
C  -9.50400 20.85300 26.44800
C  -9.26400 21.30400 23.07800
O  -9.09300 21.65500 21.90900
C  -10.11400 20.06200 23.30000
N  -5.96600 25.71300 23.54300
C  -6.37000 24.87200 22.61700
C  -5.84300 25.22500 21.24400
C  -5.13200 26.58800 21.48500
C  -5.01700 26.62300 23.00600
C  -4.93800 24.18300 20.56300
C  -5.82000 27.86300 20.94000
C  -5.27900 28.22200 19.50600
N  -4.65500 26.72000 25.98100
C  -4.08900 27.63200 25.07900
C  -3.28600 28.60200 25.84100
C  -3.45400 28.28600 27.22500
C  -4.26800 27.08900 27.25300
C  -2.42100 29.63800 25.22500
C  -3.07400 28.67900 28.53500
O  -2.33100 29.56700 28.91100
C  -3.85800 27.64800 29.53500
C  -2.76700 27.12900 30.48300
O  -1.85900 26.41200 30.10200
O  -2.91100 27.54000 31.73700
C  -2.02200 26.99100 32.72300
H  -8.42600 22.33300 28.38500
H  -7.76400 23.42700 21.92900
H  -3.54800 28.06400 23.03200
H  -5.21700 25.00100 30.81800
H  -7.98800 23.94400 30.21200
H  -6.05600 21.81900 30.08300
H  -7.08500 22.22900 31.35900
H  -5.41300 22.95100 31.28300
H  -7.94700 26.25700 30.80700
H  -6.66200 27.33400 30.31600
H  -7.58100 26.77100 32.88300
H  -5.91400 27.36400 32.51600
H  -8.80900 20.33600 27.11000
H  -10.05300 20.13900 25.83500
H  -10.22900 21.30200 27.12700
H  -10.34800 19.71800 22.29300
H  -10.82500 20.44900 24.03000
H  -9.42300 19.37200 23.78500
H  -6.73700 25.27300 20.62200
H  -4.15100 26.39300 21.05200
H  -3.88700 24.45900 20.64700
H  -5.16800 24.07800 19.50200
H  -5.14700 23.29900 21.16400
H  -5.76300 28.67400 21.66500
H  -6.87700 27.72000 20.71600
H  -4.64000 27.41300 19.14900
H  -4.88400 29.23600 19.45500
H  -6.16000 28.22000 18.86500
H  -1.63900 30.03300 25.87300
H  -3.04400 30.50300 24.99400
H  -1.94700 29.19000 24.35100
H  -4.60900 28.22300 30.07700
H  -1.10100 27.55000 32.89300
H  -1.76800 25.93500 32.62600
H  -2.53700 27.04900 33.68200

