158

Mg 0.29000 7.66900 26.21800
C  0.87100 9.23600 29.16300
C  0.44600 4.70300 27.85600
C  0.01200 6.00500 23.22100
C  0.36400 10.63500 24.40300
N  0.56000 7.07900 28.22000
C  0.68500 7.83700 29.32800
C  0.79300 7.06900 30.70400
C  0.90900 5.63500 30.10200
C  0.57700 5.82000 28.63200
C  2.36200 5.00900 30.37000
C  -0.55200 7.23200 31.53100
C  -0.34400 7.57600 33.01700
H  0.88300 6.92800 33.74000
N  0.31400 5.55900 25.56800
C  0.33100 4.51400 26.43500
C  0.14700 3.35000 25.74200
C  0.06000 3.70200 24.30500
C  0.12700 5.15500 24.31900
C  0.08800 2.00600 26.47200
C  0.03800 2.73500 23.10000
O  0.00200 3.28800 21.98500
C  0.04000 1.22200 23.22600
N  0.39100 8.25200 24.05900
C  0.15700 7.38000 23.05700
C  -0.01000 8.04000 21.61700
C  -0.20400 9.50400 22.12100
C  0.23200 9.47500 23.58000
C  1.14800 7.79500 20.53600
C  -1.64400 10.00500 21.96800
C  -1.98500 10.69200 20.65600
N  0.63200 9.56200 26.66800
C  0.62400 10.67300 25.85000
C  0.96000 11.84500 26.66100
C  1.06200 11.34700 28.01300
C  0.76400 9.97200 27.90500
C  1.10400 13.22300 26.17700
C  1.33900 11.69300 29.38200
O  1.70500 12.69900 29.84700
C  1.11500 10.30500 30.21000
C  2.31600 10.15300 31.05000
O  3.42000 9.86700 30.71900
O  1.87600 10.51700 32.31400
C  2.90100 11.02600 33.20400
H  0.63200 3.78600 28.42000
H  -0.26500 5.50800 22.28800
H  0.41800 11.51200 23.75500
H  1.69400 7.41700 31.20700
H  0.18200 4.92500 30.49500
H  2.23500 3.94900 30.59200
H  2.85000 5.55700 31.17700
H  3.02000 4.99800 29.50100
H  -1.16900 6.33500 31.58300
H  -1.19300 7.97600 31.05800
H  -1.25500 7.20900 33.49000
H  -0.15400 8.63800 33.16900
H  1.13000 1.83600 26.74300
H  -0.20600 1.25400 25.73900
H  -0.62200 2.00600 27.29900
H  0.92000 0.91600 23.79100
H  0.24400 0.80000 22.24200
H  -0.85800 0.80700 23.68400
H  -0.91800 7.70100 21.11800
H  0.55900 10.09200 21.61100
H  1.62500 6.81800 20.61200
H  1.86500 8.60900 20.64200
H  0.68500 7.89700 19.55500
H  -1.92500 10.68900 22.76800
H  -2.22500 9.09900 22.14200
H  -2.84200 10.14000 20.27200
H  -1.18700 10.54700 19.92800
H  -2.31900 11.72400 20.76900
H  0.79900 13.20800 25.13100
H  2.11300 13.59000 26.36500
H  0.38800 13.89700 26.64900
H  0.21400 10.47200 30.80000
H  2.41800 11.83600 33.75100
H  3.78100 11.38600 32.67000
H  3.13700 10.32400 34.00400
Mg 0.12700 43.79000 26.75000
C  2.49800 43.57800 29.24500
C  -2.22700 42.65400 28.78700
C  -1.92000 43.41000 24.00300
C  2.72500 44.33300 24.54000
N  0.15400 43.14200 28.75900
C  1.18500 43.29700 29.66500
C  0.71400 43.00500 31.05800
C  -0.78000 42.54200 30.98500
C  -0.98900 42.79800 29.37400
C  -1.20800 41.18100 31.51400
C  0.81700 44.30700 31.95800
C  0.92600 44.15400 33.51500
H  0.84500 42.67300 34.08500
N  -1.90000 43.13400 26.50300
C  -2.71700 42.71400 27.46600
C  -4.03400 42.55100 26.92200
C  -3.98800 42.77300 25.51700
C  -2.60100 43.15000 25.26300
C  -5.28000 42.49000 27.77100
C  -5.09700 42.84000 24.48800
O  -4.90000 43.28400 23.35100
C  -6.48500 42.40900 24.80400
N  0.39000 43.83200 24.46800
C  -0.62700 43.65600 23.64400
C  -0.13300 43.92900 22.13500
C  1.33100 44.40000 22.34700
C  1.49600 44.12200 23.87000
C  -0.43900 42.79100 21.16500
C  1.69100 45.86500 21.91600
C  1.74300 47.01900 22.96700
N  2.19500 44.06100 26.86900
C  3.13700 44.21000 25.82400
C  4.51000 44.23200 26.34400
C  4.32600 43.93300 27.70300
C  2.89600 43.83800 27.94000
C  5.84100 44.39200 25.50100
C  4.94200 43.58700 29.02800
O  6.09700 43.36100 29.31300
C  3.79000 43.44000 30.05000
C  4.01700 42.05600 30.52300
O  3.87300 40.99600 29.91900
O  4.37600 42.15900 31.85700
C  4.91200 40.93800 32.48300
H  -2.98500 42.30100 29.49000
H  -2.64900 43.40200 23.19000
H  3.52600 44.64100 23.86500
H  1.33400 42.17900 31.40500
H  -1.34800 43.31800 31.50000
H  -1.58900 40.60800 30.66800
H  -2.03800 41.27600 32.21300
H  -0.44900 40.56200 31.99400
H  -0.07100 44.93900 31.97300
H  1.63000 45.00000 31.74200
H  0.03200 44.56700 33.98400
H  1.76900 44.70900 33.92500
H  -6.23900 42.80200 27.35800
H  -5.11700 42.98800 28.72600
H  -5.51600 41.44000 27.94600
H  -6.91500 42.13400 23.84100
H  -7.15500 43.17800 25.19000
H  -6.48200 41.51100 25.42000
H  -0.78200 44.75800 21.85100
H  2.01200 43.66400 21.92100
H  -0.36400 41.87400 21.74900
H  0.29300 42.67000 20.36600
H  -1.45300 43.01800 20.83800
H  0.92300 46.17800 21.20800
H  2.65200 45.84100 21.40300
H  2.77500 47.36500 23.02200
H  1.40400 46.75400 23.96900
H  1.11600 47.81100 22.55800
H  6.47800 43.54300 25.74900
H  6.30000 45.36900 25.65500
H  5.57500 44.39500 24.44400
H  3.72700 44.04500 30.95500
H  5.97100 41.04400 32.71900
H  4.94900 40.10300 31.78400
H  4.22500 40.74700 33.30800

