158

Mg 6.47600 57.00700 41.62800
C  6.03400 53.36500 41.83800
C  9.58600 56.22300 40.28100
C  6.83400 60.14800 40.98000
C  3.28000 57.18300 42.80000
N  7.60400 54.95100 40.97600
C  7.22000 53.66300 41.11100
C  8.32300 52.68600 40.65700
C  9.59700 53.62200 40.52700
C  8.93800 55.04800 40.64000
C  10.77100 53.46300 41.61200
C  7.82500 52.02900 39.27900
C  8.04300 50.51600 39.04300
H  7.70700 49.89900 37.64500
N  7.96000 58.00100 40.65100
C  9.18500 57.59100 40.25700
C  9.92100 58.73200 39.60100
C  9.10100 59.92400 39.70600
C  7.89100 59.42100 40.48400
C  11.30100 58.56400 39.11000
C  9.36900 61.29200 39.16600
O  10.31500 61.49200 38.39400
C  8.47700 62.48600 39.48600
N  5.19000 58.43500 41.61000
C  5.63200 59.73900 41.58900
C  4.59500 60.69500 42.22500
C  3.36700 59.75900 42.64800
C  3.95600 58.34200 42.34000
C  5.35300 61.56400 43.30900
C  1.99500 60.05700 41.89900
C  1.79900 61.47600 41.18900
N  5.01000 55.60000 42.36100
C  3.72400 55.88200 42.79100
C  3.12700 54.70500 43.34900
C  3.99100 53.67800 43.00300
C  5.13500 54.29700 42.38200
C  1.84400 54.65700 44.12900
C  4.14000 52.23500 43.05200
O  3.41200 51.36200 43.47900
C  5.44500 51.92500 42.14800
C  5.01300 51.09500 40.99500
O  4.23400 51.48200 40.12100
O  5.43900 49.79300 41.16100
C  4.88100 48.81300 40.22000
H  10.64200 56.16400 40.01000
H  6.75900 61.22500 40.81500
H  2.35600 57.25000 43.37800
H  8.46700 51.88900 41.38700
H  10.04500 53.61200 39.53300
H  10.67200 52.59400 42.26300
H  10.87600 54.37700 42.19700
H  11.75500 53.43200 41.14300
H  8.48400 52.45100 38.52000
H  6.80700 52.38900 39.12900
H  7.50400 50.03800 39.86000
H  9.08700 50.23900 39.18800
H  11.97100 58.04000 39.79100
H  11.62900 59.58300 38.90300
H  11.40700 58.09200 38.13300
H  8.35100 62.46900 40.56800
H  7.53600 62.55800 38.94100
H  8.98600 63.41200 39.22000
H  4.25400 61.42800 41.49400
H  3.24200 59.85200 43.72600
H  6.41100 61.30700 43.26500
H  5.02400 61.26400 44.30400
H  5.17500 62.62800 43.14800
H  1.17100 59.92200 42.60000
H  1.93400 59.28600 41.13100
H  2.43700 61.69500 40.33300
H  1.80000 62.33300 41.86200
H  0.77400 61.30900 40.85800
H  1.18000 55.50800 43.97200
H  2.12900 54.68000 45.18000
H  1.35600 53.69100 43.99400
H  6.22700 51.36900 42.66400
H  4.04000 49.10900 39.59300
H  4.60500 48.00900 40.90100
H  5.60500 48.46900 39.48100
Mg 0.08800 42.84900 24.84500
C  2.33300 42.38300 27.50700
C  -2.24300 41.07200 26.71600
C  -2.01200 43.18100 22.34900
C  2.81100 43.74800 22.87900
N  0.10400 41.64900 26.81200
C  1.06200 41.91200 27.80300
C  0.49000 41.65100 29.25300
C  -0.92400 41.02100 28.91200
C  -1.07600 41.26400 27.42200
C  -1.21100 39.55000 29.44100
C  0.52200 42.96300 30.12700
C  0.88800 42.78600 31.62100
H  0.70900 41.35600 32.16400
N  -1.86300 42.23600 24.60500
C  -2.65200 41.56000 25.48000
C  -4.03400 41.44000 24.89800
C  -3.93200 42.06300 23.61200
C  -2.49700 42.57100 23.47200
C  -5.14900 40.71900 25.51600
C  -5.07800 42.22300 22.73000
O  -4.87800 42.75700 21.59400
C  -6.40700 41.89300 22.98300
N  0.33500 43.25200 22.88600
C  -0.72900 43.51200 22.06600
C  -0.30800 44.33500 20.81300
C  1.22900 44.42200 20.91100
C  1.49100 43.83800 22.35200
C  -0.93400 43.74500 19.43200
C  1.85400 45.77300 20.78300
C  1.41800 46.92500 21.66700
N  2.16900 43.04600 25.09500
C  3.14300 43.40400 24.20900
C  4.42300 43.37000 24.79000
C  4.15900 43.08700 26.19800
C  2.76100 42.84000 26.26500
C  5.80100 43.59200 24.20900
C  4.67100 43.00400 27.52400
O  5.83400 43.16000 27.89100
C  3.49600 42.58400 28.44600
C  3.99100 41.25800 28.94100
O  4.15000 40.24400 28.23200
O  4.31100 41.28700 30.27000
C  4.78800 40.03000 30.84900
H  -3.04500 40.72000 27.36800
H  -2.71200 43.49500 21.57200
H  3.56200 43.96500 22.11600
H  1.23000 40.93500 29.61100
H  -1.66500 41.65800 29.39500
H  -0.51600 39.23500 30.21900
H  -1.28000 38.80200 28.65100
H  -2.19200 39.61000 29.91100
H  -0.47200 43.41000 30.09700
H  1.20100 43.68800 29.68100
H  0.31800 43.52300 32.18700
H  1.93700 43.07600 31.67700
H  -5.76800 41.42100 26.07500
H  -4.89900 39.97100 26.26800
H  -5.69100 40.06800 24.83000
H  -6.68700 40.84900 22.84600
H  -6.99700 42.40100 22.21900
H  -6.77700 42.02800 23.99900
H  -0.62800 45.36000 21.00100
H  1.62600 43.64600 20.25700
H  -1.56700 44.56700 19.09600
H  -1.48500 42.81700 19.57800
H  -0.12200 43.63100 18.71400
H  1.56700 46.05200 19.76900
H  2.94100 45.84100 20.83400
H  1.19700 47.78100 21.03000
H  2.22700 47.23400 22.33000
H  0.64800 46.68000 22.39800
H  5.92200 44.20200 23.31500
H  6.13700 42.58200 23.97100
H  6.38600 43.99000 25.03800
H  3.30400 43.25300 29.28500
H  3.90900 39.38900 30.91300
H  4.97000 40.13100 31.91900
H  5.59400 39.50200 30.34000

