158

Mg -2.27400 17.10700 26.17800
C  -2.79700 15.21600 29.07300
C  -3.51700 19.78900 27.98200
C  -2.52500 19.15600 23.36800
C  -1.76800 14.40600 24.39200
N  -3.00400 17.50200 28.34400
C  -3.04600 16.51700 29.32200
C  -3.45200 17.23500 30.63600
C  -4.09500 18.51100 30.14400
C  -3.51700 18.64800 28.72500
C  -5.67000 18.49500 30.20600
C  -2.23100 17.34500 31.69000
C  -2.59500 16.83300 33.06400
H  -1.51000 16.39800 34.03000
N  -2.77500 19.16700 25.77700
C  -3.13100 20.08500 26.71000
C  -3.18500 21.44600 26.12400
C  -2.85300 21.26600 24.72600
C  -2.77700 19.81300 24.57100
C  -3.44400 22.76900 26.84900
C  -2.52900 22.28800 23.66300
O  -2.21500 22.00300 22.47300
C  -2.55600 23.68400 24.04800
N  -2.14800 16.84500 24.11400
C  -2.34600 17.72800 23.09600
C  -2.01700 17.05500 21.76700
C  -1.69100 15.56100 22.18000
C  -1.81400 15.60800 23.67600
C  -2.98500 17.30500 20.63900
C  -0.31900 15.08100 21.60600
C  0.96600 15.52600 22.33500
N  -2.16200 15.19100 26.60200
C  -2.03400 14.16400 25.73700
C  -2.23100 12.95700 26.42200
C  -2.42100 13.35300 27.74900
C  -2.40000 14.74100 27.79900
C  -2.27300 11.56200 25.83100
C  -2.66900 12.80400 29.07300
O  -2.70700 11.66300 29.56500
C  -2.90600 14.01000 30.00400
C  -1.91700 13.88000 31.11700
O  -0.69700 14.03800 31.11200
O  -2.59100 13.48300 32.25000
C  -1.87100 13.02500 33.39900
H  -3.91900 20.60800 28.58300
H  -2.62500 19.73200 22.44600
H  -1.40700 13.52700 23.85400
H  -4.20600 16.56600 31.05100
H  -3.89500 19.28500 30.88400
H  -6.06000 18.83000 31.16700
H  -6.00400 17.48500 29.96900
H  -6.03300 19.14300 29.40700
H  -2.02600 18.41200 31.77400
H  -1.30600 16.85100 31.39500
H  -3.29100 15.99600 33.00300
H  -2.90900 17.76300 33.53800
H  -4.22700 23.23800 26.25300
H  -2.57000 23.41100 26.96000
H  -3.85400 22.61500 27.84700
H  -3.57500 23.90000 24.36800
H  -2.16200 24.25500 23.20700
H  -1.90400 23.88200 24.89900
H  -1.20300 17.54600 21.23400
H  -2.45800 14.82900 21.93000
H  -3.20400 18.37200 20.61000
H  -3.88500 16.69100 20.68200
H  -2.63500 17.02200 19.64700
H  -0.33600 15.43700 20.57600
H  -0.28500 13.99200 21.58200
H  0.83900 16.27000 23.12100
H  1.61100 15.87500 21.52900
H  1.40300 14.65700 22.82700
H  -3.15300 11.02700 26.18700
H  -1.36300 10.98000 25.97800
H  -2.45800 11.75600 24.77500
H  -3.90100 13.84900 30.42000
H  -2.41600 13.38800 34.27100
H  -0.87000 13.42700 33.55100
H  -1.72200 11.94800 33.32500
Mg 16.14000 51.36900 24.82300
C  18.23100 50.60500 27.54100
C  13.54300 51.44000 26.86600
C  14.32700 51.68800 22.17900
C  19.11900 50.88100 22.74700
N  15.95600 51.08700 26.98200
C  16.92900 50.91100 27.92700
C  16.40600 51.18700 29.33400
C  14.82100 51.42100 29.14700
C  14.73300 51.33200 27.56600
C  13.91300 50.37500 29.90900
C  17.09600 52.39600 30.07800
C  16.99400 52.43700 31.63500
H  16.17100 51.42000 32.37600
N  14.18400 51.33000 24.51400
C  13.26600 51.40800 25.46700
C  11.99700 51.25900 24.85600
C  12.14900 51.45200 23.44400
C  13.56800 51.47200 23.29300
C  10.76500 51.28200 25.62200
C  11.02700 51.56900 22.37300
O  11.38300 51.70400 21.19100
C  9.56600 51.49300 22.72800
N  16.66900 51.23300 22.74400
C  15.67300 51.66500 21.90400
C  16.28300 52.09600 20.62200
C  17.83600 51.99300 20.83600
C  17.93000 51.33400 22.15700
C  15.71800 51.32900 19.38200
C  18.64400 53.29300 20.87100
C  18.93600 53.84800 19.47400
N  18.20800 50.84500 25.03200
C  19.26100 50.60300 24.12500
C  20.43600 50.12900 24.80200
C  20.07000 50.06000 26.09900
C  18.75300 50.55200 26.22200
C  21.69300 49.80400 24.19800
C  20.60700 49.79200 27.52000
O  21.64500 49.34200 27.98500
C  19.38200 50.19200 28.43000
C  19.00200 49.10300 29.37000
O  18.64600 48.00200 28.96900
O  19.38700 49.35300 30.69000
C  19.26000 48.29100 31.72300
H  12.70300 51.41100 27.56200
H  13.72300 51.90400 21.29600
H  19.96900 50.81400 22.06400
H  16.48800 50.25100 29.88700
H  14.42300 52.40000 29.41500
H  13.42000 50.92900 30.70800
H  14.48600 49.55400 30.34000
H  13.07200 49.95800 29.35400
H  16.80700 53.35200 29.64100
H  18.16600 52.34400 29.87500
H  16.58900 53.38400 31.99200
H  17.97900 52.25400 32.06300
H  10.11800 50.59000 25.08300
H  10.34200 52.27500 25.46300
H  10.86500 51.00300 26.67100
H  9.29600 50.57400 23.24800
H  9.03800 51.58000 21.77800
H  9.29100 52.32500 23.37600
H  16.07000 53.15600 20.48600
H  18.28200 51.26400 20.15800
H  15.28300 50.41500 19.78700
H  16.44400 51.08400 18.60700
H  14.96700 52.05900 19.08100
H  19.57600 53.14200 21.41500
H  18.09400 54.06400 21.40900
H  18.45300 54.82500 19.46300
H  18.47700 53.25500 18.68400
H  20.01900 53.87700 19.35200
H  22.56900 49.89400 24.84100
H  21.94400 50.40300 23.32200
H  21.60500 48.75900 23.89800
H  19.78300 51.00500 29.03500
H  18.34900 48.50500 32.28100
H  20.08000 48.45600 32.42200
H  19.32000 47.22300 31.51200

