158

Mg 49.16600 45.83900 43.61700
C  45.85100 46.68300 42.57500
C  48.50500 42.65400 42.11600
C  52.41000 45.12300 43.58200
C  49.65700 49.00800 44.62600
N  47.37200 44.83200 42.51900
C  46.13400 45.40500 42.15700
C  45.25600 44.45800 41.29900
C  46.08000 43.11200 41.23900
C  47.38000 43.50800 42.04500
C  45.41200 41.76400 41.57600
C  44.94600 45.05500 39.91300
C  43.68200 44.54200 39.14800
H  43.97700 43.19500 38.29300
N  50.29300 44.03500 43.11200
C  49.84200 42.83500 42.54600
C  50.98000 41.87700 42.46100
C  52.12200 42.57900 42.95200
C  51.63500 43.99700 43.22100
C  50.66900 40.50900 41.94700
C  53.60600 41.93500 42.98400
O  53.81000 40.76300 42.61300
C  54.80300 42.80300 43.38400
N  50.86900 46.94500 43.83900
C  52.14300 46.47300 43.88200
C  53.14800 47.50300 44.40700
C  52.23100 48.76500 44.79000
C  50.82900 48.25500 44.42500
C  54.09700 47.01800 45.49500
C  52.66400 50.09200 44.18900
C  52.29600 51.35700 44.95000
N  47.99400 47.51000 43.72800
C  48.28600 48.72900 44.28700
C  47.07600 49.60000 44.24800
C  46.12200 48.78000 43.67700
C  46.72500 47.57400 43.25200
C  47.00800 51.00100 44.82600
C  44.73700 48.67800 43.35900
O  43.91200 49.55100 43.59300
C  44.43500 47.37400 42.55700
C  43.45400 46.52800 43.33900
O  43.61500 46.05700 44.45200
O  42.42500 46.24600 42.49300
C  41.49600 45.21800 42.95000
H  48.20400 41.69900 41.68100
H  53.46200 44.83100 43.58900
H  49.90400 50.00900 44.98600
H  44.25200 44.22000 41.65100
H  46.49300 43.06500 40.23200
H  45.57100 41.08000 40.74300
H  44.38200 41.91300 41.90000
H  45.93300 41.22100 42.36500
H  45.80300 44.88400 39.26200
H  44.84500 46.13100 40.05500
H  43.29600 45.39200 38.58500
H  42.99200 44.21400 39.92500
H  50.09800 40.47900 41.01900
H  50.34100 39.77700 42.68500
H  51.67000 40.14700 41.71200
H  54.67400 43.30100 44.34600
H  54.88400 43.58600 42.63000
H  55.71500 42.20900 43.33900
H  53.70000 47.74200 43.49800
H  52.27400 48.87700 45.87400
H  53.59700 46.76900 46.43200
H  54.87100 47.74100 45.75100
H  54.69700 46.15300 45.21100
H  52.18900 50.27600 43.22500
H  53.72500 50.07300 43.93800
H  51.58700 51.99600 44.42300
H  53.22100 51.92900 45.01800
H  51.85600 51.17600 45.93000
H  46.35600 51.56000 44.15500
H  48.00800 51.42900 44.75900
H  46.51700 50.97700 45.79900
H  43.94700 47.57300 41.60300
H  41.89400 44.29000 43.36000
H  40.84000 44.93300 42.12800
H  40.90000 45.72800 43.70700
Mg 35.89700 48.36300 26.21900
C  36.08500 46.51300 29.21700
C  34.33600 50.89500 28.03100
C  35.12300 49.80600 23.30300
C  36.69300 45.50300 24.50700
N  35.30500 48.66100 28.37300
C  35.52400 47.81900 29.40200
C  35.28900 48.45200 30.78500
C  34.49200 49.78200 30.35000
C  34.77500 49.86500 28.83500
C  32.92800 49.88500 30.76400
C  36.62700 48.84600 31.56700
C  36.91500 48.21300 32.90800
H  36.86300 49.23900 34.13800
N  34.91300 50.09500 25.75300
C  34.43500 51.04700 26.63800
C  33.98500 52.16700 25.92200
C  34.09900 51.90500 24.53900
C  34.76000 50.51900 24.45800
C  33.35700 53.40900 26.68500
C  33.67700 52.72500 23.31700
O  33.91100 52.44100 22.17200
C  32.91600 53.99100 23.57900
N  36.01800 47.79500 24.19900
C  35.70900 48.56000 23.13900
C  35.98900 47.93800 21.77400
C  36.56800 46.55600 22.22100
C  36.42400 46.65100 23.72300
C  34.74200 47.85600 20.96900
C  38.11800 46.37100 21.90600
C  38.47000 45.55300 20.71800
N  36.55000 46.41300 26.67000
C  36.79400 45.34300 25.86200
C  37.14200 44.19900 26.72200
C  36.91900 44.70000 28.04200
C  36.46600 45.98300 27.95900
C  37.36100 42.80900 26.20800
C  36.88700 44.23600 29.43200
O  37.16100 43.18300 29.90800
C  36.46500 45.48200 30.25900
C  35.42500 45.16300 31.21600
O  34.21300 45.16400 30.97600
O  35.99800 44.99800 32.49700
C  35.11900 44.95600 33.65300
H  33.90100 51.66600 28.67000
H  34.97100 50.35600 22.37200
H  36.92000 44.68800 23.81700
H  34.63400 47.81400 31.37900
H  34.97500 50.69800 30.69100
H  32.92200 50.57900 31.60500
H  32.62600 48.89200 31.09700
H  32.28100 50.19800 29.94500
H  36.66300 49.92600 31.70900
H  37.43600 48.66200 30.86000
H  37.94400 47.85500 32.86500
H  36.26000 47.35600 33.06700
H  33.47200 54.30700 26.07800
H  33.91800 53.52300 27.61200
H  32.28400 53.34000 26.87000
H  32.03800 53.89500 24.21800
H  32.56200 54.31800 22.60200
H  33.49700 54.77400 24.06700
H  36.72200 48.57600 21.28000
H  35.94900 45.74300 21.84100
H  34.40100 46.83800 20.77900
H  35.08500 48.30700 20.03800
H  33.92800 48.38100 21.46800
H  38.64500 46.00600 22.78800
H  38.55700 47.36000 21.77500
H  38.15200 44.51700 20.83200
H  39.54800 45.44000 20.60300
H  37.91000 45.82200 19.82200
H  36.84400 42.14600 26.90200
H  38.43000 42.59600 26.17700
H  37.01900 42.55700 25.20500
H  37.40100 45.70500 30.77100
H  34.10100 45.15600 33.32000
H  35.40000 45.75800 34.33500
H  35.24500 43.95200 34.05800

