158

Mg 47.11700 15.28900 28.53500
C  44.82100 15.22400 31.39000
C  48.92900 17.66300 30.41300
C  49.18400 15.60500 26.09400
C  44.72600 13.63600 26.68500
N  46.75800 16.45200 30.60700
C  45.91000 16.07000 31.63900
C  46.23900 16.80000 32.96000
C  47.31300 17.79600 32.44900
C  47.76100 17.25200 31.09300
C  46.83600 19.28300 32.43400
C  46.61600 15.92100 34.17000
C  46.85700 16.70100 35.48000
H  47.96100 16.21800 36.40400
N  48.88600 16.41700 28.33200
C  49.51400 17.18400 29.25700
C  50.84600 17.42900 28.72900
C  50.90500 16.92700 27.41800
C  49.68300 16.27900 27.20900
C  51.85100 18.37200 29.40600
C  52.04500 16.98700 26.45200
O  51.93400 16.58600 25.28700
C  53.31000 17.63100 26.90700
N  46.82300 14.92200 26.53000
C  47.93300 15.08000 25.73000
C  47.68200 14.40100 24.36700
C  46.37900 13.63800 24.67700
C  45.92200 14.05300 26.04200
C  47.65700 15.25800 23.09300
C  46.60500 12.10200 24.75900
C  46.45000 11.21400 23.43000
N  45.13800 14.55100 28.90100
C  44.37100 13.80800 28.07800
C  43.26300 13.19100 28.92000
C  43.43000 13.80000 30.13900
C  44.54700 14.57500 30.14000
C  42.14900 12.36700 28.36200
C  42.73500 13.95700 31.47600
O  41.65100 13.44100 31.87100
C  43.74300 14.76600 32.37700
C  43.07900 15.85700 33.13200
O  42.59300 16.83500 32.59100
O  43.06100 15.62200 34.45300
C  42.06900 16.42400 35.16600
H  49.55800 18.32800 31.01000
H  49.83500 15.51000 25.22200
H  44.10200 12.95500 26.10300
H  45.29400 17.29300 33.19100
H  48.15800 17.90900 33.12800
H  46.93100 19.66900 31.41900
H  47.42800 19.81000 33.18200
H  45.80000 19.46000 32.72400
H  47.36600 15.16200 33.94800
H  45.83600 15.23600 34.50400
H  46.02100 16.63000 36.17500
H  46.97900 17.73700 35.16200
H  51.92300 19.31400 28.86300
H  52.80500 17.87800 29.59200
H  51.60200 18.60400 30.44200
H  53.98600 17.52800 26.05800
H  53.76600 17.15200 27.77400
H  53.12600 18.66800 27.18600
H  48.52200 13.74700 24.13400
H  45.58400 13.80800 23.95200
H  46.77500 14.92900 22.54400
H  48.49400 15.09700 22.41300
H  47.48200 16.32600 23.22600
H  45.97000 11.70400 25.55100
H  47.57500 11.99300 25.24500
H  46.14400 11.75800 22.53600
H  45.77500 10.38100 23.62800
H  47.41900 10.72100 23.35200
H  42.11900 11.53100 29.06000
H  42.45000 11.91600 27.41600
H  41.22300 12.93300 28.26000
H  44.18200 14.01700 33.03600
H  41.92200 15.84500 36.07800
H  41.16600 16.60000 34.58100
H  42.53800 17.34400 35.51700
Mg -0.65500 43.80600 25.66400
C  1.88900 43.44700 28.06800
C  -3.00700 42.96500 28.21600
C  -2.93100 43.71000 23.42600
C  1.86300 44.30000 23.27500
N  -0.59200 43.37000 27.92300
C  0.61900 43.28700 28.64000
C  0.32000 43.05600 30.10100
C  -1.25000 42.67400 30.16000
C  -1.64500 42.98100 28.64400
C  -1.57600 41.17000 30.50200
C  0.65300 44.34000 30.87200
C  0.77900 44.32800 32.42800
H  0.81000 42.97800 33.16600
N  -2.70800 43.47300 25.85700
C  -3.50500 43.29900 26.96700
C  -4.89000 43.33500 26.53300
C  -4.82700 43.45700 25.05100
C  -3.47100 43.50600 24.71900
C  -6.08200 43.16000 27.41300
C  -5.97600 43.46400 24.04000
O  -5.91600 43.65400 22.84700
C  -7.41400 43.20700 24.61300
N  -0.45200 43.83100 23.61500
C  -1.62300 43.85700 22.89400
C  -1.39800 44.17700 21.41000
C  0.14400 44.42700 21.39100
C  0.54500 44.19800 22.83900
C  -1.89700 42.97400 20.55500
C  0.51500 45.77000 20.85400
C  0.19100 47.00200 21.71400
N  1.47100 43.96400 25.67300
C  2.35200 44.16900 24.61700
C  3.73400 44.17300 25.06700
C  3.63300 43.86300 26.45300
C  2.22600 43.76800 26.73300
C  4.90900 44.31600 24.18500
C  4.37500 43.59300 27.63200
O  5.54800 43.57500 27.89300
C  3.25700 43.39200 28.71200
C  3.51600 42.09500 29.47300
O  3.17700 41.01900 29.05200
O  4.09700 42.25700 30.71900
C  4.31500 41.01400 31.48000
H  -3.77100 42.77500 28.97300
H  -3.70200 43.88400 22.67300
H  2.68800 44.50000 22.58800
H  0.83300 42.15100 30.42700
H  -1.82400 43.35400 30.78800
H  -2.38100 41.21100 31.23600
H  -0.71500 40.57200 30.80100
H  -2.03400 40.64200 29.66600
H  -0.08900 45.10500 30.64700
H  1.53300 44.80800 30.43000
H  -0.01100 44.95900 32.83500
H  1.65300 44.83800 32.83100
H  -6.73700 42.32800 27.15500
H  -6.72900 44.03700 27.36400
H  -5.79600 43.05100 28.45900
H  -7.77200 43.90400 25.37100
H  -7.46200 42.16400 24.92600
H  -8.00200 43.32100 23.70300
H  -1.96000 45.04400 21.06300
H  0.63600 43.64400 20.81400
H  -2.04200 42.15700 21.26200
H  -1.14000 42.75600 19.80100
H  -2.84900 43.12300 20.04600
H  0.10200 45.91400 19.85600
H  1.60300 45.76200 20.78700
H  -0.21700 47.75300 21.03700
H  1.15100 47.42200 22.01500
H  -0.41100 46.78500 22.59700
H  4.89400 45.18800 23.53100
H  4.97500 43.46000 23.51400
H  5.83400 44.30800 24.76100
H  3.33500 44.24600 29.38500
H  5.33900 40.70900 31.26600
H  3.57300 40.24800 31.25300
H  4.30200 41.12800 32.56400

