158

Mg 24.42900 1.33800 29.19100
C  26.47900 0.88200 32.11700
C  21.86700 1.63600 31.33300
C  22.53100 1.35500 26.44900
C  27.25300 0.76400 27.21400
N  24.23800 1.22600 31.50000
C  25.17700 1.18500 32.47300
C  24.63200 1.55000 33.89300
C  23.10900 1.51600 33.62500
C  23.03900 1.43700 32.06900
C  22.22200 0.46900 34.16900
C  25.20300 2.81200 34.45800
C  26.13100 2.69100 35.61900
H  25.78500 3.54000 36.85200
N  22.49800 1.38600 28.89900
C  21.56900 1.59100 29.95900
C  20.27200 1.44300 29.30400
C  20.45100 1.26400 27.90600
C  21.83700 1.36100 27.67100
C  19.04100 1.37900 30.18300
C  19.34900 0.89300 26.88900
O  19.57700 0.69500 25.68800
C  17.93800 0.77700 27.30800
N  24.83600 0.98800 27.07600
C  23.87100 1.26100 26.14800
C  24.52800 1.30700 24.76500
C  26.05300 1.45400 25.07800
C  26.04900 1.06200 26.54500
C  24.15800 0.08600 23.86900
C  26.80800 2.72100 24.69800
C  26.91500 3.84200 25.73900
N  26.40100 0.71700 29.51200
C  27.40100 0.51000 28.57500
C  28.66100 0.28700 29.29800
C  28.30800 0.43500 30.66500
C  26.92700 0.69700 30.82100
C  29.94800 0.09500 28.73100
C  28.85400 0.56400 31.98000
O  30.01000 0.45800 32.34500
C  27.69800 0.93100 33.00100
C  27.68400 0.05000 34.19200
O  27.03300 -1.01200 34.21700
O  28.42300 0.47200 35.26700
C  28.13600 -0.40600 36.48100
H  21.08000 1.90400 32.04100
H  21.97200 1.39000 25.51200
H  28.14000 0.70000 26.58000
H  24.87200 0.72300 34.56100
H  22.78300 2.52300 33.88400
H  21.64200 0.09200 33.32700
H  21.43900 0.87300 34.81100
H  22.67300 -0.37600 34.69000
H  24.38200 3.46400 34.75400
H  25.72700 3.38200 33.69100
H  27.12500 3.04900 35.35000
H  26.17100 1.65200 35.94500
H  19.20500 1.29500 31.25700
H  18.34200 0.57000 29.97000
H  18.54900 2.30300 29.88200
H  17.98200 -0.16600 27.85400
H  17.17200 0.67300 26.53900
H  17.71700 1.57500 28.01600
H  24.17500 2.16700 24.19600
H  26.56800 0.64600 24.55700
H  23.25700 -0.34800 24.30300
H  24.99600 -0.61000 23.87800
H  24.07200 0.37100 22.82000
H  26.29500 3.15200 23.83800
H  27.81300 2.46200 24.36700
H  26.41500 3.45500 26.62700
H  26.36300 4.71600 25.39500
H  27.94700 4.07200 26.00600
H  30.46700 -0.68000 29.29700
H  30.52500 1.01900 28.69700
H  29.77500 -0.23800 27.70800
H  27.95900 1.97000 33.19800
H  27.17100 -0.17100 36.93100
H  28.84000 -0.19400 37.28600
H  28.21000 -1.46700 36.24000
Mg -11.62900 16.47700 41.94200
C  -8.73700 14.36900 41.62400
C  -9.88800 19.04900 40.44700
C  -14.45100 18.17900 41.60400
C  -13.44700 13.61000 42.98900
N  -9.55800 16.66100 41.05300
C  -8.51300 15.71500 41.12100
C  -7.26100 16.30200 40.51800
C  -7.66300 17.78600 40.19200
C  -9.10800 17.84800 40.64500
C  -6.70100 18.82800 40.77500
C  -6.67800 15.57900 39.26600
C  -5.17900 16.04200 39.09100
H  -4.70600 16.45200 37.67900
N  -12.10900 18.39800 41.24600
C  -11.29400 19.24900 40.66300
C  -11.99400 20.55100 40.40700
C  -13.36200 20.26900 40.79700
C  -13.36700 18.89200 41.21000
C  -11.33100 21.82000 39.95900
C  -14.48600 21.31700 40.71300
O  -14.28100 22.47300 40.31400
C  -15.88300 21.08900 41.06400
N  -13.70300 15.89900 41.99000
C  -14.67400 16.83900 41.99500
C  -16.02800 16.20900 42.40800
C  -15.64300 14.79600 42.81200
C  -14.16500 14.76000 42.59800
C  -16.79900 17.08700 43.44400
C  -16.35200 13.63000 42.04600
C  -17.31300 12.74300 42.87200
N  -11.21900 14.43800 42.34400
C  -12.02300 13.37400 42.82300
C  -11.25300 12.15900 43.10600
C  -9.96900 12.54000 42.61200
C  -9.99400 13.93800 42.14400
C  -11.78500 10.92000 43.70200
C  -8.58700 12.00700 42.49000
O  -8.13900 10.93900 42.84400
C  -7.74800 13.21700 41.88000
C  -6.65600 13.55700 42.80900
O  -6.71900 13.54300 44.02300
O  -5.53000 13.67700 42.04700
C  -4.31200 14.03300 42.81500
H  -9.31700 19.83900 39.95400
H  -15.44000 18.64400 41.59000
H  -13.98700 12.68600 43.20800
H  -6.56700 16.24600 41.35600
H  -7.68900 18.11200 39.15300
H  -7.21000 19.62200 41.32100
H  -6.25200 19.42500 39.98100
H  -5.83100 18.40800 41.28000
H  -7.21900 15.94400 38.39300
H  -6.82800 14.51200 39.42600
H  -4.47600 15.23700 39.30800
H  -4.89400 16.90400 39.69500
H  -11.87800 22.28900 39.14100
H  -10.30500 21.71800 39.60700
H  -11.31800 22.58700 40.73400
H  -16.35400 20.48300 40.29000
H  -16.44800 22.02100 41.06800
H  -15.89700 20.60100 42.03900
H  -16.58000 16.41000 41.49000
H  -15.89000 14.61300 43.85800
H  -17.77500 17.34300 43.03000
H  -16.13600 17.88400 43.78100
H  -16.98100 16.41500 44.28300
H  -15.66500 12.95000 41.54200
H  -17.01500 14.04700 41.28800
H  -17.30600 13.10500 43.90000
H  -17.23800 11.65600 42.86500
H  -18.29700 12.94400 42.44800
H  -12.35700 10.26200 43.04700
H  -12.42100 11.16900 44.55100
H  -10.96000 10.25400 43.95700
H  -7.28200 12.84800 40.96700
H  -4.34400 15.08800 43.08600
H  -3.47800 13.78000 42.16000
H  -4.22100 13.42100 43.71200

