158

Mg 25.49900 1.10200 28.68200
C  27.36200 0.77400 31.61300
C  22.81100 1.85400 30.61400
C  23.64300 1.03800 25.80200
C  28.20300 -0.11600 26.91200
N  25.16900 1.32900 30.86000
C  26.09300 1.28600 31.85100
C  25.41900 1.63800 33.21400
C  23.97400 1.85400 32.88400
C  23.96700 1.69000 31.33100
C  22.89400 0.91400 33.60800
C  26.12800 2.79900 33.99500
C  26.67400 2.43700 35.34900
H  26.64000 3.40700 36.55600
N  23.50200 1.51600 28.23900
C  22.56100 1.83900 29.18500
C  21.28900 1.95400 28.58200
C  21.43200 1.73100 27.13900
C  22.91300 1.46600 26.97000
C  20.01000 2.08900 29.38700
C  20.35800 1.75500 26.04900
O  20.66300 1.63600 24.86300
C  18.97200 2.00700 26.31700
N  25.91800 0.50600 26.67500
C  24.96700 0.68900 25.66700
C  25.64100 0.72300 24.27800
C  27.07700 0.16500 24.58500
C  27.11200 0.26100 26.11400
C  24.85200 -0.14800 23.28600
C  28.19300 0.88800 23.80200
C  28.64800 2.29800 24.32600
N  27.40800 0.31500 29.15000
C  28.38700 -0.06400 28.26800
C  29.46800 -0.53200 29.08000
C  29.15500 -0.11400 30.38300
C  27.84800 0.37700 30.36700
C  30.78400 -1.17500 28.74300
C  29.72200 0.03900 31.71100
O  30.84700 -0.33300 32.07600
C  28.57500 0.63400 32.57200
C  28.26700 -0.25100 33.63700
O  27.54600 -1.28200 33.69100
O  28.87800 0.17100 34.88200
C  28.52700 -0.69200 36.07900
H  22.05800 2.30000 31.26700
H  23.01900 0.91900 24.91400
H  29.14900 -0.45400 26.48400
H  25.57800 0.71000 33.76300
H  23.70500 2.90000 33.03100
H  23.35100 0.49300 34.50300
H  22.45700 0.11000 33.01600
H  22.15200 1.64300 33.93300
H  25.48300 3.66000 34.17100
H  26.88500 3.18300 33.31200
H  27.74000 2.30800 35.15900
H  26.28800 1.44700 35.59000
H  19.16600 1.46000 29.10300
H  19.60300 3.08300 29.20000
H  20.24100 1.74500 30.39500
H  18.38600 2.24200 25.42900
H  18.79200 2.82700 27.01100
H  18.50800 1.15500 26.81300
H  25.75100 1.74300 23.91200
H  27.20900 -0.89200 24.35200
H  24.12300 -0.76100 23.81600
H  25.62600 -0.74800 22.80800
H  24.40600 0.48600 22.52000
H  27.92400 1.07100 22.76200
H  29.06400 0.23400 23.77700
H  28.03400 2.66600 25.14800
H  28.58900 3.02100 23.51200
H  29.62700 2.13000 24.77300
H  30.76000 -1.62000 27.74900
H  31.05200 -1.88800 29.52300
H  31.59600 -0.45500 28.63600
H  28.95800 1.54700 33.02700
H  27.56100 -0.38600 36.48100
H  29.30300 -0.42700 36.79700
H  28.60800 -1.77300 35.96400
Mg -11.72600 15.98000 41.64900
C  -8.56900 14.88600 40.89200
C  -11.15700 18.99900 40.15500
C  -15.01700 16.65200 41.83600
C  -12.41200 12.63600 42.67100
N  -10.04100 16.68300 40.37100
C  -8.79100 16.19300 40.50400
C  -7.78100 17.21800 39.94200
C  -8.62500 18.48900 39.68100
C  -10.07300 18.08400 40.25700
C  -8.05800 19.80200 40.38200
C  -7.01100 16.70500 38.68000
C  -5.62000 17.23500 38.69200
H  -5.34000 18.33600 37.70700
N  -12.91100 17.64700 41.00700
C  -12.48600 18.81500 40.57200
C  -13.59600 19.66300 40.31200
C  -14.77800 19.00000 40.76900
C  -14.24600 17.71300 41.27800
C  -13.44600 20.99600 39.57700
C  -16.24600 19.53800 40.57800
O  -16.43000 20.68500 40.15800
C  -17.44000 18.66800 40.88900
N  -13.44200 14.74400 42.24600
C  -14.69600 15.37900 42.26600
C  -15.78200 14.34400 42.62100
C  -14.98000 13.00400 42.70500
C  -13.50400 13.47700 42.64100
C  -16.50800 14.71400 43.93800
C  -15.17200 11.98400 41.45400
C  -15.45600 10.55000 41.95500
N  -10.73600 14.14300 41.82600
C  -11.05500 12.90800 42.26400
C  -9.93700 11.99900 42.23900
C  -8.80400 12.75500 41.79900
C  -9.43000 14.01200 41.45100
C  -9.90900 10.55200 42.57400
C  -7.44600 12.79500 41.63400
O  -6.53300 11.97900 41.92100
C  -7.17100 14.11700 40.88500
C  -6.16000 14.85100 41.70100
O  -6.22400 15.22600 42.84400
O  -4.98600 14.93200 40.90200
C  -3.79500 15.17900 41.77800
H  -10.92700 19.97500 39.72400
H  -16.10500 16.73500 41.86600
H  -12.67400 11.64200 43.04200
H  -7.14300 17.37000 40.81300
H  -8.66600 18.73100 38.61900
H  -8.10800 20.64700 39.69500
H  -7.07800 19.67200 40.84300
H  -8.83600 20.07400 41.09500
H  -7.48600 17.04400 37.75900
H  -7.10300 15.62000 38.64000
H  -5.05200 16.32700 38.48800
H  -5.37200 17.55900 39.70300
H  -12.57000 21.04900 38.93100
H  -13.24100 21.73800 40.34900
H  -14.34400 21.28500 39.03000
H  -18.30100 19.15800 40.43300
H  -17.46800 18.46600 41.96000
H  -17.33100 17.68300 40.43600
H  -16.48900 14.33300 41.79200
H  -15.37400 12.59300 43.63500
H  -16.90500 15.72700 43.87300
H  -15.91200 14.59800 44.84400
H  -17.24600 13.91600 44.00600
H  -14.25500 11.96000 40.86500
H  -15.94200 12.45700 40.84500
H  -16.28000 10.24300 41.31200
H  -15.56600 10.49800 43.03900
H  -14.52800 10.05300 41.67300
H  -10.71000 10.34900 43.28500
H  -8.94800 10.38500 43.06000
H  -10.13500 9.98000 41.67400
H  -6.84100 14.07900 39.84600
H  -2.90500 15.31000 41.16200
H  -3.63200 14.42400 42.54600
H  -3.98900 16.06300 42.38600

