158

Mg 44.76700 5.03200 47.85000
C  42.47600 7.58500 47.69300
C  42.21200 2.76500 47.78000
C  46.97500 2.64600 47.33300
C  47.35700 7.49400 47.25600
N  42.67300 5.22500 47.50800
C  41.87400 6.36000 47.56900
C  40.34800 6.05600 47.28100
C  40.35100 4.46100 47.58400
C  41.85900 4.10900 47.63800
C  39.34200 3.93400 48.70900
C  39.81300 6.43900 45.89500
C  40.72800 7.06400 44.78500
H  40.39000 6.56200 43.33400
N  44.59600 2.92200 47.58900
C  43.46400 2.21300 47.65700
C  43.82700 0.81900 47.51400
C  45.25900 0.69100 47.58900
C  45.68600 2.12000 47.49000
C  42.84300 -0.21600 47.37500
C  45.97700 -0.68800 47.56900
O  45.37700 -1.76200 47.53700
C  47.49800 -0.80900 47.60400
N  46.91800 5.06800 47.53500
C  47.57300 3.88200 47.35000
C  49.05700 4.16600 47.12500
C  49.19900 5.72600 46.95100
C  47.77300 6.16100 47.33100
C  49.95900 3.68700 48.20700
C  49.64200 6.14200 45.51400
C  48.92000 5.45700 44.33500
N  44.96000 7.15900 47.65500
C  46.04600 8.00800 47.50100
C  45.61700 9.32800 47.45700
C  44.19900 9.25600 47.63000
C  43.89500 7.89400 47.68600
C  46.51700 10.47400 47.12900
C  42.99500 10.02800 47.68300
O  42.69400 11.24300 47.62100
C  41.81700 8.94100 47.75800
C  40.96400 9.26000 48.97600
O  40.93800 8.67600 50.07700
O  40.10700 10.25100 48.58900
C  38.98400 10.46900 49.48100
H  41.35800 2.09900 47.63500
H  47.77600 1.90600 47.26500
H  48.13100 8.21700 46.99300
H  39.73300 6.53800 48.04100
H  39.94700 3.92700 46.72300
H  38.49500 4.58600 48.92000
H  39.90800 3.64300 49.59400
H  39.02800 2.98200 48.28100
H  39.05500 7.19200 46.11100
H  39.39900 5.52300 45.47500
H  41.69200 6.66500 45.10100
H  40.70000 8.15400 44.79400
H  42.76800 -0.85300 48.25600
H  43.12100 -1.04500 46.72400
H  41.79700 0.00100 47.15700
H  47.86000 -0.26200 48.47500
H  47.88000 -0.34500 46.69400
H  47.79300 -1.85800 47.57000
H  49.29600 3.67300 46.18300
H  49.92900 6.12600 47.65400
H  49.36800 3.58100 49.11700
H  50.70100 4.38400 48.59500
H  50.38400 2.71200 47.97100
H  50.72200 5.99100 45.52300
H  49.53500 7.21300 45.34600
H  47.95000 5.02100 44.57200
H  49.42900 4.60300 43.88800
H  48.67200 6.09300 43.48500
H  47.23900 10.10400 46.40000
H  47.00700 10.79100 48.04900
H  45.92000 11.28300 46.70900
H  41.17300 8.96800 46.87900
H  39.28400 10.64600 50.51400
H  38.28600 9.63300 49.44200
H  38.35200 11.31100 49.19600
Mg 48.44400 15.35200 27.89600
C  46.42700 15.45800 31.02000
C  50.95600 16.67900 29.69000
C  50.11100 15.43700 24.97400
C  45.52500 14.14900 26.35300
N  48.50900 16.34800 30.10100
C  47.73000 16.08100 31.13800
C  48.46900 16.43100 32.48500
C  49.84300 16.99500 31.95400
C  49.84300 16.58400 30.49300
C  50.14000 18.55100 32.18600
C  48.59500 15.26200 33.49900
C  47.83300 15.42500 34.85600
H  47.68600 16.84500 35.42500
N  50.28200 16.10600 27.40800
C  51.19500 16.52200 28.27800
C  52.37600 16.86900 27.50900
C  52.19900 16.40500 26.17400
C  50.77100 15.95900 26.11600
C  53.53000 17.63200 28.13900
C  53.17500 16.43700 25.02700
O  52.86100 15.91600 23.92000
C  54.59100 17.02600 25.18700
N  47.87100 14.89500 25.98700
C  48.68100 15.13500 24.90700
C  48.02700 14.80400 23.54000
C  46.74800 14.18100 23.97200
C  46.66800 14.45200 25.53800
C  48.01100 15.91100 22.42000
C  46.61000 12.69900 23.56800
C  47.45200 11.62200 24.33700
N  46.39000 14.85900 28.53800
C  45.38000 14.33700 27.73600
C  44.16900 14.08600 28.57200
C  44.61700 14.39000 29.88500
C  45.94200 14.95000 29.80000
C  42.92400 13.53300 28.10800
C  44.21200 14.34100 31.31800
O  43.12100 14.13100 31.77600
C  45.45300 14.99100 32.08100
C  44.87000 16.19500 32.81200
O  44.78600 17.36800 32.42300
O  44.34900 15.86100 34.04000
C  43.63400 16.79000 34.92100
H  51.79000 16.99700 30.31900
H  50.62200 15.60500 24.02400
H  44.65800 13.67600 25.88800
H  47.86200 17.22100 32.92600
H  50.73700 16.55100 32.39300
H  49.23000 18.95500 32.63100
H  50.24500 19.02300 31.21000
H  50.91700 18.75400 32.92300
H  49.64600 15.09900 33.73700
H  48.19600 14.38000 32.99800
H  48.43100 14.92600 35.61900
H  46.86000 14.93600 34.91000
H  53.39500 18.67000 27.83700
H  54.43400 17.10400 27.83600
H  53.46700 17.66200 29.22700
H  55.18900 16.41300 25.86100
H  54.58000 18.03900 25.58900
H  55.11400 17.07400 24.23100
H  48.60700 13.95700 23.17400
H  45.98600 14.79000 23.48600
H  48.68100 16.71600 22.72200
H  47.05300 16.43000 22.41200
H  48.47900 15.58100 21.49300
H  46.71200 12.63600 22.48500
H  45.58700 12.50700 23.89200
H  47.90600 10.97400 23.58700
H  46.74500 11.10800 24.98800
H  48.18000 12.20700 24.89800
H  42.04500 13.93900 28.60800
H  42.83300 12.51100 28.47600
H  42.89400 13.70000 27.03100
H  45.90100 14.28200 32.77600
H  44.35600 17.52800 35.27200
H  43.09100 16.29600 35.72600
H  42.86700 17.31400 34.35100

