158

Mg 25.26400 1.37900 29.38800
C  27.37300 1.28100 32.16800
C  22.60800 1.85800 31.51600
C  23.18000 1.30500 26.59800
C  28.03300 0.78600 27.39400
N  25.02400 1.59200 31.62600
C  26.00800 1.48500 32.52500
C  25.38400 1.46900 33.91000
C  23.83700 1.55800 33.67800
C  23.80400 1.75700 32.19000
C  23.00800 0.36600 34.14700
C  25.94100 2.74300 34.55000
C  26.69200 2.49800 35.81100
H  26.56600 3.38900 37.06100
N  23.23900 1.42700 29.15000
C  22.36100 1.67600 30.12500
C  20.97900 1.54200 29.62100
C  21.09300 1.42200 28.20900
C  22.55900 1.31400 27.89800
C  19.72400 1.56000 30.57200
C  20.07700 1.47100 27.27600
O  20.26600 1.33400 26.10100
C  18.64000 1.76500 27.62700
N  25.50100 1.02900 27.34400
C  24.56200 1.23000 26.36300
C  25.26100 1.25700 24.97800
C  26.79600 1.27500 25.22400
C  26.80300 1.03600 26.77100
C  24.73400 0.24700 23.97600
C  27.59900 2.49700 24.73500
C  27.16600 3.87500 25.22400
N  27.34100 1.08600 29.64800
C  28.30400 0.69500 28.74900
C  29.57300 0.45600 29.43600
C  29.22700 0.72900 30.73300
C  27.90300 1.08800 30.86400
C  30.85000 0.01700 28.83800
C  29.80400 0.83500 32.06400
O  30.94500 0.57700 32.41800
C  28.54300 1.13800 33.04800
C  28.46500 -0.01400 33.85100
O  28.00800 -1.10400 33.59200
O  29.07000 0.29300 34.98300
C  29.06000 -0.68900 36.05300
H  21.80400 2.11300 32.21000
H  22.54200 1.50700 25.73500
H  28.92700 0.63200 26.78700
H  25.64000 0.52200 34.38600
H  23.34900 2.45200 34.06600
H  22.07400 0.70600 34.59300
H  23.53100 -0.13300 34.96300
H  22.70600 -0.36800 33.40000
H  25.11100 3.41000 34.77900
H  26.58800 3.30000 33.87200
H  27.75900 2.51500 35.58800
H  26.29200 1.53200 36.11900
H  18.99400 0.90000 30.10400
H  19.34800 2.57700 30.68100
H  20.09500 1.11300 31.49400
H  18.05100 1.89500 26.71900
H  18.45100 2.70500 28.14600
H  18.18500 0.88600 28.08300
H  25.02000 2.24000 24.57400
H  27.37000 0.43500 24.83400
H  24.12900 0.80600 23.26300
H  24.14600 -0.56700 24.40000
H  25.59500 -0.09000 23.39900
H  27.45200 2.49700 23.65500
H  28.62700 2.29100 25.03400
H  26.52100 3.63700 26.07000
H  26.56400 4.41000 24.49000
H  27.96600 4.55800 25.51200
H  31.59800 -0.00100 29.63100
H  31.15600 0.82000 28.16700
H  30.66200 -0.94500 28.36100
H  28.74800 2.06300 33.58700
H  29.27200 -1.71400 35.75000
H  28.06900 -0.76200 36.50100
H  29.78300 -0.38500 36.81000
Mg -1.67100 34.43100 27.27700
C  -3.05300 32.53800 29.87500
C  0.15500 36.14100 29.59900
C  -0.33700 36.11500 24.70000
C  -3.47900 32.58800 25.05200
N  -1.65000 34.48200 29.41300
C  -2.24600 33.61900 30.29800
C  -1.93100 34.02900 31.73900
C  -0.97200 35.24000 31.59200
C  -0.86200 35.37100 30.09900
C  -1.61300 36.51300 32.10100
C  -1.29100 32.87700 32.53600
C  -0.94000 33.25400 34.04300
H  -1.43200 32.36400 35.22100
N  -0.25700 35.91700 27.19400
C  0.42400 36.42000 28.24300
C  1.55500 37.29400 27.74200
C  1.39300 37.32500 26.31500
C  0.20400 36.42800 25.99400
C  2.49900 38.09300 28.71600
C  2.24200 38.03000 25.40600
O  2.13800 37.97600 24.20500
C  3.41900 38.78800 25.82200
N  -1.98100 34.48000 25.15200
C  -1.31600 35.24700 24.27700
C  -1.53400 34.81600 22.80100
C  -2.34500 33.56900 22.99000
C  -2.63700 33.49400 24.51700
C  -2.27400 35.87300 21.93400
C  -1.49200 32.47800 22.38200
C  -0.50000 31.78200 23.29700
N  -3.03500 32.93600 27.37300
C  -3.68600 32.26900 26.34800
C  -4.62200 31.21100 26.91700
C  -4.37700 31.27600 28.30400
C  -3.38700 32.28800 28.50500
C  -5.59400 30.39600 26.19600
C  -4.61100 30.58500 29.56800
O  -5.33400 29.65300 29.82400
C  -3.72500 31.31000 30.62100
C  -4.73900 31.67700 31.67300
O  -5.84200 32.20000 31.53800
O  -4.23100 31.25100 32.87900
C  -5.10700 31.38200 34.09600
H  0.73800 36.63700 30.37800
H  0.27500 36.58000 23.92400
H  -3.80300 31.91100 24.25900
H  -2.93200 34.18900 32.14000
H  -0.00300 35.10800 32.07300
H  -2.54600 36.30700 32.62500
H  -1.72500 37.22500 31.28300
H  -0.99800 37.03500 32.83500
H  -0.27200 32.72500 32.18000
H  -1.88600 31.97000 32.43500
H  -1.35500 34.23700 34.26200
H  0.14200 33.37100 34.10400
H  2.43000 37.74600 29.74700
H  2.22800 39.14500 28.63400
H  3.52900 37.84600 28.45900
H  4.01400 39.01300 24.93700
H  4.01800 38.22000 26.53400
H  3.14800 39.74000 26.27900
H  -0.51800 34.70900 22.42300
H  -3.30200 33.47600 22.47700
H  -1.56400 36.17100 21.16300
H  -2.63300 36.75000 22.47400
H  -3.01600 35.32700 21.35200
H  -0.77700 32.83800 21.64200
H  -2.11800 31.68300 21.97800
H  -0.57500 32.11300 24.33300
H  0.53000 32.08700 23.11400
H  -0.37500 30.72100 23.08000
H  -5.23500 29.37200 26.29500
H  -5.52400 30.49800 25.11300
H  -6.59400 30.47900 26.62200
H  -2.98900 30.64000 31.06500
H  -5.81500 32.17400 33.85200
H  -4.41300 31.56700 34.91500
H  -5.60600 30.45400 34.37500

