158

Mg 1.88800 -1.50600 43.21700
C  5.36600 -1.09300 42.83300
C  1.40100 1.37000 41.25900
C  -1.38600 -2.26500 42.90400
C  2.48200 -4.72700 44.54400
N  3.14000 -0.10100 42.14100
C  4.54000 -0.07800 42.18800
C  5.16200 1.05100 41.45700
C  3.85000 2.08600 41.33900
C  2.70700 1.05900 41.61800
C  3.86700 3.31300 42.29900
C  5.77200 0.71400 40.03200
C  6.69100 1.83800 39.50900
H  6.29400 2.51700 38.17500
N  0.24300 -0.56400 42.32900
C  0.25400 0.58000 41.50200
C  -1.13800 0.83700 41.07800
C  -1.96800 -0.14800 41.61600
C  -1.06200 -1.02800 42.39300
C  -1.60000 1.93400 40.20400
C  -3.46600 -0.19900 41.42300
O  -4.10000 0.65100 40.78800
C  -4.33200 -1.25700 42.08300
N  0.74500 -3.31200 43.61100
C  -0.60000 -3.24800 43.58000
C  -1.23500 -4.54300 43.94100
C  -0.02000 -5.36400 44.52100
C  1.16900 -4.45300 44.11700
C  -2.43900 -4.51300 44.99400
C  0.10300 -6.80600 43.91200
C  0.36100 -7.93200 44.91200
N  3.53500 -2.61800 43.80600
C  3.66800 -3.87600 44.36100
C  5.04200 -4.16600 44.60400
C  5.79500 -3.18100 44.01300
C  4.85200 -2.20100 43.54500
C  5.44100 -5.44400 45.27200
C  7.06200 -2.62400 43.62400
O  8.18400 -3.09100 43.81600
C  6.86100 -1.35900 42.85600
C  7.52300 -0.22200 43.43900
O  7.21900 0.44000 44.42800
O  8.68500 -0.00600 42.70900
C  9.13700 1.35400 42.81200
H  1.32200 2.27900 40.65900
H  -2.42100 -2.61400 42.93100
H  2.57500 -5.73300 44.95800
H  5.91000 1.54200 42.08100
H  3.81700 2.33900 40.27900
H  2.88900 3.49700 42.74400
H  4.04000 4.14700 41.61900
H  4.62300 3.17300 43.07200
H  4.96000 0.61400 39.31100
H  6.25000 -0.26500 40.02200
H  7.70000 1.42400 39.51800
H  6.69400 2.57400 40.31300
H  -0.78600 2.65100 40.10400
H  -2.38400 2.53900 40.65800
H  -1.91200 1.60500 39.21300
H  -5.38800 -1.17900 41.82800
H  -4.09200 -1.15600 43.14200
H  -3.92100 -2.19800 41.71800
H  -1.48900 -5.15200 43.07300
H  -0.08500 -5.32100 45.60800
H  -3.40400 -4.71900 44.53100
H  -2.41300 -3.53300 45.46900
H  -2.29900 -5.37800 45.64200
H  1.05200 -6.83700 43.37600
H  -0.80200 -6.99000 43.33300
H  1.30200 -8.44200 44.70400
H  -0.48000 -8.61500 44.79200
H  0.23300 -7.51700 45.91200
H  6.53000 -5.40400 45.25600
H  5.26900 -6.32200 44.65000
H  5.17400 -5.65300 46.30800
H  7.07200 -1.51900 41.79900
H  10.10100 1.39300 42.30500
H  9.23800 1.70100 43.84100
H  8.43200 2.10700 42.45800
Mg 35.91800 1.43400 29.71600
C  33.88300 2.66800 32.18000
C  38.62700 1.42600 31.96300
C  37.88800 0.76100 27.17100
C  33.27600 2.05700 27.38500
N  36.20600 2.07800 31.74500
C  35.21500 2.42300 32.62600
C  35.79700 2.60700 34.04000
C  37.33300 2.31100 33.89800
C  37.39800 1.88600 32.41500
C  38.29500 3.56800 34.07700
C  35.02300 1.99900 35.25100
C  35.83000 1.45000 36.47700
H  36.15100 2.44700 37.58400
N  38.02100 0.96700 29.62100
C  38.92500 1.06000 30.66100
C  40.17200 0.63500 30.12900
C  40.03500 0.45200 28.75100
C  38.59300 0.72700 28.44400
C  41.47400 0.44100 30.95500
C  41.05300 0.01600 27.59500
O  40.68700 -0.06100 26.43200
C  42.42100 -0.35100 27.91200
N  35.62300 1.41100 27.60900
C  36.63900 1.03100 26.77600
C  36.14400 0.92700 25.26500
C  34.57000 1.22000 25.43900
C  34.49500 1.53200 26.91900
C  36.89600 1.90600 24.29600
C  33.61500 0.17600 24.97100
C  33.21000 -0.96000 25.93100
N  33.94600 2.09300 29.72900
C  33.06100 2.37800 28.72800
C  31.73200 2.78800 29.33500
C  32.06700 2.93500 30.68900
C  33.40100 2.49800 30.85800
C  30.49000 2.99700 28.54800
C  31.51800 3.30500 31.97700
O  30.35300 3.61200 32.23400
C  32.66800 3.12500 32.99000
C  32.83300 4.51800 33.60900
O  33.65000 5.35600 33.20100
O  32.05400 4.49600 34.74100
C  32.21700 5.72600 35.52500
H  39.39700 1.56400 32.72400
H  38.55400 0.54200 26.33400
H  32.46300 2.18300 26.66700
H  35.63900 3.65900 34.27900
H  37.65200 1.44600 34.48000
H  37.80000 4.34600 34.65800
H  38.79100 3.96500 33.19200
H  39.11000 3.25000 34.72700
H  34.64500 1.08100 34.80000
H  34.19900 2.60600 35.62500
H  36.78600 1.03400 36.16000
H  35.30900 0.63100 36.97300
H  42.15500 1.24600 30.67700
H  42.01100 -0.47400 30.70700
H  41.08000 0.59700 31.95900
H  43.03700 -0.53300 27.03100
H  42.37400 -1.32300 28.40300
H  42.85100 0.51700 28.41300
H  36.22700 -0.07300 24.83900
H  34.23300 2.09700 24.88700
H  36.12700 2.53000 23.84000
H  37.48300 1.33400 23.57800
H  37.61200 2.47100 24.89200
H  34.04100 -0.25500 24.06600
H  32.71300 0.71900 24.69000
H  32.13000 -1.07800 25.84800
H  33.43500 -0.95100 26.99800
H  33.46800 -1.87400 25.39700
H  30.56100 2.34200 27.68000
H  30.16500 4.00900 28.31000
H  29.74800 2.48700 29.16300
H  32.33300 2.39100 33.72200
H  31.72900 6.47400 34.90100
H  33.25800 6.01700 35.66600
H  31.72800 5.40700 36.44600

