158

Mg 0.12600 8.03500 26.90500
C  0.48000 10.18100 29.69000
C  0.57300 5.30200 29.26400
C  -0.25700 5.97900 24.45500
C  0.07200 10.82100 24.81500
N  0.36800 7.77700 29.24400
C  0.33600 8.82700 30.10000
C  0.30600 8.30200 31.54500
C  0.80900 6.83600 31.38000
C  0.56400 6.59500 29.88300
C  2.27500 6.58800 31.81300
C  -1.12900 8.58400 32.14700
C  -1.45800 7.77400 33.41700
H  -0.35900 7.56300 34.40600
N  0.11600 6.03600 26.85900
C  0.23100 5.06800 27.95800
C  0.14500 3.71400 27.33100
C  -0.21300 3.88900 25.96900
C  -0.06700 5.36800 25.64100
C  0.45800 2.40600 28.08100
C  -0.46400 2.82300 24.89200
O  -0.81800 3.10500 23.79200
C  -0.51100 1.35100 25.19000
N  0.15600 8.33900 24.92500
C  -0.10100 7.31400 24.06200
C  -0.42400 7.79800 22.60100
C  -0.46200 9.37100 22.75900
C  -0.05100 9.52000 24.25000
C  0.45200 7.16100 21.53800
C  -1.96200 9.95500 22.59700
C  -2.05500 11.41900 22.07600
N  0.39200 10.00900 27.04600
C  0.30400 11.10000 26.15500
C  0.62100 12.32100 26.82800
C  0.73400 11.95100 28.15700
C  0.46400 10.60200 28.28000
C  0.76600 13.71600 26.24600
C  0.99400 12.50800 29.43100
O  1.20100 13.68600 29.72700
C  0.75400 11.43500 30.46000
C  1.93000 11.40500 31.36600
O  2.97100 10.80700 31.20000
O  1.52200 12.04600 32.50200
C  2.37900 11.92300 33.67600
H  0.91300 4.51900 29.94600
H  -0.41300 5.32700 23.59300
H  0.06500 11.70300 24.17100
H  0.98900 8.98800 32.04600
H  0.11300 6.15200 31.86600
H  2.80600 7.48900 32.12000
H  2.88200 6.03000 31.10000
H  2.29900 5.96100 32.70400
H  -1.87200 8.12700 31.49400
H  -1.34900 9.64500 32.27200
H  -1.85300 6.80600 33.10700
H  -2.28000 8.18700 34.00200
H  -0.47500 1.90500 28.33700
H  0.99500 2.55700 29.01800
H  1.09100 1.85200 27.38800
H  0.42000 0.96000 25.60000
H  -0.72200 0.79300 24.27800
H  -1.29200 1.12600 25.91700
H  -1.36700 7.27600 22.43500
H  0.13600 10.03300 22.13300
H  1.31100 6.72500 22.04800
H  0.78300 7.90300 20.81000
H  -0.11700 6.39000 21.01800
H  -2.39500 9.87000 23.59300
H  -2.71900 9.37400 22.07000
H  -2.59600 11.33100 21.13400
H  -1.08800 11.89600 21.91900
H  -2.59600 12.06200 22.77000
H  0.64500 13.63500 25.16600
H  1.71800 14.17400 26.51300
H  -0.05500 14.32300 26.62900
H  -0.21900 11.55800 30.93500
H  3.43600 11.73700 33.48500
H  1.94900 11.30500 34.46300
H  2.35700 12.92800 34.09800
Mg 43.22000 42.57700 26.42000
C  41.96200 44.93500 28.98100
C  44.72600 40.82100 28.98300
C  44.32000 40.59600 24.10800
C  41.93100 44.86500 24.04100
N  43.41000 42.86200 28.70800
C  42.68600 43.80000 29.53600
C  42.68300 43.32500 31.06700
C  43.70100 42.08900 31.01800
C  43.97400 41.91100 29.51300
C  44.94900 42.17400 31.93400
C  41.28200 43.07200 31.54900
C  41.11800 42.33400 32.85200
H  40.49000 42.91500 34.03300
N  44.38300 40.97600 26.50700
C  44.94000 40.39800 27.61400
C  45.65000 39.20300 27.19300
C  45.61300 39.17700 25.79600
C  44.75000 40.33100 25.43800
C  46.30700 38.18300 28.16600
C  46.28900 38.17500 24.83800
O  46.22700 38.22800 23.61700
C  47.10800 37.02000 25.36500
N  43.21900 42.79100 24.34000
C  43.59800 41.71700 23.64600
C  43.37300 41.96200 22.23800
C  42.33000 43.13800 22.20600
C  42.50600 43.65200 23.61200
C  44.66700 42.36300 21.48100
C  40.92100 42.63100 21.93500
C  40.43700 41.58500 22.87900
N  42.38500 44.58100 26.40900
C  41.91900 45.36600 25.38500
C  41.44900 46.64500 25.85200
C  41.35500 46.44800 27.22200
C  42.00500 45.21900 27.58700
C  40.96400 47.86100 25.08500
C  40.91700 47.08600 28.45300
O  40.39000 48.20900 28.59900
C  41.30000 46.12300 29.66000
C  42.21500 46.77300 30.67900
O  43.20900 47.46200 30.47000
O  41.66400 46.58400 31.91700
C  42.46200 47.11100 33.01400
H  45.12600 40.18400 29.77400
H  44.46900 39.80800 23.36700
H  41.35200 45.48700 23.35500
H  43.16600 44.09800 31.66600
H  43.17000 41.17100 31.27100
H  45.00900 43.19000 32.32400
H  45.80400 41.89100 31.32000
H  44.77600 41.44400 32.72500
H  40.72700 42.52500 30.78700
H  40.96100 44.11300 31.57700
H  42.14900 42.15300 33.15500
H  40.69700 41.35700 32.61700
H  45.77100 37.23400 28.15700
H  46.22200 38.49700 29.20600
H  47.35700 38.06600 27.89800
H  46.56000 36.31600 25.99200
H  47.95800 37.48000 25.86900
H  47.40800 36.43400 24.49600
H  42.80100 41.10500 21.88400
H  42.69400 43.93200 21.55500
H  45.50300 41.98900 22.07200
H  44.88800 43.41300 21.28900
H  44.75300 41.85400 20.52000
H  40.91700 42.41700 20.86700
H  40.26800 43.50300 21.95200
H  39.71800 42.04400 23.55700
H  41.15100 41.01800 23.47700
H  39.88500 40.80700 22.35300
H  41.31900 48.06200 24.07500
H  41.26300 48.72300 25.68200
H  39.88500 47.90300 24.93900
H  40.39800 45.65900 30.05900
H  42.15300 46.72300 33.98400
H  42.37500 48.18700 33.16100
H  43.48900 46.78800 32.84200

