158

Mg -0.24600 7.01000 25.05500
C  0.71800 8.97900 27.89200
C  0.06300 4.23700 27.09000
C  -1.23400 5.12300 22.45500
C  0.34600 9.69400 23.03500
N  0.42000 6.68300 27.25800
C  0.63100 7.65300 28.25600
C  0.74300 7.06200 29.68100
C  0.55100 5.56300 29.31400
C  0.30600 5.47900 27.78300
C  1.69300 4.56400 29.80000
C  -0.34000 7.66300 30.61800
C  0.06600 7.92400 32.07100
H  1.11800 6.97800 32.72000
N  -0.52400 4.92700 24.79200
C  -0.29900 3.96000 25.72700
C  -0.66900 2.62300 25.16200
C  -1.03700 2.90400 23.79100
C  -0.96200 4.34600 23.62500
C  -0.47600 1.32400 25.98100
C  -1.42300 1.93400 22.68700
O  -1.79700 2.24500 21.57500
C  -1.29200 0.45600 23.09000
N  -0.49600 7.38500 23.12700
C  -0.99200 6.46500 22.23900
C  -1.20400 7.11300 20.79900
C  -0.96300 8.56100 21.20100
C  -0.22600 8.51800 22.51500
C  -0.14600 6.50900 19.84200
C  -2.31200 9.37200 21.32700
C  -2.44000 10.73100 20.57300
N  0.31700 8.97100 25.33000
C  0.56400 9.96100 24.41300
C  0.92200 11.20400 25.10000
C  0.90600 10.90100 26.52800
C  0.61700 9.50700 26.59800
C  1.13800 12.52700 24.48400
C  1.08500 11.49200 27.85600
O  1.41700 12.63100 28.16400
C  0.84100 10.26800 28.80600
C  2.02400 10.27600 29.69100
O  3.11700 9.84500 29.33000
O  1.72200 10.63100 30.96200
C  2.88400 10.87400 31.74900
H  0.06000 3.43100 27.82600
H  -1.67100 4.60700 21.59700
H  0.54200 10.52000 22.34900
H  1.78000 7.20800 29.98400
H  -0.28900 5.12300 29.85000
H  2.34000 5.02100 30.54900
H  2.30900 4.21300 28.97300
H  1.13800 3.70300 30.17200
H  -1.19600 6.98800 30.64100
H  -0.61800 8.60600 30.14800
H  -0.83900 7.92000 32.67900
H  0.48200 8.93200 32.06500
H  0.21000 0.60600 25.53100
H  -1.37600 0.71100 25.93600
H  -0.10100 1.46200 26.99500
H  -2.00300 0.24100 23.88700
H  -0.26700 0.34000 23.44400
H  -1.51400 -0.14900 22.21100
H  -2.16700 6.83600 20.37200
H  -0.26000 9.03100 20.51300
H  0.78800 7.07100 19.84900
H  -0.55600 6.43700 18.83500
H  0.23500 5.52700 20.12100
H  -2.56800 9.36700 22.38700
H  -3.04700 8.72700 20.84700
H  -1.47000 11.18100 20.36000
H  -3.14200 11.33400 21.14900
H  -2.78100 10.46500 19.57200
H  1.77700 13.14700 25.11300
H  0.19400 13.07100 24.48000
H  1.64700 12.48800 23.52100
H  -0.04200 10.48300 29.40700
H  2.57200 11.15100 32.75500
H  3.56200 11.59700 31.29500
H  3.39100 9.91900 31.88300
Mg 43.16600 42.01200 26.05900
C  42.40500 44.30200 28.58300
C  43.85600 39.67700 28.37500
C  44.14000 39.93200 23.55900
C  42.88900 44.55100 23.69900
N  43.32200 42.09400 28.25900
C  42.68900 43.07000 29.04300
C  42.59000 42.65400 30.49700
C  43.20200 41.15000 30.45300
C  43.47100 40.92700 28.91600
C  44.54300 41.08300 31.28800
C  41.16900 42.61000 31.11500
C  41.20100 42.12200 32.51700
H  41.10700 43.24500 33.61500
N  43.82900 40.05500 25.98700
C  44.12500 39.28900 27.07400
C  44.53300 37.96900 26.65100
C  44.46700 37.98400 25.20500
C  44.17100 39.38500 24.85300
C  44.98800 36.77100 27.57300
C  44.57700 36.85500 24.29900
O  44.49300 37.08900 23.08100
C  44.77700 35.43400 24.74600
N  43.61200 42.19600 23.96400
C  43.89400 41.22200 23.13200
C  44.14700 41.67300 21.72500
C  43.49200 43.03300 21.72000
C  43.37800 43.29900 23.20400
C  45.64500 41.85300 21.30100
C  42.12300 43.08800 21.01200
C  40.87600 42.29000 21.61800
N  42.72100 43.99300 26.09900
C  42.61800 44.88400 25.04500
C  42.12100 46.15600 25.57400
C  41.95400 45.93400 26.96400
C  42.46500 44.64000 27.20100
C  41.92000 47.45300 24.96100
C  41.51500 46.56200 28.16200
O  41.06500 47.70800 28.33100
C  41.90000 45.61700 29.34500
C  42.95500 46.19000 30.13700
O  44.13600 46.11500 29.92100
O  42.34600 46.75500 31.26600
C  43.17900 47.29400 32.31100
H  43.89400 38.99500 29.22700
H  44.61400 39.38800 22.74000
H  42.54100 45.38700 23.08800
H  43.17400 43.29600 31.15600
H  42.45300 40.44100 30.80500
H  45.21900 41.86200 30.93400
H  44.96600 40.07900 31.24500
H  44.41000 41.29400 32.34900
H  40.51800 41.99400 30.49500
H  40.75300 43.61500 31.03800
H  42.12400 41.66300 32.87100
H  40.45100 41.34700 32.67000
H  44.28300 35.94200 27.50300
H  44.99100 37.20100 28.57400
H  46.03900 36.48500 27.52400
H  45.03000 34.81900 23.88200
H  43.82200 35.15300 25.19100
H  45.66400 35.37800 25.37700
H  43.56700 40.97500 21.12100
H  44.12100 43.83500 21.33300
H  45.71400 41.50500 20.27000
H  46.21000 41.25700 22.01800
H  46.02300 42.86900 21.41900
H  42.29300 42.59200 20.05700
H  41.73400 44.10700 21.01500
H  41.20200 41.54000 22.33900
H  40.38600 41.74800 20.81000
H  40.17000 42.90100 22.18100
H  41.03600 47.32900 24.33500
H  42.72200 47.47800 24.22300
H  42.09200 48.39100 25.48800
H  40.98200 45.46200 29.91200
H  44.24400 47.37200 32.09400
H  43.21600 46.56100 33.11700
H  42.70200 48.15600 32.77700

