158

Mg 43.38200 3.31400 47.20000
C  41.31800 5.97600 46.59900
C  40.60600 1.29100 47.35900
C  45.48300 0.73800 47.52400
C  46.20600 5.55400 46.86600
N  41.22100 3.57700 46.85700
C  40.63000 4.74700 46.59400
C  39.15200 4.61400 46.63100
C  38.91000 3.16700 47.20900
C  40.29800 2.64700 47.17300
C  38.38800 3.15800 48.71600
C  38.53900 4.85300 45.22100
C  37.26200 5.79400 45.06900
H  36.76800 6.12000 43.70500
N  43.03000 1.24600 47.14100
C  41.84900 0.63600 47.26800
C  42.03900 -0.79200 47.25200
C  43.48600 -0.94300 47.27300
C  44.10800 0.41800 47.30500
C  40.98900 -1.94100 47.26000
C  44.24100 -2.29200 47.14200
O  43.56000 -3.35500 46.91700
C  45.76900 -2.41900 47.18100
N  45.52200 3.11400 47.09400
C  46.14800 1.92300 47.42500
C  47.68200 2.07700 47.56100
C  47.91900 3.64500 47.29400
C  46.48900 4.18500 47.06700
C  48.26200 1.68000 48.98600
C  48.92200 3.95500 46.15000
C  50.35300 4.50500 46.41900
N  43.71700 5.36300 46.92800
C  44.88500 6.13000 46.80300
C  44.47100 7.54900 46.66200
C  43.08000 7.49200 46.58700
C  42.67900 6.14600 46.72700
C  45.38800 8.70600 46.40100
C  41.84400 8.33300 46.40000
O  41.70800 9.50200 45.97500
C  40.65600 7.33500 46.53800
C  39.86200 7.85900 47.74100
O  39.93400 7.39400 48.87500
O  39.08000 8.93300 47.42700
C  38.19900 9.54000 48.45200
H  39.85400 0.56700 47.68200
H  46.22200 0.01500 47.87500
H  47.11500 6.15900 46.84200
H  38.62500 5.36000 47.22600
H  38.26100 2.54500 46.59200
H  38.04400 4.14600 49.02500
H  39.09600 2.68200 49.39400
H  37.52700 2.49000 48.73900
H  38.21100 3.86600 44.89400
H  39.28100 5.05600 44.44800
H  37.53100 6.67100 45.65800
H  36.49400 5.32900 45.68700
H  40.92100 -2.36200 46.25600
H  39.99900 -1.50600 47.39100
H  41.17500 -2.76600 47.94800
H  46.19200 -1.77300 46.41100
H  46.14300 -3.43700 47.08200
H  46.10900 -2.28200 48.20800
H  48.23600 1.53800 46.79300
H  48.30200 4.23100 48.13000
H  47.68700 0.89400 49.47500
H  48.25900 2.47600 49.73100
H  49.31000 1.38000 48.96200
H  48.58400 4.69700 45.42800
H  49.15100 3.06800 45.56000
H  50.46700 4.64500 47.49400
H  50.44300 5.43000 45.84900
H  51.14000 3.89600 45.97600
H  44.80500 9.61600 46.54000
H  45.74500 8.56100 45.38100
H  46.27000 8.63000 47.03700
H  40.03100 7.50200 45.66000
H  38.56900 9.27800 49.44300
H  37.21900 9.14000 48.19000
H  38.16900 10.62700 48.37700
Mg 9.44400 46.48100 26.53700
C  7.44900 46.15900 29.27000
C  12.11900 47.03400 28.58300
C  11.27300 46.90900 23.80300
C  6.47700 46.75000 24.52000
N  9.67300 46.57800 28.61800
C  8.76500 46.44600 29.56500
C  9.35200 46.80900 30.89400
C  10.70700 47.41400 30.59700
C  10.85800 46.90400 29.16300
C  10.87900 48.98600 30.69900
C  9.40500 45.65600 31.92400
C  8.86200 46.06300 33.38600
H  9.39800 45.28500 34.51000
N  11.43400 46.82300 26.22100
C  12.44900 47.02800 27.22800
C  13.68400 47.14200 26.46500
C  13.47400 47.13200 25.07000
C  12.02500 46.98600 24.99300
C  14.93600 47.49000 27.04700
C  14.30700 47.13800 23.86200
O  13.93600 46.89700 22.69100
C  15.76300 47.38500 24.03200
N  8.96300 46.87800 24.49100
C  9.94300 46.98100 23.55300
C  9.27700 47.06100 22.13100
C  7.72100 46.94100 22.44000
C  7.69000 46.85200 23.90700
C  9.68800 48.35900 21.23500
C  7.09900 45.72900 21.61900
C  6.11400 46.10400 20.58100
N  7.34800 46.30900 26.73400
C  6.28500 46.49200 25.84900
C  5.07700 46.18300 26.54700
C  5.44600 46.14300 27.90000
C  6.88000 46.11000 27.94600
C  3.81000 46.01700 25.87000
C  5.00300 45.94600 29.30600
O  3.87800 45.75300 29.73000
C  6.26700 46.09400 30.17700
C  6.16300 44.87600 31.08900
O  6.58000 43.76000 30.81700
O  5.36600 45.25000 32.16300
C  5.51500 44.50200 33.41800
H  12.99600 47.32700 29.16300
H  11.78200 46.76600 22.84700
H  5.61500 46.64200 23.85800
H  8.63500 47.49000 31.35300
H  11.42900 47.01200 31.30800
H  10.86100 49.39900 29.69100
H  11.71600 49.20000 31.36400
H  10.06700 49.54800 31.16100
H  10.44400 45.33600 32.00900
H  8.81500 44.82300 31.54100
H  7.78300 45.93000 33.30200
H  9.01500 47.12200 33.58900
H  15.78000 46.81000 26.92400
H  14.82900 47.69600 28.11200
H  15.33700 48.39100 26.58100
H  16.11900 46.54600 24.63100
H  15.83100 48.40300 24.41700
H  16.38700 47.40700 23.13800
H  9.63900 46.13400 21.68800
H  7.22500 47.86900 22.15800
H  8.77100 48.86300 20.93100
H  10.24000 47.87900 20.42700
H  10.28500 48.95000 21.93000
H  6.74600 44.84800 22.15600
H  7.85900 45.35400 20.93300
H  5.24000 45.45400 20.62800
H  6.53300 46.00500 19.58000
H  5.74800 47.13000 20.54800
H  3.82000 46.40000 24.85000
H  3.07600 46.50300 26.51200
H  3.41400 45.00200 25.84000
H  6.10100 46.98400 30.78300
H  5.70000 45.23200 34.20600
H  6.37800 43.83600 33.41600
H  4.61900 43.91100 33.60700

