158

Mg 1.56500 42.26300 26.05300
C  2.61300 42.35500 29.39100
C  -1.41800 41.05300 26.96800
C  0.72500 41.85500 22.70400
C  4.69300 43.55200 25.08000
N  0.77200 41.75300 27.98400
C  1.25600 42.01600 29.27500
C  0.25800 41.60500 30.33500
C  -0.88000 40.90000 29.49000
C  -0.51500 41.25900 28.08600
C  -1.17000 39.37200 29.62900
C  -0.15100 42.84500 31.16800
C  -0.34300 42.62400 32.73200
H  -1.00200 41.25500 33.07300
N  -0.18400 41.70100 25.05000
C  -1.38400 41.24000 25.57200
C  -2.36700 41.07900 24.50300
C  -1.74300 41.22700 23.26500
C  -0.30300 41.54200 23.61100
C  -3.82600 40.69900 24.89000
C  -2.28100 40.99300 21.85000
O  -1.60000 41.12200 20.85000
C  -3.79900 40.71700 21.72500
N  2.67400 42.40500 24.22000
C  2.02100 42.34900 22.99800
C  2.87200 42.99400 21.88300
C  3.87800 43.83700 22.66200
C  3.68000 43.33200 24.14400
C  3.46000 41.95400 20.86400
C  3.61600 45.40200 22.57100
C  3.96300 45.82900 21.09100
N  3.40000 42.76100 26.97600
C  4.62600 43.23700 26.46000
C  5.60400 43.31100 27.50400
C  4.91300 42.96500 28.68900
C  3.52800 42.64400 28.34500
C  7.06000 43.73300 27.40200
C  4.96500 42.77800 30.12600
O  5.98700 42.75900 30.86000
C  3.51500 42.54200 30.60600
C  3.56200 41.39700 31.56300
O  4.01000 40.22300 31.33800
O  2.81300 41.67200 32.68900
C  2.74700 40.56900 33.69100
H  -2.36000 40.64800 27.34300
H  0.48000 41.61600 21.66700
H  5.49400 44.23900 24.79800
H  0.76200 40.89700 30.99300
H  -1.80000 41.42600 29.74500
H  -1.02300 38.88000 28.66800
H  -2.18800 39.24700 29.99900
H  -0.51700 38.89200 30.35800
H  -0.98000 43.38800 30.71400
H  0.74300 43.46600 31.11400
H  -1.01400 43.44900 32.97300
H  0.59500 42.73200 33.27600
H  -4.01400 40.79500 25.96000
H  -4.05800 39.67400 24.60000
H  -4.56600 41.35100 24.42600
H  -3.93000 39.80200 22.30200
H  -3.92900 40.38700 20.69500
H  -4.40400 41.57000 22.03400
H  2.12000 43.59100 21.36700
H  4.87900 43.60800 22.29800
H  4.49000 41.85100 21.20500
H  3.23000 42.34300 19.87200
H  2.90300 41.02200 20.96200
H  4.29500 45.98500 23.19300
H  2.60500 45.63300 22.90600
H  4.32300 45.01500 20.46200
H  4.75300 46.56700 20.94800
H  3.04300 46.34200 20.81100
H  7.50300 43.37200 26.47400
H  7.51300 43.24500 28.26500
H  7.08200 44.81900 27.49300
H  3.27000 43.49400 31.07600
H  2.26200 40.99700 34.56800
H  3.74500 40.19500 33.92100
H  2.23300 39.72100 33.24000
Mg -4.99600 25.23700 26.13100
C  -3.36800 26.51200 28.91600
C  -6.69000 23.03300 28.37800
C  -6.14000 23.63700 23.49600
C  -2.80800 27.10800 24.14100
N  -4.98100 24.80200 28.27500
C  -4.35200 25.58800 29.21800
C  -4.72700 25.36000 30.64700
C  -5.50400 23.98700 30.46500
C  -5.74600 23.93700 28.93900
C  -4.80800 22.75500 31.00000
C  -5.58600 26.52400 31.37500
C  -6.04900 26.20900 32.81000
H  -5.24000 25.26500 33.63200
N  -6.32500 23.59700 25.95000
C  -7.01100 22.95600 26.99500
C  -8.03400 22.07400 26.30700
C  -7.91800 22.24100 24.84800
C  -6.79000 23.18300 24.71100
C  -8.91000 21.22900 27.21900
C  -8.72100 21.67000 23.68200
O  -8.44200 21.85100 22.49500
C  -9.91000 20.83700 24.01900
N  -4.57100 25.38700 24.14600
C  -5.09400 24.57600 23.24600
C  -4.43500 24.73900 21.86000
C  -3.70500 26.13700 22.00700
C  -3.67900 26.19900 23.52000
C  -3.58000 23.50000 21.28700
C  -4.33800 27.50700 21.40600
C  -3.43300 28.44800 20.57000
N  -3.42600 26.63100 26.41700
C  -2.60100 27.31900 25.53100
C  -1.60900 28.10100 26.26000
C  -1.96200 27.79500 27.64000
C  -3.01500 26.92400 27.64900
C  -0.54600 28.91200 25.76700
C  -1.45000 28.04100 28.99300
O  -0.59800 28.84700 29.43200
C  -2.47700 27.28700 29.90000
C  -1.68700 26.49700 30.81500
O  -0.95000 25.52400 30.56200
O  -1.73200 27.09300 32.08900
C  -0.66200 26.68800 33.01200
H  -7.31400 22.49500 29.09400
H  -6.45500 23.15000 22.57100
H  -2.21500 27.64800 23.39900
H  -3.95800 25.21800 31.40600
H  -6.45900 24.00800 30.99200
H  -4.41800 22.19300 30.15100
H  -5.60300 22.23800 31.53800
H  -4.01000 23.04600 31.68300
H  -6.56900 26.51200 30.90600
H  -5.21900 27.53900 31.22400
H  -7.08500 25.89000 32.69800
H  -6.07000 27.18700 33.29100
H  -8.66100 20.89200 28.22500
H  -9.23300 20.35900 26.64700
H  -9.74100 21.90800 27.41200
H  -9.67000 19.98000 24.64900
H  -10.34500 20.54700 23.06300
H  -10.52600 21.61600 24.46800
H  -5.37200 24.84300 21.31400
H  -2.65000 26.10600 21.73600
H  -3.83000 23.23400 20.25900
H  -3.57400 22.62900 21.94100
H  -2.53500 23.80800 21.28600
H  -4.67400 28.15500 22.21600
H  -5.24700 27.20500 20.88600
H  -2.83500 27.88400 19.85300
H  -3.02700 29.19800 21.24800
H  -4.15300 28.90200 19.88900
H  -0.95600 29.50200 24.94700
H  0.23200 28.27500 25.34700
H  -0.16400 29.59900 26.52100
H  -3.00400 28.09600 30.40500
H  -0.57000 27.52700 33.70200
H  0.30200 26.61700 32.50800
H  -0.79300 25.69400 33.44000

