158

Mg 0.02700 7.99000 26.73800
C  0.84600 9.79600 29.64900
C  -0.22900 5.18900 28.70000
C  -0.11900 6.12900 23.80100
C  0.59200 10.80600 24.93500
N  0.40300 7.52400 28.95400
C  0.44800 8.43300 29.93900
C  0.15400 7.87500 31.32000
C  0.19900 6.33500 31.04300
C  0.18400 6.29800 29.46800
C  1.42600 5.65300 31.72500
C  -1.22500 8.44800 31.79100
C  -1.29200 9.06700 33.15100
H  -0.23200 8.84500 34.23000
N  -0.25700 5.93500 26.31300
C  -0.27300 4.94100 27.23900
C  -0.59800 3.62600 26.62400
C  -0.50800 3.85300 25.18400
C  -0.28500 5.37600 25.02900
C  -0.93100 2.37900 27.36600
C  -0.47600 2.89600 23.94900
O  -0.28200 3.22800 22.81000
C  -0.77700 1.35600 24.12100
N  0.49200 8.38300 24.62300
C  0.13300 7.48800 23.59200
C  0.10800 8.18200 22.23000
C  0.23400 9.74600 22.70000
C  0.41900 9.67000 24.20500
C  1.23200 7.68200 21.28200
C  -1.03200 10.61000 22.25800
C  -0.66800 11.75100 21.31600
N  0.59900 9.94700 27.12700
C  0.83000 10.99700 26.28300
C  1.23600 12.16000 27.02900
C  1.26500 11.75800 28.38000
C  0.93000 10.40100 28.36700
C  1.45200 13.52800 26.53500
C  1.61400 12.12900 29.71400
O  2.20200 13.10800 30.06300
C  1.24600 10.88200 30.61700
C  2.35700 10.45100 31.50600
O  3.11600 9.51200 31.40700
O  2.43100 11.35000 32.48700
C  3.69200 11.31300 33.19200
H  -0.24900 4.26900 29.28800
H  -0.19900 5.62800 22.83400
H  0.60900 11.74000 24.36900
H  0.92800 8.16400 32.03100
H  -0.74200 5.93700 31.42200
H  2.37800 5.86700 31.23900
H  1.20300 4.58900 31.65000
H  1.50000 5.94900 32.77200
H  -1.99100 7.67300 31.82700
H  -1.54100 9.17700 31.04500
H  -2.27800 8.76700 33.50700
H  -1.35600 10.13500 32.94200
H  -0.03700 1.81200 27.62600
H  -1.57000 1.84700 26.66100
H  -1.52200 2.55800 28.26400
H  -0.88200 0.90000 23.13700
H  -1.62000 1.08600 24.75700
H  0.12700 1.05500 24.65200
H  -0.82000 7.90100 21.73200
H  1.14600 10.21400 22.32800
H  1.93900 7.07800 21.85000
H  1.88100 8.42800 20.82500
H  0.82600 7.15600 20.41800
H  -1.43200 10.99700 23.19500
H  -1.79100 10.05400 21.70800
H  -1.50300 11.91800 20.63500
H  0.30900 11.73700 20.83300
H  -0.71800 12.67100 21.89700
H  2.53000 13.67100 26.46100
H  1.06100 14.27200 27.22800
H  0.92100 13.65800 25.59200
H  0.39700 11.14800 31.24600
H  4.46400 11.15400 32.43900
H  3.88500 10.48400 33.87300
H  3.90600 12.30400 33.59200
Mg -1.30200 34.36500 27.73200
C  -3.14000 32.29800 29.98300
C  0.18200 35.72900 30.49300
C  0.00600 36.55300 25.65300
C  -3.07800 32.79000 25.13600
N  -1.56300 34.07400 29.94600
C  -2.34800 33.21300 30.64400
C  -2.11100 33.25600 32.13500
C  -1.21800 34.55100 32.33200
C  -0.88500 34.90300 30.84900
C  -1.85100 35.72700 33.07400
C  -1.45800 31.96300 32.73300
C  -1.95200 31.48000 34.11300
H  -1.30500 31.91100 35.41400
N  0.07600 35.85100 27.99400
C  0.60900 36.24600 29.25600
C  1.66400 37.16000 28.97900
C  1.60800 37.38200 27.55200
C  0.54500 36.57000 26.97400
C  2.51600 37.80200 30.08400
C  2.39700 38.43500 26.75900
O  2.12300 38.71800 25.63900
C  3.47900 39.21500 27.40800
N  -1.55500 34.61200 25.70800
C  -0.99100 35.71600 25.10000
C  -1.59100 35.95900 23.73300
C  -2.28500 34.61700 23.41400
C  -2.39800 33.93400 24.80700
C  -2.50600 37.21300 23.58700
C  -1.59500 33.73500 22.30200
C  -2.18700 34.03100 20.85200
N  -2.74500 32.81900 27.46200
C  -3.33400 32.17200 26.39000
C  -4.18800 31.12400 26.78500
C  -4.21200 31.17500 28.19900
C  -3.29300 32.17900 28.57600
C  -4.92700 30.17900 25.87100
C  -4.75600 30.51900 29.30400
O  -5.55400 29.59100 29.27600
C  -4.04000 31.18000 30.58100
C  -5.25600 31.70800 31.29500
O  -6.11000 32.51000 30.89200
O  -5.27800 31.15300 32.56300
C  -6.18800 31.78500 33.52400
H  0.56300 36.24400 31.37800
H  0.24700 37.35800 24.95500
H  -3.56900 32.37700 24.25200
H  -3.05100 33.43600 32.65800
H  -0.28500 34.35800 32.86100
H  -2.92700 35.55700 33.12100
H  -1.66500 36.65400 32.53300
H  -1.47400 35.77900 34.09600
H  -0.42800 32.27500 32.90500
H  -1.48000 31.13900 32.01900
H  -2.17100 30.41500 34.04500
H  -2.96600 31.85100 34.25900
H  3.52700 37.64700 29.70600
H  2.53800 37.21900 31.00400
H  2.27400 38.85300 30.24200
H  3.05500 39.83700 28.19600
H  4.03800 39.85800 26.72700
H  4.20300 38.53600 27.85800
H  -0.74700 35.96600 23.04300
H  -3.31700 34.84300 23.14600
H  -2.80400 37.58400 24.56800
H  -3.45600 37.03300 23.08400
H  -2.02500 38.01600 23.02900
H  -1.65200 32.67800 22.56300
H  -0.51800 33.87200 22.40300
H  -2.98500 34.77300 20.85800
H  -2.59600 33.10200 20.45700
H  -1.41500 34.46500 20.21700
H  -4.32300 30.00300 24.98100
H  -5.94300 30.48600 25.62200
H  -5.06300 29.21100 26.35500
H  -3.47300 30.55200 31.26800
H  -5.68500 32.20800 34.39400
H  -6.74400 30.98700 34.01600
H  -6.88600 32.51200 33.11100

