158

Mg 24.01100 -4.74300 45.77100
C  26.32600 -2.56000 44.39500
C  21.72300 -3.69100 43.46000
C  22.18900 -7.50300 46.39400
C  26.71600 -6.15300 47.77800
N  24.03900 -3.37200 44.00800
C  25.08300 -2.48500 43.75300
C  24.75100 -1.55300 42.60300
C  23.16100 -1.67700 42.58400
C  22.92200 -2.93900 43.42700
C  22.42500 -0.43000 42.99500
C  25.42900 -1.94600 41.23500
C  25.69100 -0.90300 40.17400
H  25.20100 -1.15700 38.74300
N  22.09700 -5.41900 45.15900
C  21.33100 -4.90300 44.18500
C  20.11900 -5.59600 44.07500
C  20.18500 -6.70100 44.99000
C  21.51700 -6.57000 45.56600
C  18.91200 -5.27600 43.14600
C  19.10100 -7.74000 45.32700
O  18.06600 -7.65900 44.70700
C  19.22900 -8.70700 46.33300
N  24.37200 -6.56900 46.88000
C  23.46400 -7.55700 46.90800
C  23.85300 -8.75500 47.81700
C  25.28800 -8.24600 48.23300
C  25.41300 -6.84000 47.66200
C  22.87900 -9.17900 48.94800
C  26.41200 -9.24700 47.91100
C  27.17000 -10.02200 48.99000
N  26.12700 -4.43700 46.08800
C  27.00000 -5.00800 46.94400
C  28.29600 -4.40100 46.73800
C  28.04200 -3.37000 45.85500
C  26.71200 -3.48700 45.39100
C  29.57900 -4.63800 47.47100
C  28.58700 -2.20500 45.19400
O  29.65900 -1.64000 45.27400
C  27.52700 -1.68300 44.23400
C  27.33100 -0.23400 44.34100
O  26.86700 0.37400 45.28600
O  27.76300 0.35400 43.16700
C  27.23600 1.72300 43.00700
H  20.91500 -3.31400 42.83000
H  21.70400 -8.42000 46.73300
H  27.54900 -6.58900 48.33300
H  25.08700 -0.53400 42.79500
H  22.92100 -1.91200 41.54700
H  22.85300 -0.13700 43.95400
H  21.38300 -0.68700 43.18200
H  22.63200 0.26500 42.18100
H  24.73900 -2.57200 40.66900
H  26.27400 -2.62600 41.34400
H  26.78000 -0.91000 40.15700
H  25.47400 0.13200 40.44000
H  18.88800 -6.11600 42.45100
H  19.01800 -4.32700 42.62200
H  18.04100 -5.18000 43.79500
H  19.53100 -8.15000 47.22000
H  19.93700 -9.50900 46.12400
H  18.27400 -9.16500 46.58900
H  23.90900 -9.57400 47.10000
H  25.29100 -8.12200 49.31600
H  22.56200 -10.18600 48.67600
H  21.96100 -8.59300 48.93300
H  23.35200 -9.25600 49.92700
H  27.17700 -8.69800 47.36100
H  26.15100 -9.98300 47.15000
H  28.20100 -9.75900 48.75300
H  26.92100 -11.06700 48.80300
H  26.96900 -9.69400 50.01000
H  29.67900 -5.63200 47.90700
H  29.69700 -3.90900 48.27200
H  30.47300 -4.54400 46.85500
H  27.99900 -1.84500 43.26500
H  26.26800 1.97000 43.44300
H  27.19000 1.86700 41.92800
H  27.93800 2.48100 43.35300
Mg -5.47300 25.33400 25.79300
C  -4.38000 26.47000 28.98300
C  -7.54400 23.03100 27.43200
C  -5.88100 23.82800 22.81100
C  -2.91000 27.34900 24.36400
N  -5.73200 24.78000 27.94300
C  -5.30600 25.42800 29.05100
C  -5.81500 24.83700 30.36200
C  -6.71400 23.64700 29.82200
C  -6.70800 23.85700 28.27000
C  -6.03100 22.25600 30.34400
C  -6.60300 25.89900 31.18500
C  -6.16900 26.17100 32.63100
H  -5.54000 25.03200 33.31200
N  -6.63700 23.72400 25.18900
C  -7.49100 22.92600 25.97000
C  -8.26800 22.10800 25.06000
C  -7.78300 22.29600 23.76600
C  -6.73800 23.36900 23.86600
C  -9.41600 21.28300 25.57400
C  -8.26100 21.60700 22.46700
O  -7.89800 22.01000 21.33400
C  -9.17000 20.46800 22.48000
N  -4.54400 25.57700 23.81200
C  -4.88400 24.83900 22.72300
C  -4.13400 25.23300 21.45400
C  -3.37000 26.50300 21.93500
C  -3.54400 26.48200 23.47200
C  -3.41700 24.21200 20.64100
C  -3.87700 27.84800 21.30700
C  -5.19800 28.39600 21.86700
N  -4.01300 26.71200 26.47100
C  -3.11300 27.51400 25.74200
C  -2.46800 28.39300 26.65500
C  -2.97500 28.10800 27.96100
C  -3.81600 26.98500 27.77600
C  -1.54100 29.56800 26.29600
C  -2.90800 28.54500 29.37900
O  -2.36200 29.48500 29.96300
C  -3.79900 27.46300 30.11300
C  -2.69700 26.66300 30.87400
O  -1.93500 25.74200 30.48600
O  -2.58800 27.29700 32.08500
C  -1.40400 27.02000 32.81100
H  -8.18000 22.41500 28.07100
H  -6.14100 23.22100 21.94100
H  -2.12500 27.91300 23.85700
H  -4.95300 24.49300 30.93500
H  -7.76100 23.63800 30.12500
H  -5.66200 21.75400 29.44900
H  -6.63700 21.51700 30.86900
H  -5.23000 22.51000 31.03900
H  -7.62500 25.52300 31.23700
H  -6.67200 26.86500 30.68500
H  -7.02400 26.48800 33.22800
H  -5.45800 26.99500 32.57900
H  -9.21200 20.21200 25.59900
H  -10.28800 21.54600 24.97400
H  -9.66700 21.58600 26.59000
H  -8.72000 19.52400 22.78600
H  -9.65400 20.31300 21.51500
H  -10.06000 20.72400 23.05500
H  -4.83300 25.68000 20.74700
H  -2.32300 26.36700 21.66500
H  -2.34400 24.36800 20.53500
H  -3.96900 24.19100 19.70200
H  -3.50400 23.26700 21.17600
H  -3.98300 27.72400 20.22900
H  -3.05700 28.56500 21.34200
H  -5.87000 28.69600 21.06200
H  -5.08300 29.28600 22.48500
H  -5.67900 27.63300 22.47900
H  -1.31900 30.28200 27.08900
H  -2.22300 30.06600 25.60800
H  -0.66900 29.10900 25.83000
H  -4.59400 27.91400 30.70700
H  -0.56900 27.06700 32.11100
H  -1.46200 26.00200 33.19500
H  -1.33400 27.68300 33.67300

