158

Mg 47.27800 16.03600 28.02600
C  45.34600 15.76500 31.00000
C  49.82300 17.52600 30.11100
C  49.03100 16.94200 25.28200
C  44.77400 14.84000 26.24700
N  47.53600 16.57400 30.27500
C  46.56400 16.35900 31.31300
C  47.12600 16.76600 32.72200
C  48.50700 17.39000 32.32300
C  48.61000 17.18100 30.78500
C  48.65400 18.96700 32.63500
C  47.37000 15.58700 33.63100
C  46.99200 15.78100 35.12500
H  46.80600 17.15400 35.72800
N  49.18200 16.97500 27.70100
C  50.08100 17.45700 28.70400
C  51.29200 17.77500 28.06200
C  51.04700 17.77400 26.65100
C  49.69400 17.28200 26.46300
C  52.63100 17.87900 28.88100
C  51.95100 18.30800 25.50500
O  51.71000 18.25200 24.32000
C  53.28200 18.96800 25.92300
N  46.98700 15.83500 26.10300
C  47.82100 16.25000 25.09800
C  47.16800 16.19200 23.75200
C  45.96100 15.33500 24.03000
C  45.82700 15.38900 25.56600
C  46.93700 17.56000 23.02100
C  46.20500 13.86000 23.59600
C  45.89500 13.50200 22.12600
N  45.52500 15.25300 28.47700
C  44.53200 14.82200 27.60400
C  43.47600 14.29100 28.35500
C  43.69500 14.68800 29.67300
C  44.97800 15.27800 29.69500
C  42.24100 13.60100 27.92200
C  43.11700 14.77000 31.00400
O  42.08000 14.36000 31.52800
C  44.16100 15.52200 31.92100
C  43.49500 16.64800 32.59500
O  43.49900 17.82700 32.21000
O  42.95000 16.19700 33.77100
C  42.18000 17.19800 34.51600
H  50.71600 17.83400 30.65900
H  49.49400 17.20300 24.32800
H  44.08000 14.38600 25.53600
H  46.36200 17.43600 33.11400
H  49.36700 16.90900 32.78800
H  49.58400 19.06600 33.19500
H  47.80600 19.42200 33.14900
H  48.73400 19.52000 31.69900
H  48.38700 15.19700 33.59300
H  46.89500 14.68300 33.25100
H  47.71500 15.27800 35.76700
H  46.00700 15.33300 35.25800
H  53.49700 17.73400 28.23500
H  52.65300 17.11700 29.66000
H  52.57100 18.86400 29.34300
H  53.28300 19.71200 26.72000
H  53.72200 19.29800 24.98200
H  53.84900 18.05200 26.09000
H  47.81000 15.63200 23.07200
H  45.03300 15.67400 23.56700
H  45.85300 17.67000 23.00900
H  47.43800 17.52900 22.05400
H  47.36000 18.37000 23.61600
H  45.60400 13.20200 24.22400
H  47.25100 13.60700 23.76900
H  46.75200 12.94200 21.75100
H  45.87300 14.36300 21.45700
H  45.06100 12.80600 22.03900
H  41.95500 13.00300 28.78800
H  42.32100 12.99900 27.01600
H  41.39300 14.22700 27.64600
H  44.49400 14.84400 32.70700
H  41.64700 16.60400 35.25900
H  41.45300 17.70600 33.88200
H  42.76900 17.99400 34.97200
Mg 30.67200 58.54300 40.58300
C  28.06300 56.49100 39.42800
C  32.99800 55.98600 39.81200
C  33.20700 60.80900 40.68700
C  28.37400 61.16500 40.71200
N  30.47400 56.43600 39.81800
C  29.32600 55.83000 39.32000
C  29.65300 54.44600 38.78800
C  31.17200 54.29200 39.36200
C  31.57000 55.68500 39.73900
C  31.32200 53.23400 40.49100
C  29.48200 54.27700 37.22100
C  28.34000 53.39400 36.69100
H  27.46100 54.02800 35.58900
N  32.86400 58.36700 40.35200
C  33.62000 57.20400 40.14100
C  34.96400 57.52500 40.20900
C  35.09900 58.95500 40.38600
C  33.67100 59.46500 40.50600
C  36.03200 56.50700 39.90300
C  36.37500 59.75400 40.34000
O  37.45300 59.20600 40.28100
C  36.31800 61.26000 40.35700
N  30.75200 60.59800 40.82500
C  31.88400 61.29100 40.95300
C  31.64600 62.86000 41.12400
C  30.11200 62.90400 41.15100
C  29.70300 61.45600 40.85900
C  32.22000 63.44600 42.47200
C  29.49800 63.92600 40.20100
C  28.31300 64.76900 40.78900
N  28.62300 58.82300 40.27700
C  27.81500 59.92500 40.36400
C  26.42900 59.54300 40.13000
C  26.51500 58.26200 39.80600
C  27.89300 57.82900 39.75300
C  25.23000 60.56400 40.16200
C  25.68900 57.12800 39.39900
O  24.46100 57.04500 39.37500
C  26.69100 55.94600 39.18100
C  26.20100 54.79600 40.03800
O  26.73800 54.31000 41.01900
O  25.01600 54.35400 39.56000
C  24.45900 53.12400 40.18800
H  33.62500 55.10900 39.63500
H  33.97400 61.58600 40.71900
H  27.73600 62.02500 40.93000
H  28.96100 53.79700 39.32300
H  31.85000 54.06500 38.54000
H  32.04400 52.55000 40.04500
H  30.47200 52.56900 40.64400
H  31.61800 53.64900 41.45500
H  30.36100 53.85400 36.73400
H  29.27000 55.21100 36.70100
H  27.62600 53.19500 37.49000
H  28.79900 52.46700 36.34700
H  35.64500 55.56100 39.52500
H  36.51000 56.24000 40.84600
H  36.81700 56.85700 39.23200
H  35.71100 61.71500 39.57400
H  37.33300 61.62200 40.19100
H  35.97200 61.41600 41.37800
H  31.92500 63.40800 40.22400
H  29.72600 63.15100 42.14000
H  33.16000 62.98200 42.77000
H  31.50300 63.24800 43.26900
H  32.54200 64.46300 42.24900
H  29.16700 63.34300 39.34100
H  30.21900 64.67200 39.86300
H  28.71200 65.70700 41.17500
H  27.81600 64.27000 41.62100
H  27.56900 64.93300 40.01000
H  24.34000 60.06800 39.77500
H  25.44900 61.37300 39.46400
H  25.08800 60.81300 41.21300
H  26.58600 55.72400 38.11900
H  23.91300 53.53700 41.03600
H  25.25900 52.47200 40.54200
H  23.78200 52.55900 39.54800

