158

Mg 8.86900 3.24900 28.04000
C  10.15500 1.83800 30.95300
C  6.75300 5.17300 30.04900
C  7.51400 4.60100 25.28700
C  10.40400 0.75100 26.20100
N  8.41300 3.39700 30.34700
C  9.18700 2.81000 31.32400
C  8.73100 3.25800 32.72300
C  7.66000 4.32300 32.47400
C  7.55700 4.28900 30.86700
C  6.34500 4.07600 33.23600
C  10.00700 3.90400 33.60200
C  10.11300 3.43700 35.07200
H  10.26000 4.45600 36.19600
N  7.37600 4.65300 27.74400
C  6.69600 5.40300 28.66700
C  5.95600 6.44100 28.04700
C  6.27000 6.40500 26.66900
C  7.08400 5.14600 26.48200
C  5.19600 7.66400 28.77900
C  5.84500 7.39700 25.51700
O  6.26000 7.20800 24.40800
C  4.84300 8.46800 25.79500
N  8.96600 2.78200 26.10000
C  8.39700 3.52000 25.14100
C  8.71500 2.97300 23.74400
C  9.78900 1.88400 24.03600
C  9.72800 1.78100 25.54600
C  7.52600 2.56500 22.88400
C  11.23300 2.20000 23.49500
C  11.54500 1.71400 22.06600
N  10.08700 1.69900 28.46800
C  10.52600 0.64700 27.58500
C  11.34700 -0.26600 28.28200
C  11.25100 0.16600 29.61600
C  10.40100 1.33200 29.65700
C  12.18000 -1.37100 27.64700
C  11.76300 -0.11000 30.93500
O  12.62300 -0.91600 31.33400
C  11.02500 0.96400 31.85900
C  10.27500 0.07700 32.77100
O  9.48400 -0.80300 32.36600
O  10.52400 0.36600 34.11300
C  9.71900 -0.45200 35.07700
H  6.13100 5.85500 30.63300
H  7.13100 5.09800 24.39400
H  10.72600 0.01600 25.45900
H  8.40500 2.44300 33.37000
H  8.10300 5.27200 32.77500
H  5.63800 3.89500 32.42500
H  6.06700 4.81900 33.98300
H  6.35500 3.14800 33.80700
H  10.00200 4.99200 33.66500
H  10.94700 3.70700 33.08600
H  10.89900 2.71400 35.29100
H  9.18600 2.93100 35.33800
H  5.42000 7.60300 29.84400
H  4.14600 7.41000 28.63400
H  5.44800 8.65600 28.40300
H  5.27700 9.33800 26.28700
H  4.05100 8.12600 26.46100
H  4.37200 8.65400 24.82900
H  9.28000 3.82300 23.36000
H  9.32300 0.97600 23.65400
H  6.58300 2.63600 23.42600
H  7.57600 1.51700 22.58800
H  7.46900 3.17000 21.97900
H  11.98200 1.87000 24.21500
H  11.32300 3.27900 23.37300
H  12.40600 1.04900 22.00900
H  11.45400 2.58400 21.41500
H  10.57900 1.24700 21.87200
H  11.59800 -1.91500 26.90300
H  12.46000 -2.04800 28.45400
H  13.00200 -0.79500 27.22000
H  11.67400 1.61800 32.44000
H  10.19800 -0.17200 36.01500
H  9.89500 -1.51300 34.89900
H  8.67200 -0.20800 34.89900
Mg 30.71100 58.88700 39.94200
C  27.97400 56.80400 39.11100
C  32.74900 56.44500 38.86500
C  33.36400 61.01600 40.45900
C  28.56600 61.49300 40.45800
N  30.36000 56.86900 39.13300
C  29.16100 56.19300 38.80700
C  29.50800 54.74500 38.34100
C  31.02700 54.59400 38.59900
C  31.41600 56.09900 38.74500
C  31.37400 53.79000 39.87500
C  29.11300 54.47400 36.85400
C  27.87500 53.63500 36.51900
H  27.03200 54.12300 35.32100
N  32.76400 58.76400 39.66300
C  33.37500 57.66400 39.21700
C  34.81300 57.93600 39.08200
C  35.10800 59.17700 39.67200
C  33.66900 59.73100 40.02100
C  35.82700 56.94600 38.39100
C  36.50800 59.88400 39.78600
O  37.44800 59.36000 39.18700
C  36.63300 61.27000 40.51000
N  31.01000 61.04600 40.21900
C  32.18700 61.69700 40.52900
C  31.93000 63.12700 41.05300
C  30.32100 63.29400 40.92400
C  29.94400 61.83100 40.55300
C  32.55400 63.57500 42.41300
C  29.84500 64.28600 39.87900
C  29.60500 65.67500 40.45800
N  28.65500 59.10900 39.96900
C  27.95200 60.22000 40.26000
C  26.52900 59.96200 40.13100
C  26.49700 58.63900 39.66400
C  27.84200 58.11200 39.65700
C  25.46500 61.00300 40.23600
C  25.64300 57.54700 39.13200
O  24.37700 57.46900 38.92700
C  26.61900 56.40000 38.79100
C  25.97600 55.34000 39.65100
O  26.15700 55.22700 40.84000
O  25.22800 54.54400 38.84500
C  24.60300 53.30600 39.30800
H  33.33900 55.56700 38.59400
H  34.18200 61.64200 40.82300
H  27.83600 62.27200 40.69100
H  28.83400 54.09800 38.90300
H  31.60700 54.13100 37.80000
H  30.47100 53.18400 39.94600
H  31.40400 54.46200 40.73300
H  32.28800 53.25100 39.62300
H  29.92600 54.01400 36.29300
H  29.06000 55.42100 36.31800
H  27.28100 53.60000 37.43200
H  28.12600 52.66000 36.10200
H  36.35600 57.37000 37.53700
H  35.24700 56.05400 38.15500
H  36.58900 56.69600 39.13000
H  36.29900 61.06100 41.52600
H  35.97800 61.96300 39.98100
H  37.65000 61.65800 40.56200
H  32.48700 63.81700 40.41800
H  29.94900 63.36300 41.94600
H  32.49600 64.66300 42.43600
H  33.51100 63.15800 42.72800
H  31.85900 63.24200 43.18300
H  29.01200 63.95600 39.25800
H  30.63700 64.55500 39.18000
H  30.47200 66.33400 40.49600
H  29.29800 65.52600 41.49400
H  28.78800 66.16300 39.92700
H  24.70400 60.77600 39.48900
H  25.92900 61.97200 40.05000
H  25.10700 61.02100 41.26600
H  26.43300 56.21800 37.73300
H  23.52300 53.44100 39.26000
H  24.88800 53.03500 40.32400
H  24.77700 52.46800 38.63300

