158

Mg -2.44200 16.94100 25.73900
C  -2.68000 14.82200 28.63500
C  -3.30300 19.55500 27.80100
C  -2.51100 18.89300 22.98500
C  -1.85700 14.06400 23.72800
N  -3.20900 17.08600 27.94800
C  -3.07900 16.17400 28.94600
C  -3.33100 16.82400 30.37300
C  -3.60700 18.34100 30.00500
C  -3.34800 18.37500 28.48600
C  -5.11400 18.76100 30.23100
C  -2.39600 16.49300 31.49200
C  -2.51600 17.26900 32.77100
H  -2.19400 16.43500 34.02600
N  -2.83400 18.95900 25.48700
C  -3.07100 19.86300 26.43900
C  -3.17400 21.10500 25.87500
C  -3.00000 21.05400 24.43600
C  -2.79600 19.57900 24.26900
C  -3.45300 22.42700 26.73900
C  -2.98000 22.15300 23.34000
O  -2.83400 21.96200 22.11500
C  -3.20100 23.65500 23.68600
N  -2.29700 16.53600 23.61900
C  -2.34300 17.56100 22.68500
C  -2.05300 17.02600 21.26700
C  -1.79400 15.45800 21.50800
C  -1.91600 15.36800 23.06100
C  -3.14400 17.33300 20.19900
C  -0.46700 14.91800 21.03600
C  0.76900 15.24900 21.93700
N  -2.35800 14.93700 26.06600
C  -2.08900 13.86600 25.11300
C  -2.00500 12.65600 25.80700
C  -2.09200 13.05000 27.20900
C  -2.40000 14.38600 27.34500
C  -1.69200 11.33400 25.34200
C  -1.97600 12.45700 28.53500
O  -1.65400 11.34900 28.89900
C  -2.39600 13.62300 29.52300
C  -1.33500 13.72500 30.49600
O  -0.28000 14.29300 30.23400
O  -1.60800 13.01300 31.59500
C  -0.63600 13.10300 32.73500
H  -3.38000 20.47400 28.38600
H  -2.38500 19.57900 22.14500
H  -1.61400 13.15500 23.17500
H  -4.29100 16.38600 30.64400
H  -2.85800 18.96200 30.49600
H  -5.74100 19.10300 29.40700
H  -5.06500 19.53800 30.99400
H  -5.70800 17.97300 30.69500
H  -1.41900 16.61200 31.02400
H  -2.59000 15.44400 31.71500
H  -3.48300 17.71500 33.00600
H  -1.79700 18.08800 32.74300
H  -4.15400 23.03900 26.17200
H  -2.52500 22.97600 26.89800
H  -3.84200 22.25600 27.74300
H  -2.81200 24.36400 22.95500
H  -2.73700 23.91800 24.63600
H  -4.26800 23.87600 23.71200
H  -1.10000 17.45200 20.95200
H  -2.65100 14.84400 21.23200
H  -3.92700 18.05400 20.43400
H  -3.66900 16.45000 19.83600
H  -2.63900 17.79200 19.34800
H  -0.32200 15.28200 20.01900
H  -0.49300 13.82900 21.04500
H  1.23600 14.35300 22.34800
H  0.43800 15.82400 22.80200
H  1.55900 15.76900 21.39500
H  -1.22600 10.79900 26.16900
H  -1.07900 11.28900 24.44200
H  -2.63600 10.81100 25.18900
H  -3.33200 13.37400 30.02200
H  0.38500 12.89100 32.42000
H  -0.93200 12.41800 33.52900
H  -0.67900 14.15200 33.03000
Mg 36.14900 48.82100 24.69300
C  35.95100 47.31800 27.85300
C  35.53600 51.85700 26.19300
C  36.09300 50.15100 21.73300
C  36.77000 45.65300 23.41100
N  35.68300 49.43700 26.85700
C  35.76200 48.66900 27.97000
C  35.67300 49.52300 29.23500
C  35.37200 50.93300 28.62500
C  35.57700 50.74000 27.06600
C  33.90200 51.51900 29.01400
C  37.01700 49.34800 30.05000
C  36.82400 49.32400 31.62900
H  35.55400 49.82000 32.34900
N  35.84000 50.73000 24.04400
C  35.69600 51.84400 24.86700
C  35.79300 53.02800 24.06200
C  35.96800 52.59600 22.71000
C  36.04600 51.12200 22.75600
C  35.94200 54.45500 24.71900
C  36.07600 53.48500 21.41800
O  36.40300 52.95500 20.34500
C  35.79800 55.00700 21.46000
N  36.22100 48.03900 22.83700
C  36.07600 48.76400 21.77300
C  36.35700 48.01200 20.49000
C  37.00100 46.68600 20.99200
C  36.70700 46.77000 22.54100
C  35.12700 47.72000 19.49100
C  38.42000 46.27000 20.53900
C  38.94000 44.79000 20.65700
N  36.21500 46.87900 25.49200
C  36.49100 45.68800 24.76400
C  36.63400 44.59400 25.66800
C  36.34000 45.16100 26.90200
C  36.07700 46.53400 26.70000
C  37.08800 43.20000 25.32400
C  36.16500 44.87000 28.35800
O  36.12600 43.83000 28.98500
C  35.95500 46.25000 28.99300
C  34.80800 46.14100 29.84600
O  33.65400 46.40100 29.49300
O  35.15000 45.61300 31.01600
C  34.07400 44.93400 31.69000
H  35.36300 52.79100 26.73200
H  36.11000 50.55000 20.71700
H  36.95500 44.67100 22.97000
H  34.88400 49.17200 29.89900
H  36.15500 51.57100 29.03500
H  33.94600 52.40200 29.65200
H  33.42900 50.74100 29.61300
H  33.46000 51.68000 28.03100
H  37.56200 50.27800 29.88500
H  37.64700 48.53000 29.70100
H  37.69400 49.82300 32.05600
H  36.87800 48.26100 31.86100
H  36.67500 55.06700 24.19300
H  36.29900 54.44200 25.74900
H  34.95900 54.91900 24.78800
H  35.36100 55.13100 20.46900
H  36.74700 55.50200 21.66400
H  34.99400 55.26800 22.14900
H  37.19300 48.51300 20.00200
H  36.36900 45.85200 20.68800
H  34.15300 48.03500 19.86400
H  35.06200 46.64600 19.32200
H  35.29600 48.28600 18.57400
H  39.02500 47.00200 21.07400
H  38.59700 46.49800 19.48800
H  38.10900 44.08700 20.59500
H  39.40900 44.58300 21.61800
H  39.56100 44.66500 19.77000
H  37.75200 43.20600 24.46000
H  36.27000 42.52000 25.08200
H  37.81600 42.72700 25.98300
H  36.81000 46.32800 29.66500
H  33.49100 44.33600 30.98900
H  33.35500 45.64900 32.09200
H  34.41700 44.37500 32.56000

