158

Mg 24.68600 1.27000 29.70900
C  26.88000 1.18400 32.36800
C  22.06600 1.20500 31.97100
C  22.48700 1.33100 27.13100
C  27.24900 0.57400 27.47700
N  24.56400 1.41200 31.91200
C  25.54000 1.41500 32.81700
C  25.08200 1.57900 34.28100
C  23.51500 1.48500 34.10200
C  23.34200 1.39400 32.54300
C  22.77700 0.42600 34.90900
C  25.58500 2.82600 35.07400
C  24.69700 3.14000 36.33600
H  25.37700 3.47900 37.68400
N  22.57500 1.27800 29.55400
C  21.65500 1.16800 30.61700
C  20.33900 1.17700 30.11000
C  20.47800 1.21400 28.69700
C  21.88700 1.27300 28.36100
C  19.17600 1.01400 31.06600
C  19.42600 1.14800 27.67500
O  19.55300 1.34100 26.40800
C  18.01400 0.95900 28.08100
N  24.93400 1.25400 27.67800
C  23.87600 1.37000 26.77500
C  24.35100 1.40400 25.31600
C  25.86500 1.16300 25.40600
C  26.03900 0.94600 26.89900
C  23.60800 0.47900 24.33100
C  26.75500 2.17200 24.63800
C  27.23400 3.40800 25.29800
N  26.67700 0.89700 29.82600
C  27.62500 0.60000 28.88000
C  28.91500 0.46400 29.52600
C  28.71900 0.75500 30.84700
C  27.32100 0.94700 30.98100
C  30.22800 0.16300 28.83400
C  29.28400 0.85500 32.14600
O  30.46900 0.69500 32.45300
C  28.14900 1.23500 33.17000
C  28.15400 0.23800 34.25100
O  27.95600 -1.00500 34.14600
O  28.53400 0.82700 35.40800
C  28.94400 -0.03600 36.54200
H  21.27400 1.12900 32.71800
H  21.82300 1.30300 26.26500
H  28.12200 0.40500 26.84300
H  25.42200 0.75100 34.90300
H  23.07600 2.43400 34.40900
H  21.85900 0.72900 35.41200
H  23.43500 0.16200 35.73700
H  22.57500 -0.44700 34.28900
H  25.27400 3.54200 34.31200
H  26.64000 2.92000 35.33000
H  24.00000 2.33300 36.55900
H  24.12400 4.04100 36.11200
H  18.52700 1.89000 31.09000
H  19.44700 0.89400 32.11500
H  18.64600 0.12600 30.72100
H  17.64600 1.86200 28.56800
H  18.00200 0.11200 28.76700
H  17.36300 0.79600 27.22200
H  24.16200 2.41600 24.95700
H  26.26100 0.27300 24.91700
H  23.06600 -0.23200 24.95400
H  24.27400 -0.01600 23.62400
H  22.88600 1.10800 23.81100
H  26.22800 2.54200 23.75800
H  27.61700 1.58800 24.31600
H  27.51100 3.22800 26.33700
H  26.45800 4.16300 25.17200
H  28.03900 3.82700 24.69500
H  30.36500 0.87000 28.01600
H  30.11800 -0.87700 28.52400
H  31.07100 0.28500 29.51400
H  28.32700 2.23700 33.56100
H  29.19600 -1.06200 36.27300
H  28.18500 -0.12000 37.31900
H  29.89000 0.28300 36.98000
Mg 40.27000 9.56500 29.19100
C  42.13800 10.43800 32.09600
C  37.80800 7.93100 31.26400
C  38.77600 8.27900 26.46300
C  42.91300 10.68600 27.32600
N  40.10200 9.18400 31.40100
C  40.89100 9.79500 32.32900
C  40.26300 9.54600 33.72800
C  38.95200 8.58900 33.44100
C  38.94600 8.60200 31.92400
C  38.90300 7.28000 34.27700
C  39.87900 10.92300 34.43200
C  39.04100 10.69800 35.68200
H  39.35300 11.63200 36.83900
N  38.58200 8.31000 28.89600
C  37.76400 7.71300 29.83700
C  36.70600 7.01000 29.21500
C  36.82400 7.18600 27.75700
C  38.05900 8.03400 27.67300
C  35.70000 6.19100 30.06000
C  35.95000 6.76600 26.58000
O  36.14900 7.01400 25.37000
C  34.68900 6.08500 26.92500
N  40.79100 9.47800 27.19600
C  39.97000 8.95100 26.25200
C  40.60900 9.05500 24.78400
C  41.92600 9.87000 25.05700
C  41.84300 10.03800 26.62700
C  40.87300 7.66200 24.12800
C  42.15100 11.18100 24.23600
C  41.23200 12.34400 24.68500
N  42.09500 10.52700 29.56400
C  43.08100 10.92100 28.72300
C  44.26300 11.38800 29.41500
C  43.97700 11.29300 30.76600
C  42.60600 10.72800 30.83400
C  45.43100 12.12400 28.67900
C  44.32300 11.66100 32.12600
O  45.25700 12.26000 32.59900
C  43.13100 11.12100 33.00600
C  43.71500 10.27200 34.05600
O  44.48700 9.34300 33.83600
O  43.34300 10.76800 35.31000
C  43.97000 10.16400 36.48600
H  37.00200 7.62900 31.93600
H  38.22600 7.95600 25.57700
H  43.83600 11.00500 26.83700
H  40.97300 8.92900 34.27900
H  38.06700 9.13500 33.76700
H  38.89400 6.37600 33.66800
H  38.06600 7.16300 34.96600
H  39.68200 7.17900 35.03300
H  39.36500 11.40200 33.59800
H  40.70900 11.53000 34.79300
H  39.21000 9.69900 36.08500
H  37.98800 10.85000 35.44400
H  36.10800 6.01700 31.05600
H  35.55500 5.23700 29.55500
H  34.73700 6.65000 30.28500
H  34.80700 5.34700 27.71800
H  34.30500 5.62600 26.01400
H  34.01500 6.87200 27.26500
H  39.88900 9.56200 24.14200
H  42.87900 9.35400 24.93900
H  40.31300 6.85900 24.60700
H  41.94600 7.46800 24.10700
H  40.69100 7.75500 23.05800
H  42.10000 11.13800 23.14800
H  43.19100 11.36400 24.50500
H  41.78500 13.28300 24.68200
H  40.70400 12.09500 25.60600
H  40.51800 12.32500 23.86200
H  45.78600 11.44800 27.90200
H  46.23100 12.40200 29.36600
H  45.04100 13.04100 28.23700
H  42.79500 12.07600 33.40800
H  45.05500 10.22600 36.39900
H  43.62400 9.13800 36.61000
H  43.80000 10.74100 37.39500

