158

Mg 1.82500 -1.68300 43.74900
C  5.14900 -0.71400 43.12700
C  0.88700 1.27000 42.29700
C  -1.26600 -2.81200 43.79900
C  3.03900 -4.78600 44.96000
N  2.90500 0.01600 42.84600
C  4.22400 0.13100 42.53300
C  4.58000 1.45500 41.72300
C  3.22700 2.26700 41.85200
C  2.31400 1.14300 42.39700
C  3.24600 3.47800 42.82400
C  5.16100 1.24200 40.31800
C  6.57900 1.79500 40.11100
H  6.72700 2.80400 38.87800
N  0.01900 -0.90200 42.98000
C  -0.11900 0.36000 42.46200
C  -1.53100 0.51800 42.17200
C  -2.17800 -0.66400 42.63100
C  -1.16900 -1.56500 43.14000
C  -2.03800 1.82300 41.60800
C  -3.64100 -1.01100 42.60000
O  -4.36700 -0.03800 42.35000
C  -4.20900 -2.33700 42.80800
N  0.99100 -3.61600 44.26500
C  -0.30400 -3.74900 44.22800
C  -0.85400 -5.10000 44.81300
C  0.60500 -5.72700 45.12700
C  1.63800 -4.66600 44.75700
C  -1.83200 -4.98500 46.05000
C  0.94900 -7.12300 44.55000
C  0.85400 -8.34500 45.48900
N  3.66200 -2.63800 44.00200
C  3.95100 -3.81800 44.61200
C  5.42200 -3.92200 44.64900
C  5.91300 -2.68000 44.17500
C  4.82000 -2.00000 43.69800
C  6.13100 -5.07300 45.19000
C  7.11600 -1.84600 43.89400
O  8.26200 -1.90800 44.22100
C  6.63200 -0.59800 43.18300
C  7.02000 0.56400 43.95500
O  6.44600 1.00500 44.93300
O  8.16800 1.22800 43.42500
C  8.47900 2.51800 44.18100
H  0.53800 2.27000 42.03000
H  -2.28600 -3.10300 44.06000
H  3.33400 -5.66700 45.53300
H  5.34000 1.92200 42.35000
H  2.89100 2.64900 40.88800
H  4.27400 3.77500 43.03200
H  2.74100 3.29400 43.77200
H  2.74200 4.36800 42.44700
H  4.50100 1.71500 39.59100
H  5.30100 0.18100 40.11100
H  7.31500 1.00600 39.95800
H  6.87200 2.26600 41.05000
H  -1.57000 2.00200 40.64000
H  -1.79000 2.65900 42.26300
H  -3.11400 1.66300 41.54100
H  -5.23100 -2.35800 42.42900
H  -4.24400 -2.44400 43.89300
H  -3.68900 -3.20100 42.39600
H  -1.25200 -5.76000 44.04300
H  0.73100 -5.76900 46.20900
H  -2.54000 -5.81000 45.98100
H  -2.37800 -4.04100 46.06900
H  -1.33200 -5.17000 47.00100
H  1.98800 -7.08200 44.22600
H  0.25900 -7.20700 43.71000
H  1.44800 -9.17800 45.11400
H  -0.18800 -8.66200 45.44200
H  1.17400 -8.21800 46.52400
H  5.54100 -5.62400 45.92200
H  7.03300 -4.69800 45.67200
H  6.47800 -5.76800 44.42500
H  7.06100 -0.56900 42.18200
H  7.86300 3.36000 43.86700
H  9.52100 2.74600 43.95600
H  8.48500 2.40300 45.26500
Mg 35.29900 48.32400 25.82200
C  35.83400 46.45600 28.70600
C  34.06900 50.81000 27.76000
C  34.67800 49.99300 23.00800
C  36.25100 45.39800 23.90800
N  34.87400 48.50900 27.99200
C  35.38000 47.74800 29.01200
C  35.15400 48.38800 30.42000
C  34.29900 49.59000 30.05800
C  34.45300 49.65100 28.48400
C  32.85800 49.54100 30.62200
C  36.47800 48.63100 31.10200
C  36.41100 48.46700 32.69400
H  35.06200 48.59100 33.37000
N  34.62100 50.24500 25.44500
C  34.15100 51.13000 26.32400
C  33.94700 52.37000 25.68900
C  34.07300 52.13900 24.28200
C  34.38100 50.70800 24.19400
C  33.72100 53.62200 26.45000
C  33.90200 53.14900 23.09400
O  33.97000 52.82700 21.90400
C  33.59600 54.57000 23.40400
N  35.39200 47.75100 23.85700
C  35.16400 48.68300 22.82700
C  35.16000 48.01500 21.44600
C  35.99200 46.71900 21.77600
C  35.81300 46.57000 23.26500
C  33.75800 47.70700 20.84500
C  37.52000 46.89300 21.42700
C  38.08700 45.72400 20.62400
N  35.88200 46.33000 26.20900
C  36.30300 45.30400 25.33300
C  36.79200 44.23400 26.13800
C  36.62300 44.56300 27.47200
C  36.02300 45.87600 27.47200
C  37.40300 42.93800 25.69700
C  36.84100 44.14000 28.83500
O  37.20100 43.05800 29.28800
C  36.28500 45.30300 29.72200
C  35.26600 44.75700 30.60000
O  34.06800 44.75300 30.31100
O  35.72200 44.57100 31.84400
C  34.80200 44.42500 32.95500
H  33.67700 51.62200 28.37700
H  34.35100 50.49400 22.09400
H  36.80000 44.60600 23.39500
H  34.59800 47.67800 31.03100
H  34.67500 50.53100 30.46000
H  32.04800 49.45600 29.89800
H  32.57500 50.43500 31.17800
H  32.74800 48.73300 31.34600
H  36.89200 49.53500 30.65400
H  37.13200 47.84600 30.72400
H  36.96400 49.29000 33.14700
H  36.84600 47.51400 32.99200
H  34.48600 54.31400 26.09800
H  33.81300 53.42700 27.51800
H  32.76200 54.05600 26.17000
H  33.62900 55.21400 22.52600
H  34.32500 54.88200 24.15200
H  32.57900 54.45000 23.78000
H  35.64400 48.68000 20.73000
H  35.53700 45.81800 21.36500
H  33.72000 46.61900 20.80500
H  33.53400 48.15600 19.87700
H  32.93600 48.02000 21.48800
H  38.09100 46.85900 22.35500
H  37.64600 47.90100 21.03200
H  37.59100 45.71800 19.65300
H  37.81800 44.75800 21.05000
H  39.14400 45.97400 20.52800
H  36.71100 42.09600 25.69300
H  38.30500 42.67600 26.25000
H  37.73800 43.03800 24.66500
H  37.13300 45.55000 30.36100
H  35.24800 45.08000 33.70400
H  34.91700 43.39000 33.27500
H  33.73800 44.63200 32.83900

