158

Mg 47.00100 24.18800 28.97100
C  47.81100 26.67800 31.48300
C  46.20000 22.10600 31.36300
C  46.95300 21.92400 26.67700
C  48.16100 26.62500 26.57900
N  46.88800 24.44200 31.12300
C  47.28500 25.51100 31.98900
C  46.72300 25.19300 33.40400
C  46.51700 23.68700 33.42400
C  46.47400 23.39400 31.91000
C  47.68000 22.87900 34.15200
C  45.48200 26.06000 33.80700
C  45.64000 26.88400 35.08200
H  44.63300 26.67200 36.19300
N  46.45500 22.26200 28.97200
C  46.14200 21.55500 30.06800
C  45.82800 20.17900 29.62900
C  46.04000 20.12700 28.27500
C  46.52100 21.47700 27.91400
C  45.48600 19.10500 30.66400
C  45.76600 18.89300 27.30900
O  45.88900 19.02800 26.12200
C  45.21500 17.57000 27.84700
N  47.45200 24.28600 26.97000
C  47.33400 23.13700 26.22600
C  47.85000 23.39500 24.89000
C  47.88400 24.95500 24.75300
C  47.91200 25.35300 26.20500
C  49.27300 22.74600 24.62900
C  46.69500 25.57400 23.99700
C  45.43600 25.94400 24.67300
N  47.81500 26.25900 28.94800
C  48.12600 27.10400 27.89800
C  48.47700 28.44200 28.42300
C  48.47100 28.30500 29.85700
C  48.02100 26.95800 30.10100
C  48.94600 29.61700 27.67400
C  48.70400 28.98600 31.13800
O  49.13700 30.06800 31.48500
C  48.27000 27.91500 32.20900
C  49.38400 27.66400 33.14600
O  50.43400 27.07700 32.91100
O  49.08300 28.19000 34.41000
C  50.11400 27.91000 35.42200
H  45.91300 21.47900 32.20900
H  47.15900 21.24600 25.84600
H  48.47300 27.28000 25.76300
H  47.59500 25.46600 33.99900
H  45.55800 23.38100 33.84100
H  47.20600 22.36000 34.98500
H  48.41600 23.60400 34.50200
H  48.23400 22.18000 33.52600
H  44.70900 25.30600 33.95900
H  45.24900 26.78700 33.02900
H  45.47900 27.96200 35.07500
H  46.58300 26.62400 35.56200
H  45.48400 19.47200 31.69000
H  46.13800 18.23800 30.76300
H  44.51000 18.71700 30.37300
H  45.87000 17.35600 28.69200
H  45.05100 16.89300 27.00900
H  44.22000 17.85100 28.19100
H  47.25800 22.89800 24.12200
H  48.78300 25.29600 24.24100
H  49.51600 22.37900 25.62700
H  49.88300 23.58400 24.29200
H  49.14800 21.96800 23.87700
H  46.52900 24.92100 23.14000
H  47.03800 26.53600 23.61900
H  44.62500 25.80000 23.96000
H  45.54100 26.90900 25.16800
H  45.26800 25.15400 25.40500
H  48.29400 29.69400 26.80400
H  50.01000 29.51500 27.46000
H  48.81500 30.54100 28.23800
H  47.32800 28.29800 32.60200
H  50.24900 26.83300 35.51600
H  49.76400 28.29100 36.38200
H  51.00100 28.47400 35.13300
Mg 8.96300 47.69600 26.64400
C  6.61400 47.82000 29.42900
C  11.47100 48.23100 28.81600
C  11.07800 47.54600 24.11200
C  6.24400 47.47200 24.53700
N  9.00600 47.85500 28.88400
C  7.96800 47.94600 29.82600
C  8.60300 48.38800 31.16600
C  10.02700 48.84500 30.87700
C  10.21900 48.20700 29.44100
C  10.28500 50.36400 30.95400
C  8.44500 47.30300 32.30500
C  8.22000 47.86100 33.68200
H  8.12900 46.81600 34.77100
N  11.00000 47.73500 26.49100
C  11.88000 48.11600 27.49200
C  13.18500 48.16800 26.97600
C  13.11600 47.66300 25.63600
C  11.68300 47.64700 25.33600
C  14.37100 48.56800 27.73800
C  14.18200 47.21200 24.70500
O  13.99200 46.72300 23.60700
C  15.61300 47.35700 25.23600
N  8.72400 47.85500 24.63400
C  9.69900 47.62800 23.75200
C  9.15300 47.41700 22.33400
C  7.65200 47.45000 22.44300
C  7.50800 47.53600 24.01500
C  9.80000 48.21400 21.15800
C  7.06900 46.23600 21.82500
C  5.54800 46.39900 21.43200
N  6.88800 47.63400 26.85500
C  5.92100 47.56700 25.91900
C  4.67800 47.62400 26.58300
C  4.89400 47.66400 27.95800
C  6.27400 47.67900 28.05900
C  3.51600 47.78700 25.77300
C  4.21900 47.76300 29.23300
O  3.00800 47.76900 29.46700
C  5.36900 47.65500 30.27200
C  5.31000 46.30900 30.91000
O  5.89700 45.32300 30.51000
O  4.48500 46.42700 31.98600
C  4.46000 45.25300 32.92200
H  12.31400 48.45600 29.47300
H  11.70400 47.33000 23.24300
H  5.41200 47.15600 23.90500
H  7.94500 49.17200 31.54000
H  10.69500 48.28000 31.52700
H  9.40500 50.88200 30.57300
H  11.09600 50.69900 30.30700
H  10.50100 50.76800 31.94300
H  9.26600 46.58600 32.29900
H  7.54700 46.70400 32.15500
H  7.26300 48.37200 33.78700
H  9.06900 48.53100 33.82100
H  14.19800 48.78800 28.79100
H  14.79300 49.49900 27.36000
H  14.98700 47.67200 27.82200
H  15.79100 48.41800 25.41400
H  16.32500 46.99000 24.49700
H  15.80700 46.72300 26.10100
H  9.36500 46.36000 22.16900
H  7.28200 48.38400 22.01900
H  10.04600 47.49000 20.38100
H  10.65600 48.78100 21.52600
H  9.07600 48.98000 20.88100
H  7.13100 45.34900 22.45600
H  7.44900 45.97000 20.83900
H  5.09400 45.53600 21.91800
H  5.40800 46.27000 20.35900
H  5.26200 47.42800 21.65000
H  3.19400 46.84000 25.34000
H  3.62300 48.63300 25.09400
H  2.69300 48.04700 26.43800
H  5.20200 48.33100 31.11000
H  5.16700 44.45500 32.69400
H  3.50000 44.74600 32.82700
H  4.43400 45.50100 33.98300

