158

Mg 43.59800 3.92600 47.54400
C  41.78000 6.98500 47.26500
C  40.57000 2.34200 47.25600
C  45.11600 1.08100 46.67600
C  46.51100 5.74000 47.05100
N  41.40700 4.62100 47.05300
C  40.91100 5.90800 47.09000
C  39.41800 5.92800 47.07100
C  39.05900 4.38800 47.24600
C  40.44700 3.73100 47.16100
C  38.28900 3.98600 48.48100
C  38.75200 6.62500 45.83100
C  38.79200 5.80200 44.55100
H  38.92500 6.71500 43.35700
N  42.95400 1.90200 47.26600
C  41.65900 1.50100 47.17700
C  41.59700 0.09500 46.97600
C  42.90500 -0.41400 46.80600
C  43.70900 0.85700 46.99100
C  40.32200 -0.71000 46.78600
C  43.32700 -1.86600 46.59300
O  42.44000 -2.74200 46.59900
C  44.82800 -2.27500 46.55200
N  45.46700 3.47200 46.76300
C  45.97100 2.18500 46.64200
C  47.54700 2.12600 46.39500
C  47.84400 3.64900 46.73200
C  46.54200 4.34400 46.84400
C  48.36400 1.05000 47.28300
C  48.78900 4.27500 45.71700
C  50.14900 4.83700 46.22300
N  44.12500 5.92900 47.45800
C  45.35900 6.48900 47.23700
C  45.26300 7.98500 47.36000
C  43.87400 8.20100 47.46300
C  43.19600 6.90900 47.42100
C  46.37100 8.95000 47.29100
C  42.78300 9.22100 47.52400
O  42.79500 10.42900 47.75600
C  41.37700 8.47300 47.30100
C  40.38900 8.72200 48.39500
O  40.41900 8.20600 49.48000
O  39.32200 9.48300 47.88100
C  38.34500 9.82200 48.92000
H  39.58900 1.86400 47.24600
H  45.56700 0.13900 46.35500
H  47.39900 6.34400 46.85400
H  39.02500 6.45400 47.94100
H  38.47300 4.08800 46.37700
H  38.92400 3.73200 49.32900
H  37.54000 3.22600 48.25900
H  37.79900 4.91200 48.78300
H  39.41200 7.47600 45.66300
H  37.75200 7.02200 46.00700
H  37.81200 5.32400 44.53800
H  39.65000 5.14800 44.70800
H  40.43300 -1.66900 47.29100
H  40.09000 -0.94800 45.74700
H  39.48600 -0.19600 47.26000
H  45.42300 -1.84600 47.35800
H  45.34700 -1.96200 45.64600
H  44.82500 -3.36500 46.53600
H  47.53500 1.80300 45.35400
H  48.22400 3.84900 47.73400
H  48.03300 1.11200 48.32000
H  49.41000 1.35700 47.27600
H  48.26900 0.03400 46.89900
H  48.27700 5.08700 45.20000
H  49.06600 3.50100 45.00200
H  50.83300 4.02500 45.97400
H  50.10200 5.20500 47.24800
H  50.51200 5.69900 45.66400
H  46.13800 9.73500 48.01000
H  46.35900 9.48500 46.34100
H  47.32800 8.45400 47.45300
H  41.00900 8.90400 46.37000
H  38.22600 9.00900 49.63600
H  37.33400 9.77100 48.51500
H  38.57200 10.73500 49.47100
Mg 49.09400 45.47100 42.33600
C  45.63400 45.86600 41.69800
C  48.84600 42.33900 41.06200
C  52.37600 45.45200 42.14400
C  49.24100 48.94800 43.15100
N  47.41300 44.24300 41.54000
C  46.10000 44.59900 41.32300
C  45.41100 43.59400 40.42200
C  46.29500 42.29600 40.59100
C  47.59600 42.98200 41.10900
C  45.73300 41.26000 41.58100
C  45.27400 44.00100 38.87600
C  43.98200 43.57900 38.04000
H  44.12900 42.78900 36.69300
N  50.41300 44.05500 41.91000
C  50.10600 42.78800 41.42400
C  51.32600 41.97700 41.31000
C  52.40600 42.86600 41.52500
C  51.73500 44.18200 41.94100
C  51.32900 40.48200 40.85800
C  53.81900 42.52600 41.33100
O  54.14700 41.49900 40.67400
C  54.91000 43.44400 41.80000
N  50.67400 47.02800 42.57700
C  51.92300 46.78900 42.27700
C  52.82700 48.07400 42.42900
C  51.78100 49.05500 43.01300
C  50.48800 48.35400 42.91300
C  54.06700 48.02100 43.31300
C  51.88500 50.51800 42.32000
C  51.41900 51.74500 43.14300
N  47.74300 47.09600 42.42700
C  47.94100 48.37300 42.93100
C  46.71400 49.03900 42.98600
C  45.76200 48.10400 42.53600
C  46.43300 46.91500 42.20900
C  46.60400 50.50300 43.31100
C  44.36000 47.94100 42.16500
O  43.46800 48.71400 42.19800
C  44.29300 46.49500 41.51700
C  43.10300 45.79200 42.09500
O  42.46000 44.91100 41.51900
O  43.01700 46.15700 43.38300
C  41.89900 45.48800 44.14700
H  48.81900 41.34700 40.60800
H  53.44700 45.51300 41.93700
H  49.24700 49.96400 43.55100
H  44.42200 43.29100 40.76600
H  46.41700 41.80100 39.62800
H  45.52300 40.33700 41.04200
H  44.78500 41.59900 41.99900
H  46.39700 41.02600 42.41400
H  46.01500 43.45200 38.29600
H  45.46200 45.04800 38.63900
H  43.56000 44.54900 37.77500
H  43.25500 43.05000 38.65700
H  51.54100 40.25700 39.81300
H  50.34300 40.02600 40.94600
H  52.00000 39.87200 41.46400
H  55.22500 44.22600 41.10800
H  55.79500 42.83400 41.97800
H  54.45100 43.79300 42.72500
H  53.19700 48.28800 41.42600
H  51.86900 49.27300 44.07700
H  54.08800 47.07400 43.85300
H  53.85200 48.73400 44.10900
H  55.00300 48.19600 42.78300
H  51.16600 50.50300 41.50100
H  52.84100 50.79200 41.87400
H  52.07800 52.56400 42.85700
H  51.39000 51.47700 44.19900
H  50.37900 52.02000 42.96400
H  47.37300 50.71500 44.05400
H  45.62500 50.83800 43.65400
H  46.88100 51.25400 42.57100
H  44.05700 46.60600 40.45900
H  42.03700 45.47600 45.22800
H  41.67700 44.48200 43.78900
H  41.05300 46.13000 43.90500

