158

Mg 8.38900 2.91200 27.95700
C  9.83100 1.66900 30.80100
C  6.27800 4.82500 29.93700
C  6.67000 3.69300 25.12100
C  9.96400 0.22000 26.11400
N  8.10200 3.20700 30.14000
C  8.97500 2.71200 31.08200
C  8.65500 3.36800 32.41400
C  7.33400 4.16300 32.17400
C  7.24200 4.12000 30.63000
C  6.11400 3.58600 32.89000
C  9.97600 4.11700 32.96300
C  10.72600 3.50600 34.24800
H  11.03700 4.48700 35.46200
N  6.71600 4.16600 27.56600
C  6.03200 4.85300 28.51700
C  5.11600 5.79600 27.73900
C  5.29200 5.50400 26.36400
C  6.21500 4.37900 26.29900
C  4.18600 6.82300 28.43300
C  4.74900 6.23500 25.16100
O  4.96100 5.97200 23.96800
C  3.82100 7.37900 25.36100
N  8.35800 2.06700 25.93000
C  7.57900 2.61800 24.94900
C  7.62200 1.90400 23.60000
C  8.78300 0.81400 23.86500
C  9.07300 1.01000 25.39200
C  6.21400 1.25500 23.28600
C  10.09700 0.97000 23.01000
C  10.33200 -0.14600 22.02500
N  9.72600 1.34300 28.27800
C  10.32800 0.38100 27.51300
C  11.23500 -0.40600 28.25200
C  11.07900 0.11700 29.58200
C  10.10600 1.14200 29.49900
C  11.95400 -1.55000 27.84600
C  11.48200 -0.07900 30.95000
O  12.23100 -0.97700 31.36300
C  10.76400 1.01600 31.76500
C  10.02800 0.39400 32.90500
O  8.89600 -0.11500 32.89400
O  10.76200 0.43300 34.07800
C  10.10200 0.03500 35.34900
H  5.70200 5.54200 30.52600
H  6.29200 4.13300 24.19500
H  10.36000 -0.61000 25.52600
H  8.46100 2.57200 33.13200
H  7.50800 5.18600 32.50700
H  6.07100 2.61100 33.37600
H  5.39800 3.58600 32.06800
H  5.80900 4.32600 33.63000
H  9.64300 5.10200 33.29200
H  10.71600 4.16800 32.16500
H  11.53200 2.80500 34.03300
H  10.00300 2.78900 34.63800
H  4.59300 7.82400 28.57300
H  4.12600 6.51000 29.47500
H  3.20700 6.80800 27.95400
H  2.89600 7.03700 25.82500
H  3.60700 7.85100 24.40300
H  4.22100 8.11100 26.06300
H  8.01200 2.66200 22.92000
H  8.41400 -0.19800 23.70000
H  5.75000 1.95700 22.59300
H  5.50000 1.05700 24.08500
H  6.38000 0.33700 22.72300
H  10.99600 1.18300 23.58900
H  10.06600 1.87200 22.39900
H  10.89500 0.17000 21.14700
H  9.34600 -0.49200 21.71600
H  11.03900 -0.89300 22.38700
H  12.21200 -1.51300 26.78800
H  11.49400 -2.47300 28.19800
H  12.93900 -1.65000 28.30300
H  11.42100 1.76200 32.21300
H  9.83600 -1.01700 35.25100
H  9.14700 0.54400 35.47800
H  10.70400 0.19000 36.24500
Mg 24.04000 -4.50700 46.10900
C  26.51100 -2.23600 44.70400
C  21.71300 -3.04800 44.24100
C  22.31400 -7.28900 46.50800
C  26.87100 -6.01300 47.85000
N  24.13600 -2.83100 44.73200
C  25.19600 -2.07800 44.25800
C  24.62900 -0.98700 43.35400
C  23.09000 -0.95400 43.68400
C  22.92300 -2.35800 44.29900
C  22.65500 0.15900 44.64200
C  24.93900 -1.27600 41.87300
C  25.48600 -0.00600 41.12000
H  26.48500 -0.20800 40.00200
N  22.22700 -5.08100 45.46600
C  21.35600 -4.32200 44.67900
C  20.14700 -5.02700 44.56700
C  20.25900 -6.30100 45.24100
C  21.66600 -6.33200 45.74800
C  18.94100 -4.38900 43.84800
C  19.12400 -7.32400 45.32400
O  18.00900 -7.01900 44.93100
C  19.27400 -8.67800 45.92400
N  24.51200 -6.35600 47.03700
C  23.60800 -7.31600 47.12100
C  24.13500 -8.52200 47.93000
C  25.48100 -8.03900 48.53500
C  25.66400 -6.67700 47.83400
C  23.19200 -9.10500 49.02200
C  26.60700 -9.17500 48.29700
C  27.61400 -9.36500 49.48400
N  26.28700 -4.22500 46.30600
C  27.18700 -4.94100 47.04500
C  28.49700 -4.28200 46.90300
C  28.31000 -3.23700 45.99200
C  26.97900 -3.22100 45.62700
C  29.80400 -4.74600 47.49000
C  28.94100 -2.13800 45.29000
O  30.09200 -1.75500 45.29300
C  27.75900 -1.45500 44.39000
C  27.54200 -0.07500 44.90700
O  26.63200 0.22100 45.73800
O  28.35400 0.80700 44.19300
C  28.04800 2.22800 44.29700
H  20.87500 -2.42300 43.92300
H  21.75700 -8.21700 46.65800
H  27.54300 -6.43800 48.59800
H  24.96000 0.04100 43.49800
H  22.54600 -0.93100 42.74000
H  23.46100 0.77200 45.04600
H  22.08200 -0.33600 45.42600
H  21.90900 0.77700 44.14100
H  24.03400 -1.70400 41.44200
H  25.61000 -2.11500 41.68800
H  25.85400 0.81900 41.72900
H  24.61700 0.33100 40.55500
H  19.23100 -3.58400 43.17300
H  18.37300 -3.89000 44.63400
H  18.36000 -5.19400 43.39900
H  20.16000 -9.09600 45.44500
H  18.43900 -9.30300 45.61100
H  19.47500 -8.61000 46.99400
H  24.39800 -9.24100 47.15400
H  25.33400 -7.72600 49.56800
H  22.17100 -8.75400 48.87400
H  23.53200 -8.70400 49.97600
H  23.28000 -10.19100 49.04600
H  27.19200 -8.96700 47.40100
H  26.09300 -10.12400 48.14700
H  28.65400 -9.22300 49.19000
H  27.45200 -10.37300 49.86600
H  27.32100 -8.58900 50.19200
H  29.63500 -5.22700 48.45400
H  30.28300 -3.79300 47.71500
H  30.42000 -5.22700 46.73100
H  27.77800 -1.52100 43.30200
H  28.56800 2.56700 45.19300
H  26.98300 2.35500 44.49500
H  28.32400 2.80300 43.41300

