158

Mg -12.50200 38.90200 42.55800
C  -10.91500 35.87600 41.34500
C  -9.93600 40.68000 41.00200
C  -14.26100 41.65000 43.13600
C  -15.27400 36.85800 43.35200
N  -10.66300 38.35600 41.32500
C  -10.19400 37.07800 41.04100
C  -8.84900 37.14900 40.21800
C  -8.41400 38.62900 40.37900
C  -9.71400 39.29500 40.95900
C  -7.19400 38.84200 41.27700
C  -9.01500 36.65100 38.75200
C  -7.79600 35.88100 38.11600
H  -6.82600 36.64000 37.27200
N  -12.08500 40.90900 42.20300
C  -10.99700 41.45100 41.51200
C  -11.22500 42.87400 41.40800
C  -12.45900 43.17000 42.01600
C  -13.00500 41.90500 42.54900
C  -10.24400 43.79900 40.72400
C  -13.06200 44.52800 41.98000
O  -12.46600 45.46200 41.38800
C  -14.38000 44.79000 42.57500
N  -14.38000 39.16900 43.31400
C  -14.85600 40.46500 43.48800
C  -16.36600 40.45700 44.00600
C  -16.73900 38.91900 43.98200
C  -15.42200 38.27500 43.50200
C  -16.52100 41.30200 45.29600
C  -18.04500 38.73000 43.09600
C  -19.03300 37.53700 43.56400
N  -12.97300 36.75200 42.51900
C  -14.15600 36.13800 42.83300
C  -13.97100 34.68100 42.69700
C  -12.75100 34.53700 42.03100
C  -12.20600 35.83600 41.90800
C  -14.93500 33.58300 42.94900
C  -11.77900 33.61000 41.52300
O  -11.74900 32.41100 41.47100
C  -10.54800 34.48000 40.95000
C  -9.24900 34.15800 41.62200
O  -8.82500 34.59700 42.64400
O  -8.61700 33.28100 40.74800
C  -7.29100 32.76700 41.12300
H  -9.18900 41.28500 40.48400
H  -14.89600 42.53200 43.24000
H  -16.17000 36.31500 43.65800
H  -8.07700 36.49200 40.62000
H  -7.94800 39.00200 39.46700
H  -7.44800 39.42700 42.16200
H  -6.52500 39.50300 40.72500
H  -6.73900 37.86300 41.42800
H  -9.30100 37.49100 38.11900
H  -9.88800 36.00400 38.66400
H  -8.25900 35.16200 37.44000
H  -7.24200 35.47900 38.96400
H  -10.64900 44.36800 39.88600
H  -9.40300 43.20900 40.36100
H  -9.79300 44.44400 41.47900
H  -15.14900 44.18700 42.09300
H  -14.61000 45.85100 42.48500
H  -14.30000 44.43100 43.60200
H  -16.94900 41.05100 43.30200
H  -16.94200 38.63900 45.01600
H  -17.11400 40.74900 46.02400
H  -16.86500 42.31400 45.08500
H  -15.56400 41.54400 45.75900
H  -17.86000 38.53900 42.04000
H  -18.65600 39.63200 43.04600
H  -18.67300 36.62200 43.09500
H  -20.06900 37.84400 43.42200
H  -18.93000 37.36200 44.63500
H  -14.38500 32.72000 43.32400
H  -15.69900 33.32900 42.21500
H  -15.51800 33.83300 43.83500
H  -10.39600 34.39700 39.87400
H  -7.36300 32.16600 42.02900
H  -6.66100 33.63200 41.32600
H  -6.82700 32.08900 40.40500
Mg -5.92100 25.41900 25.84300
C  -4.09300 26.94200 28.44300
C  -7.02800 23.13300 28.12800
C  -7.07900 23.71100 23.30000
C  -3.97100 27.53900 23.62200
N  -5.51500 25.08400 28.04200
C  -4.89900 25.90800 28.86900
C  -5.18500 25.58800 30.33800
C  -5.84100 24.16500 30.13700
C  -6.21500 24.11300 28.68400
C  -4.99000 22.93600 30.69800
C  -6.14000 26.54400 30.99500
C  -6.12900 26.74800 32.57900
H  -5.73900 25.48200 33.45600
N  -6.99900 23.69300 25.74900
C  -7.49000 22.94800 26.77900
C  -8.44200 21.96500 26.25100
C  -8.49300 22.19300 24.85800
C  -7.48700 23.22300 24.57700
C  -9.19400 20.98700 27.17400
C  -9.26500 21.34400 23.87500
O  -9.10000 21.51900 22.65100
C  -10.16300 20.20600 24.26000
N  -5.56700 25.59100 23.84400
C  -6.21500 24.76300 23.01600
C  -5.70900 24.96100 21.53900
C  -4.86200 26.25000 21.62500
C  -4.75400 26.45800 23.11900
C  -5.00500 23.71500 20.94200
C  -5.54600 27.47500 20.88000
C  -5.71500 27.27600 19.32000
N  -4.33900 26.94400 25.93600
C  -3.74100 27.70000 25.02600
C  -2.95400 28.68700 25.61000
C  -3.03600 28.43900 27.01200
C  -3.87900 27.35700 27.07800
C  -2.16600 29.85900 24.99700
C  -2.57100 28.91300 28.26900
O  -1.87500 29.90200 28.63200
C  -3.31700 27.93400 29.29800
C  -2.35000 27.30300 30.19200
O  -1.34200 26.75000 29.82400
O  -2.71700 27.44700 31.51600
C  -1.75600 26.90700 32.47800
H  -7.44100 22.47900 28.90000
H  -7.49500 23.32700 22.36600
H  -3.59700 28.33700 22.97700
H  -4.22500 25.46100 30.83700
H  -6.75000 24.12900 30.73700
H  -5.37900 22.61900 31.66500
H  -4.00600 23.37200 30.86700
H  -4.98000 22.13600 29.95800
H  -7.17100 26.29300 30.74400
H  -5.88500 27.54700 30.65200
H  -7.10100 27.13800 32.88100
H  -5.38900 27.52600 32.76700
H  -8.84800 20.00400 26.85400
H  -10.26500 21.05300 26.97900
H  -8.94900 21.27900 28.19500
H  -10.99500 20.55400 24.87200
H  -9.66700 19.48800 24.91300
H  -10.51900 19.74700 23.33700
H  -6.66400 25.12200 21.03900
H  -3.86300 26.07300 21.22600
H  -5.66600 23.19700 20.24800
H  -4.64900 23.04600 21.72500
H  -4.08000 23.94100 20.41100
H  -5.00100 28.37300 21.17100
H  -6.56100 27.65500 21.23300
H  -5.47900 28.15800 18.72400
H  -6.71600 27.11000 18.92100
H  -5.13200 26.42900 18.96000
H  -2.33200 29.96400 23.92400
H  -1.07800 29.87600 25.06100
H  -2.47300 30.77200 25.50700
H  -3.93700 28.59000 29.90800
H  -0.76300 27.26200 32.20400
H  -1.99900 25.84400 32.49400
H  -1.92400 27.28900 33.48500

