158

Mg 25.20400 1.69800 30.05200
C  27.05100 1.80300 33.03800
C  22.32100 1.96000 31.93800
C  23.40900 1.33500 27.21700
C  28.03100 0.66700 28.29700
N  24.75500 1.85200 32.23400
C  25.65400 2.05500 33.18500
C  25.03200 2.30700 34.51000
C  23.46900 2.27200 34.22100
C  23.48700 1.93900 32.71700
C  22.64900 1.43600 35.13900
C  25.51300 3.68200 35.10400
C  26.33700 3.65400 36.38500
H  25.87700 4.56100 37.62700
N  23.18600 1.62000 29.64100
C  22.14600 1.81600 30.53100
C  20.89500 1.83300 29.78700
C  21.23300 1.54900 28.36900
C  22.66700 1.49200 28.34400
C  19.50300 1.92700 30.47000
C  20.25700 1.25200 27.20600
O  20.57500 1.24600 26.03000
C  18.80000 1.06100 27.49800
N  25.64000 1.04600 28.04000
C  24.80700 1.23200 26.99100
C  25.48000 1.15400 25.64800
C  26.97900 0.86500 26.02100
C  26.89400 0.81200 27.50600
C  24.73100 0.28400 24.55900
C  28.01100 1.79800 25.33300
C  28.07300 1.77700 23.80400
N  27.18600 1.38800 30.49200
C  28.16700 0.91400 29.66200
C  29.28600 0.77600 30.50700
C  28.95400 1.11400 31.75700
C  27.61300 1.47100 31.78400
C  30.55900 0.32300 29.88600
C  29.43800 1.32500 33.12800
O  30.59300 1.09100 33.49400
C  28.27000 1.69600 34.10100
C  28.19700 0.51800 35.07800
O  27.68300 -0.57600 34.93100
O  28.94800 0.90500 36.19200
C  29.06800 -0.12400 37.25100
H  21.36200 1.98000 32.45900
H  22.92600 1.36900 26.23900
H  28.96800 0.42200 27.79100
H  25.42500 1.44000 35.04000
H  23.05800 3.28100 34.18500
H  22.50300 0.53600 34.54200
H  21.65300 1.80700 35.38100
H  23.24100 1.11900 35.99800
H  24.71000 4.41200 35.20100
H  26.19500 4.05400 34.34000
H  27.31500 4.06100 36.12600
H  26.35700 2.65600 36.82300
H  19.14400 0.99700 30.90800
H  18.86300 2.48300 29.78400
H  19.61900 2.56000 31.35000
H  18.30500 0.65100 26.61800
H  18.56400 2.11300 27.65800
H  18.46500 0.47900 28.35700
H  25.42300 2.15600 25.22300
H  27.22600 -0.09100 25.55800
H  23.71300 -0.03000 24.79000
H  25.28300 -0.61700 24.29400
H  24.51400 0.88400 23.67600
H  29.05400 1.60800 25.58900
H  27.79600 2.81600 25.65600
H  28.99000 1.28500 23.47900
H  28.07900 2.79700 23.42200
H  27.24200 1.15500 23.47000
H  30.96100 1.18000 29.34500
H  30.53600 -0.48900 29.15800
H  31.26000 0.08300 30.68600
H  28.39100 2.58200 34.72400
H  29.56100 -0.98200 36.79500
H  28.12700 -0.52500 37.63000
H  29.65200 0.27900 38.07900
Mg 27.98300 49.97600 26.24100
C  25.87700 50.84600 28.90500
C  30.33300 49.32100 28.65900
C  30.12400 49.21900 23.81600
C  25.39500 50.66200 24.12400
N  28.09500 50.20100 28.50600
C  27.13200 50.45500 29.39900
C  27.51200 50.31700 30.82300
C  29.02500 49.92300 30.74800
C  29.13200 49.80000 29.22200
C  29.97300 50.88300 31.57300
C  26.53000 49.40200 31.65700
C  25.93400 50.00600 32.91700
H  26.01200 49.17900 34.20700
N  29.87600 49.29300 26.19700
C  30.67000 48.99300 27.31100
C  31.97200 48.46700 26.84100
C  31.92700 48.50900 25.41600
C  30.59600 49.02100 25.06400
C  33.10400 48.07800 27.77900
C  33.04600 48.12000 24.45300
O  32.94700 48.34900 23.28500
C  34.30700 47.55000 24.94000
N  27.80900 50.08100 24.27900
C  28.82900 49.56100 23.45600
C  28.29900 49.54500 21.99300
C  26.74600 49.67500 22.20500
C  26.56400 50.07800 23.67800
C  28.97200 50.65600 21.12000
C  26.02800 48.25800 21.92300
C  25.17200 48.12400 20.59200
N  26.07700 50.76400 26.46500
C  25.10500 51.02100 25.49200
C  23.88400 51.57000 26.06000
C  24.18700 51.47300 27.41400
C  25.47700 50.97500 27.60300
C  22.68600 52.02700 25.37800
C  23.68300 51.76000 28.71700
O  22.57300 52.08500 29.06500
C  24.71100 51.41700 29.69200
C  25.03100 52.64300 30.48200
O  25.83400 53.49200 30.13100
O  24.29900 52.70700 31.62200
C  24.65200 53.81400 32.52900
H  31.03300 49.07400 29.46000
H  30.79200 48.82300 23.04800
H  24.57900 50.60500 23.40000
H  27.40000 51.31900 31.23700
H  29.17600 48.88200 31.03100
H  30.86800 51.11100 30.99600
H  30.35500 50.36300 32.45200
H  29.47600 51.77400 31.95700
H  27.01400 48.46900 31.94600
H  25.66700 49.04800 31.09500
H  24.88000 50.26400 32.81100
H  26.36600 50.98400 33.12900
H  33.87600 48.82900 27.61000
H  33.37700 47.05000 27.54100
H  32.75600 48.26400 28.79500
H  34.83000 48.17100 25.66800
H  34.91800 47.52000 24.03800
H  34.11600 46.54000 25.30300
H  28.52100 48.55000 21.60500
H  26.29900 50.48800 21.63500
H  29.64800 51.37700 21.57900
H  28.19400 51.17900 20.56400
H  29.46600 50.08800 20.33300
H  25.54900 48.08300 22.88600
H  26.78200 47.47300 21.98300
H  25.21200 48.95500 19.88800
H  24.15300 47.99600 20.95500
H  25.49000 47.24600 20.03000
H  22.24500 51.38300 24.61800
H  23.03300 52.96600 24.94500
H  21.93300 52.09200 26.16300
H  24.20800 50.75400 30.39600
H  25.45800 53.53200 33.20600
H  23.76200 53.97300 33.13800
H  24.74900 54.73000 31.94600

