158

Mg -10.74400 37.84300 41.61200
C  -8.69500 35.02800 41.33300
C  -8.31700 39.67400 39.84600
C  -12.82400 40.51600 41.32700
C  -13.21200 35.84500 42.88400
N  -8.72000 37.37700 40.64600
C  -8.14000 36.13100 40.59800
C  -6.81400 36.22400 39.90600
C  -6.62800 37.77900 39.69700
C  -8.00600 38.28300 39.99100
C  -5.34200 38.41800 40.39800
C  -6.80500 35.44600 38.57500
C  -5.49800 34.59300 38.32600
H  -4.44200 35.15300 37.29000
N  -10.53200 39.82800 40.90400
C  -9.45300 40.33700 40.21400
C  -9.58000 41.73700 39.99300
C  -10.86800 42.10000 40.45200
C  -11.52300 40.78800 40.92600
C  -8.53900 42.56100 39.19700
C  -11.53500 43.46600 40.44800
O  -10.81000 44.45000 40.04600
C  -12.84500 43.76400 41.01900
N  -12.76400 38.13200 41.90500
C  -13.36900 39.33500 41.88600
C  -14.88100 39.23200 42.27800
C  -14.98800 37.73400 42.84300
C  -13.56900 37.15200 42.46000
C  -15.32500 40.36700 43.32900
C  -16.24300 37.00600 42.32900
C  -16.23000 36.04500 41.16800
N  -10.94500 35.84400 42.14500
C  -11.97900 35.21100 42.68900
C  -11.57000 33.78100 43.01300
C  -10.27100 33.68200 42.46700
C  -9.95100 34.97200 41.92600
C  -12.47400 32.77800 43.68000
C  -9.18900 32.80900 42.24800
O  -9.13000 31.65700 42.56800
C  -8.11400 33.64500 41.46300
C  -6.79300 33.56300 42.08700
O  -6.31800 32.49500 42.34100
O  -6.33200 34.74500 42.59400
C  -5.26000 34.73200 43.56900
H  -7.49200 40.20200 39.36200
H  -13.49100 41.37800 41.40100
H  -14.05600 35.19100 43.11500
H  -6.00200 35.95900 40.58300
H  -6.43300 38.07500 38.66600
H  -4.80800 37.73800 41.06200
H  -5.68800 39.18000 41.09700
H  -4.72500 38.97900 39.69600
H  -6.84200 36.10900 37.71100
H  -7.65200 34.76100 38.52900
H  -5.88300 33.64900 37.94100
H  -4.92700 34.35100 39.22200
H  -8.12700 43.17700 39.99700
H  -8.99600 43.13300 38.39000
H  -7.78900 41.93700 38.70900
H  -13.01100 43.36300 42.01900
H  -13.59400 43.43900 40.29700
H  -13.00300 44.84200 41.07000
H  -15.33500 39.31000 41.29000
H  -15.12500 37.76200 43.92400
H  -15.87800 41.14000 42.79600
H  -14.46900 40.84000 43.81100
H  -15.93600 39.99500 44.15100
H  -16.98000 37.76000 42.05200
H  -16.64000 36.42500 43.16100
H  -16.97200 36.38300 40.44500
H  -16.43500 35.00900 41.43800
H  -15.22600 36.07800 40.74300
H  -12.76500 32.01600 42.95700
H  -13.31300 33.32200 44.11600
H  -11.98300 32.19500 44.45900
H  -8.01800 33.23600 40.45700
H  -5.62900 34.82200 44.59100
H  -4.58400 35.57100 43.40500
H  -4.64200 33.83400 43.55700
Mg -0.82200 33.35500 27.35300
C  -2.93600 31.99200 29.75700
C  0.66300 35.44800 29.69800
C  0.70400 34.98200 24.86600
C  -2.73800 31.57600 24.94200
N  -1.07800 33.66200 29.44600
C  -1.90600 32.87700 30.25700
C  -1.73300 33.22200 31.75500
C  -0.62000 34.30300 31.67800
C  -0.33400 34.51200 30.15700
C  -1.05200 35.61900 32.36900
C  -1.52500 32.02000 32.64200
C  -0.66100 32.13000 33.88600
H  -1.18200 31.50600 35.16500
N  0.45600 35.01100 27.29500
C  1.02100 35.65000 28.38900
C  2.01600 36.61000 27.96100
C  1.98300 36.57500 26.48500
C  1.00100 35.50800 26.16000
C  2.84400 37.42800 28.98900
C  2.76700 37.39400 25.44500
O  2.66800 37.20600 24.25400
C  3.64600 38.39100 25.97500
N  -0.97100 33.29400 25.20000
C  -0.12300 33.89900 24.44900
C  -0.21900 33.45500 22.99600
C  -1.10900 32.20900 23.01400
C  -1.66000 32.34400 24.48900
C  -0.78300 34.50700 21.99100
C  -0.41600 30.88900 22.68300
C  -0.89000 30.00600 21.55200
N  -2.45300 31.93100 27.29800
C  -3.12100 31.38800 26.28600
C  -4.21000 30.51900 26.72300
C  -4.20300 30.75000 28.15600
C  -3.10400 31.59100 28.42200
C  -5.09500 29.57000 25.87700
C  -4.88800 30.37300 29.41300
O  -5.92800 29.75800 29.62900
C  -3.99800 31.11200 30.53000
C  -4.84200 32.07100 31.25300
O  -5.02600 33.22400 30.95900
O  -5.42400 31.36100 32.28300
C  -6.40400 32.11400 33.10100
H  1.19900 35.93000 30.51800
H  1.24200 35.41600 24.02100
H  -3.27900 30.91800 24.26000
H  -2.66600 33.73000 32.00300
H  0.29900 33.85300 32.05200
H  -0.89100 35.60000 33.44700
H  -2.10700 35.76600 32.13600
H  -0.39100 36.34300 31.89300
H  -1.13900 31.12700 32.15200
H  -2.50200 31.70100 33.00500
H  -0.59000 33.19600 34.10200
H  0.34600 31.77900 33.66200
H  2.19500 37.83300 29.76600
H  3.34800 38.29300 28.55700
H  3.50700 36.74600 29.52100
H  4.48400 37.91200 26.48200
H  3.08600 38.99500 26.68800
H  4.15300 38.97800 25.20800
H  0.82500 33.19300 22.82500
H  -2.01400 32.34200 22.42200
H  0.04900 34.81300 21.35600
H  -1.02400 35.44900 22.48300
H  -1.54800 34.19100 21.28200
H  -0.61200 30.26900 23.55900
H  0.64600 31.07400 22.52200
H  -1.90000 30.32800 21.30100
H  -1.05600 28.95400 21.78300
H  -0.32200 30.18400 20.63800
H  -4.61100 29.14800 24.99600
H  -5.93900 30.12900 25.47400
H  -5.61400 28.90100 26.56300
H  -3.44300 30.55100 31.28200
H  -5.87700 32.88900 33.65800
H  -6.77500 31.41500 33.85000
H  -7.24000 32.47500 32.50200

