158

Mg 54.20000 24.75700 45.18700
C  51.86600 27.18100 44.21100
C  52.17000 22.40600 43.74900
C  56.76500 22.55400 45.15000
C  56.28600 27.27500 46.31800
N  52.27400 24.82800 44.00600
C  51.47800 25.87200 43.80400
C  50.27200 25.56500 42.94400
C  50.17900 23.99900 43.17100
C  51.63400 23.68600 43.66300
C  49.04000 23.67100 44.20900
C  50.49900 26.18300 41.55200
C  50.79800 25.26800 40.34400
H  52.10200 25.43800 39.55500
N  54.40700 22.68600 44.60600
C  53.44400 21.87900 44.02500
C  53.90800 20.49800 44.00200
C  55.28800 20.59000 44.28100
C  55.56200 21.97900 44.77100
C  53.02300 19.32300 43.61100
C  56.25800 19.37200 44.12700
O  55.89300 18.22600 43.84200
C  57.77900 19.43200 44.25200
N  56.30300 24.89700 45.56200
C  57.15300 23.91000 45.39700
C  58.61500 24.28000 45.96500
C  58.33700 25.75400 46.51000
C  56.89400 26.01800 46.06400
C  59.18200 23.40000 47.15800
C  59.32500 26.84300 45.99100
C  59.84500 27.75600 47.11400
N  54.11500 26.82100 45.32500
C  54.94800 27.67800 46.01500
C  54.30800 28.91000 46.15800
C  53.14700 28.86100 45.39000
C  53.02100 27.51700 44.91900
C  54.96500 30.16800 46.76900
C  51.94600 29.52300 44.87400
O  51.64500 30.72200 44.87700
C  51.06400 28.43700 44.20400
C  50.69500 28.98200 42.85800
O  51.42300 29.59300 42.09800
O  49.29900 28.80900 42.72000
C  48.49700 29.42700 41.62200
H  51.50700 21.58900 43.45600
H  57.67500 21.95100 45.15700
H  57.00700 28.00400 46.69200
H  49.51600 26.10500 43.51400
H  49.84900 23.43700 42.29700
H  48.47500 24.49700 44.64100
H  49.45700 23.20100 45.10000
H  48.35700 22.98800 43.70400
H  51.37500 26.83000 41.59700
H  49.68300 26.83500 41.24200
H  49.98200 25.40700 39.63600
H  50.70400 24.21500 40.60700
H  52.59200 19.73700 42.70000
H  52.27100 19.24300 44.39600
H  53.52800 18.37100 43.44700
H  58.24100 18.46100 44.07400
H  58.04200 19.72300 45.26900
H  58.07400 20.16700 43.50300
H  59.33000 24.27700 45.14200
H  58.27200 25.75300 47.59800
H  58.53800 22.54100 47.34500
H  59.40600 23.95800 48.06700
H  60.12500 22.92100 46.89500
H  58.96200 27.56100 45.25500
H  60.23500 26.37900 45.61100
H  60.92200 27.69600 47.27000
H  59.42500 27.42500 48.06400
H  59.63600 28.77600 46.79100
H  54.13400 30.82300 47.03200
H  55.75800 30.65900 46.20400
H  55.43900 29.88800 47.70900
H  50.20800 28.41200 44.87900
H  48.18000 28.70100 40.87300
H  49.09600 30.23600 41.20500
H  47.63200 29.88000 42.10600
Mg 10.04900 47.00300 26.16600
C  8.24400 46.99300 29.11200
C  12.78500 48.11900 27.86900
C  11.70400 47.10100 23.28200
C  6.94800 46.57800 24.39900
N  10.41300 47.49500 28.24500
C  9.56100 47.40000 29.28000
C  10.21000 47.76700 30.55500
C  11.43300 48.62300 29.96500
C  11.58400 48.00500 28.60800
C  11.10800 50.14400 29.91500
C  10.71800 46.54400 31.26900
C  10.89500 46.72400 32.76200
H  10.49400 45.62000 33.72200
N  11.94600 47.61700 25.60800
C  12.95000 47.95700 26.46900
C  14.22700 47.97300 25.82000
C  13.94300 47.60700 24.48700
C  12.47600 47.49600 24.34400
C  15.52000 48.35800 26.44100
C  15.03000 47.28400 23.45500
O  14.66200 47.14500 22.30000
C  16.51500 47.35400 23.77300
N  9.40100 47.07700 24.10700
C  10.39500 47.10100 23.12000
C  9.72400 46.83300 21.75200
C  8.20800 46.46200 22.13000
C  8.14100 46.81100 23.66900
C  9.87800 47.95700 20.78700
C  7.90700 45.02100 21.87300
C  8.68100 43.93700 22.69100
N  7.99000 46.79400 26.56300
C  6.86700 46.69900 25.79700
C  5.74900 46.47300 26.66600
C  6.21000 46.63900 28.00900
C  7.60500 46.78400 27.85400
C  4.37900 46.00100 26.28800
C  5.78200 46.65500 29.34900
O  4.63000 46.56500 29.84400
C  7.10800 46.85300 30.19100
C  7.33800 45.66800 31.05800
O  7.77000 44.59700 30.69000
O  6.80800 45.93500 32.32800
C  6.72900 44.75300 33.20900
H  13.68700 48.42700 28.40200
H  12.23700 46.98800 22.33500
H  6.05000 46.44000 23.79300
H  9.43400 48.13300 31.22600
H  12.34100 48.36500 30.51000
H  10.03800 50.28100 30.07200
H  11.27600 50.32400 28.85300
H  11.71600 50.71300 30.61800
H  11.65900 46.24500 30.80800
H  10.06600 45.69900 31.04400
H  10.54700 47.67200 33.17200
H  11.97800 46.73700 32.87900
H  15.48100 48.62900 27.49600
H  16.04000 49.22400 26.03100
H  16.09900 47.43500 26.47100
H  16.67500 46.50900 24.44400
H  16.89800 48.26600 24.23100
H  17.13900 47.11900 22.91100
H  10.29500 46.01300 21.31600
H  7.48300 47.10400 21.63100
H  10.38500 47.69100 19.85900
H  10.40000 48.74600 21.32800
H  8.87300 48.22200 20.45900
H  8.03700 44.74800 20.82600
H  6.81900 45.00800 21.94100
H  9.24400 44.37000 23.51800
H  9.53500 43.71600 22.05200
H  8.04100 43.09300 22.94800
H  4.33900 45.38100 25.39200
H  3.65600 46.81200 26.20200
H  4.01500 45.37200 27.10100
H  6.86500 47.72500 30.79900
H  7.54700 44.03300 33.18100
H  5.74300 44.28700 33.21900
H  6.86000 45.12000 34.22700

