158

Mg 48.10100 15.51600 29.07100
C  45.90600 15.37100 31.72700
C  50.19700 17.34600 31.20600
C  50.26100 15.92100 26.62000
C  45.69400 14.19700 27.01800
N  48.06500 16.27700 31.20000
C  47.12100 15.93700 32.09900
C  47.52600 16.36900 33.52300
C  48.71800 17.32700 33.30600
C  49.01700 16.93300 31.80600
C  48.46800 18.89100 33.43000
C  47.80000 15.12400 34.38000
C  47.53500 15.16600 35.89100
H  47.19900 16.52800 36.57700
N  50.09300 16.29700 28.96500
C  50.78700 16.99200 29.94800
C  52.10000 17.09800 29.51600
C  52.18400 16.52700 28.26000
C  50.80300 16.30800 27.82800
C  53.19400 17.61200 30.38000
C  53.36700 16.33100 27.25100
O  53.20500 15.77600 26.15100
C  54.80700 16.72900 27.59400
N  47.98900 15.16300 27.11700
C  49.00900 15.51200 26.22900
C  48.47200 15.23400 24.82300
C  47.11200 14.50700 24.96200
C  46.90600 14.65400 26.48800
C  48.61800 16.51700 23.93800
C  47.15200 12.99600 24.55600
C  46.05900 12.46100 23.67300
N  46.10800 14.89200 29.22000
C  45.22300 14.25300 28.37700
C  43.92600 14.01400 28.96800
C  44.16100 14.42400 30.31700
C  45.48400 14.93600 30.41100
C  42.76400 13.25200 28.42200
C  43.56700 14.36200 31.69600
O  42.54100 13.90000 32.06600
C  44.66700 15.15100 32.56800
C  44.03100 16.37200 33.14500
O  43.97100 17.46300 32.57100
O  43.48500 16.16100 34.40300
C  42.82700 17.29600 34.97900
H  50.87100 18.00800 31.75400
H  50.88800 16.06500 25.73800
H  44.89800 13.83000 26.36600
H  46.67800 16.92100 33.92700
H  49.48300 16.90800 33.95900
H  47.39300 19.01300 33.56500
H  48.69600 19.33100 32.45900
H  49.11000 19.23600 34.24000
H  48.81900 14.78100 34.19800
H  47.16900 14.34900 33.94700
H  48.36400 14.70900 36.43200
H  46.71100 14.48300 36.09600
H  53.83100 16.77800 30.67500
H  52.76900 17.97400 31.31600
H  53.69900 18.46400 29.92500
H  54.65700 17.74900 27.94900
H  55.41800 16.63200 26.69700
H  55.32100 16.14800 28.36000
H  49.11200 14.53000 24.29100
H  46.37100 15.01000 24.34100
H  48.49700 17.44700 24.49400
H  47.83900 16.65400 23.18800
H  49.58800 16.61100 23.45100
H  47.06700 12.49100 25.51800
H  48.13700 12.78600 24.13900
H  46.41000 12.11500 22.70000
H  45.36100 13.27500 23.47400
H  45.37000 11.78800 24.18300
H  43.15700 12.66000 27.59600
H  42.01900 13.94400 28.03100
H  42.20300 12.75000 29.21000
H  44.97800 14.50400 33.38900
H  43.47900 18.11900 35.27100
H  42.44400 16.90200 35.92100
H  41.96800 17.56500 34.36400
Mg 9.39500 47.93600 25.17800
C  7.40700 48.35100 27.86700
C  11.94000 49.63000 26.87300
C  11.43200 47.36600 22.59700
C  6.66800 46.86800 23.23900
N  9.60200 48.85200 27.14800
C  8.68600 48.77600 28.14600
C  9.30800 49.21700 29.46900
C  10.51800 50.00400 28.96300
C  10.70900 49.60300 27.51000
C  10.21700 51.53500 29.04300
C  9.72500 48.12100 30.46900
C  9.06200 48.21800 31.86900
H  9.45100 47.10000 32.88500
N  11.41800 48.44100 24.75900
C  12.32300 49.08700 25.62400
C  13.63000 49.04900 25.06600
C  13.48600 48.43700 23.82200
C  12.08400 48.03900 23.65500
C  14.87900 49.58900 25.82900
C  14.57300 48.23100 22.72000
O  14.40900 47.69100 21.59700
C  15.98600 48.74500 22.98200
N  9.02800 47.33600 23.09500
C  10.07500 47.17900 22.27400
C  9.68800 46.48600 20.94100
C  8.09300 46.39000 21.12300
C  7.85700 46.89100 22.58700
C  10.00200 47.37400 19.69800
C  7.49800 44.96200 20.87800
C  7.69000 43.95200 22.04500
N  7.45700 47.55600 25.45100
C  6.37200 47.17700 24.56500
C  5.16200 47.26700 25.30900
C  5.46900 47.62100 26.61700
C  6.89400 47.84400 26.62000
C  3.87700 47.07100 24.76600
C  4.94700 47.74800 27.92000
O  3.82700 47.64300 28.35300
C  6.21100 48.19900 28.86200
C  6.37500 47.12500 29.90900
O  7.26800 46.23700 29.83800
O  5.44000 47.15600 30.87000
C  5.70500 46.21100 31.97300
H  12.70400 50.05600 27.52600
H  12.06000 47.03700 21.76700
H  5.84200 46.45900 22.65300
H  8.58800 49.85200 29.98400
H  11.39300 49.80300 29.58100
H  10.38800 51.96200 30.03100
H  9.19100 51.79500 28.78000
H  10.79800 52.12500 28.33400
H  10.79000 48.16100 30.69900
H  9.55400 47.10700 30.11000
H  7.97300 48.26100 31.83200
H  9.35000 49.16500 32.32400
H  14.58400 49.86000 26.84300
H  15.51500 50.37000 25.41400
H  15.50200 48.70500 25.96100
H  15.96400 49.83500 22.97500
H  16.66000 48.44700 22.17800
H  16.38100 48.33300 23.91000
H  10.15600 45.50100 20.91300
H  7.58100 46.94200 20.33500
H  10.11100 48.42600 19.96100
H  9.23200 47.33300 18.92800
H  10.96700 47.05000 19.31100
H  8.06500 44.57100 20.03300
H  6.43100 45.04300 20.66900
H  8.15800 43.04900 21.65400
H  6.66400 43.68800 22.30000
H  8.22800 44.35100 22.90400
H  3.92200 46.68900 23.74600
H  3.26100 47.96300 24.88200
H  3.42600 46.24400 25.31400
H  6.04000 49.16900 29.32800
H  5.89400 45.17700 31.68500
H  4.73800 46.09800 32.46400
H  6.36400 46.57200 32.76200

