158

Mg 43.47800 4.30300 48.51000
C  40.95900 6.68900 47.47700
C  41.06700 1.93100 48.07600
C  46.03800 2.11400 48.45100
C  45.73000 6.85300 48.29500
N  41.29300 4.32500 47.70500
C  40.43600 5.37900 47.34000
C  39.02100 4.87400 47.12300
C  39.03700 3.31900 47.56000
C  40.55100 3.15800 47.76200
C  38.29800 2.99800 48.92200
C  38.53500 5.05000 45.66000
C  37.54300 6.15200 45.20700
H  37.90200 6.91200 43.89000
N  43.51700 2.25000 48.46800
C  42.40800 1.47800 48.34200
C  42.88600 0.07400 48.35200
C  44.27000 0.11600 48.48000
C  44.71000 1.52400 48.39300
C  41.94500 -1.13800 48.36900
C  45.06600 -1.10200 48.76100
O  44.54400 -2.18200 48.85000
C  46.51600 -1.09100 49.05400
N  45.61300 4.46400 48.27000
C  46.43000 3.41700 48.36700
C  47.92100 3.89800 48.53900
C  47.83800 5.45300 48.43600
C  46.34700 5.63700 48.34300
C  48.52700 3.35500 49.87400
C  48.67300 6.14400 47.22000
C  50.12600 6.69400 47.54000
N  43.43400 6.30800 48.02700
C  44.40400 7.26200 48.03800
C  43.90200 8.61400 47.78700
C  42.54500 8.36900 47.69500
C  42.32400 7.03800 47.75200
C  44.66600 9.84000 47.75700
C  41.25400 9.08400 47.49000
O  40.99700 10.25900 47.40900
C  40.19700 7.95400 47.35900
C  39.29400 8.12300 48.48600
O  39.08200 7.37000 49.44300
O  38.46400 9.18300 48.19800
C  37.38700 9.39200 49.13500
H  40.33000 1.17400 47.80200
H  46.83700 1.37000 48.48200
H  46.55400 7.56900 48.26000
H  38.31700 5.39400 47.77300
H  38.69800 2.60700 46.80700
H  38.98700 2.82000 49.74700
H  37.62400 2.15600 48.76300
H  37.62000 3.80000 49.21200
H  38.14100 4.12900 45.23000
H  39.36500 5.20400 44.97000
H  37.45100 6.94500 45.95000
H  36.55500 5.72900 45.02500
H  40.94900 -0.69700 48.32400
H  42.15800 -1.66500 49.29900
H  42.21200 -1.86300 47.59900
H  46.92900 -1.11500 48.04500
H  46.81500 -1.93500 49.67500
H  46.79800 -0.24300 49.67800
H  48.55800 3.46000 47.77100
H  48.11600 5.95800 49.36200
H  48.84900 4.09900 50.60300
H  49.35600 2.73500 49.52900
H  47.82100 2.77500 50.46800
H  48.15700 7.01400 46.81400
H  48.72500 5.45600 46.37600
H  50.90300 6.18200 46.97100
H  50.21300 6.51300 48.61100
H  50.13200 7.76300 47.32700
H  44.46300 10.31700 46.79800
H  45.72600 9.58900 47.73000
H  44.40800 10.50800 48.57800
H  39.71300 8.07600 46.39000
H  36.68800 8.56400 49.25200
H  36.70500 10.21600 48.92500
H  37.80900 9.57200 50.12400
Mg -1.93400 34.90000 26.85400
C  -3.20400 32.92600 29.50800
C  -0.53300 36.94200 29.17100
C  -1.08900 36.92100 24.29700
C  -3.37800 32.63400 24.62300
N  -2.02600 34.95900 29.11800
C  -2.51700 34.03300 30.02000
C  -2.23200 34.43600 31.52400
C  -1.42000 35.79400 31.33800
C  -1.23100 35.88300 29.78700
C  -1.99800 37.08300 31.89500
C  -1.44400 33.33100 32.37600
C  -2.18300 32.98100 33.66700
H  -1.27700 32.96600 34.90600
N  -1.03300 36.75200 26.75500
C  -0.52200 37.43100 27.81000
C  0.18200 38.61700 27.35100
C  -0.06100 38.68700 25.90500
C  -0.73000 37.39000 25.60500
C  0.75800 39.64400 28.31100
C  0.25900 39.80200 24.90100
O  -0.16600 39.78300 23.76000
C  0.97400 40.99600 25.42100
N  -2.19800 34.69500 24.75100
C  -1.77000 35.73000 23.89300
C  -2.12800 35.29300 22.41800
C  -2.44100 33.81300 22.55300
C  -2.73400 33.68700 24.01700
C  -3.29500 36.12800 21.71200
C  -1.29500 32.80500 22.09400
C  -0.04800 32.76200 22.96500
N  -3.08500 33.19800 26.98900
C  -3.60700 32.38600 25.99100
C  -4.36100 31.33500 26.58000
C  -4.18600 31.51700 27.97400
C  -3.33400 32.58400 28.12400
C  -5.44500 30.54000 25.93500
C  -4.61100 31.01300 29.26600
O  -5.37800 30.11200 29.50900
C  -3.86700 31.87400 30.35100
C  -4.82600 32.56600 31.28800
O  -5.60100 33.42800 30.97200
O  -4.79600 31.93700 32.47800
C  -5.76200 32.26200 33.47900
H  -0.11800 37.63000 29.91100
H  -0.77900 37.56100 23.46800
H  -3.69700 31.81900 23.97000
H  -3.20100 34.72300 31.93300
H  -0.41800 35.67300 31.74900
H  -2.90800 36.98700 32.48800
H  -2.29200 37.72800 31.06800
H  -1.23300 37.61900 32.45700
H  -0.42300 33.64600 32.59200
H  -1.48700 32.42000 31.77900
H  -2.78100 32.08300 33.51800
H  -2.93600 33.75700 33.80700
H  0.09900 40.51200 28.32100
H  1.73900 40.04800 28.06100
H  0.93000 39.23900 29.30800
H  1.00800 41.69700 24.58700
H  2.00900 40.76900 25.67400
H  0.36800 41.33800 26.26100
H  -1.24100 35.34500 21.78600
H  -3.26600 33.56600 21.88400
H  -3.46900 37.01900 22.31500
H  -4.29000 35.70600 21.57900
H  -2.82100 36.38200 20.76300
H  -1.03900 33.11200 21.08000
H  -1.71800 31.80400 22.17300
H  0.83600 33.01900 22.38200
H  0.13600 31.77200 23.38200
H  -0.22100 33.45800 23.78600
H  -5.00600 29.79500 25.27100
H  -6.09700 31.11700 25.27900
H  -6.03300 30.07700 26.72700
H  -3.09700 31.27800 30.84100
H  -6.61000 32.83600 33.10700
H  -5.44300 32.79100 34.37600
H  -6.10200 31.31900 33.90600

