158

Mg 47.82800 34.35000 27.16800
C  46.06100 32.72500 29.82200
C  48.00800 37.17400 29.34500
C  48.57900 36.30900 24.52100
C  47.02600 31.74000 25.08100
N  46.95800 34.93600 29.38000
C  46.47100 33.97900 30.21200
C  46.63800 34.54500 31.68000
C  47.01700 36.01200 31.47800
C  47.36300 36.06900 29.92700
C  45.92600 37.02100 31.84000
C  47.58400 33.66900 32.58400
C  48.26000 34.27800 33.83600
H  47.39500 35.06400 34.82800
N  48.44600 36.30100 27.02500
C  48.44600 37.27000 28.00200
C  49.04100 38.46800 27.45200
C  49.40900 38.19000 26.08800
C  48.70900 36.90100 25.82600
C  49.39100 39.58600 28.27900
C  50.13200 39.10700 25.03000
O  50.33300 38.70000 23.91700
C  50.62200 40.39100 25.44900
N  47.71800 34.12400 25.04100
C  48.14400 35.04800 24.17500
C  48.38000 34.42700 22.79500
C  48.05200 32.90500 23.01300
C  47.62000 32.87300 24.46400
C  47.52600 35.15600 21.69400
C  49.25700 31.94900 22.75800
C  50.55200 32.31200 23.61100
N  46.95600 32.53600 27.37300
C  46.62200 31.62300 26.39100
C  45.84300 30.56500 26.95000
C  45.62500 30.98100 28.30100
C  46.25800 32.22100 28.47800
C  45.45000 29.16900 26.33300
C  45.01000 30.55400 29.51600
O  44.42100 29.53100 29.83100
C  45.06500 31.81100 30.45900
C  45.14600 31.40000 31.87500
O  45.64300 30.33100 32.28900
O  44.44500 32.21300 32.68300
C  44.51300 32.06200 34.16500
H  48.19800 37.84900 30.18200
H  48.86500 36.83600 23.60800
H  46.98800 30.81100 24.50800
H  45.62000 34.51800 32.07000
H  47.89200 36.20600 32.09800
H  45.71800 37.63400 30.96300
H  46.30400 37.69100 32.61200
H  45.00700 36.55200 32.19100
H  48.38600 33.20800 32.00800
H  46.96500 32.88800 33.02700
H  49.20600 34.74300 33.55700
H  48.54700 33.39100 34.40000
H  50.47200 39.72000 28.28100
H  48.99000 39.56700 29.29300
H  48.94400 40.46400 27.81200
H  51.43800 40.16600 26.13600
H  49.80000 41.01400 25.80300
H  51.03000 40.87800 24.56300
H  49.43000 34.56100 22.53600
H  47.21400 32.70600 22.34500
H  47.58500 34.63700 20.73800
H  47.81000 36.15900 21.37400
H  46.48400 35.12300 22.01000
H  49.46300 31.85900 21.69200
H  48.91500 30.93600 22.97200
H  51.49500 32.14300 23.09000
H  50.51000 31.72400 24.52700
H  50.55800 33.37600 23.84700
H  45.15200 28.49000 27.13200
H  46.31500 28.73900 25.82900
H  44.68600 29.25300 25.56000
H  44.12200 32.35700 30.44300
H  43.63400 31.59000 34.60400
H  44.63100 33.06500 34.57500
H  45.38900 31.48700 34.46600
Mg 0.99100 43.30900 26.24900
C  3.19100 43.30400 29.09600
C  -1.53300 42.38100 28.44400
C  -0.92100 42.69000 23.64100
C  3.86200 43.60300 24.12600
N  0.83300 43.05300 28.51800
C  1.85700 43.08200 29.44800
C  1.39600 42.88600 30.90300
C  -0.14600 42.49400 30.64100
C  -0.28800 42.74700 29.08500
C  -0.60700 40.99500 31.09900
C  1.54600 44.23900 31.64800
C  1.21300 44.25900 33.23400
H  1.02200 42.89300 34.01600
N  -0.94500 42.85300 26.01700
C  -1.85300 42.55300 27.04000
C  -3.11700 42.30800 26.43900
C  -3.01600 42.36300 25.04800
C  -1.62700 42.67600 24.84900
C  -4.34800 41.87500 27.23800
C  -4.03500 42.17200 23.98000
O  -3.76900 42.11200 22.76000
C  -5.51800 41.95400 24.23200
N  1.42800 43.15300 24.19900
C  0.44300 42.80400 23.34800
C  0.99900 42.86800 21.91700
C  2.39900 43.56700 21.97600
C  2.54700 43.42800 23.52300
C  1.04200 41.42100 21.22400
C  2.40700 44.96200 21.30900
C  2.03300 46.14000 22.11100
N  3.07600 43.57000 26.45400
C  4.10400 43.72600 25.52700
C  5.40000 43.91100 26.20200
C  5.09000 43.59400 27.53300
C  3.63800 43.53200 27.67500
C  6.79100 44.15500 25.46900
C  5.65200 43.36200 28.82500
O  6.82800 43.22700 29.19500
C  4.50100 43.33200 29.86700
C  4.57700 42.15900 30.76600
O  4.06000 41.04600 30.47900
O  5.02200 42.50400 31.97600
C  4.77600 41.68100 33.13100
H  -2.34100 42.29300 29.17400
H  -1.49100 42.62500 22.71200
H  4.69500 43.56800 23.42200
H  1.90800 42.10800 31.46900
H  -0.77200 43.19800 31.19100
H  -0.58100 40.39600 30.18900
H  -1.59000 40.95300 31.56900
H  0.14500 40.50000 31.71400
H  0.73600 44.92000 31.38900
H  2.39600 44.89400 31.45800
H  0.32000 44.86500 33.38900
H  1.99800 44.69200 33.85300
H  -4.87400 42.81500 27.39900
H  -3.90100 41.53500 28.17300
H  -4.99700 41.13400 26.77300
H  -5.56900 40.92000 24.57400
H  -5.97400 41.95500 23.24200
H  -5.97700 42.79000 24.75900
H  0.31200 43.46800 21.32000
H  3.20300 42.92000 21.62400
H  0.20400 40.79500 21.53200
H  2.06000 41.03700 21.29300
H  0.77200 41.66200 20.19600
H  1.81300 44.85800 20.40100
H  3.39400 45.12500 20.87500
H  2.73000 46.69600 22.73700
H  1.37500 45.82300 22.92000
H  1.58600 46.91700 21.49000
H  7.45100 43.28900 25.40800
H  7.36000 44.93200 25.97900
H  6.63900 44.41600 24.42200
H  4.63500 44.19300 30.52300
H  4.47000 40.65500 32.93100
H  4.10900 42.28100 33.75000
H  5.74900 41.59300 33.61500

