158

Mg 49.99800 44.72200 42.28600
C  46.51500 45.14500 41.51200
C  49.68400 41.45600 41.69800
C  53.27000 44.69400 42.28100
C  50.05600 48.30300 42.70700
N  48.26900 43.44700 41.67100
C  46.95100 43.77600 41.39300
C  46.16600 42.59700 40.99200
C  47.02300 41.45800 41.55600
C  48.42500 42.10000 41.71900
C  46.55000 40.62000 42.77200
C  45.99800 42.52100 39.42900
C  44.63500 42.00300 38.89500
H  44.52900 41.33500 37.57600
N  51.33000 43.29900 41.81800
C  51.03000 41.99400 41.65200
C  52.28200 41.29100 41.45400
C  53.38400 42.18500 41.53500
C  52.68100 43.47200 41.88900
C  52.30100 39.77200 41.32200
C  54.88800 41.90000 41.36700
O  55.28900 40.73500 41.26400
C  55.93100 42.99600 41.25000
N  51.42500 46.23100 42.43100
C  52.69700 45.97200 42.55800
C  53.59500 47.20300 42.86400
C  52.55300 48.37000 43.06500
C  51.26800 47.57800 42.76900
C  54.54500 47.11600 44.01400
C  52.74700 49.66600 42.21700
C  52.80400 50.98200 43.09600
N  48.59800 46.41500 42.23600
C  48.79800 47.77900 42.44600
C  47.59700 48.51000 42.33700
C  46.65200 47.53300 41.86400
C  47.35500 46.24200 41.85200
C  47.40900 50.04200 42.55600
C  45.27400 47.25500 41.49800
O  44.32500 47.99800 41.43900
C  45.22300 45.75300 41.18500
C  43.97800 45.12900 41.77300
O  42.99400 44.70800 41.20800
O  43.94300 45.45800 43.10300
C  42.71200 45.13500 43.78100
H  49.60800 40.37300 41.57900
H  54.34900 44.63000 42.43900
H  50.14800 49.38400 42.83600
H  45.18700 42.68400 41.46400
H  47.25400 40.65900 40.85100
H  45.89800 41.20000 43.42400
H  47.33900 40.35100 43.47400
H  46.08800 39.71700 42.37400
H  46.75900 41.82700 39.07000
H  46.24500 43.51600 39.06000
H  43.92000 42.82500 38.94900
H  44.22700 41.22600 39.54200
H  52.69000 39.45100 40.35500
H  51.30700 39.32700 41.28100
H  52.91700 39.30100 42.08800
H  55.43900 43.83500 40.75700
H  56.70300 42.52000 40.64500
H  56.25000 43.36800 42.22400
H  54.11400 47.43800 41.93500
H  52.52300 48.65500 44.11700
H  54.45100 46.08300 44.34700
H  54.25500 47.62200 44.93600
H  55.57500 47.45600 43.91300
H  51.87800 49.79900 41.57200
H  53.72300 49.50900 41.75800
H  53.49600 51.67100 42.61200
H  53.03300 50.86300 44.15500
H  51.78200 51.36000 43.08800
H  46.38200 50.21600 42.23300
H  48.07000 50.76300 42.07600
H  47.32100 50.24100 43.62400
H  44.96400 45.64200 40.13200
H  42.86500 45.32400 44.84400
H  42.61500 44.05100 43.71800
H  41.98900 45.83600 43.36300
Mg 48.20300 35.29200 28.03700
C  46.47300 33.57700 30.47000
C  48.51300 37.89200 30.20700
C  49.47200 37.12800 25.52300
C  47.67900 32.66700 25.77700
N  47.83900 35.58600 30.16100
C  47.13100 34.70400 30.93900
C  46.90500 35.29400 32.30500
C  47.24200 36.82000 32.15700
C  47.98100 36.77700 30.77400
C  46.05400 37.80600 32.10200
C  47.72400 34.55200 33.47100
C  49.08600 34.97500 33.92700
H  49.30300 35.69200 35.26200
N  48.97700 37.22300 27.90200
C  49.02100 38.13200 28.96100
C  49.63600 39.31300 28.50900
C  50.05600 39.11200 27.16100
C  49.57300 37.76200 26.80800
C  49.89400 40.53000 29.37400
C  50.94800 39.92000 26.22200
O  51.31800 39.55100 25.06700
C  51.32900 41.31100 26.59900
N  48.29300 35.02200 25.92200
C  48.94600 35.85200 25.14200
C  48.83400 35.42000 23.64800
C  48.31000 33.99600 23.78000
C  48.15300 33.83600 25.29800
C  47.96800 36.29500 22.68700
C  49.30200 32.95900 23.17500
C  49.33600 32.81100 21.67700
N  47.24300 33.58200 28.04000
C  47.05300 32.58400 27.06700
C  46.32000 31.48000 27.64200
C  45.90700 31.92000 28.82900
C  46.55500 33.14100 29.11400
C  45.95100 30.22400 26.99600
C  45.05800 31.56700 29.92800
O  44.26200 30.59500 30.05500
C  45.25900 32.74300 31.01700
C  45.49400 32.20200 32.35700
O  46.39900 31.39700 32.68900
O  44.62000 32.76000 33.19500
C  44.59900 32.44500 34.62900
H  48.61000 38.70300 30.93200
H  50.01600 37.72700 24.79000
H  47.52100 31.71400 25.26800
H  45.93900 35.21100 32.80200
H  47.97300 37.20600 32.86900
H  45.39700 37.71600 31.23600
H  46.46100 38.81600 32.15700
H  45.47800 37.63800 33.01200
H  47.99800 33.56200 33.10600
H  47.15200 34.55200 34.39800
H  49.59200 35.53100 33.13800
H  49.66500 34.05100 33.94400
H  50.88200 40.56100 29.83400
H  49.16800 40.66300 30.17600
H  49.77100 41.42500 28.76600
H  50.39700 41.81000 26.86800
H  51.83800 41.72600 25.72900
H  51.93300 41.41800 27.50000
H  49.85500 35.44300 23.26800
H  47.34900 33.91700 23.27200
H  46.95600 36.41600 23.07400
H  47.88700 35.83300 21.70400
H  48.34100 37.32000 22.67700
H  48.96700 31.96500 23.47100
H  50.28400 33.15700 23.60500
H  50.33400 33.18500 21.44900
H  48.53400 33.33600 21.15800
H  49.25700 31.75200 21.43400
H  44.87300 30.14200 26.85700
H  46.44600 29.40400 27.51500
H  46.36900 30.27500 25.99100
H  44.37000 33.37300 31.02500
H  45.26400 31.61500 34.86800
H  43.55700 32.23800 34.87600
H  44.91900 33.32900 35.18000

