158

Mg 26.86800 49.73700 26.98300
C  24.79200 50.84400 29.50200
C  29.25300 48.94300 29.30800
C  29.01300 49.03600 24.39800
C  24.67400 51.24100 24.56700
N  27.02200 49.83500 29.13800
C  25.94200 50.13500 29.98100
C  26.23300 49.98600 31.51800
C  27.80200 49.52300 31.39400
C  28.05000 49.41600 29.88400
C  28.92800 50.43400 32.06900
C  25.27100 48.94400 32.08700
C  24.60700 49.45900 33.44600
H  24.43300 48.49800 34.60300
N  28.79200 48.90300 26.87900
C  29.60700 48.58400 27.95600
C  30.81700 48.07700 27.42700
C  30.81400 48.21600 26.02500
C  29.45100 48.66400 25.67100
C  31.94000 47.61000 28.34700
C  31.88100 47.94300 25.03900
O  31.75300 48.02600 23.81600
C  33.22700 47.56600 25.54900
N  26.85500 50.04700 24.79600
C  27.87000 49.67300 23.99600
C  27.44000 49.90100 22.46600
C  25.99700 50.47400 22.56600
C  25.81600 50.59400 24.07300
C  28.46200 50.64800 21.50900
C  24.85800 49.69200 21.83200
C  24.62900 48.28600 22.38400
N  25.14000 50.88700 27.02100
C  24.31500 51.45900 25.97200
C  23.22800 52.13900 26.51800
C  23.38400 51.91800 27.87600
C  24.44400 51.07500 28.12000
C  22.25600 52.95500 25.77300
C  22.81500 52.21700 29.18600
O  21.84300 52.90400 29.37800
C  23.63000 51.57300 30.28200
C  24.01200 52.56000 31.27500
O  24.93800 53.36200 31.19400
O  23.13600 52.47100 32.35600
C  23.37600 53.43400 33.43700
H  29.96700 48.64000 30.07700
H  29.58300 48.64900 23.55100
H  23.93700 51.62000 23.85700
H  26.18900 50.96500 31.99600
H  27.96800 48.58500 31.92300
H  29.55800 50.92300 31.32700
H  29.56400 49.77700 32.66200
H  28.40800 51.14500 32.71200
H  25.78900 48.06200 32.46500
H  24.54500 48.68500 31.31600
H  23.64500 49.91600 33.21100
H  25.19700 50.27900 33.85500
H  32.90200 48.08700 28.16000
H  32.14700 46.54200 28.27700
H  31.61700 47.73100 29.38100
H  33.99900 47.41100 24.79500
H  33.07300 46.63100 26.08700
H  33.56300 48.30900 26.27200
H  27.40600 48.92400 21.98200
H  26.00600 51.53300 22.30600
H  28.04100 51.38400 20.82400
H  28.91300 49.94800 20.80600
H  29.23500 51.20500 22.03800
H  25.06000 49.54500 20.77100
H  23.96300 50.30700 21.92900
H  25.33600 48.05900 23.18200
H  24.73800 47.46100 21.68100
H  23.61600 48.24700 22.78500
H  21.32800 52.40800 25.94100
H  22.38200 53.07400 24.69700
H  22.18700 53.91600 26.28300
H  22.95600 50.80700 30.66400
H  23.47000 54.48800 33.17400
H  24.30300 53.06500 33.87700
H  22.57400 53.37400 34.17300
Mg -6.51600 24.92400 25.06300
C  -4.62400 26.22500 27.58100
C  -8.31300 23.00500 27.39500
C  -8.22300 23.48800 22.43300
C  -4.36200 26.47000 22.72300
N  -6.33500 24.60500 27.24500
C  -5.48600 25.25900 28.06900
C  -5.79800 24.93000 29.50100
C  -6.75200 23.64600 29.37300
C  -7.19200 23.73900 27.90000
C  -6.23400 22.24700 29.81200
C  -6.47500 26.11100 30.26100
C  -5.98600 26.31000 31.71600
H  -5.41300 25.07800 32.47900
N  -8.14600 23.48900 24.91100
C  -8.75300 22.86800 26.03600
C  -9.84700 22.14100 25.47700
C  -9.89100 22.30700 24.00000
C  -8.70100 23.09900 23.73100
C  -10.74800 21.51100 26.45900
C  -10.98000 21.90700 23.02200
O  -11.01500 22.37100 21.87300
C  -11.96500 20.87300 23.30200
N  -6.17000 24.85400 22.83800
C  -7.18600 24.36800 21.98100
C  -6.68300 24.62100 20.48700
C  -5.76500 25.82200 20.75200
C  -5.34000 25.65700 22.16400
C  -6.06800 23.39500 19.86600
C  -6.40800 27.21700 20.51600
C  -5.73500 28.02800 19.32900
N  -4.87500 26.13900 25.04800
C  -4.10700 26.69900 24.08500
C  -3.10900 27.61800 24.71900
C  -3.27000 27.43900 26.08000
C  -4.38200 26.58900 26.21900
C  -2.20100 28.46400 23.93100
C  -2.85400 27.87000 27.33300
O  -2.07100 28.76200 27.66400
C  -3.55400 26.95100 28.34800
C  -2.56000 26.08000 29.01500
O  -2.33800 24.91400 28.71400
O  -2.09000 26.68000 30.17000
C  -1.32600 25.90600 31.19200
H  -8.87700 22.48600 28.17300
H  -8.70100 22.94100 21.61800
H  -3.71400 26.82700 21.91900
H  -4.81100 24.74500 29.92500
H  -7.59700 23.80200 30.04300
H  -6.01300 21.73100 28.87700
H  -7.06100 21.67800 30.23600
H  -5.35900 22.25300 30.46200
H  -7.56400 26.10700 30.20600
H  -6.11100 26.97600 29.70700
H  -6.65400 26.77900 32.43800
H  -5.18600 27.04400 31.61700
H  -11.04800 20.58000 25.97900
H  -11.64600 22.12900 26.46800
H  -10.45500 21.20800 27.46400
H  -12.83300 21.38200 23.72000
H  -11.51400 20.14800 23.98000
H  -12.38500 20.37200 22.43000
H  -7.47300 25.05400 19.87400
H  -4.96300 25.70600 20.02300
H  -6.11600 22.48300 20.46100
H  -5.03400 23.57200 19.56900
H  -6.59500 23.20200 18.93200
H  -6.34900 27.92400 21.34300
H  -7.47300 27.06100 20.34100
H  -5.88400 29.10500 19.24900
H  -6.18300 27.56900 18.44800
H  -4.64900 27.93500 19.32000
H  -2.21700 28.42800 22.84100
H  -1.26500 28.10000 24.35400
H  -2.32500 29.51100 24.20700
H  -3.94500 27.67000 29.06800
H  -1.67200 24.87400 31.12600
H  -1.54000 26.35900 32.16100
H  -0.30400 25.90600 30.81600

