158

Mg 36.38800 49.72000 24.54800
C  36.73100 47.87300 27.60000
C  35.43200 52.28500 26.35600
C  35.26400 50.98300 21.60400
C  37.35100 46.72500 22.82500
N  36.03300 50.02300 26.74600
C  36.34600 49.23300 27.78900
C  36.23300 49.92600 29.17900
C  35.89300 51.35500 28.73200
C  35.78600 51.23300 27.19500
C  34.54700 52.04300 29.38200
C  37.54800 49.87200 30.07100
C  37.32200 49.34600 31.53000
H  35.89200 49.38200 32.07700
N  35.64900 51.47000 24.04800
C  35.23700 52.43900 24.94000
C  34.70100 53.53800 24.23800
C  34.81500 53.23400 22.78400
C  35.23000 51.84300 22.79900
C  34.01500 54.73300 24.85700
C  34.54500 54.10900 21.62300
O  34.40700 53.69500 20.46300
C  34.56800 55.59900 21.86300
N  36.37900 48.99000 22.44900
C  35.78300 49.65800 21.42300
C  35.92800 48.95300 20.05200
C  36.78500 47.72900 20.55200
C  36.83000 47.82400 22.06100
C  34.57800 48.50800 19.50100
C  38.30000 47.75200 20.01400
C  38.72100 46.64000 19.00900
N  36.96800 47.72500 25.04900
C  37.35500 46.67500 24.25000
C  37.72300 45.49500 25.09500
C  37.49000 45.91000 26.38400
C  37.03200 47.27200 26.30000
C  38.32700 44.16300 24.70300
C  37.44600 45.47500 27.81600
O  37.58600 44.37500 28.31300
C  37.00800 46.79600 28.66600
C  35.89300 46.32600 29.43900
O  34.78400 46.07600 28.99800
O  36.40500 45.97100 30.65200
C  35.50400 45.16900 31.47100
H  35.19000 53.20800 26.88800
H  35.00400 51.45600 20.65500
H  37.62700 45.76100 22.39200
H  35.39800 49.35100 29.57800
H  36.78600 51.90600 29.02800
H  34.78800 53.02600 29.78900
H  34.16800 51.46700 30.22500
H  33.75400 52.28000 28.67300
H  37.94800 50.86400 30.27900
H  38.26400 49.19900 29.60000
H  38.02700 49.88400 32.16400
H  37.67700 48.31500 31.51500
H  33.04100 54.89300 24.39300
H  34.57300 55.66500 24.77200
H  33.86400 54.55500 25.92200
H  33.66600 55.93600 22.37400
H  34.60700 56.13900 20.91700
H  35.36000 55.89800 22.55000
H  36.51400 49.46200 19.28700
H  36.35500 46.79200 20.19900
H  33.80200 48.75100 20.22700
H  34.54600 47.44100 19.28100
H  34.29500 49.07500 18.61400
H  38.98000 47.71400 20.86500
H  38.44800 48.71200 19.52000
H  38.91100 47.22300 18.10800
H  38.05600 45.78400 18.89000
H  39.74200 46.40000 19.30600
H  37.59600 43.35600 24.75100
H  39.08200 43.87900 25.43600
H  38.58800 44.08900 23.64700
H  37.89000 47.07800 29.24100
H  35.12200 44.32400 30.89900
H  34.62100 45.76000 31.71200
H  36.10400 44.77000 32.28900
Mg 27.05500 50.26400 27.01200
C  25.16500 51.65600 29.59100
C  29.53900 49.83700 29.17800
C  28.79200 49.14400 24.41200
C  24.56400 51.41900 24.73900
N  27.27400 50.74300 29.13800
C  26.38800 51.07000 30.04200
C  26.90400 50.98700 31.45700
C  28.40900 50.91300 31.30700
C  28.46900 50.46800 29.74200
C  29.02000 52.25800 31.46400
C  26.39200 49.71000 32.19400
C  25.13300 49.90200 33.03100
H  25.25600 49.88000 34.55500
N  28.90500 49.50000 26.83300
C  29.73200 49.27700 27.88900
C  30.88600 48.49700 27.42600
C  30.76600 48.42400 26.01800
C  29.44200 49.04400 25.64300
C  31.97300 48.09000 28.30900
C  31.77800 47.92600 25.05900
O  31.59900 47.89700 23.85400
C  33.13000 47.51400 25.48200
N  26.80900 50.58100 24.79400
C  27.62000 49.77500 24.02800
C  27.04700 49.53700 22.68100
C  25.68000 50.19700 22.80300
C  25.69400 50.86600 24.15200
C  28.06000 50.11100 21.55700
C  24.45000 49.25900 22.70900
C  23.46400 49.62300 21.60200
N  25.23600 51.36200 27.11800
C  24.28500 51.69900 26.09900
C  23.16300 52.38400 26.70800
C  23.48400 52.42700 28.01900
C  24.70800 51.71400 28.22300
C  21.98600 52.95600 26.00300
C  22.96500 52.81500 29.31400
O  21.91100 53.35400 29.59200
C  24.02400 52.28000 30.45100
C  24.49600 53.50900 31.21700
O  25.43400 54.25400 30.86500
O  23.63600 53.68100 32.27100
C  23.88300 54.92100 33.11900
H  30.39200 49.71900 29.85000
H  29.21200 48.48400 23.65000
H  23.76300 51.57700 24.01400
H  26.62800 51.88300 32.01300
H  28.80900 50.18600 32.01500
H  28.38800 53.00800 30.98800
H  29.95900 52.43700 30.93900
H  29.09300 52.44300 32.53500
H  27.08200 49.21800 32.88000
H  26.21500 48.96300 31.42000
H  24.44700 49.13100 32.68100
H  24.76200 50.87800 32.71500
H  31.65900 48.13400 29.35200
H  32.93000 48.60000 28.20000
H  32.21300 47.04700 28.10200
H  33.74400 48.36700 25.77100
H  33.66300 47.08400 24.63400
H  32.88300 46.76400 26.23300
H  26.86700 48.46400 22.61600
H  25.58800 50.93200 22.00300
H  28.93300 50.37200 22.15600
H  27.80900 50.99400 20.97000
H  28.26100 49.35100 20.80200
H  23.82700 49.04100 23.57600
H  24.90400 48.30900 22.42600
H  23.48300 50.70900 21.50800
H  22.43200 49.34700 21.81700
H  23.67100 49.13200 20.65200
H  22.13000 54.02600 25.85300
H  21.04500 52.76100 26.51600
H  21.93900 52.45400 25.03600
H  23.48100 51.55800 31.06200
H  24.78700 54.74400 33.70100
H  23.01800 55.02200 33.77400
H  23.81200 55.86700 32.58300

