158

Mg 26.29700 50.93200 25.56600
C  24.20700 52.02800 28.18000
C  28.70800 50.19800 27.90300
C  28.53000 50.46200 22.99800
C  24.00100 52.01900 23.26600
N  26.43500 51.20100 27.87800
C  25.41600 51.53700 28.69000
C  25.74200 51.19800 30.12900
C  27.31900 50.88400 30.08800
C  27.50800 50.69200 28.54200
C  28.33500 51.95300 30.67900
C  24.94300 50.07500 30.91300
C  24.19800 50.43900 32.18000
H  25.03500 50.96300 33.28800
N  28.29500 50.29500 25.40600
C  29.08600 50.08800 26.52000
C  30.41000 49.64100 26.06100
C  30.43800 49.70900 24.65700
C  29.09200 50.19300 24.28100
C  31.39000 49.19600 27.11300
C  31.46800 49.34600 23.67400
O  31.36800 49.52500 22.47900
C  32.74300 48.75500 24.10100
N  26.25200 51.09200 23.43800
C  27.26800 50.91100 22.59700
C  26.81500 50.88300 21.10300
C  25.38900 51.49100 21.22300
C  25.18100 51.49000 22.75200
C  27.80800 51.72100 20.31600
C  24.37000 50.58900 20.43800
C  23.09700 51.24500 19.91500
N  24.49200 51.91400 25.63100
C  23.65600 52.26000 24.65200
C  22.45000 52.90700 25.28300
C  22.61100 52.81000 26.62100
C  23.91600 52.24300 26.80200
C  21.32100 53.49400 24.39700
C  21.97600 53.13700 27.86800
O  20.94800 53.66800 28.12400
C  22.97900 52.60100 28.94000
C  23.32800 53.73400 29.83000
O  24.08400 54.69400 29.67300
O  22.49900 53.61800 30.93500
C  22.91500 54.30900 32.11700
H  29.36400 49.91600 28.72900
H  29.17700 50.32100 22.13000
H  23.30600 52.32500 22.48200
H  25.53100 52.08700 30.72300
H  27.40700 49.99900 30.71900
H  28.35000 51.80000 31.75800
H  27.84100 52.89700 30.44900
H  29.23000 52.05100 30.06500
H  25.51200 49.19100 31.20100
H  24.19200 49.77500 30.18200
H  23.88700 49.46700 32.56400
H  23.32500 51.06800 32.00400
H  31.52400 49.72800 28.05500
H  32.39600 49.17600 26.69500
H  31.15600 48.14700 27.29600
H  33.38300 48.59900 23.23300
H  32.53000 47.84000 24.65400
H  33.26400 49.46300 24.74500
H  26.79700 49.85000 20.75700
H  25.33800 52.48300 20.77600
H  28.27100 52.58900 20.78500
H  27.32200 51.99100 19.37900
H  28.63800 51.06600 20.04900
H  24.18200 49.78500 21.14900
H  24.89000 50.17200 19.57600
H  23.06000 51.00600 18.85200
H  22.94000 52.31900 20.00700
H  22.25500 50.76100 20.40900
H  20.33100 53.34700 24.83000
H  21.50800 53.05100 23.41800
H  21.58400 54.52800 24.17500
H  22.48300 51.76600 29.43400
H  22.42300 53.77200 32.92800
H  22.61100 55.35600 32.15000
H  23.99900 54.20900 32.17800
Mg -11.34800 16.20800 42.92400
C  -7.89300 16.54200 42.48100
C  -11.59000 19.53200 42.44400
C  -14.70800 15.69800 42.88800
C  -10.93000 12.75600 42.74400
N  -9.84300 17.78300 42.33400
C  -8.53800 17.72800 42.28200
C  -7.91900 19.13600 42.08100
C  -9.07300 20.11100 42.39900
C  -10.27100 19.09900 42.34200
C  -9.03100 20.78800 43.77000
C  -7.37200 19.15000 40.57300
C  -5.90200 19.59200 40.38000
H  -5.05600 18.82800 39.34700
N  -12.95500 17.43600 42.60600
C  -12.84800 18.80900 42.44800
C  -14.22300 19.27800 42.31800
C  -15.15900 18.18400 42.43700
C  -14.28600 16.98900 42.64000
C  -14.47700 20.77300 42.25700
C  -16.67900 18.27300 42.40700
O  -17.29500 19.34700 42.20000
C  -17.63200 17.12000 42.70600
N  -12.66500 14.41800 42.84300
C  -14.01100 14.52300 43.00600
C  -14.63900 13.14200 43.19700
C  -13.45900 12.13000 42.91600
C  -12.27200 13.15500 42.78400
C  -15.33800 12.99500 44.61000
C  -13.58300 11.28100 41.67700
C  -13.43600 9.73900 41.84200
N  -9.80900 14.89100 42.71200
C  -9.75300 13.51300 42.73100
C  -8.34100 13.08000 42.65200
C  -7.65700 14.20700 42.43500
C  -8.48900 15.29500 42.56700
C  -7.86000 11.64900 42.80700
C  -6.24900 14.72300 42.25400
O  -5.21700 14.13000 42.14300
C  -6.38300 16.28700 42.34200
C  -5.59200 16.82700 43.51100
O  -5.57900 16.35600 44.62800
O  -4.64000 17.77700 43.05600
C  -3.51500 18.35600 43.88600
H  -11.65200 20.62200 42.48100
H  -15.77600 15.53400 43.04700
H  -10.83100 11.67100 42.67000
H  -7.11900 19.37000 42.78400
H  -9.02800 20.88400 41.63200
H  -8.19100 20.36800 44.32300
H  -9.95800 20.65500 44.32700
H  -8.93000 21.87100 43.69000
H  -8.00900 19.85300 40.03700
H  -7.38200 18.17500 40.08600
H  -5.46200 19.33000 41.34200
H  -5.87900 20.68100 40.35200
H  -14.87800 21.21700 43.16800
H  -15.14600 20.98400 41.42200
H  -13.56100 21.29100 41.97200
H  -18.64300 17.34000 42.36600
H  -17.51500 16.67100 43.69300
H  -17.20600 16.42500 41.98200
H  -15.34100 13.01800 42.37300
H  -13.25700 11.56000 43.82300
H  -16.37400 12.65700 44.58500
H  -15.31800 13.95300 45.13100
H  -14.79500 12.23400 45.17000
H  -12.85200 11.54000 40.91200
H  -14.52900 11.32300 41.13800
H  -14.38600 9.26400 41.59700
H  -13.11400 9.60900 42.87500
H  -12.67100 9.29600 41.20300
H  -8.14700 11.17000 43.74200
H  -6.79500 11.66600 42.57500
H  -8.33200 11.07300 42.01100
H  -6.00700 16.73000 41.42000
H  -2.59700 17.95600 43.45500
H  -3.50500 18.11500 44.94900
H  -3.65100 19.42100 43.70000

