158

Mg 2.70200 -1.26200 44.86200
C  5.96400 -0.39000 44.43300
C  1.76100 1.15900 42.48500
C  -0.49800 -2.40500 44.97200
C  3.74500 -4.29000 46.54700
N  3.77500 0.05100 43.39500
C  5.16800 0.32000 43.58900
C  5.59700 1.42000 42.55900
C  4.27800 2.06900 42.20000
C  3.19200 1.04500 42.74200
C  4.15200 3.52900 42.67100
C  6.40000 0.74300 41.36400
C  7.85600 1.31700 41.24500
H  8.22600 1.72300 39.77900
N  0.85800 -0.65400 43.94000
C  0.74300 0.40400 43.05700
C  -0.69200 0.58500 42.81500
C  -1.41600 -0.50600 43.44000
C  -0.34900 -1.24800 44.15500
C  -1.23300 1.77600 42.06900
C  -2.92400 -0.53200 43.54500
O  -3.57000 0.25000 42.91600
C  -3.71000 -1.39100 44.45600
N  1.76300 -3.13700 45.63200
C  0.45800 -3.28200 45.58300
C  -0.06200 -4.54900 46.38300
C  1.35500 -5.21300 46.68300
C  2.38100 -4.18400 46.30800
C  -0.89800 -4.17800 47.65600
C  1.75300 -6.56500 46.05100
C  2.10500 -7.64900 47.08300
N  4.42400 -2.13900 45.56100
C  4.65900 -3.31600 46.28600
C  6.09100 -3.37800 46.53400
C  6.68300 -2.26300 45.89900
C  5.61800 -1.58800 45.19000
C  6.74800 -4.50500 47.36100
C  7.83200 -1.48000 45.62400
O  9.00800 -1.66200 46.03300
C  7.42000 -0.30200 44.65500
C  7.63300 0.99600 45.37600
O  7.47000 1.20500 46.59800
O  8.28300 1.85300 44.45200
C  8.42000 3.23800 44.94600
H  1.49000 1.82800 41.66600
H  -1.48900 -2.82400 44.78600
H  4.09500 -5.23100 46.97700
H  6.24000 2.06100 43.16200
H  4.23500 2.04800 41.11100
H  3.78400 4.16600 41.86700
H  5.14900 3.88000 42.93600
H  3.45400 3.80100 43.46400
H  5.82100 0.85600 40.44700
H  6.48400 -0.31200 41.62300
H  8.57200 0.60600 41.65600
H  8.01000 2.28600 41.71900
H  -2.17800 2.27600 42.28000
H  -1.10400 1.59300 41.00200
H  -0.50300 2.54800 42.31300
H  -4.68600 -0.97900 44.71200
H  -3.09800 -1.63200 45.32600
H  -3.87900 -2.32200 43.91700
H  -0.63000 -5.09000 45.62500
H  1.45400 -5.30400 47.76500
H  -1.87300 -3.91200 47.25000
H  -0.53100 -3.25700 48.11000
H  -0.92700 -5.07700 48.27200
H  2.62100 -6.42200 45.40700
H  0.90800 -6.90800 45.45300
H  3.17300 -7.87100 47.08600
H  1.62900 -8.60700 46.87300
H  1.81600 -7.41100 48.10700
H  6.64900 -5.39400 46.73800
H  6.26800 -4.54400 48.33900
H  7.83100 -4.42000 47.45700
H  7.99400 -0.30000 43.72900
H  7.44800 3.71800 45.06700
H  8.87200 3.85000 44.16600
H  9.15400 3.27900 45.75100
Mg 35.58100 2.40700 30.14900
C  33.04900 3.14800 32.34100
C  37.86200 2.73700 32.65900
C  37.95100 1.83100 27.80300
C  33.22600 2.55600 27.45000
N  35.46600 2.93500 32.22800
C  34.32600 2.96200 32.94300
C  34.50700 2.93100 34.47700
C  36.06700 3.22500 34.49700
C  36.55700 2.94600 33.06500
C  36.39200 4.65600 34.87200
C  33.98400 1.66700 35.26500
C  33.60700 1.89200 36.79800
H  34.40700 2.93300 37.66400
N  37.59200 2.24900 30.29500
C  38.35100 2.45400 31.43300
C  39.77100 2.21300 31.06200
C  39.79200 1.80900 29.70900
C  38.40200 1.96100 29.22900
C  40.91400 2.19000 32.06900
C  40.94300 1.43700 28.74200
O  40.77400 0.90800 27.59400
C  42.38100 1.49200 29.18400
N  35.62400 2.39500 27.86700
C  36.76600 1.99800 27.23000
C  36.44900 1.69000 25.74700
C  34.96400 2.01700 25.65300
C  34.53800 2.42600 27.06300
C  37.35600 2.38300 24.74300
C  34.08500 0.88900 24.96500
C  33.58700 -0.27400 25.83600
N  33.50000 2.67900 29.91100
C  32.70100 2.73700 28.72600
C  31.31500 3.01600 29.15800
C  31.39800 3.25500 30.56100
C  32.73600 2.98800 30.94800
C  30.09400 3.23000 28.29700
C  30.73100 3.64800 31.79300
O  29.58100 4.06800 31.95200
C  31.74900 3.38400 33.01700
C  31.73500 4.62200 33.84700
O  32.35800 5.70900 33.69600
O  30.85100 4.40400 34.87200
C  31.06400 5.15900 36.13700
H  38.65900 2.93100 33.37900
H  38.67600 1.61300 27.01600
H  32.44400 2.48500 26.69100
H  33.98600 3.79800 34.88300
H  36.70500 2.61100 35.13300
H  37.16500 4.80900 35.62500
H  35.49600 5.17000 35.22100
H  36.61600 5.26000 33.99300
H  34.73000 0.87500 35.32500
H  33.14200 1.28300 34.68800
H  33.83300 0.94700 37.29300
H  32.53600 2.09500 36.79600
H  40.53400 2.17400 33.09100
H  41.57900 3.04100 31.92200
H  41.63100 1.37200 32.00500
H  42.97100 1.63300 28.27800
H  42.55800 0.52300 29.65100
H  42.55100 2.33800 29.85000
H  36.59300 0.61600 25.63600
H  34.87000 2.95700 25.11000
H  36.83500 2.94100 23.96400
H  37.98800 1.66300 24.22400
H  37.97500 3.03100 25.36300
H  34.67100 0.50100 24.13100
H  33.21000 1.32900 24.48500
H  34.05500 -1.15100 25.39000
H  32.49800 -0.31200 25.84600
H  33.91300 -0.14300 26.86800
H  29.17400 2.76800 28.65500
H  30.18000 2.72800 27.33400
H  30.01200 4.28900 28.05000
H  31.38300 2.59300 33.67200
H  30.82200 6.21900 36.06000
H  32.04400 4.92500 36.55400
H  30.38400 4.76000 36.89000

