158

Mg 1.06700 8.25200 27.04400
C  1.53000 10.28100 29.78200
C  1.23200 5.54400 29.03600
C  0.90200 6.33900 24.22200
C  1.37500 11.03600 24.98100
N  1.49700 7.96700 29.22200
C  1.37700 8.96100 30.14300
C  1.19200 8.36900 31.58900
C  1.07500 6.86600 31.27300
C  1.27800 6.74800 29.75400
C  2.10900 6.04700 32.08700
C  0.02400 9.04800 32.43300
C  -0.52200 8.21200 33.59800
H  0.46000 7.94200 34.67900
N  1.03300 6.17100 26.72300
C  1.07000 5.23200 27.66500
C  0.73400 3.91300 27.11400
C  0.69300 4.13500 25.69500
C  0.86400 5.63000 25.51200
C  0.60900 2.59200 28.02800
C  0.34000 3.15900 24.58300
O  0.51600 3.45100 23.37100
C  -0.07900 1.67100 24.90100
N  1.09200 8.63500 24.97100
C  1.02600 7.68300 24.05000
C  0.90600 8.30500 22.61400
C  0.73000 9.78900 22.92700
C  1.07700 9.83300 24.42400
C  2.11800 7.96700 21.68400
C  -0.75200 10.29700 22.77100
C  -0.87500 11.54300 21.84000
N  1.55600 10.26200 27.32100
C  1.63800 11.22100 26.39600
C  1.94600 12.53400 27.13900
C  1.85300 12.18400 28.46700
C  1.60800 10.83300 28.51500
C  2.21900 13.81700 26.57400
C  2.02800 12.68400 29.73100
O  2.33400 13.81900 30.11700
C  1.71900 11.49800 30.66700
C  2.79000 11.25600 31.74300
O  3.85500 10.59700 31.65100
O  2.39700 11.86600 32.90700
C  3.38600 11.93600 33.94600
H  1.05000 4.77400 29.78800
H  0.89600 5.75400 23.30000
H  1.38100 11.98000 24.43300
H  2.11400 8.67000 32.08600
H  0.06900 6.46900 31.40500
H  2.90900 6.67000 32.48800
H  2.62900 5.33300 31.44800
H  1.56500 5.48600 32.84600
H  -0.67400 9.26600 31.62500
H  0.26600 10.02500 32.85200
H  -1.00300 7.31300 33.21300
H  -1.27600 8.76000 34.16400
H  0.51000 1.61800 27.54900
H  -0.34000 2.75600 28.53800
H  1.47400 2.53600 28.68900
H  -1.04200 1.71700 25.40900
H  0.73100 1.19100 25.44900
H  -0.14700 1.08700 23.98300
H  -0.02800 7.84800 22.28600
H  1.43000 10.44500 22.41000
H  1.91200 7.00800 21.20800
H  3.02300 7.89000 22.28600
H  2.31100 8.66400 20.86800
H  -1.02800 10.71800 23.73800
H  -1.47200 9.55500 22.42600
H  0.07200 11.60100 21.30400
H  -1.19400 12.38600 22.45300
H  -1.63300 11.37200 21.07500
H  2.34900 13.79800 25.49200
H  3.13700 14.08000 27.09800
H  1.58200 14.63800 26.90500
H  0.84400 11.79600 31.24500
H  4.42300 11.72200 33.69000
H  3.09800 11.11800 34.60600
H  3.28300 12.86500 34.50700
Mg 28.38800 56.41400 40.56100
C  26.07900 53.62200 39.95200
C  30.89200 54.56900 39.45100
C  30.16000 59.21300 40.50900
C  25.42600 58.37300 40.69900
N  28.41200 54.36200 39.86500
C  27.44700 53.39800 39.72300
C  28.08400 52.16900 39.10300
C  29.62600 52.36800 39.41700
C  29.63500 53.86100 39.57800
C  30.21000 51.67000 40.69600
C  27.66300 51.82000 37.68300
C  27.20300 52.97100 36.78200
H  27.34400 52.74900 35.22600
N  30.25800 56.81000 40.08000
C  31.15600 55.88900 39.62800
C  32.49200 56.56500 39.43600
C  32.34300 57.92200 39.76200
C  30.90200 58.01400 40.18600
C  33.76100 55.83000 39.13100
C  33.41100 58.95700 39.72700
O  34.43200 58.65100 39.11700
C  33.24900 60.35000 40.33900
N  27.83800 58.47800 40.45300
C  28.80700 59.38500 40.68600
C  28.26000 60.76100 40.81900
C  26.69900 60.58300 40.88600
C  26.66100 59.04200 40.61100
C  28.93800 61.49500 42.03100
C  25.88000 61.47300 39.86200
C  25.38900 62.77000 40.41000
N  26.20000 56.14000 40.57700
C  25.16100 56.99800 40.62900
C  23.86400 56.25400 40.65000
C  24.20500 54.96800 40.48900
C  25.58400 54.96300 40.34400
C  22.56300 56.94800 40.86400
C  23.63500 53.68200 40.30900
O  22.50100 53.23300 40.43700
C  24.80700 52.71900 39.86700
C  24.82400 51.51700 40.78200
O  24.50200 50.36900 40.51400
O  25.31700 51.93800 42.01200
C  25.81700 50.79900 42.72600
H  31.72700 53.91500 39.19100
H  30.68400 60.16000 40.64900
H  24.57100 59.04100 40.81800
H  27.83100 51.31700 39.73400
H  30.35500 52.11000 38.64800
H  29.84200 50.64400 40.67900
H  29.79800 52.16500 41.57600
H  31.29800 51.64300 40.74600
H  26.80400 51.15100 37.74100
H  28.41100 51.28400 37.09900
H  27.78900 53.85800 37.02100
H  26.13100 53.07900 36.95200
H  33.86600 55.94800 38.05200
H  33.68600 54.75000 39.25500
H  34.67600 56.14800 39.63000
H  32.70500 60.31500 41.28300
H  32.65900 60.84100 39.56600
H  34.20100 60.85300 40.50900
H  28.47700 61.28600 39.88900
H  26.22800 60.74600 41.85500
H  28.22700 62.00500 42.68200
H  29.64800 62.16700 41.55000
H  29.59100 60.78000 42.53100
H  25.05300 60.93800 39.39400
H  26.58600 61.81500 39.10600
H  25.75900 62.91500 41.42500
H  24.30500 62.85100 40.49400
H  25.81100 63.56200 39.79100
H  22.40000 57.62400 40.02500
H  22.57000 57.51100 41.79800
H  21.87200 56.10700 40.80100
H  24.63800 52.35800 38.85300
H  26.52700 51.11100 43.49200
H  26.42500 50.08800 42.16700
H  25.05000 50.26000 43.28300

