158

Mg 2.27000 -2.21700 44.30700
C  5.63900 -1.36200 44.12200
C  1.48800 0.66800 42.72700
C  -0.93200 -3.30800 43.87100
C  3.28900 -5.42700 45.34400
N  3.56600 -0.59800 43.28300
C  4.84100 -0.34700 43.58200
C  5.24200 1.05200 43.13200
C  3.83900 1.67800 42.85500
C  2.88200 0.50200 42.92800
C  3.40300 2.89700 43.79800
C  6.24000 1.13900 41.97700
C  6.20000 0.06100 40.84800
H  5.62000 0.48100 39.50300
N  0.54100 -1.44200 43.37700
C  0.41300 -0.17800 42.85200
C  -0.93200 0.08700 42.40400
C  -1.70400 -1.03400 42.86600
C  -0.67000 -1.97200 43.38800
C  -1.36200 1.30400 41.67700
C  -3.27800 -1.20800 42.63200
O  -3.95700 -0.27900 42.15800
C  -4.01500 -2.44400 42.93300
N  1.27200 -4.08300 44.41500
C  -0.04300 -4.27600 44.29400
C  -0.48600 -5.68100 44.88900
C  0.96200 -6.26300 45.19800
C  1.91600 -5.18500 44.88800
C  -1.45700 -5.54100 46.06600
C  1.32500 -7.58300 44.34600
C  1.76800 -7.42200 42.88400
N  4.11600 -3.20100 44.75700
C  4.37600 -4.50000 45.18700
C  5.75100 -4.61700 45.60900
C  6.28600 -3.39500 45.16700
C  5.29600 -2.63400 44.59000
C  6.47400 -5.80500 46.16900
C  7.50800 -2.63200 45.10800
O  8.61700 -2.93800 45.52700
C  7.13500 -1.28800 44.36300
C  7.52300 -0.12400 45.26800
O  6.70200 0.38600 46.00400
O  8.81600 0.34400 45.07400
C  9.08900 1.73300 45.41600
H  1.27300 1.63100 42.25900
H  -1.98600 -3.59100 43.83200
H  3.48300 -6.41600 45.76300
H  5.75500 1.59500 43.92600
H  3.88300 2.06100 41.83500
H  3.18700 3.72500 43.12200
H  4.18600 3.19000 44.49700
H  2.46100 2.79200 44.33700
H  7.22200 1.27000 42.43100
H  6.02700 2.07900 41.46900
H  5.53600 -0.74000 41.17200
H  7.14700 -0.47500 40.78600
H  -1.97200 1.86600 42.38500
H  -2.02800 1.10100 40.83900
H  -0.60800 1.99400 41.29800
H  -5.03800 -2.20400 42.64400
H  -4.02300 -2.66600 44.00000
H  -3.64500 -3.27700 42.33600
H  -1.05700 -6.23200 44.14100
H  1.01300 -6.41700 46.27600
H  -1.87100 -4.53500 45.99700
H  -0.99300 -5.65200 47.04600
H  -2.19700 -6.33900 46.01800
H  0.37200 -8.10800 44.41800
H  1.96000 -8.17100 45.00700
H  0.95600 -7.79200 42.25800
H  2.60000 -8.11100 42.73900
H  2.04500 -6.40000 42.62800
H  6.26000 -6.72000 45.61600
H  6.26100 -6.03000 47.21400
H  7.54500 -5.60600 46.22300
H  7.78700 -1.09100 43.51200
H  9.46000 2.02900 44.43400
H  9.90400 1.81500 46.13500
H  8.16600 2.27400 45.62000
Mg 34.78400 3.04200 29.38200
C  33.11900 4.22000 32.12900
C  37.58700 2.51400 31.24300
C  36.49200 2.13300 26.52300
C  32.15900 4.06500 27.28000
N  35.31800 3.34300 31.47800
C  34.42700 3.83100 32.39600
C  35.17900 3.86300 33.78600
C  36.66600 3.53000 33.44800
C  36.53700 3.11700 31.99000
C  37.68500 4.72800 33.48800
C  34.51300 2.98600 34.86300
C  34.01800 3.74700 36.14100
H  35.00600 4.67700 36.82900
N  36.72500 2.40700 28.92700
C  37.67700 2.20700 29.87200
C  38.93400 1.78700 29.24100
C  38.63800 1.67100 27.86100
C  37.23700 2.03700 27.73500
C  40.15400 1.46500 30.03600
C  39.49500 1.18300 26.63800
O  39.02600 0.97400 25.56200
C  40.91700 0.84300 26.84500
N  34.36300 2.99900 27.19700
C  35.33200 2.72300 26.29100
C  34.73300 2.94900 24.81400
C  33.28500 3.44200 25.09100
C  33.22500 3.49700 26.61200
C  35.58700 4.02900 24.03000
C  32.16500 2.53000 24.36900
C  31.45500 1.44100 25.17300
N  33.02200 3.84200 29.61700
C  32.06600 4.22400 28.72200
C  30.92100 4.58600 29.42300
C  31.26700 4.54500 30.71400
C  32.60000 4.12300 30.81400
C  29.58100 4.96100 28.95500
C  30.80400 4.83300 32.05300
O  29.69000 5.25300 32.43500
C  32.00400 4.68200 33.06800
C  32.27800 6.10200 33.52800
O  33.02500 6.88400 33.02100
O  31.58400 6.30300 34.68300
C  31.98700 7.50000 35.47800
H  38.45700 2.51800 31.90400
H  36.99800 1.92500 25.57800
H  31.27300 4.32200 26.69600
H  35.05300 4.91300 34.05200
H  36.90800 2.62700 34.00800
H  37.09800 5.64500 33.43700
H  38.24400 4.74400 32.55200
H  38.30100 4.68900 34.38600
H  35.15000 2.18900 35.24600
H  33.67300 2.54000 34.32900
H  33.59200 2.98500 36.79500
H  33.15700 4.39300 35.96500
H  41.04400 2.04200 29.78400
H  40.34700 0.40500 29.87600
H  40.01800 1.51500 31.11700
H  41.42500 1.73100 27.22100
H  41.36900 0.49300 25.91700
H  40.98600 0.01000 27.54400
H  34.84700 1.96900 24.35100
H  33.13300 4.49000 24.83400
H  36.66300 3.96500 24.18800
H  35.26700 4.99100 24.43100
H  35.39400 3.93200 22.96100
H  32.56100 2.10900 23.44500
H  31.41100 3.17100 23.91200
H  30.42900 1.70900 25.42400
H  31.97200 1.18900 26.09900
H  31.38000 0.49600 24.63400
H  29.86400 5.65500 28.16300
H  28.95300 5.47100 29.68500
H  29.18700 4.00600 28.60600
H  31.95200 3.94600 33.87000
H  32.31700 8.24600 34.75400
H  32.72800 7.44500 36.27600
H  31.10400 8.00000 35.87500

