158

Mg -2.16200 17.26000 27.08500
C  -2.67900 15.18300 29.79800
C  -2.97800 20.00300 29.08000
C  -2.26500 19.22300 24.32900
C  -1.93300 14.59500 24.99700
N  -2.99900 17.44800 29.15300
C  -2.75300 16.52500 30.12200
C  -2.89500 17.14600 31.58500
C  -3.08700 18.61900 31.23900
C  -3.01400 18.69200 29.77200
C  -4.41200 19.32600 31.84900
C  -1.73700 16.72600 32.49400
C  -1.26200 17.71100 33.59500
H  -0.91300 17.02600 34.97600
N  -2.36700 19.32100 26.80400
C  -2.71300 20.31900 27.72800
C  -2.65300 21.67200 27.18300
C  -2.33400 21.40500 25.79400
C  -2.33200 19.91100 25.58900
C  -2.97000 22.81000 27.94100
C  -2.16500 22.41400 24.69900
O  -1.72800 22.08600 23.56700
C  -2.27000 23.87700 25.04800
N  -2.04100 17.01300 24.89000
C  -2.11000 17.89000 23.96800
C  -2.06300 17.47400 22.54000
C  -1.74400 15.91300 22.80600
C  -1.96700 15.84600 24.31300
C  -3.45600 17.66300 21.79100
C  -0.28500 15.57300 22.31700
C  0.93600 15.85100 23.26100
N  -2.37600 15.32100 27.23200
C  -2.22200 14.32500 26.33100
C  -2.34800 13.09500 26.91900
C  -2.43000 13.34100 28.32000
C  -2.52600 14.73700 28.46800
C  -2.32300 11.77400 26.19000
C  -2.59800 12.68900 29.58600
O  -2.70000 11.55200 29.93700
C  -2.75100 13.92100 30.61700
C  -1.56900 13.74600 31.54700
O  -0.40700 13.96700 31.23200
O  -1.98100 13.25300 32.72600
C  -0.93400 13.13200 33.75200
H  -3.12400 20.85300 29.75000
H  -2.32100 19.93000 23.49900
H  -1.80900 13.75500 24.31000
H  -3.79000 16.71100 32.03000
H  -2.26700 19.21100 31.64400
H  -4.13800 20.12200 32.54100
H  -4.93900 18.71300 32.58000
H  -5.12400 19.49100 31.04000
H  -0.87800 16.50400 31.86100
H  -2.13100 15.81900 32.95200
H  -2.06300 18.43700 33.73300
H  -0.29100 18.08400 33.26800
H  -2.67700 22.73600 28.98900
H  -4.05700 22.83600 27.86800
H  -2.59600 23.77900 27.60800
H  -2.12200 24.40200 24.10400
H  -1.38600 23.98800 25.67700
H  -3.20500 24.24900 25.46600
H  -1.22500 17.96600 22.04700
H  -2.40800 15.33200 22.16600
H  -3.86300 16.72600 21.40900
H  -3.28500 18.14900 20.83100
H  -4.07100 18.33400 22.39100
H  -0.18100 16.11700 21.37800
H  -0.14200 14.53500 22.01900
H  0.50000 16.07300 24.23500
H  1.55000 16.67200 22.89000
H  1.57600 14.97300 23.34800
H  -3.29100 11.63200 25.70800
H  -2.08200 10.90900 26.80800
H  -1.64100 11.71400 25.34100
H  -3.69600 13.88100 31.15700
H  -1.16700 13.69200 34.65900
H  0.08700 13.38900 33.47200
H  -0.94500 12.07500 34.01700
Mg 40.42300 9.39700 29.28200
C  42.44800 10.32300 32.10800
C  38.49700 7.54900 31.32600
C  38.77700 8.45000 26.49700
C  43.01400 10.70200 27.14600
N  40.48900 9.07800 31.43300
C  41.33200 9.61100 32.42200
C  40.74500 9.41300 33.77400
C  39.51800 8.44200 33.55200
C  39.49900 8.28500 32.04000
C  39.56000 7.05500 34.23000
C  40.43900 10.72600 34.55200
C  39.89000 10.44500 35.96900
H  39.79200 11.67900 36.91100
N  38.81100 8.11100 28.94900
C  38.13900 7.44000 29.95200
C  37.02900 6.79100 29.30300
C  37.12100 6.93100 27.93000
C  38.22900 7.89900 27.71900
C  36.08100 6.00700 30.25800
C  36.33100 6.22200 26.80000
O  36.43900 6.59000 25.60900
C  35.40700 5.19000 27.24500
N  40.93100 9.45300 27.13200
C  39.94900 9.20500 26.20400
C  40.44400 9.46700 24.73900
C  41.82900 10.21300 25.02300
C  41.94100 10.09800 26.50600
C  40.50000 8.25100 23.84300
C  41.66900 11.71400 24.51700
C  40.60100 12.59100 25.19500
N  42.31200 10.36400 29.48800
C  43.21000 10.83200 28.55200
C  44.33000 11.48300 29.27000
C  43.98500 11.26600 30.58500
C  42.82100 10.62100 30.74700
C  45.36100 12.32500 28.64100
C  44.53300 11.63300 31.89400
O  45.53900 12.27900 32.19600
C  43.54300 10.99500 32.97400
C  44.28000 10.01300 33.81700
O  44.27000 8.81500 33.53200
O  44.96300 10.57400 34.86000
C  45.69200 9.63600 35.69800
H  37.81000 7.10200 32.04700
H  38.18000 8.15900 25.63000
H  43.78400 11.20800 26.56000
H  41.46000 8.88300 34.40300
H  38.53600 8.87100 33.75100
H  39.52500 6.29900 33.44500
H  38.67900 6.92300 34.85800
H  40.41200 6.89100 34.89100
H  39.77400 11.43200 34.05400
H  41.41000 11.18200 34.74800
H  40.44700 9.61100 36.39700
H  38.83400 10.19500 35.86800
H  35.37100 5.34900 29.75600
H  35.63000 6.56000 31.08200
H  36.80400 5.33600 30.72200
H  35.99600 4.41500 27.73600
H  34.91200 4.83200 26.34200
H  34.57700 5.64100 27.78800
H  39.70800 10.18400 24.37400
H  42.57600 9.62100 24.49600
H  40.08600 7.38600 24.36200
H  41.51300 7.97900 23.54800
H  40.02400 8.52800 22.90300
H  41.43300 11.70700 23.45300
H  42.61400 12.24700 24.62400
H  40.11400 12.01300 25.98000
H  39.93100 12.82200 24.36700
H  41.03900 13.50900 25.58900
H  45.14300 12.52500 27.59200
H  46.36400 11.89900 28.61000
H  45.39500 13.28700 29.15300
H  43.09600 11.72700 33.64600
H  46.27100 9.00300 35.02600
H  45.02700 8.97200 36.25000
H  46.43600 10.24700 36.21000

