158

Mg 17.61800 51.64100 25.90900
C  19.29100 50.49900 28.93200
C  15.15600 52.93800 27.90000
C  15.94500 52.70000 23.11500
C  19.80300 49.78300 24.12500
N  17.27800 51.60300 28.30600
C  18.09000 51.15500 29.28000
C  17.61500 51.60700 30.65100
C  16.12100 52.11600 30.26200
C  16.13300 52.24000 28.74100
C  14.84500 51.37800 30.75500
C  18.52500 52.67200 31.31500
C  18.80800 52.47000 32.86600
H  17.79700 51.69700 33.64800
N  15.79500 52.68800 25.58200
C  14.94000 53.14200 26.53300
C  13.87600 53.87700 25.95500
C  14.07800 53.85300 24.53500
C  15.31500 53.05300 24.34500
C  12.68200 54.45900 26.68300
C  13.20400 54.28100 23.37000
O  13.41900 53.88200 22.20200
C  11.90900 55.12900 23.56600
N  17.73400 51.12300 23.90900
C  17.02400 51.79300 22.95200
C  17.50500 51.41300 21.51800
C  18.83400 50.63100 21.87000
C  18.80500 50.46300 23.40400
C  16.37700 50.80000 20.67200
C  20.17800 51.36400 21.40200
C  20.26100 52.86600 21.77500
N  19.32900 50.51200 26.35300
C  20.09700 49.81200 25.49300
C  21.26600 49.26300 26.17500
C  20.96700 49.50600 27.55400
C  19.74200 50.19500 27.61200
C  22.47800 48.55800 25.55500
C  21.44300 49.28800 28.89700
O  22.45400 48.74200 29.31700
C  20.44900 49.95900 29.88800
C  20.11600 48.90800 30.91500
O  19.32100 47.98200 30.77300
O  20.87900 49.08200 32.06600
C  20.71300 48.03400 33.16200
H  14.41300 53.39800 28.55500
H  15.57100 53.04200 22.14800
H  20.60600 49.32000 23.54800
H  17.67200 50.70800 31.26600
H  16.04500 53.11700 30.68600
H  15.10500 50.43900 31.24300
H  14.24100 51.14300 29.87800
H  14.34500 52.08000 31.42300
H  18.10600 53.65700 31.10800
H  19.50500 52.63500 30.83900
H  18.90600 53.47000 33.28900
H  19.83100 52.14200 33.05300
H  12.62200 55.54200 26.57700
H  12.68100 54.17600 27.73600
H  11.83200 53.93900 26.24200
H  11.98200 55.79300 24.42600
H  10.98800 54.54600 23.53800
H  11.87000 55.88300 22.78000
H  17.74600 52.27600 20.89600
H  18.95200 49.63600 21.44000
H  15.54600 51.49300 20.53600
H  15.97400 49.87000 21.07200
H  16.72000 50.73400 19.63900
H  20.26300 51.24800 20.32200
H  21.06000 50.86400 21.80400
H  20.68700 53.23200 20.84100
H  20.97600 53.15900 22.54400
H  19.35700 53.44000 21.98300
H  22.74600 49.12900 24.66600
H  22.15200 47.54900 25.30300
H  23.30500 48.50800 26.26200
H  21.06400 50.79100 30.23100
H  20.30900 48.49200 34.06400
H  21.69600 47.64500 33.42700
H  20.03600 47.23700 32.85300
Mg -11.50700 15.86800 41.57100
C  -8.66200 14.02300 41.09900
C  -9.84200 18.71500 40.30200
C  -14.52200 17.52000 41.40800
C  -13.14500 12.86900 42.29200
N  -9.56000 16.27800 40.62400
C  -8.49600 15.37500 40.71100
C  -7.23300 16.03600 40.11200
C  -7.59500 17.55900 40.31500
C  -9.07000 17.53000 40.34700
C  -7.11100 18.17300 41.59700
C  -6.75600 15.67900 38.64500
C  -5.24900 15.61800 38.47400
H  -4.67700 16.16100 37.22200
N  -12.04200 17.83500 40.98500
C  -11.25200 18.87000 40.54600
C  -12.04500 20.09200 40.27000
C  -13.36200 19.77600 40.57900
C  -13.39200 18.28500 41.03100
C  -11.46100 21.29800 39.55800
C  -14.54100 20.67600 40.49400
O  -14.28100 21.81700 40.18700
C  -16.13600 20.32600 40.69400
N  -13.59700 15.32500 41.85300
C  -14.64600 16.14000 41.78200
C  -15.99200 15.41300 41.75200
C  -15.55700 13.97400 42.28900
C  -13.99900 14.04500 42.25100
C  -17.13200 16.04500 42.62600
C  -16.06700 12.84100 41.47700
C  -17.42100 12.92600 40.79800
N  -10.96900 13.82300 41.87600
C  -11.82000 12.75500 42.04700
C  -11.00100 11.56100 42.07400
C  -9.71800 12.04100 41.76800
C  -9.82900 13.39000 41.48100
C  -11.36800 10.19400 42.35900
C  -8.35800 11.65500 41.46200
O  -7.78700 10.59100 41.34800
C  -7.59700 12.94500 41.11700
C  -6.66800 13.29600 42.08700
O  -6.83900 13.54000 43.25600
O  -5.41700 13.08500 41.61300
C  -4.24200 13.23500 42.47000
H  -9.27800 19.64100 40.17600
H  -15.53500 17.87700 41.21500
H  -13.73900 11.96300 42.43000
H  -6.40900 15.89600 40.81100
H  -7.29700 18.17800 39.47000
H  -6.39900 17.51100 42.09000
H  -7.87900 18.34000 42.35200
H  -6.69500 19.14700 41.34100
H  -7.28000 16.30600 37.92400
H  -7.12500 14.65600 38.58000
H  -4.85700 14.61100 38.61100
H  -4.81400 16.28400 39.21900
H  -11.99900 21.50200 38.63200
H  -10.42700 21.24000 39.21600
H  -11.49400 22.19400 40.17700
H  -16.62200 21.30000 40.74500
H  -16.17400 19.74300 41.61400
H  -16.33900 19.75700 39.78700
H  -16.15500 15.37600 40.67500
H  -15.83400 13.79200 43.32700
H  -18.00800 16.14500 41.98500
H  -16.70500 16.98300 42.97900
H  -17.35800 15.40200 43.47600
H  -16.22100 12.05700 42.21800
H  -15.27400 12.60000 40.76900
H  -18.00800 13.71100 41.27500
H  -17.83900 11.94000 41.00200
H  -17.27600 13.16100 39.74400
H  -10.45700 9.65500 42.61900
H  -11.88900 9.71400 41.53000
H  -11.97200 10.20100 43.26700
H  -7.22700 12.84800 40.09600
H  -3.46400 12.66200 41.96700
H  -4.45700 12.86200 43.47100
H  -3.83800 14.24700 42.43200

