158

Mg 30.82400 58.14700 40.92400
C  28.10800 56.45400 39.25100
C  32.88600 55.79700 39.51200
C  33.43600 60.13400 41.54200
C  28.56700 60.81700 41.42700
N  30.50700 56.38500 39.62200
C  29.36800 55.86500 39.07100
C  29.61000 54.55400 38.31600
C  31.10100 54.22600 38.74300
C  31.54900 55.57400 39.31200
C  31.40100 52.97400 39.71800
C  29.28100 54.72900 36.83800
C  28.40700 53.58700 36.20900
H  27.76600 53.93000 34.82900
N  32.85200 57.96700 40.61500
C  33.52500 56.93000 40.05500
C  34.98000 57.14400 40.11400
C  35.12200 58.38000 40.77100
C  33.76800 58.89100 41.02000
C  36.04300 56.26500 39.54700
C  36.42700 59.12400 41.15100
O  37.48800 58.76000 40.64200
C  36.48300 60.42700 42.10600
N  30.99300 60.25000 41.26300
C  32.16100 60.76800 41.71800
C  32.06400 62.26300 42.03700
C  30.50300 62.39300 42.29700
C  29.97400 61.06000 41.64000
C  32.96700 62.83100 43.17100
C  29.87300 63.68700 41.72800
C  28.86700 64.40400 42.65700
N  28.75700 58.55600 40.55400
C  27.97200 59.61700 40.96400
C  26.65300 59.44000 40.43900
C  26.61900 58.21300 39.80300
C  27.92700 57.67400 39.91600
C  25.48700 60.39200 40.63700
C  25.87000 57.29900 39.03600
O  24.71500 57.26900 38.69000
C  26.77300 55.97200 38.77900
C  26.34100 54.78600 39.65200
O  26.10000 54.88000 40.84400
O  26.29000 53.65300 38.94700
C  26.21800 52.33500 39.67300
H  33.58400 55.02800 39.17300
H  34.19400 60.88300 41.78200
H  27.87200 61.62700 41.65700
H  28.98400 53.81700 38.81900
H  31.80400 54.12300 37.91700
H  30.61900 52.21500 39.70600
H  31.51300 53.44300 40.69600
H  32.35900 52.55200 39.41500
H  30.27200 54.76100 36.38500
H  28.88300 55.73800 36.73300
H  27.62100 53.25500 36.88700
H  29.09800 52.75000 36.10500
H  36.73200 55.97700 40.34100
H  36.57800 56.79700 38.76000
H  35.68400 55.32700 39.12200
H  36.14900 61.33400 41.60200
H  37.52800 60.64300 42.32700
H  35.97800 60.29300 43.06300
H  32.38300 62.71300 41.09700
H  30.38000 62.30800 43.37700
H  33.76800 63.40400 42.70200
H  33.28800 61.97000 43.75800
H  32.38300 63.51300 43.78900
H  29.31000 63.34600 40.86000
H  30.58300 64.42400 41.35400
H  28.66100 63.74000 43.49700
H  27.93500 64.50900 42.10300
H  29.25300 65.40800 42.83600
H  25.65400 61.38700 40.22400
H  25.42800 60.48200 41.72200
H  24.58800 59.92800 40.23200
H  26.68600 55.61700 37.75200
H  25.66000 51.58000 39.11900
H  25.98400 52.42800 40.73400
H  27.14500 51.76100 39.66600
Mg -5.76600 25.66100 25.81100
C  -4.10600 26.71000 28.64300
C  -7.56500 23.54900 27.62400
C  -7.01200 24.51400 22.90500
C  -3.54200 27.74200 23.86400
N  -5.60400 24.96700 27.91100
C  -5.06600 25.69200 28.89600
C  -5.47800 25.27000 30.29000
C  -6.52100 24.17000 29.88800
C  -6.64200 24.28400 28.34100
C  -6.26200 22.72000 30.39000
C  -6.31500 26.47700 30.89100
C  -6.19400 26.60000 32.43400
H  -6.05500 25.46000 33.38400
N  -7.20100 24.23700 25.33200
C  -7.86600 23.47500 26.25200
C  -8.69100 22.53800 25.54900
C  -8.68500 22.88100 24.09500
C  -7.53800 23.89300 24.02000
C  -9.47700 21.50100 26.37200
C  -9.48100 22.38500 22.88300
O  -9.28900 22.80200 21.76000
C  -10.67200 21.44100 23.01300
N  -5.35300 26.09600 23.61900
C  -5.97100 25.42200 22.64900
C  -5.44800 25.76700 21.27300
C  -4.45300 26.90400 21.59400
C  -4.45600 26.91300 23.11300
C  -4.62100 24.54900 20.75700
C  -4.77200 28.35100 20.96000
C  -3.57200 28.96200 20.23000
N  -4.06700 26.83600 26.10900
C  -3.37300 27.76200 25.26900
C  -2.41800 28.57400 26.06300
C  -2.66200 28.11600 27.38300
C  -3.67000 27.15100 27.36700
C  -1.47900 29.57700 25.49600
C  -2.13500 28.22400 28.66600
O  -1.31800 28.97100 29.14400
C  -3.10400 27.29200 29.55000
C  -2.26500 26.26400 30.28300
O  -1.59400 25.38600 29.74500
O  -2.20100 26.74200 31.60300
C  -1.00300 26.20500 32.35800
H  -8.06700 22.85600 28.30200
H  -7.41300 24.08300 21.98500
H  -2.74700 28.35700 23.43800
H  -4.65900 25.06400 30.97900
H  -7.50600 24.49600 30.22300
H  -7.08600 22.47400 31.05900
H  -5.34300 22.63200 30.97000
H  -6.13000 22.10500 29.50000
H  -7.35300 26.49500 30.55800
H  -5.85500 27.36700 30.46000
H  -7.00700 27.24300 32.77300
H  -5.32100 27.24300 32.54700
H  -9.29800 20.49100 26.00400
H  -10.48000 21.92800 26.38100
H  -9.12900 21.46700 27.40400
H  -10.99900 21.21200 21.99900
H  -11.38800 21.99900 23.61500
H  -10.35000 20.53400 23.52500
H  -6.29800 26.09900 20.67700
H  -3.41200 26.60400 21.47400
H  -4.13100 24.08500 21.61400
H  -3.84700 24.86100 20.05600
H  -5.24100 23.85600 20.18800
H  -4.91700 28.95200 21.85700
H  -5.68100 28.29000 20.36200
H  -2.93100 28.16500 19.85400
H  -2.91400 29.49200 20.91800
H  -3.77700 29.67000 19.42600
H  -1.95000 30.55200 25.37400
H  -1.14300 29.32800 24.49000
H  -0.67900 29.75800 26.21400
H  -3.65600 28.01800 30.14800
H  -0.34500 27.06800 32.25800
H  -0.73100 25.25800 31.89200
H  -1.28100 26.03000 33.39800

