158

Mg 53.79500 23.92400 44.55300
C  51.36900 26.30500 43.62500
C  51.68500 21.48900 43.46000
C  56.46500 21.85900 44.34100
C  55.88800 26.60400 45.28800
N  51.90900 23.89400 43.49200
C  51.02400 24.98700 43.31700
C  49.63100 24.55600 42.80100
C  49.64600 23.06900 43.21900
C  51.15500 22.76300 43.46800
C  48.85700 22.84400 44.52700
C  49.66900 24.72000 41.24500
C  48.25800 24.64900 40.59700
H  48.24700 23.65800 39.43100
N  53.99300 21.88500 44.13500
C  52.99500 21.06700 43.75900
C  53.50200 19.68700 43.69100
C  54.95200 19.78000 43.86100
C  55.23800 21.25800 44.09700
C  52.69700 18.49100 43.34100
C  55.92400 18.59900 43.75200
O  55.57700 17.48100 43.39800
C  57.33400 18.67900 44.06900
N  55.93400 24.19600 44.59800
C  56.75100 23.18600 44.59900
C  58.20200 23.65200 44.82000
C  58.01800 25.13100 45.19200
C  56.55000 25.33000 45.04200
C  59.11400 22.84800 45.82400
C  58.89700 26.16200 44.37300
C  59.34200 27.47400 44.96400
N  53.66900 26.03800 44.50400
C  54.50500 26.98800 45.06300
C  53.91800 28.28600 45.21300
C  52.65200 28.10500 44.58900
C  52.59500 26.72000 44.17900
C  54.49700 29.47300 45.88100
C  51.35500 28.68200 44.30500
O  50.99100 29.84000 44.35500
C  50.51100 27.51200 43.57800
C  50.19200 27.96300 42.14600
O  51.01200 28.14200 41.29600
O  48.81800 28.04300 41.88200
C  48.52500 28.41800 40.45200
H  50.96300 20.71100 43.20300
H  57.32100 21.19700 44.19700
H  56.60300 27.39400 45.52600
H  48.86400 25.05700 43.39300
H  49.23500 22.47300 42.40400
H  49.45700 22.38700 45.31400
H  48.11500 22.11700 44.19400
H  48.41800 23.72800 44.98900
H  50.12200 23.82200 40.82500
H  50.18300 25.62900 40.93300
H  48.00400 25.63000 40.19700
H  47.40800 24.26400 41.16100
H  52.95100 17.94100 42.43500
H  51.62200 18.66700 43.30300
H  52.76500 17.77700 44.16200
H  57.97300 19.22800 43.37600
H  57.66400 17.64100 44.06300
H  57.39300 19.12000 45.06400
H  58.68400 23.54000 43.84900
H  58.09900 25.16600 46.27800
H  59.76400 23.48900 46.42000
H  59.70600 22.17500 45.20400
H  58.43000 22.42300 46.55900
H  58.18800 26.50200 43.61800
H  59.73700 25.60000 43.96300
H  60.42800 27.56300 44.94400
H  58.98500 27.48800 45.99400
H  58.80800 28.24100 44.40400
H  54.32100 30.36500 45.28000
H  55.58200 29.47700 45.98300
H  54.05100 29.65500 46.85900
H  49.55000 27.27300 44.03200
H  47.47900 28.61400 40.21500
H  48.89400 27.62400 39.80400
H  48.96300 29.41400 40.38900
Mg 9.44300 48.92800 25.82300
C  7.40600 48.66900 28.74400
C  12.15300 49.52600 27.60800
C  11.23300 48.81700 22.96500
C  6.51900 48.01400 23.91800
N  9.69200 49.23400 27.90700
C  8.75100 49.12800 28.96900
C  9.49400 49.43700 30.26600
C  10.85300 49.99300 29.78000
C  10.93700 49.48100 28.31800
C  10.98200 51.50400 29.79500
C  9.59400 48.21400 31.27600
C  8.81000 48.53300 32.64700
H  8.87000 47.61500 33.88700
N  11.41400 49.27300 25.34600
C  12.40000 49.42600 26.27500
C  13.66700 49.48700 25.58800
C  13.39900 49.37700 24.22500
C  11.97800 49.09900 24.11400
C  15.06100 49.72500 26.33900
C  14.28600 49.37800 23.02500
O  13.93600 49.21900 21.87800
C  15.80000 49.54300 23.16200
N  8.90000 48.51100 23.78600
C  9.88000 48.53100 22.81700
C  9.40400 47.89100 21.52300
C  8.03300 47.43800 21.93400
C  7.76800 48.04800 23.27800
C  9.46100 48.73300 20.20500
C  7.89900 45.82500 21.95100
C  7.83200 44.96300 23.21300
N  7.31300 48.48900 26.21600
C  6.23900 48.19300 25.28100
C  5.07100 47.89600 26.08000
C  5.44600 48.08300 27.40000
C  6.84500 48.42000 27.43600
C  3.78200 47.47900 25.59500
C  4.99900 47.98300 28.79300
O  3.88200 47.63900 29.21900
C  6.21300 48.30400 29.77800
C  6.35500 47.07800 30.51700
O  6.95300 46.11600 30.11200
O  5.67700 47.26400 31.70700
C  5.80700 46.35400 32.79700
H  12.94800 49.98200 28.20100
H  11.74900 48.83500 22.00300
H  5.76600 47.49600 23.32000
H  9.04700 50.25900 30.82500
H  11.66100 49.67900 30.44000
H  10.03400 51.92200 30.13300
H  11.16400 51.98100 28.83200
H  11.75900 51.79200 30.50300
H  10.62800 47.96900 31.51800
H  9.20600 47.36200 30.71700
H  7.79600 48.61300 32.25600
H  9.10400 49.53100 32.97000
H  15.77500 48.99800 25.95300
H  14.87600 49.64000 27.41000
H  15.47800 50.71400 26.14900
H  16.18600 49.71700 22.15800
H  16.24000 48.58600 23.44400
H  16.17100 50.37100 23.76600
H  10.17800 47.13800 21.37700
H  7.36800 47.87500 21.18900
H  9.22100 49.74500 20.53400
H  8.71800 48.40500 19.47900
H  10.44400 48.82800 19.74500
H  8.74100 45.32500 21.47300
H  7.04700 45.54400 21.33200
H  7.84600 45.67500 24.03800
H  8.67600 44.28100 23.30900
H  6.92600 44.35700 23.21200
H  3.74800 46.39100 25.52800
H  3.58800 47.98500 24.64900
H  3.03000 47.64900 26.36600
H  6.08900 49.10500 30.50700
H  5.07100 45.59800 32.52400
H  5.56800 46.77800 33.77200
H  6.79000 45.88700 32.74000

