158

Mg 16.46600 52.65600 26.19800
C  18.70700 51.23100 28.39300
C  14.28500 53.15500 28.72000
C  14.53500 54.04800 23.87900
C  18.74100 51.60200 23.61500
N  16.60000 52.32100 28.28500
C  17.56200 51.81700 29.04500
C  17.23100 51.89200 30.54100
C  15.72100 52.04600 30.56200
C  15.51700 52.53900 29.11600
C  15.01600 50.71900 30.84400
C  17.99700 53.12200 31.12900
C  18.23400 53.25200 32.61700
H  17.30500 52.51000 33.53700
N  14.60600 53.45100 26.26500
C  13.88100 53.64600 27.46800
C  12.60300 54.35400 27.14900
C  12.69700 54.68800 25.74800
C  13.97500 54.06600 25.22600
C  11.68200 54.85000 28.20200
C  11.73700 55.56800 24.91700
O  11.83900 55.78800 23.72200
C  10.60800 56.33500 25.53100
N  16.69000 52.76300 24.03900
C  15.70500 53.41900 23.35000
C  16.10900 53.54900 21.87000
C  17.54100 52.94600 21.84700
C  17.71300 52.45500 23.23900
C  15.09400 52.91400 20.78400
C  18.67500 53.83500 21.32100
C  19.83600 54.28700 22.38700
N  18.29100 51.55700 25.97200
C  19.05700 51.16000 24.91200
C  20.24300 50.51500 25.31500
C  20.13400 50.48600 26.69700
C  18.91400 51.11100 27.03700
C  21.36500 49.99900 24.35800
C  20.80300 50.08000 27.88700
O  21.84400 49.40900 28.02800
C  19.92500 50.60300 29.03000
C  19.60000 49.59200 29.99500
O  18.89300 48.61100 29.77500
O  19.97500 50.00600 31.24700
C  19.56900 49.18400 32.37800
H  13.52600 53.21800 29.50400
H  13.94400 54.62700 23.16600
H  19.40000 51.34200 22.78400
H  17.45100 51.02600 31.16400
H  15.57800 52.74700 31.38400
H  14.00300 50.81100 30.45100
H  14.91300 50.62000 31.92500
H  15.60900 49.84000 30.59400
H  17.51300 54.05000 30.82200
H  18.92100 53.19900 30.55500
H  18.17500 54.32600 32.79700
H  19.28100 52.96100 32.70800
H  11.83400 54.28000 29.11900
H  10.68300 54.75000 27.77700
H  11.92300 55.87200 28.49300
H  10.28700 57.05800 24.78100
H  11.05200 56.81500 26.40400
H  9.93600 55.50600 25.75300
H  16.13300 54.61300 21.63400
H  17.42700 52.08900 21.18300
H  14.09300 53.08400 21.18100
H  15.32800 51.88800 20.50000
H  15.28100 53.52900 19.90300
H  18.33300 54.64800 20.68000
H  19.33300 53.28500 20.64900
H  20.79300 53.78500 22.24400
H  19.59100 54.38700 23.44400
H  20.12600 55.28500 22.05700
H  21.95900 49.17700 24.75700
H  22.04800 50.84000 24.24100
H  21.02100 49.69300 23.37000
H  20.47500 51.33200 29.62700
H  20.29000 48.39800 32.60100
H  18.62300 48.64400 32.41300
H  19.54700 49.93000 33.17300
Mg 9.44300 48.92800 25.82300
C  7.40600 48.66900 28.74400
C  12.15300 49.52600 27.60800
C  11.23300 48.81700 22.96500
C  6.51900 48.01400 23.91800
N  9.69200 49.23400 27.90700
C  8.75100 49.12800 28.96900
C  9.49400 49.43700 30.26600
C  10.85300 49.99300 29.78000
C  10.93700 49.48100 28.31800
C  10.98200 51.50400 29.79500
C  9.59400 48.21400 31.27600
C  8.81000 48.53300 32.64700
H  8.87000 47.61500 33.88700
N  11.41400 49.27300 25.34600
C  12.40000 49.42600 26.27500
C  13.66700 49.48700 25.58800
C  13.39900 49.37700 24.22500
C  11.97800 49.09900 24.11400
C  15.06100 49.72500 26.33900
C  14.28600 49.37800 23.02500
O  13.93600 49.21900 21.87800
C  15.80000 49.54300 23.16200
N  8.90000 48.51100 23.78600
C  9.88000 48.53100 22.81700
C  9.40400 47.89100 21.52300
C  8.03300 47.43800 21.93400
C  7.76800 48.04800 23.27800
C  9.46100 48.73300 20.20500
C  7.89900 45.82500 21.95100
C  7.83200 44.96300 23.21300
N  7.31300 48.48900 26.21600
C  6.23900 48.19300 25.28100
C  5.07100 47.89600 26.08000
C  5.44600 48.08300 27.40000
C  6.84500 48.42000 27.43600
C  3.78200 47.47900 25.59500
C  4.99900 47.98300 28.79300
O  3.88200 47.63900 29.21900
C  6.21300 48.30400 29.77800
C  6.35500 47.07800 30.51700
O  6.95300 46.11600 30.11200
O  5.67700 47.26400 31.70700
C  5.80700 46.35400 32.79700
H  12.94800 49.98200 28.20100
H  11.74900 48.83500 22.00300
H  5.76600 47.49600 23.32000
H  9.04700 50.25900 30.82500
H  11.66100 49.67900 30.44000
H  10.03400 51.92200 30.13300
H  11.16400 51.98100 28.83200
H  11.75900 51.79200 30.50300
H  10.62800 47.96900 31.51800
H  9.20600 47.36200 30.71700
H  7.79600 48.61300 32.25600
H  9.10400 49.53100 32.97000
H  15.77500 48.99800 25.95300
H  14.87600 49.64000 27.41000
H  15.47800 50.71400 26.14900
H  16.18600 49.71700 22.15800
H  16.24000 48.58600 23.44400
H  16.17100 50.37100 23.76600
H  10.17800 47.13800 21.37700
H  7.36800 47.87500 21.18900
H  9.22100 49.74500 20.53400
H  8.71800 48.40500 19.47900
H  10.44400 48.82800 19.74500
H  8.74100 45.32500 21.47300
H  7.04700 45.54400 21.33200
H  7.84600 45.67500 24.03800
H  8.67600 44.28100 23.30900
H  6.92600 44.35700 23.21200
H  3.74800 46.39100 25.52800
H  3.58800 47.98500 24.64900
H  3.03000 47.64900 26.36600
H  6.08900 49.10500 30.50700
H  5.07100 45.59800 32.52400
H  5.56800 46.77800 33.77200
H  6.79000 45.88700 32.74000

