158

Mg 0.93200 -2.50700 43.57500
C  4.13400 -1.74900 42.93000
C  -0.04700 0.47000 42.16400
C  -2.29200 -3.55900 43.40200
C  1.86600 -5.82000 44.52000
N  1.95000 -0.94000 42.41600
C  3.28300 -0.78700 42.41700
C  3.65000 0.47600 41.66100
C  2.38200 1.40800 41.82400
C  1.30500 0.26900 42.14500
C  2.58300 2.42500 42.99500
C  3.89500 0.04300 40.12400
C  5.28900 0.30800 39.49600
H  5.99000 -0.79000 38.75200
N  -0.90200 -1.63400 43.08200
C  -1.02200 -0.39700 42.53300
C  -2.45600 -0.07600 42.32800
C  -3.14700 -1.22800 42.62900
C  -2.12800 -2.22400 43.05500
C  -2.83400 1.20900 41.68000
C  -4.57200 -1.43500 42.43300
O  -5.26200 -0.60100 41.94500
C  -5.31900 -2.61200 42.86500
N  -0.08400 -4.32700 44.01000
C  -1.37100 -4.55000 43.76700
C  -1.84200 -5.92000 44.39000
C  -0.50600 -6.58900 44.71600
C  0.50200 -5.50000 44.37600
C  -2.77900 -5.62200 45.56200
C  -0.26100 -7.94900 44.07800
C  -1.12400 -9.10400 44.60600
N  2.62300 -3.62700 43.68600
C  2.93600 -4.92200 44.16100
C  4.36100 -5.09800 44.21200
C  4.88800 -3.89600 43.69600
C  3.77300 -2.97400 43.43800
C  5.04700 -6.35100 44.75800
C  6.13900 -3.14800 43.48200
O  7.26900 -3.36400 43.74600
C  5.64500 -1.87300 42.76600
C  6.46500 -0.61700 43.23700
O  7.18000 0.10200 42.60200
O  5.89000 -0.19700 44.43500
C  6.57200 1.03700 44.97600
H  -0.26000 1.52000 41.95100
H  -3.27900 -4.01300 43.30000
H  2.24100 -6.79800 44.82800
H  4.49700 0.99600 42.10700
H  2.21200 1.92300 40.87900
H  3.61500 2.24400 43.29600
H  2.04500 2.12200 43.89300
H  2.36900 3.46400 42.74300
H  3.27200 0.65900 39.47600
H  3.64300 -1.01600 40.07400
H  5.98500 0.84300 40.14300
H  5.16900 1.08800 38.74400
H  -3.87400 1.53400 41.73000
H  -2.46300 1.27600 40.65700
H  -2.28100 2.04500 42.10800
H  -6.35000 -2.48500 42.53400
H  -5.19500 -2.79100 43.93300
H  -4.90800 -3.44900 42.30000
H  -2.29800 -6.60300 43.67400
H  -0.40400 -6.86400 45.76600
H  -2.45800 -5.98000 46.54100
H  -3.77400 -5.97500 45.28800
H  -3.03600 -4.57800 45.74100
H  0.76500 -8.30800 44.00300
H  -0.51600 -7.76900 43.03300
H  -1.69200 -8.88000 45.50900
H  -0.53200 -9.99600 44.80900
H  -1.91400 -9.40400 43.91700
H  5.99900 -6.08500 45.21900
H  5.20800 -7.09800 43.98100
H  4.50200 -6.74600 45.61600
H  5.96200 -1.94700 41.72600
H  7.65000 0.89900 45.06300
H  6.13900 1.35300 45.92500
H  6.43700 1.88700 44.30800
Mg 48.95500 35.48000 27.25200
C  47.09700 33.97000 29.73600
C  49.38200 38.25700 29.39100
C  50.34800 37.20600 24.72200
C  47.94400 33.04300 24.86700
N  48.27400 36.09000 29.27700
C  47.69800 35.17100 30.14200
C  47.84200 35.59800 31.62300
C  48.22900 37.13700 31.44100
C  48.68900 37.24800 29.96900
C  46.96600 38.02800 31.68000
C  49.01600 34.90400 32.37600
C  48.91300 34.89500 33.93000
H  48.03900 36.03000 34.47900
N  49.85000 37.39400 27.10600
C  49.90500 38.37900 28.10700
C  50.73400 39.48900 27.66000
C  51.15700 39.18600 26.30300
C  50.47000 37.86200 26.00800
C  50.98400 40.75600 28.43500
C  52.12500 39.95800 25.38600
O  52.46300 39.50400 24.29100
C  52.67600 41.32400 25.73600
N  49.08200 35.19700 25.08500
C  49.74900 36.05300 24.24200
C  49.67000 35.69900 22.80500
C  49.14700 34.23800 22.92100
C  48.59800 34.13100 24.36900
C  48.85300 36.59400 21.93600
C  50.24100 33.21900 22.52700
C  50.08200 32.25200 21.40100
N  47.83900 33.83400 27.25100
C  47.59900 32.85500 26.21500
C  46.75100 31.83300 26.80400
C  46.50300 32.23800 28.18300
C  47.19600 33.49400 28.37100
C  46.36100 30.50700 26.13700
C  45.84100 31.86800 29.40100
O  45.20100 30.82300 29.62900
C  45.97100 33.11900 30.31700
C  46.16000 32.71400 31.74800
O  47.22400 32.30200 32.24500
O  45.01000 32.93000 32.46200
C  45.09200 33.01800 33.96200
H  49.60800 39.07000 30.08500
H  50.73800 37.67600 23.81700
H  47.68100 32.30400 24.10700
H  46.86600 35.54800 32.10400
H  49.06600 37.46800 32.05600
H  46.77200 38.43900 32.67100
H  46.12900 37.44800 31.29000
H  47.01400 38.86600 30.98500
H  49.98000 35.39100 32.22300
H  49.12100 33.89500 31.97800
H  49.94700 34.97100 34.26700
H  48.54100 33.92900 34.26900
H  51.07900 41.63300 27.79500
H  51.88500 40.87500 29.03600
H  50.11100 40.91900 29.06800
H  51.88000 42.01600 25.46100
H  53.60400 41.53700 25.20500
H  52.88500 41.32500 26.80600
H  50.65900 35.79200 22.35800
H  48.26300 34.08200 22.30200
H  48.03300 36.10000 21.41300
H  49.53300 36.91800 21.14800
H  48.38400 37.43500 22.44500
H  50.45500 32.67400 23.44600
H  51.11800 33.77900 22.20300
H  50.85800 32.26100 20.63600
H  49.14000 32.43500 20.88400
H  50.02500 31.25100 21.82900
H  45.35600 30.53900 25.71600
H  46.48900 29.65400 26.80400
H  47.01000 30.30500 25.28400
H  45.09500 33.75500 30.19300
H  46.04400 33.45700 34.25900
H  45.14700 32.02200 34.40000
H  44.20900 33.48200 34.40300

