158

Mg -1.62300 17.76900 25.99600
C  -1.74200 15.54000 28.87200
C  -2.55800 20.21900 27.97100
C  -1.65400 19.64100 23.29200
C  -1.46900 14.78000 23.96500
N  -2.25000 17.75500 28.13300
C  -2.05300 16.84600 29.17500
C  -2.58400 17.39700 30.52400
C  -2.93100 18.85400 30.07800
C  -2.58000 18.97000 28.61200
C  -4.25600 19.44300 30.59400
C  -1.57000 17.07600 31.66400
C  -1.36200 18.13400 32.65800
H  -0.79300 17.63200 33.98600
N  -1.77800 19.68800 25.75900
C  -2.25100 20.58700 26.68300
C  -2.21500 21.97000 26.09900
C  -1.70500 21.79800 24.79500
C  -1.62800 20.33500 24.58000
C  -2.70800 23.08000 26.82200
C  -1.34100 22.83300 23.71800
O  -1.11500 22.45800 22.57300
C  -1.15300 24.25000 24.17200
N  -1.82900 17.32800 23.96100
C  -1.72400 18.30900 22.99000
C  -2.05600 17.80800 21.57700
C  -1.58600 16.33400 21.80800
C  -1.61200 16.12100 23.32700
C  -3.53800 18.04400 21.18200
C  -0.19900 15.94600 21.12500
C  1.03700 16.32000 21.91800
N  -1.34800 15.58700 26.32600
C  -1.42000 14.55200 25.39700
C  -1.45400 13.24600 26.06900
C  -1.50300 13.59200 27.44900
C  -1.50700 15.05800 27.54200
C  -1.57000 11.91100 25.50900
C  -1.60100 13.00900 28.79200
O  -1.73600 11.83900 29.13400
C  -1.68100 14.25300 29.81800
C  -0.51300 14.13400 30.64900
O  0.63200 14.57100 30.40200
O  -0.94000 13.61800 31.84100
C  0.02000 13.36200 32.92300
H  -2.73800 21.00000 28.71300
H  -1.58700 20.22600 22.37300
H  -1.58200 13.85800 23.39000
H  -3.54200 16.89000 30.63700
H  -2.15700 19.49200 30.50400
H  -4.81600 18.63500 31.06500
H  -4.78800 20.00100 29.82300
H  -4.01500 20.15500 31.38400
H  -0.61000 16.96200 31.16100
H  -1.75700 16.12600 32.16500
H  -2.23400 18.76900 32.81700
H  -0.65300 18.87500 32.29100
H  -3.48700 22.94500 27.57100
H  -3.06900 23.85400 26.14500
H  -1.83400 23.43900 27.36600
H  -0.30500 24.21900 24.85600
H  -2.07800 24.63500 24.60200
H  -0.95000 24.73700 23.21800
H  -1.36500 18.23800 20.85100
H  -2.40200 15.69400 21.47300
H  -4.12000 17.97900 22.10200
H  -3.91300 17.28800 20.49200
H  -3.80100 19.03100 20.79900
H  -0.08300 16.64600 20.29700
H  -0.19000 14.95300 20.67700
H  0.80500 17.01400 22.72600
H  1.79900 16.90300 21.40000
H  1.44000 15.37800 22.29000
H  -1.03800 11.89500 24.55800
H  -2.59100 11.55200 25.38100
H  -1.02700 11.22800 26.16300
H  -2.50600 14.15300 30.52300
H  1.05100 13.47700 32.58800
H  -0.16100 12.33600 33.24600
H  -0.09600 13.96700 33.82200
Mg -1.46100 34.87200 26.53800
C  -2.89200 33.10400 29.16700
C  -0.38200 37.21300 28.76800
C  -0.48400 36.86600 24.01100
C  -2.97500 32.75800 24.21700
N  -1.69500 35.13600 28.70000
C  -2.11900 34.22100 29.61400
C  -1.81400 34.65300 31.07400
C  -0.96500 35.95700 30.90500
C  -1.10800 36.15000 29.35400
C  -1.34900 37.09400 31.85300
C  -1.06400 33.51400 31.87300
C  -1.78000 33.25900 33.20000
H  -0.97200 33.29700 34.56600
N  -0.51100 36.78100 26.42400
C  -0.10500 37.55400 27.47100
C  0.64500 38.74600 26.95600
C  0.61700 38.62900 25.52000
C  -0.11800 37.39800 25.27200
C  1.22000 39.82700 27.80400
C  1.17100 39.53400 24.43900
O  1.09800 39.31800 23.27300
C  1.87200 40.78800 24.79200
N  -1.81100 34.89300 24.45100
C  -1.22400 35.75000 23.63900
C  -1.39800 35.41500 22.14500
C  -2.01800 34.01700 22.26800
C  -2.30400 33.82700 23.73200
C  -2.16000 36.36200 21.25100
C  -1.10600 32.96500 21.62700
C  0.23000 32.62800 22.31600
N  -2.63900 33.20000 26.61400
C  -3.24400 32.46300 25.54600
C  -4.05100 31.41200 26.09800
C  -3.97300 31.68000 27.48000
C  -3.14700 32.78500 27.79400
C  -4.83000 30.36200 25.42000
C  -4.36100 31.17200 28.81300
O  -5.21400 30.36800 29.21000
C  -3.53100 31.97200 29.88600
C  -4.42800 32.42400 31.03100
O  -5.01400 33.46600 31.02800
O  -4.40900 31.48500 32.02800
C  -5.36500 31.73700 33.06400
H  -0.11700 38.01400 29.46100
H  -0.20100 37.46100 23.14000
H  -3.41400 31.99200 23.57500
H  -2.77700 34.93500 31.49900
H  0.10100 35.75400 31.01100
H  -1.96000 36.67700 32.65400
H  -1.90100 37.75300 31.18200
H  -0.46300 37.63200 32.18900
H  -0.07200 33.91500 32.08300
H  -1.03400 32.65600 31.20200
H  -1.93300 32.18100 33.26000
H  -2.76600 33.71500 33.28800
H  1.56500 39.32100 28.70600
H  0.53700 40.64100 28.04800
H  2.09500 40.20800 27.27800
H  1.99700 41.37800 23.88400
H  2.88600 40.52800 25.09600
H  1.30800 41.40100 25.49500
H  -0.41300 35.33600 21.68400
H  -2.94100 33.84400 21.71400
H  -1.43500 37.03700 20.79700
H  -2.97200 36.89000 21.75200
H  -2.58700 35.91800 20.35200
H  -0.88200 33.30000 20.61400
H  -1.68300 32.04000 21.64600
H  0.12900 31.64700 22.78100
H  0.31000 33.32400 23.15100
H  1.15300 32.71100 21.74300
H  -5.07300 29.50200 26.04400
H  -4.24000 30.08500 24.54600
H  -5.78600 30.80500 25.14000
H  -2.77500 31.36200 30.38100
H  -5.04300 32.44600 33.82600
H  -5.40400 30.76900 33.56300
H  -6.33200 32.05900 32.67800

