158

Mg 25.55100 -1.42800 29.61500
C  27.77400 -1.59400 32.49400
C  22.97200 -0.93700 31.90100
C  23.47800 -1.37500 26.98300
C  28.20200 -2.35700 27.63100
N  25.44000 -1.32200 31.89300
C  26.48300 -1.32200 32.93100
C  25.96800 -0.86300 34.28900
C  24.38000 -0.74400 33.94600
C  24.23900 -1.08600 32.44400
C  23.51100 -1.63900 34.85700
C  26.59700 0.44700 34.85100
C  27.47400 0.30900 36.14800
H  27.13700 1.26900 37.33000
N  23.49100 -1.17100 29.42300
C  22.64900 -0.96000 30.47200
C  21.30900 -0.90300 29.91400
C  21.40200 -0.94200 28.52800
C  22.80100 -1.08500 28.22900
C  20.10700 -0.68100 30.76100
C  20.22800 -0.83900 27.53900
O  20.33200 -1.08700 26.38100
C  18.80900 -0.46000 28.01900
N  25.75600 -2.07600 27.61900
C  24.76000 -1.81800 26.71800
C  25.30500 -1.67300 25.23500
C  26.81200 -1.93600 25.54000
C  26.96200 -2.11300 27.00300
C  24.62400 -2.54800 24.16400
C  27.86400 -0.94600 24.87600
C  27.88200 0.51000 25.47100
N  27.58600 -1.97800 29.95900
C  28.55200 -2.25400 29.01400
C  29.83700 -2.31900 29.64400
C  29.62600 -2.02200 31.02600
C  28.21000 -1.94600 31.14200
C  31.09200 -2.80700 29.00600
C  30.11600 -1.85200 32.40800
O  31.21700 -1.90300 32.78000
C  28.97100 -1.60600 33.38300
C  28.90400 -2.68100 34.28300
O  28.43800 -3.81700 34.06400
O  29.32800 -2.21700 35.51000
C  29.13200 -3.02500 36.67500
H  22.15900 -0.84300 32.62400
H  22.87100 -1.11300 26.11400
H  29.06900 -2.52100 26.98800
H  26.20200 -1.69100 34.95700
H  24.07800 0.29000 34.11100
H  22.74900 -1.05900 35.37800
H  24.14900 -2.17600 35.55800
H  23.01400 -2.43400 34.30100
H  25.94800 1.32100 34.91500
H  27.41600 0.72000 34.18600
H  28.53100 0.52700 35.99600
H  27.42800 -0.65500 36.65500
H  19.65000 0.25000 30.42500
H  20.20700 -0.64800 31.84600
H  19.58200 -1.63100 30.65500
H  18.44000 -1.05400 28.85600
H  18.05900 -0.27600 27.25000
H  19.12100 0.50100 28.42700
H  25.09400 -0.63100 24.99200
H  27.08700 -2.90600 25.12700
H  25.35600 -2.90700 23.44100
H  24.02000 -1.85900 23.57300
H  24.01000 -3.32300 24.62400
H  27.68600 -1.03300 23.80400
H  28.84400 -1.42000 24.92800
H  27.03400 0.76900 26.10600
H  27.58700 1.20400 24.68400
H  28.86200 0.74600 25.88700
H  31.52700 -2.02900 28.37900
H  30.85500 -3.68800 28.40900
H  31.87500 -3.01700 29.73400
H  29.13600 -0.65600 33.89000
H  28.07800 -3.10200 36.94400
H  29.63000 -2.71500 37.59300
H  29.43700 -4.04200 36.42600
Mg 47.31200 14.39400 28.18600
C  45.14700 14.41000 30.84200
C  49.40900 16.43900 29.87300
C  49.13500 14.77500 25.32900
C  44.97800 12.39200 26.30600
N  47.24600 15.36600 30.17100
C  46.35500 15.11600 31.16600
C  46.83900 15.70200 32.48400
C  48.06400 16.61800 32.08100
C  48.29400 16.09000 30.63700
C  47.86600 18.20400 32.24800
C  47.09000 14.58400 33.54800
C  47.04000 15.09000 35.02500
H  48.34300 15.06400 35.86200
N  49.17900 15.31700 27.74600
C  49.86800 16.06200 28.59100
C  51.14400 16.43500 27.95900
C  51.01800 16.05600 26.61400
C  49.77100 15.33600 26.46800
C  52.21800 17.19800 28.72400
C  51.92000 16.21400 25.43300
O  51.65700 15.82500 24.29100
C  53.23000 16.88300 25.69900
N  47.17400 13.59400 26.20100
C  47.92400 14.07000 25.20100
C  47.55000 13.42000 23.80100
C  46.34900 12.53500 24.10500
C  46.16800 12.74800 25.67600
C  47.32600 14.38100 22.61000
C  46.51400 11.06000 23.70500
C  47.04300 10.03100 24.76300
N  45.47200 13.54700 28.45600
C  44.61300 12.79300 27.64900
C  43.41800 12.46700 28.29400
C  43.58800 13.06000 29.55800
C  44.86800 13.65700 29.64400
C  42.24700 11.52400 27.86000
C  42.98000 13.23800 30.81300
O  41.94000 12.82000 31.24200
C  43.98100 14.09400 31.76000
C  43.36400 15.29500 32.09900
O  43.06400 16.12900 31.25200
O  43.13800 15.33600 33.48100
C  42.84300 16.66900 33.97900
H  50.11800 17.08300 30.39600
H  49.49400 14.97300 24.31700
H  44.21600 11.92900 25.67400
H  45.99800 16.31800 32.80200
H  48.82900 16.21700 32.74700
H  48.56500 18.79400 31.65400
H  48.12100 18.34000 33.29900
H  46.85500 18.55100 32.03700
H  48.07100 14.15000 33.35300
H  46.31200 13.82400 33.48700
H  46.31100 14.42000 35.48100
H  46.55700 16.06700 34.99700
H  53.20900 16.81400 28.48300
H  52.10500 17.10700 29.80400
H  52.22400 18.22900 28.37200
H  52.99600 17.85400 26.13400
H  53.74300 17.10200 24.76300
H  53.85300 16.45700 26.48600
H  48.34800 12.74700 23.48600
H  45.50800 12.94500 23.54400
H  46.35800 14.37200 22.11000
H  48.05200 14.16500 21.82600
H  47.43100 15.43600 22.86100
H  47.06400 10.91100 22.77500
H  45.46600 10.81900 23.52900
H  47.18100 10.50500 25.73500
H  47.92800 9.54800 24.34900
H  46.32700 9.21700 24.86800
H  41.82800 11.59700 26.85700
H  41.52400 11.82200 28.61900
H  42.55600 10.48500 27.98100
H  44.26200 13.59300 32.68600
H  43.73800 17.25300 34.19200
H  42.33300 16.52300 34.93100
H  42.17600 17.16900 33.27800

