158

Mg 1.22800 7.48500 25.22000
C  1.94600 9.54000 27.88100
C  1.29400 4.72600 27.26200
C  0.68600 5.60700 22.43400
C  1.57600 10.33500 23.08800
N  1.52600 7.23900 27.31100
C  1.79200 8.20100 28.25700
C  1.69900 7.63900 29.68900
C  1.97900 6.09100 29.39800
C  1.54000 5.95700 27.92100
C  3.51600 5.70100 29.76700
C  0.37200 7.89300 30.32600
C  0.45600 8.31700 31.78700
H  1.59600 7.76500 32.67400
N  0.84900 5.45500 24.92100
C  0.95500 4.50400 25.87000
C  0.63900 3.19600 25.31700
C  0.56900 3.41500 23.89200
C  0.70800 4.88400 23.69100
C  0.33200 2.12400 26.24000
C  0.37000 2.38300 22.81500
O  0.17000 2.70400 21.65200
C  0.43700 0.93900 23.11300
N  0.96300 7.95900 23.05500
C  0.77200 6.96000 22.15600
C  0.81200 7.51600 20.76600
C  1.15800 9.07200 20.94400
C  1.30200 9.14500 22.46000
C  1.78400 6.79600 19.83300
C  0.07200 10.07900 20.35200
C  -1.26500 10.12800 21.06400
N  1.75400 9.47600 25.38400
C  1.69900 10.49600 24.48500
C  1.94500 11.77800 25.16100
C  2.07100 11.40400 26.45700
C  1.94600 10.00300 26.52800
C  2.05100 13.19600 24.54900
C  2.32200 11.94800 27.77600
O  2.64200 13.06200 28.12500
C  2.15500 10.80000 28.71900
C  3.22900 10.81100 29.68300
O  4.22800 10.08100 29.62400
O  2.77800 11.40900 30.81100
C  3.31200 11.34900 32.11300
H  1.32500 3.95000 28.03000
H  0.59400 4.98900 21.53800
H  1.53500 11.19900 22.42100
H  2.51800 8.15300 30.19200
H  1.28000 5.48800 29.97800
H  3.87000 6.51000 30.40600
H  4.20700 5.75200 28.92500
H  3.64000 4.79700 30.36400
H  -0.29700 7.03200 30.30400
H  -0.13600 8.74400 29.87100
H  -0.47800 8.10000 32.30500
H  0.57900 9.39800 31.85400
H  -0.68800 2.16700 26.62100
H  1.03100 2.14300 27.07600
H  0.59500 1.16500 25.79400
H  -0.34500 0.66500 23.82200
H  1.35300 0.81100 23.68900
H  0.42900 0.25200 22.26700
H  -0.19300 7.47300 20.34600
H  2.12600 9.32100 20.50700
H  2.67400 7.41200 19.70200
H  1.34700 6.75900 18.83500
H  2.08000 5.82000 20.21500
H  -0.17000 9.85800 19.31300
H  0.50900 11.07400 20.43600
H  -1.35400 9.16000 21.55600
H  -2.03800 10.27000 20.30900
H  -1.31200 10.96700 21.75900
H  1.63900 13.18800 23.54000
H  3.03000 13.67200 24.59400
H  1.35600 13.67900 25.23700
H  1.26700 11.01300 29.31500
H  4.15900 10.66400 32.15300
H  2.63300 10.95600 32.87000
H  3.61800 12.36200 32.37500
Mg -11.48700 16.18300 41.36300
C  -8.27600 14.75600 41.28100
C  -10.11000 18.83700 39.59400
C  -14.54400 17.38400 40.85700
C  -12.74300 13.13600 42.51100
N  -9.33400 16.80100 40.71100
C  -8.21800 16.09400 40.73800
C  -7.01000 16.71200 39.96800
C  -7.60600 18.09100 39.51900
C  -9.10400 17.88300 39.89800
C  -6.94800 19.42700 40.11400
C  -6.65900 15.74200 38.78100
C  -5.21800 15.13800 38.78300
H  -4.34900 15.45100 37.62800
N  -12.18700 17.93900 40.47800
C  -11.49300 18.84000 39.75700
C  -12.35800 19.86500 39.30100
C  -13.65800 19.59900 39.69600
C  -13.51800 18.24700 40.37300
C  -11.80800 21.00000 38.41100
C  -14.86900 20.53300 39.44300
O  -14.68000 21.61300 38.93900
C  -16.21100 20.07500 39.86100
N  -13.39600 15.42200 41.68400
C  -14.49800 16.14900 41.46200
C  -15.74800 15.31000 41.75400
C  -15.16200 13.89100 42.10200
C  -13.67800 14.17900 42.15900
C  -16.61800 15.94900 42.89700
C  -15.42800 12.80900 41.02800
C  -16.53600 11.76000 41.33100
N  -10.71300 14.30200 42.00400
C  -11.35300 13.17000 42.37800
C  -10.39500 12.11100 42.53800
C  -9.10900 12.73800 42.18200
C  -9.36700 14.02900 41.90000
C  -10.74000 10.74100 42.99800
C  -7.71500 12.50900 42.09000
O  -7.15300 11.40300 42.14000
C  -7.12500 13.89100 41.64400
C  -6.33100 14.40200 42.71500
O  -6.73800 14.43600 43.85200
O  -5.15500 14.94400 42.32300
C  -4.38600 15.80800 43.18800
H  -9.63800 19.67500 39.07600
H  -15.56300 17.76700 40.77700
H  -13.10600 12.14400 42.78900
H  -6.15600 16.74900 40.64400
H  -7.55000 18.12800 38.43200
H  -5.97300 19.11600 40.49100
H  -7.60300 19.85900 40.87100
H  -6.70400 20.15300 39.33900
H  -6.73900 16.23200 37.81100
H  -7.40100 14.94300 38.76300
H  -5.27700 14.05300 38.86700
H  -4.64100 15.55500 39.60800
H  -11.14800 20.52800 37.68300
H  -11.29800 21.65800 39.11400
H  -12.55200 21.64800 37.94900
H  -16.90400 20.81000 39.45100
H  -16.10700 20.09100 40.94600
H  -16.55700 19.10400 39.50500
H  -16.36500 15.26100 40.85700
H  -15.50800 13.56700 43.08300
H  -17.50600 16.51200 42.61000
H  -15.99300 16.59500 43.51400
H  -16.93200 15.13500 43.55000
H  -14.46200 12.40300 40.72800
H  -15.74000 13.32000 40.11700
H  -16.82400 11.91300 42.37200
H  -16.24200 10.72600 41.15000
H  -17.31000 11.93500 40.58400
H  -11.14000 10.87500 44.00300
H  -9.83700 10.15900 43.18200
H  -11.43300 10.26900 42.30100
H  -6.45200 13.66000 40.81800
H  -3.66000 15.28900 43.81300
H  -5.02800 16.43800 43.80400
H  -3.75500 16.50100 42.63200

