158

Mg -2.52400 17.12600 27.79000
C  -2.93400 15.02800 30.55800
C  -3.14300 19.95500 30.01100
C  -2.35400 19.15800 25.23800
C  -2.63600 14.38400 25.60900
N  -2.97200 17.41200 30.02300
C  -3.00500 16.38700 30.90000
C  -3.27700 16.93300 32.30800
C  -3.30700 18.52900 32.13800
C  -3.17300 18.66900 30.69300
C  -4.38300 19.31000 32.88800
C  -2.24500 16.53400 33.44200
C  -2.21300 17.25900 34.79800
H  -1.92600 16.40700 36.04600
N  -2.64400 19.26000 27.59700
C  -2.88100 20.20600 28.59900
C  -2.83200 21.56900 28.05100
C  -2.57000 21.43200 26.65400
C  -2.53500 19.92200 26.40200
C  -2.86700 22.84200 28.88500
C  -2.29300 22.46100 25.62300
O  -2.23000 22.16900 24.44100
C  -1.94400 23.84700 26.04400
N  -2.57400 16.85400 25.71400
C  -2.36200 17.88500 24.86900
C  -2.23800 17.35900 23.41100
C  -2.37800 15.79500 23.57300
C  -2.56400 15.66400 25.04400
C  -3.33800 17.97700 22.40300
C  -1.19400 15.06000 22.90600
C  0.22400 14.95000 23.55600
N  -2.59700 15.19500 27.94300
C  -2.69700 14.17800 26.99000
C  -2.85300 12.83700 27.63300
C  -2.88600 13.18200 29.00900
C  -2.78600 14.67200 29.16600
C  -3.09900 11.53200 27.05700
C  -3.09400 12.58200 30.35800
O  -3.27800 11.43700 30.70500
C  -3.13200 13.75600 31.43100
C  -2.00200 13.44300 32.34100
O  -0.85700 13.75900 32.15500
O  -2.46300 12.70100 33.38600
C  -1.45300 12.26800 34.35000
H  -3.14900 20.73200 30.77800
H  -2.21300 19.79700 24.36300
H  -2.61600 13.54000 24.91700
H  -4.24500 16.60500 32.68600
H  -2.36600 18.97500 32.46200
H  -5.19400 19.73500 32.29700
H  -3.87400 20.07900 33.46800
H  -4.85200 18.65200 33.62000
H  -1.22900 16.54400 33.04800
H  -2.51900 15.52500 33.75100
H  -3.16900 17.75400 34.97100
H  -1.50800 18.06400 34.58700
H  -1.89600 23.29900 29.07700
H  -3.33100 22.73700 29.86600
H  -3.45800 23.53800 28.28900
H  -1.51100 24.40700 25.21500
H  -1.10500 23.85400 26.74100
H  -2.78900 24.36100 26.50100
H  -1.34500 17.69300 22.88200
H  -3.35500 15.45900 23.22600
H  -3.89200 18.68300 23.02100
H  -3.92100 17.11500 22.07800
H  -2.87200 18.36800 21.49900
H  -1.03100 15.59400 21.96900
H  -1.52700 14.03600 22.73800
H  0.68200 15.92100 23.74300
H  0.88500 14.26100 23.02900
H  -0.02100 14.40600 24.46900
H  -3.70000 11.73500 26.17000
H  -3.55700 11.02400 27.90500
H  -2.12000 11.08000 26.89500
H  -4.09500 13.77800 31.94100
H  -0.63200 11.69000 33.92600
H  -1.89300 11.55000 35.04200
H  -1.04500 13.09800 34.92700
Mg 16.36200 -1.52300 28.19300
C  15.18000 0.22500 30.84300
C  18.54300 -3.16300 30.51200
C  17.88500 -3.10600 25.54700
C  14.18800 -0.02100 25.98700
N  16.82000 -1.42900 30.40900
C  16.17000 -0.67500 31.29000
C  16.61700 -0.96000 32.73900
C  17.85300 -1.87800 32.52200
C  17.76200 -2.14700 31.01000
C  19.22500 -1.41300 32.97100
C  15.37800 -1.32200 33.75900
C  15.43100 -0.73900 35.14800
H  16.67300 0.06300 35.62200
N  17.97400 -2.94600 28.05600
C  18.64500 -3.56300 29.13100
C  19.40600 -4.70100 28.56800
C  19.36600 -4.61300 27.16600
C  18.41400 -3.52200 26.84900
C  19.98700 -5.80400 29.51400
C  20.18100 -5.41200 26.12400
O  20.09400 -5.23300 24.87300
C  21.15700 -6.46900 26.62500
N  16.21200 -1.54700 26.08500
C  16.99000 -2.11400 25.18300
C  16.63600 -1.73200 23.76300
C  15.15500 -1.17600 23.98800
C  15.15500 -0.92900 25.43600
C  17.58600 -0.65500 23.04000
C  13.91900 -2.16200 23.68600
C  13.05700 -1.97500 22.47100
N  15.03300 -0.07400 28.26500
C  14.16600 0.43200 27.33600
C  13.37300 1.44600 27.88500
C  13.72300 1.39000 29.32400
C  14.76000 0.45600 29.48600
C  12.30600 2.36000 27.25400
C  13.47800 1.98400 30.62200
O  12.69200 2.89000 30.94400
C  14.42200 1.22800 31.60900
C  15.20000 2.22900 32.37300
O  16.40400 2.37500 32.34500
O  14.40600 2.99700 33.20000
C  15.12700 4.00300 34.10500
H  19.18500 -3.70800 31.20700
H  18.21600 -3.68400 24.68100
H  13.37400 0.26700 25.31800
H  17.05100 0.00200 33.01300
H  17.72600 -2.75100 33.16200
H  19.31600 -1.81500 33.98000
H  19.33900 -0.33100 32.90500
H  20.00800 -1.77200 32.30400
H  15.34500 -2.40900 33.82300
H  14.42800 -1.03700 33.30600
H  15.31700 -1.57400 35.83900
H  14.56300 -0.11100 35.35300
H  20.06400 -5.39400 30.52100
H  21.06300 -5.95400 29.42700
H  19.40100 -6.72300 29.53300
H  21.51700 -7.12800 25.83500
H  20.71200 -7.12300 27.37500
H  21.87000 -5.88600 27.20800
H  16.50600 -2.62400 23.14900
H  14.99800 -0.19700 23.53400
H  17.84800 -1.19700 22.13100
H  18.49300 -0.34600 23.55900
H  17.03100 0.26400 22.85200
H  13.32500 -2.17000 24.60000
H  14.46600 -3.09300 23.53900
H  12.56100 -1.00500 22.51000
H  12.18300 -2.61800 22.57900
H  13.64000 -2.16000 21.56900
H  11.33300 2.31500 27.74300
H  12.36500 2.09900 26.19700
H  12.62800 3.39900 27.33200
H  13.80300 0.65400 32.29700
H  14.52600 4.90600 34.21400
H  16.08000 4.34000 33.69800
H  15.32200 3.45500 35.02700

