158

Mg 41.44400 8.79900 30.11200
C  43.30900 10.13800 32.76800
C  39.11300 7.65400 32.49000
C  39.51000 7.67100 27.57600
C  43.96900 9.62600 27.89700
N  41.24700 8.74900 32.34400
C  42.12100 9.43700 33.22800
C  41.68600 9.29800 34.69700
C  40.42800 8.46800 34.57000
C  40.25200 8.24300 33.06100
C  40.39800 7.09900 35.45800
C  41.46800 10.71700 35.33500
C  40.39600 10.90500 36.36500
H  40.77400 11.99800 37.32800
N  39.50800 8.05600 30.00300
C  38.69300 7.54100 31.07000
C  37.48600 6.99200 30.59500
C  37.56700 7.15000 29.14400
C  38.88700 7.59800 28.82300
C  36.38000 6.28700 31.42500
C  36.49900 6.88100 28.09500
O  36.63000 6.94300 26.87800
C  35.11300 6.63200 28.54900
N  41.72500 8.53000 27.95600
C  40.83100 7.93000 27.13500
C  41.43500 7.91200 25.70900
C  42.69900 8.82100 25.76900
C  42.86400 8.90800 27.30700
C  41.65600 6.45000 25.23700
C  42.54700 10.20500 25.07000
C  41.27400 10.94800 25.39300
N  43.26400 9.58800 30.22700
C  44.23600 9.87300 29.27200
C  45.19500 10.77300 29.81700
C  44.89700 10.86500 31.14400
C  43.73300 10.14600 31.40000
C  46.38500 11.32000 29.01200
C  45.28500 11.60800 32.37200
O  46.15800 12.42200 32.52100
C  44.38100 11.06700 33.46800
C  45.17300 10.39000 34.47500
O  45.80100 9.37100 34.41500
O  45.11600 11.10500 35.61500
C  46.02400 10.80400 36.65900
H  38.24800 7.43900 33.12100
H  38.91100 7.27000 26.75600
H  44.71400 9.95700 27.17100
H  42.49700 8.87800 35.29200
H  39.57900 9.05300 34.92400
H  39.96400 7.37000 36.42000
H  41.39500 6.72700 35.69200
H  39.89800 6.29900 34.91300
H  41.31100 11.42500 34.52200
H  42.41300 10.95100 35.82500
H  40.18300 9.95100 36.84700
H  39.50200 11.24200 35.84000
H  36.75700 6.08700 32.42800
H  36.21600 5.30200 30.98800
H  35.42100 6.80300 31.47600
H  35.06500 5.63800 28.99200
H  34.29000 6.78500 27.85100
H  34.86600 7.40800 29.27400
H  40.72400 8.29200 24.97500
H  43.57400 8.37100 25.29900
H  40.86800 5.83100 25.66600
H  42.60500 6.02300 25.56200
H  41.50600 6.41000 24.15800
H  42.78100 10.17500 24.00500
H  43.33100 10.87500 25.42100
H  40.77100 10.41400 26.19900
H  40.67600 11.03100 24.48600
H  41.48400 11.92000 25.84000
H  46.79200 12.20300 29.50400
H  46.09100 11.53300 27.98400
H  47.15300 10.56900 28.82900
H  43.97500 12.02500 33.79000
H  45.57100 10.16900 37.42100
H  46.46300 11.62600 37.22400
H  46.91800 10.27600 36.32800
Mg -0.30000 42.89000 26.54800
C  1.92600 43.12600 29.26100
C  -2.80900 42.66600 28.76200
C  -2.28500 42.19900 23.95100
C  2.47600 43.19300 24.30200
N  -0.40800 42.62900 28.81100
C  0.61700 42.90900 29.65200
C  0.04900 42.87500 31.12900
C  -1.48100 42.47900 30.90700
C  -1.59600 42.56900 29.41100
C  -1.86700 41.02700 31.47800
C  0.36000 44.23100 31.90100
C  1.00700 44.39700 33.33400
H  0.71400 43.24300 34.36200
N  -2.30500 42.59200 26.33700
C  -3.12700 42.61800 27.36700
C  -4.47800 42.51400 26.85400
C  -4.39500 42.16500 25.46000
C  -2.94000 42.33900 25.15100
C  -5.77100 42.83800 27.72900
C  -5.46800 41.73700 24.40700
O  -5.15600 41.46100 23.25200
C  -6.86700 41.73000 24.86800
N  0.06800 42.78900 24.35300
C  -0.93700 42.38900 23.56200
C  -0.37700 42.42400 22.06800
C  1.10400 42.88000 22.16600
C  1.22300 42.98000 23.68600
C  -0.49100 40.94600 21.58200
C  1.28900 44.19700 21.41500
C  1.97000 44.12900 20.00100
N  1.74100 43.04300 26.67500
C  2.75400 43.21200 25.74200
C  4.01500 43.41200 26.46000
C  3.73100 43.26700 27.81500
C  2.37400 43.12700 27.90500
C  5.26400 43.83700 25.72900
C  4.26800 43.43400 29.13300
O  5.44200 43.61100 29.45600
C  3.10000 43.36200 30.15300
C  3.44200 42.17900 30.97000
O  3.68600 41.02400 30.54100
O  3.71200 42.62700 32.25000
C  4.28500 41.50300 33.11100
H  -3.69500 42.57700 29.39400
H  -2.88900 42.04400 23.05400
H  3.29900 43.41100 23.61700
H  0.58900 42.04700 31.58800
H  -2.16500 43.27600 31.19700
H  -0.94900 40.53000 31.79100
H  -2.38900 40.41800 30.73900
H  -2.54300 41.05000 32.33300
H  -0.56600 44.80600 31.91500
H  1.04400 44.84900 31.32000
H  0.60300 45.31100 33.77000
H  2.08100 44.56600 33.25600
H  -6.40800 43.46900 27.10900
H  -5.68500 43.43600 28.63600
H  -6.30500 41.92400 27.98700
H  -6.85500 41.55800 25.94400
H  -7.52900 41.03800 24.34700
H  -7.36600 42.68800 24.73000
H  -1.04900 42.99900 21.43100
H  1.83200 42.12300 21.87300
H  0.23200 40.44100 22.22300
H  -0.23300 40.74100 20.54300
H  -1.41700 40.38900 21.72000
H  1.96200 44.82800 21.99500
H  0.36900 44.75300 21.23600
H  1.16900 44.39000 19.31000
H  2.35100 43.14000 19.74700
H  2.75800 44.86600 19.84500
H  5.63000 42.96200 25.19200
H  6.02300 44.27300 26.37900
H  4.84000 44.55400 25.02500
H  2.96700 44.36700 30.55300
H  4.58400 40.55100 32.67200
H  3.50200 41.23800 33.82100
H  5.08600 41.96300 33.69000

