158

Mg 53.82900 24.51200 45.07500
C  51.14200 26.33200 43.94100
C  52.52000 21.64000 43.78000
C  56.71600 22.91600 45.57300
C  55.08000 27.31700 46.74100
N  52.14400 24.09400 43.82500
C  51.05400 24.95900 43.58300
C  50.06800 24.29500 42.68000
C  50.27700 22.81400 43.17200
C  51.74100 22.82600 43.65200
C  49.25300 22.42300 44.32700
C  50.43000 24.70000 41.29900
C  49.32000 24.98000 40.32300
H  49.76000 25.53100 38.96700
N  54.54200 22.55600 44.56700
C  53.86200 21.50100 44.08300
C  54.66000 20.36200 43.83900
C  55.94500 20.72400 44.39900
C  55.77000 22.15700 44.85400
C  54.15900 19.06700 43.26200
C  57.16800 19.81300 44.45700
O  57.01400 18.65100 44.04600
C  58.47600 20.18400 45.12900
N  55.75100 25.06800 45.96900
C  56.68900 24.19000 46.13100
C  57.91800 24.83700 46.63900
C  57.39400 26.26900 47.16100
C  55.98900 26.25600 46.62600
C  58.68200 24.13100 47.70400
C  58.19600 27.50600 46.62900
C  58.26900 28.75500 47.55300
N  53.33900 26.49700 45.25100
C  53.78900 27.49800 46.08200
C  52.80600 28.62600 46.11600
C  51.79500 28.22500 45.19300
C  52.18600 26.96400 44.71400
C  52.88400 29.85900 46.91200
C  50.57300 28.65600 44.67900
O  49.95100 29.77800 44.73600
C  50.03600 27.41600 43.83800
C  49.69100 27.86000 42.45200
O  50.49200 28.16600 41.58200
O  48.35000 27.78100 42.22600
C  47.73600 28.34400 41.07000
H  51.94400 20.78900 43.41100
H  57.65700 22.36800 45.48900
H  55.46000 28.14400 47.34500
H  49.07500 24.66300 42.94000
H  50.13500 22.24800 42.25200
H  48.70300 21.50200 44.13100
H  48.55100 23.21900 44.57200
H  49.75900 22.26400 45.27900
H  51.16200 23.98900 40.91500
H  50.96100 25.64900 41.37200
H  48.70300 25.71800 40.83500
H  48.78500 24.05200 40.12300
H  53.07500 19.08800 43.14300
H  54.27000 18.17300 43.87500
H  54.61100 18.81500 42.30300
H  58.48200 20.37000 46.20300
H  58.90500 21.02700 44.58800
H  59.17600 19.35900 44.99700
H  58.58500 24.93400 45.78300
H  57.44200 26.37200 48.24500
H  59.04900 23.17300 47.33700
H  57.99600 23.99000 48.53900
H  59.49500 24.82000 47.93300
H  57.73200 27.81800 45.69300
H  59.22300 27.15300 46.54200
H  57.79700 29.61500 47.07900
H  59.28400 29.14800 47.49000
H  57.93600 28.53200 48.56700
H  53.53600 29.74100 47.77700
H  51.89400 30.05200 47.32500
H  53.21300 30.73600 46.35400
H  49.15200 27.10000 44.39100
H  48.41700 28.34100 40.21900
H  47.36600 29.32100 41.38100
H  46.89600 27.70800 40.79100
Mg -10.92100 16.37300 41.90400
C  -7.56700 15.66900 41.72400
C  -10.32000 19.47400 40.64200
C  -14.21800 16.70000 41.70800
C  -11.43600 12.93300 42.80000
N  -9.13100 17.38200 41.14200
C  -7.86500 16.97400 41.21600
C  -6.95400 18.13100 40.73800
C  -7.84200 19.37200 40.61200
C  -9.19900 18.71600 40.86800
C  -7.58400 20.61600 41.56600
C  -6.17500 17.80000 39.36100
C  -4.76900 18.23200 39.21200
H  -4.17600 18.59700 37.86900
N  -12.14500 17.94400 41.20600
C  -11.71700 19.18000 40.71100
C  -12.86200 20.02300 40.44200
C  -14.03700 19.28200 40.85000
C  -13.51500 17.88900 41.23900
C  -12.74400 21.46000 39.91300
C  -15.49300 19.80400 40.83200
O  -15.69400 20.93700 40.38000
C  -16.68100 19.07800 41.20200
N  -12.58400 14.95100 42.04700
C  -13.86500 15.40100 42.04100
C  -14.81800 14.27000 42.43700
C  -13.99600 13.02700 42.34700
C  -12.56600 13.66100 42.51800
C  -15.35100 14.48400 43.87800
C  -14.15900 12.28500 41.01200
C  -15.58200 11.64700 40.68300
N  -9.78300 14.62300 42.24000
C  -10.10900 13.29600 42.54200
C  -8.96000 12.50800 42.71900
C  -7.93100 13.45200 42.43900
C  -8.44500 14.76700 42.27000
C  -8.92900 11.07700 43.20400
C  -6.47500 13.50000 42.37200
O  -5.61500 12.63300 42.52700
C  -6.17700 14.97700 41.91700
C  -5.17500 15.67300 42.87100
O  -5.29700 15.95500 44.06400
O  -4.15300 16.08100 42.06000
C  -2.90300 16.79000 42.58600
H  -9.99100 20.44100 40.25700
H  -15.29300 16.89400 41.70600
H  -11.63300 11.88800 43.04800
H  -6.24300 18.26400 41.55400
H  -7.87200 19.81300 39.61500
H  -7.87400 21.51400 41.02000
H  -6.51800 20.74200 41.75100
H  -8.20800 20.54500 42.45700
H  -6.80800 18.28500 38.61700
H  -6.33800 16.74000 39.16600
H  -4.16200 17.36500 39.47400
H  -4.51100 19.03800 39.89800
H  -13.31000 21.59200 38.99100
H  -11.70100 21.77100 39.95700
H  -13.24500 22.06000 40.67300
H  -17.60600 19.65500 41.23800
H  -16.55000 18.85300 42.26100
H  -16.86900 18.17100 40.62700
H  -15.66700 14.17500 41.76100
H  -14.15300 12.26400 43.10800
H  -16.44000 14.53000 43.84800
H  -14.91100 15.38200 44.31200
H  -15.07700 13.74400 44.63000
H  -13.26500 11.69200 40.81700
H  -13.99100 13.03600 40.24000
H  -15.56800 10.56700 40.83000
H  -15.83900 11.80600 39.63600
H  -16.32900 12.03200 41.37800
H  -7.99000 10.58900 42.94400
H  -9.73300 10.42900 42.85400
H  -8.98500 10.90700 44.27900
H  -5.63700 14.86900 40.97600
H  -3.07100 17.15900 43.59700
H  -2.66800 17.58100 41.87300
H  -2.10800 16.04900 42.50300

