158

Mg 24.08800 -4.85300 45.40500
C  25.99500 -2.25500 44.00500
C  21.52100 -4.18300 43.33100
C  22.70500 -7.55400 46.51600
C  27.08900 -5.82500 47.05700
N  23.85100 -3.39600 43.85600
C  24.67600 -2.41700 43.45000
C  24.02800 -1.47400 42.40800
C  22.49900 -1.91100 42.48600
C  22.58400 -3.24800 43.31000
C  21.50600 -0.90500 43.20300
C  24.77400 -1.78800 41.06700
C  25.40400 -0.63200 40.22600
H  25.11700 -0.60700 38.74400
N  22.28300 -5.78300 45.01500
C  21.30800 -5.32900 44.12300
C  20.16000 -6.16100 44.19800
C  20.45200 -7.11200 45.18700
C  21.82900 -6.82700 45.66200
C  18.91500 -5.83000 43.35100
C  19.49700 -8.23600 45.55700
O  18.35500 -8.37300 45.07200
C  19.92900 -9.37800 46.52000
N  24.96100 -6.56400 46.42000
C  24.02800 -7.45700 46.90200
C  24.65100 -8.41000 47.90300
C  25.93000 -7.69300 48.25200
C  26.08200 -6.66700 47.12100
C  23.79200 -8.97300 49.09400
C  27.17600 -8.66100 48.41800
C  27.88500 -8.86900 49.76200
N  26.14800 -4.20300 45.47500
C  27.21600 -4.75800 46.15600
C  28.34800 -3.86500 46.03600
C  27.92500 -2.90000 45.15100
C  26.57600 -3.12600 44.92300
C  29.71800 -4.00000 46.64300
C  28.40600 -1.74100 44.43300
O  29.49000 -1.22300 44.30200
C  27.06600 -1.33700 43.64300
C  26.74900 0.06500 44.08000
O  26.43100 0.51000 45.17400
O  27.02800 0.85000 42.98000
C  27.22300 2.29500 43.16200
H  20.69000 -3.91300 42.67600
H  22.22300 -8.34400 47.09600
H  27.95800 -6.03500 47.68400
H  24.23400 -0.42800 42.63500
H  22.09700 -2.02500 41.48000
H  22.10100 -0.14300 43.70700
H  20.86900 -1.41100 43.92800
H  20.81500 -0.51200 42.45800
H  24.02500 -2.34700 40.50700
H  25.54800 -2.53900 41.23100
H  26.46300 -0.80200 40.41900
H  25.06700 0.34600 40.57100
H  18.00800 -6.29500 43.73500
H  19.00800 -6.29200 42.36800
H  18.72300 -4.76100 43.26100
H  19.12300 -10.09900 46.65500
H  20.14300 -8.96900 47.50800
H  20.79000 -9.94200 46.16100
H  24.94700 -9.32300 47.38600
H  25.75700 -7.04900 49.11400
H  22.92800 -8.33200 49.26700
H  24.46900 -8.96300 49.94800
H  23.35700 -9.94100 48.84500
H  27.93400 -8.40000 47.68000
H  26.98000 -9.70400 48.16800
H  27.60400 -9.86300 50.11000
H  27.50300 -8.12900 50.46600
H  28.94600 -8.72400 49.56200
H  29.45600 -4.02200 47.70100
H  30.33200 -3.10800 46.52100
H  30.19600 -4.95100 46.40500
H  27.26600 -1.44400 42.57700
H  26.71100 2.72800 44.02100
H  26.89800 2.79300 42.24800
H  28.28400 2.54200 43.16300
Mg 27.18400 50.50000 26.61300
C  25.10000 51.48700 29.39100
C  29.37500 49.44600 29.11500
C  28.94700 49.45800 24.26200
C  24.68400 51.67100 24.50200
N  27.24000 50.53100 28.96600
C  26.28800 50.96200 29.87700
C  26.50700 50.48200 31.30100
C  27.89700 49.84600 31.16500
C  28.21000 49.95300 29.65400
C  29.00000 50.55400 32.03500
C  25.45900 49.52400 31.84000
C  24.77900 49.94800 33.19400
H  25.74900 50.45000 34.30600
N  28.92800 49.58100 26.66700
C  29.72500 49.24800 27.78100
C  30.91400 48.54000 27.25700
C  30.84000 48.55800 25.82600
C  29.52200 49.18800 25.51600
C  32.00500 47.92200 28.15400
C  31.91700 48.14100 24.88400
O  31.75600 48.09000 23.67500
C  33.33800 47.63200 25.32400
N  26.93900 50.72100 24.58200
C  27.81300 50.11400 23.82500
C  27.46500 50.33700 22.36100
C  25.93100 50.77800 22.46000
C  25.75900 50.98800 23.95500
C  28.40000 51.28200 21.57700
C  24.95200 49.62900 21.87100
C  23.70900 50.17900 21.18500
N  25.39900 51.64500 26.84500
C  24.44900 51.98100 25.91000
C  23.28500 52.49600 26.51100
C  23.53600 52.35500 27.85100
C  24.78900 51.82500 28.03900
C  22.04300 52.91100 25.79400
C  22.87900 52.51400 29.14800
O  21.75200 52.99000 29.38300
C  23.89600 51.98200 30.15100
C  24.25000 53.08100 31.06500
O  25.26500 53.74000 31.10800
O  23.30900 53.16100 32.03400
C  23.50100 54.05000 33.22200
H  29.98000 48.94000 29.87000
H  29.45600 48.90400 23.47000
H  23.79600 51.94700 23.92900
H  26.55400 51.35800 31.94700
H  27.88700 48.81100 31.50500
H  29.13800 50.07100 33.00300
H  28.69900 51.59700 32.12900
H  29.96300 50.65900 31.53700
H  25.95700 48.58900 32.09500
H  24.76700 49.21400 31.05700
H  24.29600 49.11900 33.71200
H  23.93000 50.59600 32.97700
H  32.29400 46.91800 27.84200
H  31.57900 47.66000 29.12200
H  32.83400 48.62900 28.16300
H  33.80700 48.17600 26.14400
H  34.01300 47.58300 24.46900
H  33.14300 46.60600 25.63600
H  27.58700 49.36600 21.88000
H  25.85200 51.73400 21.94300
H  29.14200 51.67700 22.27100
H  27.81600 52.17200 21.34000
H  28.84800 50.87400 20.67100
H  24.58100 49.07800 22.73500
H  25.56900 49.04100 21.19100
H  23.60100 49.81400 20.16300
H  23.64900 51.26700 21.21300
H  22.76000 49.78700 21.54900
H  21.78500 52.19400 25.01400
H  22.28700 53.81400 25.23500
H  21.17200 53.11700 26.41600
H  23.50300 51.22200 30.82600
H  22.64300 53.89700 33.87600
H  23.61300 55.10100 32.95700
H  24.39100 53.82100 33.80800

