158

Mg 40.78900 7.84200 29.75000
C  42.51500 9.13100 32.43900
C  38.35800 6.63500 31.80700
C  39.43600 6.38900 27.11300
C  43.71500 8.49900 27.78400
N  40.52100 7.89100 31.88500
C  41.28800 8.56700 32.80000
C  40.52300 8.62700 34.14200
C  39.28900 7.67200 33.97200
C  39.36100 7.43600 32.46500
C  39.43600 6.38600 34.76000
C  40.23200 10.00200 34.78100
C  39.25400 10.09700 35.99500
H  39.80800 10.85500 37.14500
N  39.05600 6.75700 29.43300
C  38.17700 6.33000 30.38500
C  37.06600 5.62800 29.75200
C  37.32300 5.69100 28.33400
C  38.67200 6.32000 28.25000
C  36.05600 4.82000 30.52300
C  36.41200 5.18300 27.18500
O  36.69700 5.22600 26.00000
C  34.91800 4.96300 27.62100
N  41.51900 7.35100 27.85100
C  40.72400 6.88700 26.88100
C  41.43700 6.56700 25.55800
C  42.66100 7.57000 25.69500
C  42.69500 7.79800 27.21500
C  41.78600 5.10400 25.32000
C  42.55600 8.86100 24.91300
C  41.99500 10.17100 25.63400
N  42.70800 8.57600 29.99100
C  43.73300 8.87800 29.12300
C  44.77700 9.63800 29.82900
C  44.29900 9.73600 31.06600
C  43.11600 9.00900 31.17700
C  46.09300 10.18700 29.25100
C  44.64100 10.16100 32.33500
O  45.59500 10.82500 32.69600
C  43.44000 9.92100 33.32900
C  43.98000 9.17900 34.50100
O  44.41400 8.06400 34.61100
O  43.78400 10.00800 35.62800
C  44.13100 9.25000 36.95600
H  37.62900 6.22600 32.51000
H  39.08400 5.90700 26.19900
H  44.39000 8.74900 26.96300
H  41.17600 8.16800 34.88500
H  38.34700 8.20100 34.11800
H  38.75400 6.42200 35.61000
H  40.47500 6.31700 35.08000
H  39.23900 5.57800 34.05500
H  39.84700 10.58000 33.94100
H  41.24400 10.26700 35.08500
H  39.14800 9.07800 36.36800
H  38.27900 10.51100 35.73600
H  35.10300 5.34100 30.61100
H  36.37900 4.61900 31.54400
H  35.90800 3.81700 30.12300
H  34.76500 4.12000 28.29500
H  34.40600 4.72000 26.69000
H  34.53500 5.91400 27.99100
H  40.78000 6.92400 24.76500
H  43.61900 7.12300 25.42800
H  41.69600 4.62400 26.29500
H  42.83500 5.01200 25.03900
H  41.12700 4.62000 24.59900
H  42.01300 8.70800 23.98100
H  43.55700 9.14800 24.59000
H  41.56200 9.95400 26.61100
H  41.29800 10.65700 24.95200
H  42.81400 10.85200 25.86300
H  45.79900 10.75500 28.36800
H  46.87300 9.45500 29.04200
H  46.51300 10.92300 29.93600
H  42.95800 10.87800 33.53200
H  43.54600 9.65800 37.78000
H  45.20000 9.38300 37.11900
H  43.90800 8.18300 36.94100
Mg -5.26600 24.89900 25.98500
C  -3.72700 26.53600 28.53700
C  -6.33900 22.44100 28.22600
C  -6.86100 23.37600 23.48500
C  -3.64300 27.13700 23.78600
N  -5.21500 24.76700 28.09900
C  -4.62900 25.56800 28.96200
C  -4.88000 25.23700 30.40400
C  -5.52000 23.79700 30.26500
C  -5.69100 23.62200 28.76700
C  -4.72200 22.68200 30.94500
C  -5.78000 26.27000 31.06900
C  -5.50700 26.78400 32.49400
H  -5.00200 25.71400 33.42300
N  -6.49100 23.17700 25.89100
C  -6.65900 22.21200 26.89800
C  -7.30700 21.09800 26.39100
C  -7.54300 21.40100 24.95300
C  -7.03300 22.76700 24.72100
C  -7.65100 19.94300 27.27700
C  -8.11900 20.38500 23.91300
O  -8.24400 20.76400 22.74300
C  -8.53300 19.02700 24.39700
N  -5.27000 25.26300 23.92700
C  -6.06900 24.48500 23.08800
C  -5.97900 24.91300 21.59200
C  -4.87400 26.02900 21.72200
C  -4.62700 26.23900 23.23300
C  -5.68300 23.81200 20.53500
C  -5.20400 27.28400 20.94800
C  -4.05900 27.86000 20.05100
N  -3.71000 26.36400 26.04200
C  -3.15700 27.15900 25.07200
C  -2.21300 28.05200 25.77300
C  -2.36600 27.84000 27.12900
C  -3.36900 26.84400 27.22400
C  -1.34200 29.06700 25.13600
C  -1.99100 28.26800 28.43900
O  -1.15000 29.11400 28.87800
C  -2.84700 27.41400 29.42100
C  -1.85400 26.72700 30.31700
O  -0.91800 26.08700 29.87800
O  -2.06700 27.12100 31.59300
C  -1.03400 26.71700 32.53200
H  -6.67000 21.83800 29.07400
H  -7.29700 22.83800 22.64100
H  -3.25700 27.90400 23.11100
H  -3.91800 25.19000 30.91500
H  -6.49500 23.71600 30.74600
H  -4.26800 23.11900 31.83500
H  -3.96100 22.23100 30.30800
H  -5.36600 21.83900 31.19600
H  -6.72000 25.75000 31.25300
H  -5.97400 27.14100 30.44300
H  -6.25300 27.39500 33.00200
H  -4.61600 27.37700 32.28900
H  -7.10900 19.08500 26.87900
H  -8.71000 19.69500 27.22100
H  -7.52800 19.87300 28.35800
H  -9.14500 18.55200 23.63000
H  -9.28100 19.15000 25.18000
H  -7.82300 18.27400 24.73800
H  -6.93300 25.38700 21.36300
H  -3.94900 25.53100 21.43100
H  -5.39900 22.87400 21.01300
H  -4.86200 24.11500 19.88500
H  -6.58500 23.77700 19.92300
H  -5.81300 28.00500 21.49200
H  -5.83800 26.88900 20.15400
H  -4.47700 28.41600 19.21100
H  -3.39100 27.17100 19.53400
H  -3.31500 28.38300 20.65300
H  -0.31400 28.92900 25.47000
H  -1.61000 30.04600 25.53400
H  -1.48800 29.08100 24.05600
H  -3.30700 28.16000 30.06900
H  -1.42400 27.28600 33.37500
H  -0.01400 27.08000 32.40500
H  -0.99800 25.64400 32.72100

