158

Mg 23.98300 -4.62700 45.68300
C  25.80200 -2.10800 44.00500
C  21.19900 -3.67700 43.80500
C  22.37100 -7.27900 46.80900
C  27.02200 -5.83000 47.02300
N  23.51000 -2.99100 44.12900
C  24.44600 -2.08100 43.61500
C  23.77400 -1.15500 42.61000
C  22.22400 -1.58800 42.75800
C  22.28600 -2.80900 43.60400
C  21.41200 -0.45000 43.50700
C  24.22700 -1.48800 41.16700
C  25.20800 -0.44100 40.43900
H  24.95600 -0.33500 39.00400
N  22.00500 -5.32500 45.37200
C  21.03100 -4.81800 44.58400
C  19.80100 -5.56800 44.73900
C  20.06800 -6.55700 45.61500
C  21.56100 -6.47700 45.92100
C  18.52500 -5.14200 44.05700
C  19.01200 -7.45200 46.17700
O  17.79600 -7.42300 45.90700
C  19.47700 -8.59300 47.01000
N  24.65400 -6.37600 46.74000
C  23.72000 -7.27700 47.17200
C  24.37000 -8.27800 48.09600
C  25.82400 -7.85100 48.29100
C  25.89700 -6.63300 47.32400
C  23.57900 -8.64200 49.40800
C  27.01600 -8.88300 48.22200
C  27.58300 -9.29400 49.59000
N  26.06400 -4.04300 45.68400
C  27.15000 -4.67800 46.15500
C  28.33300 -3.88700 45.83200
C  27.81000 -2.88100 45.00700
C  26.45100 -3.08500 44.83900
C  29.78900 -4.09200 46.20500
C  28.21200 -1.73600 44.26600
O  29.33900 -1.27400 44.14800
C  26.94600 -1.15600 43.56900
C  26.83100 0.28900 43.72400
O  26.00400 0.83400 44.41200
O  27.70300 0.90100 42.82300
C  27.62500 2.38200 42.59200
H  20.31500 -3.21900 43.35600
H  21.90200 -8.17300 47.22700
H  27.95200 -6.14000 47.50400
H  24.08900 -0.13000 42.80500
H  21.77000 -1.84000 41.79900
H  22.15600 0.33500 43.64400
H  21.00200 -0.80200 44.45300
H  20.53500 -0.05100 42.99700
H  23.37000 -1.53700 40.49500
H  24.79100 -2.42100 41.14400
H  26.23700 -0.78700 40.54100
H  25.21300 0.54100 40.91200
H  17.59100 -5.70300 44.08400
H  18.58700 -4.93300 42.98900
H  18.30400 -4.17300 44.50500
H  18.57400 -9.10900 47.33700
H  19.77700 -8.07700 47.92200
H  20.23100 -9.18900 46.49700
H  24.28600 -9.22800 47.56900
H  25.90800 -7.34000 49.25000
H  23.94700 -8.37600 50.39900
H  23.41900 -9.71800 49.34200
H  22.58200 -8.21300 49.30400
H  27.77700 -8.47200 47.55800
H  26.67300 -9.78700 47.71900
H  28.67000 -9.34700 49.54000
H  27.16300 -10.28700 49.74800
H  27.30300 -8.55600 50.34200
H  30.35400 -3.29200 45.72500
H  30.12200 -5.05700 45.82200
H  29.86900 -4.13400 47.29100
H  27.05300 -1.24400 42.48800
H  27.24600 2.88600 43.48100
H  27.01700 2.61300 41.71800
H  28.60900 2.73600 42.28500
Mg 15.92300 -1.26800 27.85600
C  14.69800 0.92300 30.39500
C  18.19600 -2.38200 30.17600
C  17.51600 -2.95300 25.36100
C  14.51500 0.88300 25.55100
N  16.41500 -0.68800 29.99700
C  15.73500 0.15300 30.84400
C  16.22900 0.00200 32.31800
C  17.50700 -0.90900 32.15400
C  17.39900 -1.33900 30.73800
C  18.84400 -0.24200 32.48000
C  15.16800 -0.51000 33.33600
C  15.09000 0.41500 34.57400
H  16.39400 1.05100 35.17100
N  17.29100 -2.75800 27.80400
C  18.13400 -3.09600 28.89900
C  18.91900 -4.25800 28.55900
C  18.70600 -4.48700 27.16500
C  17.75500 -3.34800 26.73300
C  19.85500 -4.97700 29.51100
C  19.31400 -5.41000 26.17300
O  18.99300 -5.43300 24.95800
C  20.40400 -6.37600 26.64900
N  16.09000 -1.04200 25.73000
C  16.70200 -1.93100 24.87600
C  16.45400 -1.64100 23.40700
C  15.40100 -0.43300 23.46500
C  15.27800 -0.19800 25.00400
C  17.78900 -1.31700 22.56000
C  14.06600 -0.79000 22.94900
C  13.27900 0.38200 22.32400
N  14.69700 0.49200 27.90800
C  14.19200 1.16800 26.90300
C  13.35200 2.28200 27.40900
C  13.43300 2.14400 28.82000
C  14.36000 1.10400 29.02600
C  12.59200 3.27700 26.52800
C  13.02900 2.84100 29.97100
O  12.36000 3.83400 30.19900
C  13.75500 1.95300 31.14000
C  14.48000 2.91500 31.92500
O  15.50400 3.47900 31.57700
O  13.81200 3.23300 33.08100
C  14.29400 4.50400 33.66400
H  18.84700 -2.76900 30.96200
H  17.86600 -3.60400 24.55700
H  14.09600 1.49300 24.74800
H  16.57300 0.99100 32.62000
H  17.41000 -1.85200 32.69100
H  18.65400 0.68500 33.02200
H  19.37500 0.00400 31.56100
H  19.36200 -0.89500 33.18200
H  15.38000 -1.55200 33.57700
H  14.23000 -0.53000 32.78000
H  14.60100 -0.08200 35.41200
H  14.43200 1.22700 34.26300
H  19.47100 -5.98000 29.69500
H  19.90600 -4.40900 30.43900
H  20.87700 -4.95500 29.13200
H  21.12300 -6.01500 27.38400
H  20.96800 -6.59700 25.74300
H  19.83200 -7.19300 27.08900
H  15.99900 -2.51200 22.93500
H  15.83500 0.51400 23.14600
H  17.89400 -0.24500 22.39500
H  17.86100 -1.74800 21.56200
H  18.65700 -1.43800 23.20800
H  13.50900 -1.35800 23.69300
H  14.29500 -1.45700 22.11700
H  12.81100 0.10100 21.38100
H  13.92700 1.24400 22.16400
H  12.45600 0.68500 22.97100
H  13.34300 3.98200 26.17300
H  11.84400 3.84200 27.08500
H  12.11100 2.85100 25.64800
H  13.05000 1.42000 31.77800
H  13.51500 4.81800 34.35800
H  14.48900 5.34300 32.99500
H  15.16600 4.16900 34.22500

