158

Mg -8.87800 40.22600 42.47400
C  -7.92900 36.99300 41.57500
C  -6.27100 41.47400 40.57500
C  -10.09700 43.22700 42.98600
C  -11.70000 38.90200 44.06200
N  -7.31800 39.26900 41.09300
C  -7.04800 37.96700 40.99600
C  -5.77300 37.68000 40.12500
C  -5.25400 39.14400 39.77600
C  -6.35100 40.05600 40.50300
C  -3.81100 39.47800 40.13300
C  -6.01100 36.81500 38.92800
C  -4.86100 35.80000 38.63600
H  -3.92000 36.11800 37.40400
N  -8.16800 42.13000 41.89900
C  -7.04700 42.45400 41.14700
C  -6.91800 43.92800 41.07800
C  -8.14800 44.45700 41.61900
C  -8.90200 43.27000 42.22200
C  -5.83500 44.62600 40.30100
C  -8.59600 45.94000 41.65600
O  -7.94200 46.79300 41.02600
C  -9.81400 46.40800 42.23100
N  -10.79300 41.02900 43.19200
C  -10.95800 42.31500 43.51800
C  -12.31300 42.59100 44.24200
C  -12.62000 41.13400 44.77900
C  -11.63700 40.29700 43.91200
C  -12.15300 43.64400 45.39100
C  -14.17200 40.74900 44.59100
C  -14.85200 40.24800 45.89100
N  -9.74400 38.35800 42.85200
C  -10.87100 37.94900 43.44800
C  -10.96200 36.55200 43.52400
C  -9.84000 36.08600 42.76600
C  -9.14100 37.22100 42.33600
C  -12.15000 35.75400 44.06700
C  -9.01400 34.90200 42.33500
O  -9.19400 33.73800 42.60800
C  -7.81300 35.44800 41.51300
C  -6.53900 34.94500 42.11800
O  -6.17400 35.26000 43.24000
O  -5.92000 34.17100 41.18100
C  -4.58000 33.62700 41.50900
H  -5.34200 41.59200 40.01500
H  -10.45500 44.21700 43.27600
H  -12.64000 38.62700 44.54300
H  -5.01900 37.30400 40.81600
H  -5.28000 39.38200 38.71200
H  -3.27600 38.53200 40.21800
H  -3.82900 39.95100 41.11500
H  -3.38800 40.02800 39.29300
H  -6.16800 37.41200 38.03000
H  -6.97600 36.31900 39.03600
H  -5.25500 34.81900 38.36800
H  -4.24400 35.71500 39.53000
H  -5.38600 45.26200 41.06300
H  -6.25500 45.17100 39.45600
H  -5.07200 43.87100 40.10900
H  -9.82700 47.48300 42.04900
H  -9.70500 46.30000 43.31000
H  -10.57700 46.04900 41.54100
H  -13.16500 42.91900 43.64800
H  -12.27400 41.00600 45.80400
H  -12.16200 43.26900 46.41500
H  -13.02000 44.25400 45.13800
H  -11.20900 44.16500 45.23300
H  -14.31300 40.03600 43.77900
H  -14.80800 41.59100 44.31700
H  -15.24300 39.26400 45.62900
H  -15.58600 40.92500 46.32700
H  -14.16400 40.06200 46.71500
H  -12.76200 36.39400 44.70300
H  -11.78000 34.91900 44.66100
H  -12.86100 35.40800 43.31600
H  -8.03600 35.11500 40.50000
H  -4.46800 33.03400 42.41600
H  -3.86800 34.44900 41.58100
H  -4.32100 33.08600 40.59800
Mg -1.82900 33.89300 26.32400
C  -3.00400 32.13400 29.24900
C  0.13600 35.78200 28.41800
C  -1.00400 35.65500 23.64400
C  -3.78300 31.74300 24.39100
N  -1.49900 34.02600 28.60200
C  -2.00700 33.12400 29.52300
C  -1.45600 33.41700 30.92700
C  -0.58500 34.71600 30.68300
C  -0.62600 34.82000 29.19700
C  -1.06800 36.02300 31.36800
C  -0.76000 32.17500 31.56800
C  -1.30500 31.66300 32.93400
H  -0.26400 31.53500 34.07800
N  -0.58500 35.53300 26.03900
C  0.11500 36.21000 27.04500
C  0.90700 37.24700 26.42600
C  0.60300 37.22000 25.00600
C  -0.39000 36.14400 24.84200
C  1.93000 38.17000 27.18300
C  1.24700 37.95000 23.86400
O  0.90200 37.96200 22.71800
C  2.36900 38.98400 24.24700
N  -2.51900 33.92700 24.37400
C  -1.92300 34.66900 23.40400
C  -2.41300 34.26300 21.97100
C  -2.84400 32.77900 22.23800
C  -3.11500 32.78900 23.73600
C  -3.52800 35.18600 21.38200
C  -1.85200 31.62900 21.80300
C  -0.53200 31.62700 22.49800
N  -3.16900 32.35400 26.72400
C  -3.86200 31.58200 25.83600
C  -4.68200 30.61400 26.59100
C  -4.34600 30.85400 27.95600
C  -3.44100 31.86700 27.96900
C  -5.72500 29.65100 26.00400
C  -4.70300 30.40300 29.30500
O  -5.49700 29.52700 29.71700
C  -3.73500 31.19500 30.17700
C  -4.46900 31.75000 31.35700
O  -4.82900 32.93000 31.48200
O  -4.68200 30.79800 32.29100
C  -5.23400 31.34600 33.58000
H  0.96900 36.23200 28.96200
H  -0.68300 36.19400 22.75000
H  -4.14300 30.94500 23.73800
H  -2.27900 33.68500 31.59000
H  0.41700 34.43600 31.01000
H  -2.15400 35.95600 31.43600
H  -0.71000 36.87000 30.78100
H  -0.67400 36.03700 32.38400
H  0.31400 32.35700 31.58500
H  -0.87900 31.33900 30.88000
H  -1.52400 30.60200 32.81600
H  -2.23500 32.08900 33.30900
H  2.90400 37.68900 27.26500
H  1.50700 38.30800 28.17800
H  1.98300 39.19800 26.82600
H  3.07800 39.36000 23.51000
H  3.02600 38.55200 25.00200
H  1.83800 39.85600 24.63000
H  -1.60300 34.27300 21.24200
H  -3.85200 32.53900 21.89800
H  -4.44500 34.60300 21.46700
H  -3.13200 35.47200 20.40800
H  -3.79600 36.03500 22.01100
H  -1.57200 31.81500 20.76600
H  -2.23800 30.61000 21.79000
H  -0.82900 31.98500 23.48400
H  0.08600 32.19800 21.80500
H  -0.14700 30.61000 22.57700
H  -5.87900 30.02300 24.99100
H  -6.63700 29.77100 26.58900
H  -5.41100 28.61100 26.10000
H  -2.98800 30.43200 30.39300
H  -4.49600 31.96400 34.09300
H  -5.45000 30.45000 34.16200
H  -6.13100 31.95600 33.47000

