158

Mg 1.06900 -0.98500 45.68100
C  4.30300 0.47900 45.31300
C  -0.24300 1.59300 44.01900
C  -1.82300 -2.79800 45.54500
C  2.78900 -3.87200 46.85800
N  1.99500 0.80100 44.73200
C  3.22600 1.28700 44.86600
C  3.36600 2.69800 44.20400
C  1.83600 3.07100 44.07300
C  1.10000 1.78300 44.33700
C  1.28500 4.26400 45.01800
C  4.15100 2.85100 42.80700
C  4.29400 4.33800 42.40100
H  3.60400 4.87300 41.14100
N  -0.80400 -0.65400 44.90500
C  -1.15000 0.46400 44.26400
C  -2.58900 0.44100 43.90100
C  -3.04000 -0.84700 44.28800
C  -1.87400 -1.51700 44.93600
C  -3.36800 1.56000 43.17200
C  -4.48200 -1.38700 44.07300
O  -5.28000 -0.72600 43.38000
C  -4.89600 -2.75600 44.62700
N  0.54500 -2.97500 46.15900
C  -0.71900 -3.41100 46.15800
C  -0.93400 -4.81700 46.75100
C  0.56300 -5.25000 46.99900
C  1.39300 -3.93600 46.70000
C  -1.79600 -4.81300 48.06300
C  0.87600 -6.50700 46.05100
C  1.35400 -7.74900 46.95800
N  3.08000 -1.56100 46.24300
C  3.67600 -2.72500 46.75500
C  5.10400 -2.60900 46.73200
C  5.40600 -1.38700 46.23400
C  4.17300 -0.79200 45.92200
C  6.06900 -3.56500 47.32900
C  6.43500 -0.52000 45.81500
O  7.62900 -0.77300 45.81300
C  5.80600 0.75700 45.21000
C  6.30200 1.90300 46.03400
O  6.06600 2.05600 47.22800
O  7.10300 2.75400 45.25300
C  7.52800 4.02500 45.84900
H  -0.73600 2.45100 43.55700
H  -2.66200 -3.48100 45.39700
H  3.18600 -4.85600 47.11800
H  3.88700 3.25700 44.98100
H  1.54400 3.37600 43.06800
H  2.11900 4.92300 45.25600
H  0.76500 3.92400 45.91300
H  0.61900 4.85700 44.39100
H  3.67100 2.31500 41.98800
H  5.17300 2.56000 43.04700
H  5.36200 4.51700 42.27200
H  4.06700 4.98100 43.25100
H  -2.95000 2.47000 43.60200
H  -4.45100 1.55400 43.29000
H  -3.20200 1.61700 42.09600
H  -4.30200 -3.47600 44.06500
H  -5.91300 -3.01200 44.32800
H  -4.88800 -2.87500 45.71100
H  -1.43000 -5.47300 46.03500
H  0.77400 -5.52700 48.03200
H  -2.43700 -3.95100 48.25100
H  -1.09500 -4.90500 48.89200
H  -2.37500 -5.73500 48.00800
H  1.61100 -6.25900 45.28600
H  0.02600 -6.89200 45.48800
H  1.05500 -8.69100 46.50000
H  1.09100 -7.80500 48.01400
H  2.43800 -7.83700 46.87900
H  6.93500 -3.64000 46.67200
H  5.74100 -4.60400 47.31800
H  6.47700 -3.27200 48.29700
H  6.08500 0.75600 44.15600
H  8.20600 3.84500 46.68400
H  6.70700 4.70900 46.06400
H  8.14100 4.60400 45.15900
Mg 1.69100 41.66800 24.85500
C  3.62800 41.71900 27.84700
C  -1.00500 40.80700 26.92400
C  -0.02800 41.04100 22.17900
C  4.46300 42.19700 23.00800
N  1.32700 41.23000 27.18300
C  2.24600 41.38500 28.15700
C  1.55300 41.15200 29.57100
C  0.20500 40.61600 29.23700
C  0.13900 40.89500 27.69400
C  -0.01000 39.06400 29.50400
C  1.52500 42.45000 30.49500
C  1.98300 42.37500 31.91200
H  0.80000 42.45400 32.87800
N  -0.27400 41.13200 24.56600
C  -1.21600 40.95000 25.53700
C  -2.46500 40.71600 24.88000
C  -2.22200 40.77600 23.46200
C  -0.80700 41.00000 23.34100
C  -3.84800 40.39300 25.56900
C  -3.21300 40.58300 22.33900
O  -2.85000 40.68200 21.15100
C  -4.72900 40.24300 22.56900
N  2.16200 41.57900 22.90100
C  1.25000 41.33000 21.95200
C  1.82600 41.67100 20.51300
C  3.25100 42.28500 20.82100
C  3.32500 42.01000 22.30900
C  1.80700 40.44200 19.59300
C  3.40400 43.78800 20.39000
C  4.63100 44.09000 19.42000
N  3.64800 41.88800 25.26600
C  4.64600 42.11600 24.38800
C  5.93000 42.24800 25.11100
C  5.51200 42.09100 26.50900
C  4.14100 41.91400 26.53400
C  7.29200 42.28100 24.45100
C  5.99500 42.02300 27.84900
O  7.13900 42.17700 28.33900
C  4.80700 41.85700 28.79000
C  5.09200 40.73300 29.67800
O  5.10400 39.57900 29.31800
O  5.23200 41.11600 31.00000
C  5.27500 39.92900 31.88200
H  -1.78600 40.58600 27.65500
H  -0.53200 40.96600 21.21400
H  5.29000 42.56000 22.39400
H  2.15800 40.42900 30.11800
H  -0.58000 41.14900 29.77400
H  -0.40700 38.62700 28.58800
H  -0.82500 39.04600 30.22800
H  0.86800 38.59900 29.95400
H  0.49000 42.79200 30.49500
H  2.11300 43.22400 30.00100
H  2.68400 43.13700 32.25000
H  2.26300 41.33700 32.09400
H  -3.78900 40.72900 26.60500
H  -3.93700 39.31000 25.65000
H  -4.68400 40.83400 25.02600
H  -4.91200 39.52500 23.36800
H  -5.21600 39.97600 21.63100
H  -5.12200 41.23600 22.78400
H  1.11900 42.37400 20.07200
H  4.01100 41.66200 20.35100
H  2.71900 40.32600 19.00700
H  1.03700 40.55300 18.83000
H  1.68600 39.50500 20.13600
H  3.42200 44.43700 21.26500
H  2.48100 44.03700 19.86500
H  4.37600 44.41600 18.41200
H  5.34800 43.28400 19.26100
H  5.28500 44.90100 19.74000
H  7.21000 42.50000 23.38600
H  7.73400 41.29900 24.61500
H  7.90800 43.04700 24.92100
H  4.83700 42.74000 29.43000
H  6.28200 39.91300 32.29900
H  4.90700 38.96200 31.54000
H  4.59400 40.12900 32.70900

