158

Mg 16.83400 -1.97400 27.42700
C  16.13000 0.36500 30.05600
C  18.83000 -3.71800 29.63500
C  18.14000 -3.69500 24.78200
C  15.44600 0.40600 25.25000
N  17.48800 -1.63400 29.63800
C  16.90200 -0.75100 30.54200
C  17.28100 -1.16300 31.94900
C  18.17800 -2.43600 31.79900
C  18.17900 -2.61500 30.28600
C  19.53500 -2.53500 32.57800
C  15.98800 -1.49900 32.72400
C  15.93700 -1.32300 34.27800
H  17.24900 -0.76500 34.91000
N  17.99800 -3.61700 27.26600
C  18.71900 -4.22600 28.27500
C  19.33700 -5.49500 27.87200
C  19.08900 -5.49100 26.40300
C  18.38000 -4.19800 26.08800
C  20.06900 -6.56200 28.79700
C  19.51700 -6.60800 25.42000
O  19.21500 -6.55000 24.22400
C  20.15100 -7.79700 25.91500
N  16.80200 -1.66800 25.35200
C  17.42100 -2.51700 24.45500
C  17.28600 -2.09000 22.90600
C  16.48900 -0.75400 23.15600
C  16.16100 -0.64100 24.67300
C  18.68800 -1.85900 22.16100
C  15.18500 -0.45600 22.30900
C  13.97800 -1.33300 22.66000
N  15.91000 0.00200 27.55200
C  15.36200 0.78500 26.56700
C  14.75900 1.96800 27.15700
C  15.03600 1.86100 28.53400
C  15.75500 0.63000 28.74700
C  14.03600 3.06500 26.46900
C  14.90600 2.43200 29.86200
O  14.47200 3.54100 30.17600
C  15.51700 1.46800 30.86100
C  16.47300 2.14400 31.87200
O  17.67400 2.38000 31.72000
O  15.78700 2.57500 32.97400
C  16.46300 3.49100 33.86200
H  19.32400 -4.29500 30.42000
H  18.56400 -4.25500 23.94600
H  15.05400 1.17100 24.57700
H  17.87700 -0.32100 32.30000
H  17.70500 -3.26800 32.32100
H  19.50500 -3.08500 33.51900
H  19.72800 -1.50800 32.88600
H  20.34200 -2.92800 31.95900
H  15.72900 -2.55300 32.62800
H  15.16000 -0.95400 32.27000
H  15.78900 -2.28700 34.76400
H  15.13900 -0.66600 34.62400
H  19.64100 -7.56500 28.79600
H  20.03000 -6.31000 29.85700
H  21.12000 -6.56100 28.50900
H  21.17600 -7.65800 26.25900
H  20.43200 -8.44200 25.08300
H  19.45100 -8.29800 26.58400
H  16.59400 -2.69000 22.31600
H  17.14200 0.07600 22.88700
H  19.05800 -0.83500 22.11000
H  18.71400 -2.19300 21.12400
H  19.51000 -2.40500 22.62500
H  15.35200 -0.46700 21.23200
H  14.95600 0.58000 22.55900
H  13.23000 -0.66700 23.09100
H  14.09800 -2.13700 23.38500
H  13.60200 -1.66100 21.69100
H  13.71700 2.70400 25.49200
H  14.71000 3.91300 26.35000
H  13.16300 3.25400 27.09500
H  14.68800 1.03100 31.41700
H  16.84900 4.29900 33.24100
H  17.30200 3.03500 34.38800
H  15.71200 3.94100 34.51200
Mg 8.74900 47.59700 29.13600
C  7.09600 46.56300 32.07300
C  11.71700 47.66800 30.95400
C  10.44100 48.66800 26.41600
C  5.70600 48.19400 27.60500
N  9.33200 47.05400 31.30600
C  8.47000 46.75200 32.32400
C  9.16900 46.70900 33.65200
C  10.62300 47.21000 33.27500
C  10.63100 47.32200 31.75400
C  11.11000 48.49300 34.03700
C  9.19100 45.38300 34.40600
C  8.60600 45.57800 35.81800
H  9.02300 44.58700 36.90400
N  10.83500 47.82400 28.65500
C  11.85300 47.82900 29.55700
C  13.12900 48.01800 28.85800
C  12.76800 48.15900 27.41600
C  11.28300 48.16600 27.42700
C  14.49700 48.19300 29.50500
C  13.68100 48.31400 26.21800
O  13.31200 48.41700 25.02000
C  15.24800 48.38900 26.42800
N  8.21800 48.36400 27.39600
C  9.05200 48.82300 26.35800
C  8.26100 49.61300 25.27400
C  6.76700 49.04500 25.52600
C  6.90400 48.42600 26.91400
C  8.29700 51.15100 25.46300
C  6.26500 47.96500 24.60900
C  7.35400 47.06000 24.05600
N  6.72000 47.51600 29.62100
C  5.58200 47.65800 28.89900
C  4.41900 47.20600 29.73200
C  5.00000 46.71700 30.94700
C  6.39200 46.94800 30.85300
C  2.96500 47.33200 29.21000
C  4.70900 46.18300 32.27100
O  3.66800 45.98400 32.81000
C  6.04400 46.11300 33.04100
C  6.01200 44.71700 33.57300
O  6.49800 43.68700 33.10400
O  5.40000 44.77600 34.82900
C  5.48600 43.50700 35.66000
H  12.61900 47.84600 31.54300
H  11.07000 49.07400 25.62000
H  4.75900 48.27700 27.06900
H  8.67300 47.49600 34.22000
H  11.34300 46.41300 33.46000
H  12.16500 48.44700 34.30900
H  10.48200 48.64800 34.91400
H  11.11000 49.36500 33.38300
H  10.16000 44.88500 34.44700
H  8.61400 44.72000 33.76100
H  7.51900 45.61600 35.74600
H  8.86600 46.58200 36.15300
H  14.42700 48.14200 30.59100
H  15.02800 49.10100 29.21700
H  15.06400 47.29000 29.28000
H  15.38100 49.41000 26.78400
H  15.63500 48.10900 25.44800
H  15.61600 47.75500 27.23500
H  8.56500 49.33700 24.26400
H  6.06800 49.88000 25.58100
H  9.07300 51.23400 26.22400
H  7.44500 51.69300 25.87300
H  8.64600 51.58800 24.52700
H  5.86800 48.49600 23.74300
H  5.54400 47.30500 25.09000
H  8.34400 47.09700 24.50900
H  7.56700 47.19400 22.99600
H  6.92800 46.07000 24.22200
H  2.33100 47.19700 30.08600
H  2.84000 46.46700 28.55800
H  2.81600 48.31600 28.76500
H  6.12100 46.80800 33.87700
H  4.96300 42.70300 35.14100
H  4.91100 43.64500 36.57600
H  6.48900 43.17000 35.92400

