158

Mg 18.01000 -0.94400 27.90400
C  17.02300 1.07400 30.82000
C  19.77000 -2.86100 30.05200
C  18.63000 -2.74500 25.28300
C  16.01600 1.36500 25.98100
N  18.26000 -0.96400 30.12400
C  17.88800 -0.05500 31.07100
C  18.25800 -0.52000 32.52500
C  19.14800 -1.76000 32.27200
C  19.09500 -1.84600 30.71000
C  20.58600 -1.90300 32.80200
C  16.95200 -0.80200 33.39300
C  16.81500 -0.01800 34.71300
H  18.14500 0.55100 35.33500
N  19.21300 -2.45000 27.61000
C  19.87600 -3.16100 28.61400
C  20.65200 -4.20300 27.96700
C  20.27100 -4.19000 26.58700
C  19.24400 -3.11900 26.43100
C  21.44700 -5.19200 28.69300
C  20.76000 -5.11600 25.43400
O  20.45700 -4.98400 24.26000
C  21.75000 -6.17200 25.70500
N  17.54500 -0.64500 25.91600
C  17.81300 -1.64000 25.04100
C  17.23800 -1.33900 23.63400
C  16.37400 -0.05800 23.93800
C  16.68000 0.24800 25.33800
C  18.24400 -1.07600 22.45100
C  14.87600 -0.28500 23.66200
C  14.04300 -1.06300 24.68300
N  16.74300 0.81800 28.29700
C  15.96500 1.62400 27.34500
C  15.39500 2.74300 28.03300
C  15.74900 2.54500 29.34900
C  16.60600 1.46400 29.49000
C  14.48500 3.68500 27.44500
C  15.60700 3.10500 30.63700
O  14.98100 4.02900 31.05600
C  16.29600 2.07700 31.65400
C  17.27700 2.89000 32.48800
O  18.51100 3.04200 32.32600
O  16.50400 3.41700 33.50700
C  17.18500 4.49500 34.23000
H  20.43600 -3.43500 30.70000
H  18.67500 -3.45500 24.45400
H  15.36100 1.93700 25.32000
H  18.87400 0.28600 32.92400
H  18.65300 -2.63300 32.69700
H  20.60400 -1.40500 33.77100
H  21.19100 -1.36900 32.07000
H  20.97100 -2.92300 32.83800
H  16.80000 -1.84500 33.67100
H  16.21900 -0.45100 32.66800
H  16.31600 -0.66600 35.43400
H  16.23500 0.89200 34.55900
H  21.49200 -4.99400 29.76400
H  22.48100 -5.04700 28.38100
H  21.05500 -6.19000 28.49400
H  22.67400 -5.76200 26.11300
H  22.00900 -6.55400 24.71800
H  21.43500 -7.03400 26.29400
H  16.56300 -2.17500 23.45000
H  16.62900 0.83200 23.36100
H  18.56100 -1.89800 21.80900
H  19.16000 -0.65600 22.86700
H  17.90100 -0.21600 21.87700
H  14.76900 -0.80800 22.71200
H  14.38300 0.67900 23.53600
H  13.30700 -0.32300 25.00100
H  14.59500 -1.47400 25.52800
H  13.35000 -1.81600 24.30900
H  14.03800 3.25400 26.54900
H  14.98900 4.60400 27.14600
H  13.67300 4.02900 28.08500
H  15.43900 1.65900 32.18000
H  18.26500 4.34800 34.21800
H  16.76000 4.55100 35.23200
H  16.86200 5.41400 33.73900
Mg -12.27300 16.34700 41.26400
C  -8.85100 15.34900 40.57900
C  -11.54800 19.36000 39.70400
C  -15.49400 16.88600 41.13500
C  -12.93500 12.90900 42.09000
N  -10.40000 17.18400 40.19200
C  -9.11800 16.64000 40.32000
C  -8.07400 17.72400 39.83500
C  -8.99700 19.06500 39.61800
C  -10.40500 18.54500 39.80700
C  -8.73400 20.25700 40.48500
C  -7.35800 17.33800 38.50100
C  -5.92300 17.75800 38.23400
H  -5.65500 18.66500 37.02000
N  -13.34200 17.91500 40.62800
C  -12.89900 19.07400 39.96900
C  -14.11700 19.94100 39.69400
C  -15.24200 19.19600 40.09400
C  -14.72300 17.94800 40.66900
C  -14.02600 21.19800 38.97900
C  -16.81400 19.69700 39.93700
O  -17.08700 20.72700 39.35600
C  -17.99600 18.90900 40.47100
N  -13.97300 15.03400 41.71900
C  -15.16500 15.65100 41.62300
C  -16.30500 14.61500 42.03800
C  -15.49000 13.37200 42.52500
C  -14.06200 13.72900 42.06000
C  -17.47000 15.07000 42.98900
C  -15.85400 12.01600 41.90200
C  -15.71200 11.78200 40.38000
N  -11.14800 14.51000 41.37100
C  -11.60100 13.25500 41.82200
C  -10.47000 12.38200 41.78200
C  -9.35100 13.20300 41.37400
C  -9.79200 14.45900 41.06300
C  -10.51800 11.02300 42.24000
C  -7.90000 13.14200 41.17400
O  -7.10400 12.26700 41.39200
C  -7.52900 14.62200 40.67900
C  -6.60400 15.32100 41.66200
O  -6.69200 15.21500 42.84200
O  -5.55700 15.94100 40.98700
C  -4.60500 16.60400 41.89100
H  -11.34800 20.35400 39.29900
H  -16.58200 16.95500 41.19900
H  -13.09900 11.85600 42.32900
H  -7.37500 17.81300 40.66600
H  -8.74400 19.42600 38.62100
H  -9.26700 21.15900 40.18500
H  -7.65600 20.36200 40.36300
H  -8.85600 20.10600 41.55700
H  -7.81000 17.73600 37.59300
H  -7.39000 16.25800 38.36000
H  -5.24700 16.91500 38.09100
H  -5.59900 18.28300 39.13200
H  -13.01700 21.55000 38.76500
H  -14.66300 21.97700 39.39800
H  -14.46200 20.88600 38.03000
H  -18.88800 19.44800 40.15400
H  -17.98000 18.90300 41.56100
H  -18.01600 17.88900 40.08800
H  -16.75900 14.33200 41.08900
H  -15.53900 13.30300 43.61100
H  -18.40000 14.84600 42.46700
H  -17.53100 16.11700 43.28800
H  -17.40500 14.39100 43.84000
H  -16.91600 12.12900 42.12000
H  -15.53100 11.06000 42.31500
H  -16.66700 12.07000 39.94000
H  -15.54400 10.72600 40.16800
H  -14.94600 12.39600 39.90600
H  -10.84600 10.35600 41.44300
H  -11.22000 11.08300 43.07200
H  -9.51400 10.67300 42.48000
H  -7.04200 14.40600 39.72800
H  -3.97000 15.90000 42.42800
H  -5.16900 17.31600 42.49300
H  -3.90300 17.23000 41.34100

