158

Mg 49.11500 46.86100 42.59700
C  45.90900 47.81600 41.54800
C  48.73700 44.15500 40.61400
C  52.38300 46.08600 43.14800
C  49.65900 50.05900 43.65700
N  47.52100 46.09400 41.11700
C  46.26600 46.63700 40.95800
C  45.43800 45.79200 39.94700
C  46.31100 44.46800 39.78300
C  47.60000 44.91900 40.53800
C  45.67300 43.14600 40.29000
C  45.16000 46.46900 38.58300
C  43.71600 46.65300 38.20200
H  43.29600 46.18000 36.76100
N  50.31400 45.19500 42.09200
C  49.91300 44.24000 41.24400
C  50.92600 43.25900 41.30700
C  52.06300 43.76500 41.99900
C  51.59100 45.09200 42.49900
C  50.84700 41.93000 40.49600
C  53.44400 43.07500 42.20600
O  53.57900 41.84400 41.92300
C  54.65100 43.78500 42.83400
N  50.77400 47.93400 43.25800
C  51.99500 47.38700 43.49400
C  53.06900 48.42300 43.90300
C  52.18200 49.64000 44.15500
C  50.80200 49.20200 43.57000
C  54.00800 48.06200 45.00600
C  52.74400 51.00400 43.65400
C  52.70600 52.12400 44.68200
N  47.99400 48.58800 42.78600
C  48.33500 49.77000 43.32800
C  47.24000 50.66000 43.24300
C  46.19300 49.83400 42.66700
C  46.78600 48.70300 42.29400
C  47.15900 52.01900 43.79100
C  44.78100 49.86000 42.26600
O  43.89300 50.72500 42.36200
C  44.56300 48.50500 41.36000
C  43.37500 47.88700 41.95200
O  42.24600 48.17600 41.68000
O  43.73000 46.93100 42.86800
C  42.67400 46.20600 43.60300
H  48.57300 43.28000 39.98100
H  53.40800 45.77100 43.35300
H  49.87900 51.04700 44.06700
H  44.45200 45.64400 40.38700
H  46.62400 44.30700 38.75100
H  45.64300 42.40400 39.49200
H  44.67000 43.48200 40.55300
H  46.12600 42.76100 41.20400
H  45.82100 45.95900 37.88200
H  45.67100 47.43200 38.61300
H  43.34700 47.67900 38.21500
H  43.00700 46.22500 38.91100
H  51.74000 41.54000 40.00800
H  50.17400 42.11400 39.65800
H  50.44600 41.13700 41.12800
H  55.53800 43.28200 42.44900
H  54.51200 43.81200 43.91400
H  54.69400 44.74800 42.32400
H  53.68100 48.59900 43.01800
H  51.93700 49.73300 45.21300
H  53.76400 47.17600 45.59100
H  53.99000 48.98000 45.59400
H  55.06600 48.01300 44.74800
H  52.16000 51.29300 42.78100
H  53.74600 50.85400 43.25300
H  53.69400 52.41200 45.04000
H  52.13100 51.87300 45.57300
H  52.13500 52.98300 44.32900
H  48.10400 52.54400 43.64800
H  46.90500 51.99300 44.85100
H  46.29200 52.45000 43.29200
H  44.47700 48.92200 40.35700
H  42.49800 46.59700 44.60500
H  43.03100 45.17800 43.67000
H  41.74300 46.16100 43.03800
Mg 41.52000 41.21200 26.77500
C  40.61100 43.73400 29.08800
C  42.30300 39.24500 29.30400
C  42.50900 38.99500 24.49600
C  40.63600 43.46500 24.10600
N  41.68500 41.54300 28.92000
C  41.16300 42.60200 29.69000
C  41.17300 42.32100 31.24300
C  41.83200 40.91000 31.24700
C  41.92700 40.52100 29.73800
C  43.15300 40.86900 32.11000
C  39.76500 42.40300 31.86700
C  39.52400 43.21700 33.14200
H  39.14400 42.39000 34.31900
N  42.38400 39.42800 26.91100
C  42.55000 38.72800 28.05800
C  43.24500 37.43800 27.74500
C  43.31600 37.36600 26.35600
C  42.71000 38.66900 25.84400
C  43.83200 36.51800 28.80600
C  43.99500 36.30600 25.41300
O  44.10300 36.39000 24.16000
C  44.59700 35.11200 26.08500
N  41.57000 41.20800 24.59100
C  41.89100 40.13000 23.91600
C  41.82700 40.30200 22.41700
C  41.02500 41.65200 22.38100
C  41.15800 42.23300 23.74200
C  43.19000 40.34900 21.74400
C  39.54500 41.44200 21.96600
C  38.63900 40.50600 22.82400
N  40.87100 43.20500 26.61400
C  40.47200 43.98500 25.48500
C  39.97600 45.28500 25.88900
C  40.08100 45.24100 27.28900
C  40.54500 43.95900 27.68200
C  39.63100 46.38200 24.96600
C  39.89300 45.93100 28.54800
O  39.58000 47.09300 28.75400
C  40.11000 44.96300 29.75900
C  41.20200 45.56800 30.59700
O  42.37800 45.68000 30.27800
O  40.58600 46.33300 31.56200
C  41.43400 47.18000 32.39900
H  42.50100 38.44800 30.02500
H  42.66500 38.16400 23.80500
H  40.26700 44.08900 23.28800
H  41.79100 43.12700 31.64000
H  41.12100 40.20400 31.67600
H  44.00900 40.36600 31.66200
H  42.96500 40.39600 33.07400
H  43.41000 41.85500 32.49700
H  39.37600 41.39600 32.01900
H  39.02700 42.66800 31.11000
H  38.66600 43.86900 32.97900
H  40.41600 43.80500 33.36000
H  43.96400 37.16500 29.67300
H  44.85000 36.16700 28.63700
H  43.17500 35.66600 28.98400
H  43.87900 34.57000 26.70000
H  45.50600 35.33200 26.64600
H  44.88800 34.45600 25.26400
H  41.18200 39.48900 22.08300
H  41.42900 42.29800 21.60200
H  43.92600 40.52800 22.52800
H  43.19700 41.20900 21.07500
H  43.35200 39.51300 21.06300
H  39.56200 41.01600 20.96300
H  39.07300 42.42400 21.93900
H  37.64200 40.86800 23.07500
H  39.07900 40.14500 23.75300
H  38.40600 39.72500 22.10000
H  38.91500 45.92900 24.28000
H  40.25800 46.90100 24.24100
H  38.97400 47.04200 25.53300
H  39.22100 44.89100 30.38600
H  41.46300 46.85300 33.43900
H  41.01900 48.18200 32.28900
H  42.50600 47.21100 32.20600

