158

Mg 1.51800 9.10200 26.78300
C  1.74200 11.34000 29.57100
C  1.70700 6.51400 29.00300
C  2.13200 7.02800 24.09400
C  1.78600 11.76000 24.64400
N  1.74800 8.98300 29.00600
C  1.45300 9.98300 29.84100
C  1.23600 9.43700 31.25400
C  1.53500 7.93900 31.16600
C  1.63300 7.77200 29.62700
C  2.79500 7.37000 31.90200
C  -0.26100 9.75500 31.68700
C  -0.47400 9.57500 33.20000
H  0.70700 9.01400 34.10900
N  1.76200 6.96300 26.54900
C  1.83500 6.15100 27.64900
C  1.99500 4.77700 27.12300
C  2.00800 4.84900 25.66500
C  1.96100 6.30000 25.35200
C  1.98900 3.52600 28.11300
C  1.98500 3.85700 24.53600
O  1.86700 4.16400 23.33500
C  2.20500 2.44500 24.87500
N  1.68200 9.32900 24.73700
C  1.98100 8.37500 23.84400
C  2.01500 8.94800 22.44200
C  1.41900 10.35100 22.65800
C  1.66600 10.47700 24.11300
C  3.47900 9.01500 21.86000
C  -0.14600 10.45200 22.32100
C  -0.46200 11.46900 21.18400
N  1.76900 11.18800 26.95700
C  1.89100 12.16000 25.99500
C  2.12000 13.44400 26.69100
C  2.08000 13.13800 28.09800
C  1.91000 11.74800 28.21000
C  2.38900 14.80800 26.03400
C  2.16800 13.67700 29.42400
O  2.51700 14.80000 29.64500
C  1.83100 12.52900 30.46700
C  2.93000 12.48100 31.44700
O  4.08700 12.37800 31.16200
O  2.45000 12.57200 32.69500
C  3.40300 12.44100 33.74000
H  1.73900 5.73700 29.77000
H  2.28400 6.52300 23.13800
H  1.71300 12.61000 23.96200
H  1.97500 9.95300 31.86800
H  0.67000 7.37200 31.51000
H  3.21500 7.89900 32.75800
H  3.63800 7.17600 31.23900
H  2.51600 6.42800 32.37400
H  -0.86000 9.12100 31.03400
H  -0.60400 10.76800 31.47900
H  -1.29200 8.86900 33.33800
H  -0.57200 10.58300 33.60200
H  2.70400 3.73300 28.90900
H  2.24700 2.57600 27.64700
H  1.01200 3.46800 28.59300
H  1.27300 2.10900 25.33000
H  2.90100 2.35000 25.70800
H  2.54200 1.87600 24.00900
H  1.39200 8.35300 21.77400
H  1.92300 11.13800 22.09600
H  3.85400 10.03800 21.85500
H  3.27300 8.64000 20.85700
H  4.17600 8.47500 22.50100
H  -0.71900 10.76100 23.19500
H  -0.38600 9.48800 21.87200
H  0.45500 11.37900 20.60100
H  -0.45200 12.50900 21.51100
H  -1.39300 11.36200 20.62700
H  1.56400 15.50000 26.20600
H  2.58200 14.74800 24.96300
H  3.40500 15.00500 26.37600
H  0.91700 12.81900 30.98600
H  4.16900 11.68300 33.57700
H  2.78300 12.16500 34.59200
H  3.74000 13.46400 33.90100
Mg -1.81800 35.12300 26.81100
C  -3.74600 33.21800 29.11100
C  -1.25500 37.30700 29.21300
C  -0.24700 36.67000 24.43400
C  -3.14600 32.98900 24.33200
N  -2.51200 35.26100 28.84600
C  -3.13400 34.34000 29.64100
C  -3.09700 34.69700 31.16800
C  -2.55400 36.11500 31.11200
C  -2.03600 36.26800 29.66100
C  -3.55700 37.30700 31.56400
C  -2.23200 33.64500 31.98300
C  -2.95400 32.96700 33.17300
H  -2.14600 32.65800 34.50800
N  -0.75800 36.74200 26.88300
C  -0.62000 37.54800 27.94300
C  0.23600 38.65600 27.55800
C  0.56500 38.50000 26.12300
C  -0.19400 37.27600 25.77300
C  0.53300 39.79600 28.47200
C  1.50700 39.28400 25.27500
O  1.67900 39.01600 24.10200
C  2.29300 40.43500 25.80900
N  -1.62100 34.79700 24.74400
C  -0.92500 35.58700 23.99100
C  -0.92600 35.17100 22.49100
C  -1.52300 33.82100 22.53500
C  -2.19500 33.88400 23.94500
C  -1.67800 36.20500 21.59300
C  -0.66900 32.53800 22.40900
C  0.68700 32.58900 23.14500
N  -3.18300 33.56300 26.70200
C  -3.63300 32.73700 25.59000
C  -4.58800 31.77600 26.02200
C  -4.52000 31.91500 27.41600
C  -3.72500 32.96900 27.75200
C  -5.42200 30.92700 25.14500
C  -5.11100 31.24500 28.60300
O  -5.92800 30.36800 28.71900
C  -4.52900 32.06900 29.72000
C  -5.61100 32.55300 30.54500
O  -6.41100 33.48200 30.26800
O  -5.59800 31.81900 31.71500
C  -6.39400 32.31800 32.83700
H  -0.87700 37.98200 29.98400
H  0.20200 37.27900 23.64600
H  -3.23200 32.27100 23.51400
H  -4.09500 34.66600 31.60300
H  -1.80500 36.18700 31.90000
H  -2.85900 37.92200 32.13200
H  -4.36500 37.05100 32.24900
H  -3.96500 37.92500 30.76400
H  -1.26800 34.07200 32.25900
H  -1.89200 32.78100 31.41300
H  -3.28300 31.96600 32.89400
H  -3.78200 33.60200 33.48800
H  -0.00200 39.79400 29.42100
H  0.02300 40.55100 27.87400
H  1.59800 40.02400 28.50600
H  2.94900 40.22600 26.65500
H  1.55200 41.15700 26.15200
H  2.93500 40.77600 24.99600
H  0.09800 35.11400 22.12300
H  -2.23200 33.66600 21.72200
H  -2.10000 36.97400 22.23900
H  -2.54000 35.68200 21.17900
H  -0.94900 36.62700 20.90100
H  -0.34200 32.45600 21.37200
H  -1.27600 31.63500 22.48400
H  0.53200 31.75200 23.82600
H  0.87000 33.56500 23.59500
H  1.51300 32.35300 22.47400
H  -5.30900 31.07500 24.07200
H  -6.48700 30.96000 25.37700
H  -5.07500 29.91400 25.34800
H  -3.81300 31.42900 30.23600
H  -6.18900 33.37700 32.99400
H  -6.00200 31.88000 33.75500
H  -7.45900 32.10500 32.74800

