158

Mg 54.73100 24.22700 44.77700
C  52.32900 26.64700 43.91300
C  52.69900 21.79100 43.72000
C  57.31600 22.08500 44.94300
C  56.90200 26.92000 45.66000
N  52.83700 24.30800 43.74300
C  51.93400 25.29000 43.64400
C  50.51600 24.77900 43.22200
C  50.59500 23.33700 43.78300
C  52.13400 23.10300 43.62400
C  49.92900 23.02700 45.21700
C  50.32400 24.96600 41.64200
C  49.01400 24.56700 41.04600
H  48.74600 25.05400 39.57800
N  54.93800 22.09000 44.53900
C  53.93400 21.30800 44.14500
C  54.44400 19.93600 44.01600
C  55.84600 19.97900 44.40000
C  56.12500 21.39600 44.62500
C  53.62300 18.73600 43.58200
C  56.74300 18.81400 44.53100
O  56.36900 17.75100 44.04900
C  58.17400 18.80500 45.10300
N  56.85100 24.45800 45.03100
C  57.67100 23.42300 45.16800
C  59.09800 23.87100 45.72400
C  58.86400 25.39100 46.00200
C  57.46000 25.64500 45.59200
C  59.61700 23.04900 46.96700
C  59.89200 26.39400 45.42600
C  61.22500 26.49200 46.16300
N  54.64700 26.40000 44.82700
C  55.54100 27.28300 45.34300
C  54.85000 28.58000 45.50500
C  53.56500 28.38800 44.90600
C  53.55100 27.05000 44.49800
C  55.33000 29.85600 46.15200
C  52.27900 28.95000 44.59600
O  51.80700 30.05400 44.77400
C  51.41700 27.88800 43.87800
C  50.90400 28.41300 42.54000
O  51.61100 28.66200 41.55800
O  49.49200 28.52700 42.61400
C  48.76300 28.97300 41.42400
H  51.93400 21.02800 43.55800
H  58.14900 21.38600 44.84200
H  57.57600 27.67900 46.06200
H  49.73000 25.33500 43.73400
H  50.04700 22.73900 43.05600
H  50.48100 22.40600 45.92200
H  48.98000 22.56400 44.94800
H  49.58500 23.97200 45.63800
H  51.00200 24.16800 41.33800
H  50.74700 25.86200 41.18900
H  48.31400 24.84100 41.83600
H  48.96400 23.47900 41.02600
H  52.54200 18.87100 43.58600
H  53.75000 17.87400 44.23600
H  53.99800 18.39900 42.61500
H  58.44200 17.78500 45.38100
H  58.27500 19.39600 46.01400
H  58.88200 19.16800 44.35900
H  59.83900 23.76100 44.93200
H  58.72900 25.69800 47.03900
H  59.04600 22.24000 47.42300
H  59.82100 23.79500 47.73500
H  60.64600 22.72600 46.81100
H  59.45800 27.36700 45.19800
H  60.31100 26.24800 44.43100
H  62.11600 26.09000 45.68100
H  61.17300 26.10400 47.18000
H  61.49700 27.52600 46.37600
H  56.35400 30.01000 45.81000
H  55.34000 29.72000 47.23400
H  54.66900 30.65800 45.82400
H  50.50800 27.60000 44.40500
H  48.15700 28.16500 41.01400
H  49.47400 29.33900 40.68200
H  48.04300 29.75800 41.65500
Mg -12.95200 16.97200 41.42900
C  -10.02300 15.30200 40.40600
C  -11.34800 19.95200 40.76200
C  -15.90000 18.27400 41.57500
C  -14.30300 13.58800 41.84800
N  -10.82700 17.56500 40.52100
C  -9.83500 16.67700 40.24500
C  -8.57500 17.52500 39.84800
C  -8.93600 18.97000 40.25800
C  -10.45200 18.84900 40.60400
C  -8.03600 19.59500 41.36800
C  -8.23600 17.33100 38.31800
C  -7.15900 16.34800 37.83400
H  -6.16800 16.76900 36.69300
N  -13.56100 18.97000 41.20900
C  -12.81200 20.04400 40.95400
C  -13.65300 21.25700 40.98600
C  -14.98800 20.78800 41.19400
C  -14.93700 19.26800 41.38800
C  -13.08600 22.62600 40.76600
C  -16.23300 21.71100 41.18100
O  -16.10200 22.89800 40.88300
C  -17.59800 21.23800 41.61600
N  -14.76300 16.08300 41.72500
C  -15.89400 16.88200 41.72500
C  -17.20800 16.05200 41.88500
C  -16.65300 14.54200 42.15100
C  -15.12800 14.73200 41.83500
C  -18.03800 16.54000 43.10400
C  -17.37800 13.48700 41.35200
C  -17.37400 12.01600 41.94000
N  -12.34800 14.86300 41.28600
C  -12.99800 13.66200 41.53600
C  -12.08500 12.58000 41.51900
C  -10.91600 13.13900 40.92700
C  -11.10800 14.51400 40.90300
C  -12.32900 11.10900 41.87500
C  -9.54000 12.88700 40.53600
O  -8.93600 11.85800 40.44700
C  -8.86200 14.32700 40.15900
C  -7.63900 14.53800 41.13400
O  -7.73300 14.79700 42.30600
O  -6.39900 14.34700 40.44500
C  -5.14100 14.56000 41.15900
H  -10.79500 20.88000 40.60200
H  -16.84200 18.82400 41.54500
H  -14.83000 12.63700 41.95200
H  -7.71400 17.26300 40.46400
H  -8.78300 19.60800 39.38800
H  -7.06200 19.86900 40.96100
H  -7.92900 18.93600 42.23000
H  -8.58000 20.45600 41.75600
H  -7.81600 18.29900 38.04400
H  -9.09500 17.13700 37.67600
H  -7.68100 15.51600 37.36200
H  -6.59500 16.10100 38.73300
H  -12.95700 22.86600 39.71100
H  -12.25500 22.95900 41.38800
H  -13.85000 23.26600 41.20700
H  -17.98200 20.55900 40.85400
H  -18.23000 22.12600 41.61500
H  -17.48300 20.69800 42.55600
H  -17.78300 16.18700 40.96900
H  -16.65400 14.19800 43.18500
H  -18.91400 17.08000 42.74400
H  -17.55400 17.25900 43.76500
H  -18.33100 15.73300 43.77500
H  -16.91000 13.44800 40.36800
H  -18.36500 13.94000 41.25000
H  -18.41500 11.69400 41.90800
H  -17.00500 11.90800 42.96000
H  -16.88100 11.41800 41.17300
H  -11.37400 10.59100 41.78900
H  -13.02300 10.47900 41.31800
H  -12.64500 10.97600 42.91000
H  -8.62700 14.43400 39.10000
H  -5.11800 15.59700 41.49400
H  -4.28100 14.43900 40.50100
H  -5.07800 13.80200 41.94000

