158

Mg 7.50200 53.52500 41.44200
C  6.77700 50.00500 41.05100
C  10.51400 52.96200 40.09100
C  7.86200 56.87500 40.85100
C  4.20900 54.01900 42.25500
N  8.38300 51.69400 40.50900
C  8.08400 50.38500 40.54200
C  9.20600 49.44700 40.07200
C  10.48500 50.40900 40.21500
C  9.75600 51.79900 40.23600
C  11.49700 50.26900 41.35700
C  9.05000 48.81500 38.70500
C  8.31200 49.54800 37.57000
H  7.70600 48.72700 36.46900
N  9.05500 54.73700 40.90800
C  10.21900 54.28200 40.32600
C  11.10100 55.42200 40.17200
C  10.40000 56.58200 40.48100
C  9.02100 56.11000 40.76300
C  12.51300 55.25200 39.58200
C  10.92300 58.04300 40.30200
O  12.08100 58.17400 39.99500
C  10.00100 59.21400 40.49600
N  6.17600 55.20800 41.24800
C  6.56900 56.47300 41.11700
C  5.42600 57.49600 41.18300
C  4.25200 56.57500 41.74900
C  4.93500 55.15400 41.79600
C  5.70700 58.66000 42.22700
C  2.92400 56.55300 40.99700
C  2.87000 55.99300 39.57100
N  5.85500 52.27100 41.75900
C  4.59700 52.65300 42.10900
C  3.79900 51.47200 42.30700
C  4.63300 50.40600 41.95500
C  5.88400 50.97700 41.55800
C  2.35200 51.43100 42.46900
C  4.73000 48.97900 41.78900
O  3.88600 48.12800 41.93000
C  6.12100 48.61500 41.23900
C  5.87100 47.95100 39.88800
O  5.23900 48.53500 39.01400
O  6.28100 46.62500 39.84700
C  5.86900 45.82200 38.68900
H  11.55600 52.76900 39.82600
H  7.84200 57.91900 40.53000
H  3.17600 54.10400 42.59600
H  9.43800 48.61100 40.73300
H  11.08300 50.32900 39.30800
H  12.45100 49.92400 40.95900
H  11.22000 49.40300 41.95900
H  11.46500 51.22600 41.87800
H  8.55300 47.88200 38.97100
H  10.05300 48.58500 38.34600
H  9.00700 50.21100 37.05500
H  7.52000 50.13100 38.04000
H  13.06500 54.33600 39.79100
H  13.24900 55.92700 40.01900
H  12.53400 55.61100 38.55300
H  9.28200 59.34100 39.68700
H  10.69000 60.01600 40.76000
H  9.56900 59.07500 41.48700
H  5.21900 57.82200 40.16400
H  4.04500 56.88800 42.77200
H  6.69000 59.06500 41.99000
H  5.60900 58.23300 43.22500
H  5.06500 59.54000 42.19800
H  2.55200 57.57500 41.06400
H  2.24700 55.96800 41.61900
H  3.81800 55.59500 39.21100
H  2.53600 56.74700 38.85800
H  2.13900 55.18500 39.60100
H  1.82600 51.97800 41.68700
H  1.97700 51.78100 43.43100
H  2.11800 50.37900 42.30800
H  6.80600 48.05400 41.87500
H  6.70600 45.26100 38.27500
H  5.43200 46.41500 37.88500
H  5.18100 44.99900 38.88000
Mg 17.36800 51.64100 26.63900
C  19.18100 50.20900 29.32200
C  14.82100 52.36200 28.78300
C  15.44300 52.72900 23.92900
C  19.74500 50.45100 24.36700
N  17.08900 51.36100 28.86500
C  18.02300 50.88600 29.74600
C  17.55000 51.07800 31.19700
C  15.99500 51.42200 30.97300
C  15.96800 51.78800 29.46600
C  14.94800 50.33800 31.30300
C  18.43100 52.09000 31.94500
C  18.07600 52.44900 33.42600
H  17.23500 51.42600 34.24600
N  15.39100 52.56400 26.44700
C  14.53100 52.73800 27.43700
C  13.31700 53.44500 26.93800
C  13.44800 53.52000 25.50800
C  14.79400 52.92500 25.22600
C  12.18000 53.73500 27.90700
C  12.54900 54.19500 24.46700
O  12.75200 54.27100 23.25200
C  11.24700 54.73000 24.90600
N  17.52000 51.60000 24.47900
C  16.61100 52.13800 23.60600
C  17.16200 52.01300 22.18000
C  18.52300 51.26500 22.34300
C  18.68500 51.20600 23.84400
C  16.16200 51.37000 21.20500
C  19.70100 51.91400 21.60600
C  20.88300 52.48700 22.40900
N  19.07000 50.51400 26.79700
C  19.95200 50.15700 25.75000
C  21.05400 49.32100 26.31400
C  20.79000 49.33400 27.72700
C  19.60800 50.04000 27.92800
C  22.19100 48.64600 25.66600
C  21.17900 48.74300 28.99600
O  22.03700 47.90400 29.25200
C  20.26900 49.47800 30.09900
C  19.78000 48.58900 31.14100
O  19.16700 47.54900 30.95100
O  20.07800 49.10700 32.42200
C  19.68400 48.15200 33.52300
H  14.02400 52.57100 29.50100
H  15.12400 53.07200 22.94300
H  20.49900 50.11200 23.65400
H  17.68700 50.12000 31.69800
H  15.69700 52.36700 31.42700
H  14.13400 50.82300 31.84300
H  15.48800 49.58600 31.87800
H  14.50000 50.03100 30.35800
H  18.28400 53.04300 31.43700
H  19.45000 51.70300 31.93300
H  17.65000 53.45100 33.39500
H  19.00900 52.58500 33.97300
H  11.26100 54.25700 27.64500
H  12.58700 54.15000 28.82900
H  11.85000 52.76400 28.27800
H  10.59900 54.02600 25.42800
H  10.72300 55.15300 24.04900
H  11.52600 55.53200 25.59000
H  17.31000 53.02100 21.79200
H  18.41600 50.27300 21.90500
H  15.56600 50.57200 21.64700
H  16.77400 50.85500 20.46500
H  15.56000 52.13600 20.71700
H  19.28600 52.58800 20.85700
H  20.06200 51.02000 21.09700
H  21.54600 51.68000 22.72100
H  20.47900 52.98500 23.29100
H  21.45500 53.17700 21.78900
H  21.98600 48.40900 24.62200
H  22.40500 47.67100 26.10500
H  23.14900 49.16500 25.68300
H  20.98500 50.19300 30.50400
H  18.64000 48.00800 33.24600
H  19.58600 48.74600 34.43100
H  20.20900 47.22400 33.75200

