158

Mg 26.19300 0.02700 29.34200
C  28.09900 -0.33600 32.22200
C  23.39400 0.65800 31.36900
C  24.24000 0.20800 26.66200
C  28.86000 -1.28100 27.45800
N  25.80100 0.10300 31.54500
C  26.72900 -0.01600 32.57300
C  26.15900 0.12100 33.95200
C  24.59400 0.12000 33.58200
C  24.57100 0.29700 32.10000
C  23.79200 -1.14800 34.12600
C  26.78900 1.35700 34.59300
C  26.01000 1.85900 35.88900
H  26.79700 2.06800 37.15400
N  24.19900 0.46300 29.05600
C  23.20300 0.69400 29.96400
C  21.92000 0.90200 29.31800
C  22.10200 0.86300 27.96100
C  23.56100 0.53900 27.83300
C  20.65300 1.19700 30.07100
C  21.20000 1.11200 26.75900
O  21.54100 1.02000 25.59800
C  19.86000 1.61100 27.01800
N  26.56700 -0.41200 27.36400
C  25.56400 -0.22200 26.44300
C  26.14000 -0.69300 25.07900
C  27.69200 -0.73400 25.28700
C  27.72800 -0.87300 26.80400
C  25.53300 -2.02300 24.47100
C  28.55900 0.49300 24.82800
C  30.03000 0.19900 24.50700
N  28.06600 -0.62900 29.68300
C  29.10000 -1.11400 28.85300
C  30.26900 -1.35500 29.53900
C  30.00000 -1.06200 30.85800
C  28.61400 -0.59900 30.91300
C  31.44800 -2.05600 28.86500
C  30.48900 -1.04500 32.24000
O  31.57800 -1.26700 32.69700
C  29.28300 -0.63200 33.14000
C  29.03000 -1.84200 34.04300
O  28.54800 -2.88600 33.68800
O  29.29900 -1.52800 35.35500
C  29.17200 -2.60800 36.33000
H  22.46300 0.80300 31.92100
H  23.79700 0.29300 25.66800
H  29.66400 -1.60300 26.79300
H  26.34000 -0.78200 34.53400
H  24.19800 1.03500 34.02100
H  24.46500 -1.84000 34.63300
H  23.38700 -1.73300 33.30100
H  23.02600 -0.81000 34.82300
H  26.79100 2.26200 33.98500
H  27.80800 1.15100 34.92000
H  25.07700 1.32000 36.05600
H  25.60500 2.85700 35.72500
H  20.08800 1.99900 29.59700
H  20.69800 1.48900 31.12100
H  19.93300 0.39400 29.91000
H  19.96600 2.56000 27.54500
H  19.29700 0.84300 27.54900
H  19.31800 1.81800 26.09600
H  25.94700 0.11300 24.37100
H  28.07900 -1.63200 24.80500
H  26.22200 -2.86300 24.55700
H  25.17200 -1.80900 23.46500
H  24.66600 -2.30000 25.07100
H  28.58000 1.10700 25.72800
H  28.22400 1.06300 23.96200
H  30.27100 0.72100 23.58100
H  30.17400 -0.88100 24.47700
H  30.68500 0.60600 25.27700
H  32.24000 -2.33600 29.55900
H  31.90100 -1.38600 28.13400
H  31.07100 -2.97800 28.42200
H  29.47000 0.19300 33.82700
H  29.95800 -3.36300 36.34300
H  28.19400 -3.02400 36.08800
H  29.00000 -2.15700 37.30700
Mg 41.02600 41.23800 27.56200
C  40.14800 43.71200 29.79300
C  41.72400 39.26200 30.12700
C  41.83900 38.73000 25.21100
C  40.60100 43.35000 24.89900
N  40.84500 41.49500 29.78100
C  40.34400 42.53100 30.50100
C  40.07300 42.21200 31.97400
C  40.63600 40.72300 31.98100
C  41.08700 40.42300 30.53400
C  41.68100 40.37000 33.06100
C  38.59300 42.37500 32.41800
C  38.41500 41.93500 33.82300
H  38.75400 42.83500 35.06900
N  41.67300 39.27100 27.70400
C  41.92900 38.62300 28.91600
C  42.34400 37.28900 28.63400
C  42.41600 37.19000 27.20900
C  41.95200 38.46000 26.59500
C  42.58800 36.26400 29.78200
C  42.96300 36.03500 26.39500
O  43.22100 36.05500 25.22800
C  43.20700 34.66500 27.08600
N  41.17900 41.05000 25.39700
C  41.41800 39.91400 24.66100
C  41.36000 40.12300 23.13200
C  40.71200 41.54200 23.07200
C  40.79900 42.03400 24.55300
C  42.73100 40.04900 22.46800
C  39.24700 41.63500 22.52800
C  38.12500 41.13700 23.48300
N  40.52500 43.17600 27.35100
C  40.47200 43.92200 26.19300
C  40.14600 45.31000 26.57500
C  40.02800 45.25100 27.99400
C  40.24900 43.94800 28.40200
C  39.92500 46.51400 25.59500
C  39.79200 46.02000 29.19800
O  39.71400 47.23000 29.29500
C  39.78100 45.07100 30.37000
C  40.87800 45.46600 31.29200
O  42.04900 45.26800 31.15800
O  40.35700 46.08900 32.40100
C  41.30700 46.24800 33.54300
H  41.86100 38.69700 31.05100
H  42.24500 38.02600 24.48100
H  40.61600 44.01900 24.03600
H  40.68100 42.84100 32.62300
H  39.74100 40.10400 32.03800
H  41.24500 39.65200 33.75600
H  41.99200 41.27600 33.58200
H  42.58200 39.88200 32.69000
H  37.86800 41.82600 31.81600
H  38.41500 43.44800 32.47900
H  39.00000 41.03400 34.00400
H  37.35500 41.71500 33.95100
H  43.62400 35.94900 29.90600
H  41.91500 35.41900 29.63300
H  42.39400 36.71900 30.75300
H  42.35100 34.46400 27.73100
H  44.14700 34.92400 27.57200
H  43.36000 33.87200 26.35300
H  40.67900 39.41900 22.65300
H  41.37500 42.21700 22.53000
H  42.95500 40.71800 21.63700
H  42.88700 39.06200 22.03300
H  43.43800 40.08200 23.29700
H  39.22900 41.13400 21.56000
H  39.02100 42.67500 22.29000
H  38.61500 40.83400 24.40900
H  37.55500 40.30000 23.08000
H  37.46600 41.95300 23.77800
H  39.81900 46.17800 24.56300
H  40.70900 47.22500 25.85300
H  38.99700 46.93200 25.98400
H  38.83100 45.07300 30.90400
H  42.16900 46.76600 33.12300
H  41.59200 45.26800 33.92600
H  40.81300 46.74500 34.37800

