158

Mg 25.99800 -0.38000 28.99100
C  27.82900 -0.75100 31.96500
C  23.26700 0.20400 30.82200
C  24.35800 -0.25300 26.11500
C  28.95100 -1.60400 27.22600
N  25.61800 -0.31400 31.17400
C  26.49800 -0.49500 32.25900
C  25.82400 -0.14900 33.65700
C  24.38200 0.12300 33.17600
C  24.39000 -0.02700 31.62100
C  23.42700 -0.89600 33.82100
C  26.43700 1.08300 34.39600
C  25.93600 1.34000 35.82500
H  26.52600 2.52800 36.68500
N  24.03100 -0.10900 28.54700
C  23.03200 0.11400 29.39700
C  21.82500 0.47400 28.69100
C  22.17700 0.38300 27.30200
C  23.60900 0.07100 27.22500
C  20.45300 0.71400 29.34300
C  21.30700 0.54800 26.14500
O  21.71500 0.59300 24.99600
C  19.74600 0.78400 26.22600
N  26.52600 -1.01900 26.99800
C  25.62300 -0.87200 25.94700
C  26.35100 -0.89300 24.67100
C  27.69700 -1.53900 24.97300
C  27.75300 -1.38600 26.49500
C  25.61600 -1.57000 23.48900
C  28.96000 -1.00200 24.27100
C  29.11900 0.53700 24.19800
N  28.03200 -0.93200 29.45800
C  29.13400 -1.36700 28.64800
C  30.28700 -1.44300 29.45800
C  29.85800 -1.19000 30.78800
C  28.48600 -0.96700 30.76600
C  31.65000 -1.71700 28.89700
C  30.30800 -1.12700 32.15200
O  31.43700 -1.34100 32.61600
C  28.99100 -0.69100 32.92400
C  28.74600 -1.50700 34.10200
O  28.33000 -2.67600 34.16400
O  29.05000 -0.77600 35.18500
C  28.97700 -1.46200 36.49200
H  22.41400 0.45700 31.45500
H  23.90200 0.05400 25.17200
H  29.91200 -1.81700 26.75300
H  25.94000 -1.05700 34.24700
H  24.11100 1.14000 33.45900
H  24.09900 -1.66100 34.21000
H  22.83500 -1.37600 33.04100
H  22.70700 -0.51200 34.54400
H  26.13700 1.97500 33.84600
H  27.52500 1.08700 34.46000
H  26.31900 0.47300 36.36200
H  24.85000 1.41200 35.89200
H  19.71800 1.34900 28.84700
H  20.66800 1.32700 30.21900
H  20.04700 -0.23800 29.68400
H  19.33500 0.95600 25.23100
H  19.47300 1.64100 26.84200
H  19.28300 -0.13400 26.58600
H  26.46800 0.13800 24.33500
H  27.60100 -2.62000 24.87300
H  24.56900 -1.76700 23.71700
H  26.07500 -2.53100 23.25600
H  25.68300 -1.04700 22.53500
H  28.87100 -1.28500 23.22200
H  29.79700 -1.56600 24.68200
H  28.49700 1.16300 24.83800
H  28.99300 0.76200 23.13900
H  30.15000 0.57900 24.54900
H  31.63900 -1.24000 27.91700
H  31.77200 -2.77800 28.68000
H  32.41000 -1.22500 29.50400
H  29.10900 0.35100 33.22100
H  28.51400 -0.67200 37.08400
H  29.95000 -1.62700 36.95400
H  28.30800 -2.32200 36.52000
Mg -10.10100 40.63600 42.89700
C  -9.43800 37.28300 41.87500
C  -7.12900 41.60800 41.51600
C  -11.16800 43.93200 42.95300
C  -13.36300 39.56100 43.69000
N  -8.52700 39.54400 41.77800
C  -8.47200 38.19500 41.45400
C  -7.12000 37.80300 40.76000
C  -6.36200 39.26000 40.89800
C  -7.36900 40.18400 41.45900
C  -5.02300 39.08500 41.67700
C  -7.31000 37.40400 39.22800
C  -6.65700 36.06000 38.94900
H  -5.73500 36.08200 37.72000
N  -9.30400 42.54300 42.33600
C  -7.99000 42.68700 41.82100
C  -7.74200 44.12700 41.66500
C  -8.92100 44.85300 42.07400
C  -9.87400 43.79000 42.46900
C  -6.41300 44.71500 41.14100
C  -9.11500 46.33500 42.03400
O  -8.20200 47.11600 41.70900
C  -10.43600 47.02900 42.51000
N  -11.99400 41.57000 43.25300
C  -12.09900 42.95500 43.29300
C  -13.60700 43.31400 43.71100
C  -14.16600 41.99300 44.24100
C  -13.14000 40.98000 43.68300
C  -13.76300 44.55500 44.62000
C  -15.63500 41.76300 43.61700
C  -15.74500 41.32900 42.13200
N  -11.22600 38.78800 42.94700
C  -12.49800 38.54100 43.27600
C  -12.72600 37.10300 43.40600
C  -11.50700 36.57300 42.85600
C  -10.66900 37.68100 42.52300
C  -13.96500 36.51000 43.77900
C  -10.89400 35.29800 42.43500
O  -11.22300 34.12200 42.48700
C  -9.59000 35.82300 41.75300
C  -8.56800 35.03400 42.44400
O  -8.03400 35.25400 43.49100
O  -8.23500 33.95600 41.65300
C  -7.26000 33.05600 42.28200
H  -6.09000 41.82200 41.25500
H  -11.66500 44.90100 42.86800
H  -14.29600 39.27800 44.18200
H  -6.55400 37.04200 41.29600
H  -6.06400 39.58300 39.90000
H  -4.73700 38.05800 41.90300
H  -5.07000 39.58900 42.64200
H  -4.18400 39.59800 41.20700
H  -6.98600 38.07500 38.43200
H  -8.38800 37.25200 39.18300
H  -7.43300 35.35600 38.65000
H  -6.02900 35.77900 39.79400
H  -6.44800 45.49500 40.38100
H  -5.97300 43.81900 40.70400
H  -5.63900 44.85200 41.89600
H  -10.31400 48.09000 42.29100
H  -10.72700 46.79600 43.53400
H  -11.18700 46.58700 41.85400
H  -14.13800 43.52200 42.78200
H  -14.30600 41.97300 45.32200
H  -12.76200 44.91600 44.85400
H  -14.28500 44.36700 45.55900
H  -14.32800 45.33900 44.11600
H  -16.10700 42.73900 43.50100
H  -16.19000 41.22400 44.38500
H  -14.74200 41.28300 41.70700
H  -16.29000 42.05500 41.53000
H  -16.17700 40.33000 42.19200
H  -13.81400 35.55100 44.27500
H  -14.75200 36.40600 43.03200
H  -14.51800 37.14400 44.47200
H  -9.62900 35.61500 40.68400
H  -7.59500 32.61100 43.21900
H  -6.36200 33.61700 42.54000
H  -6.94500 32.32800 41.53400

