158

Mg 8.76700 4.18000 27.42200
C  10.29400 2.62300 30.21600
C  6.81700 6.09300 29.74800
C  7.42600 5.85600 24.85600
C  10.26000 1.87200 25.41400
N  8.59100 4.34600 29.77500
C  9.31800 3.56800 30.65400
C  9.00900 4.01200 32.04600
C  7.69800 4.94800 31.89300
C  7.63800 5.13900 30.36100
C  6.39200 4.42500 32.49600
C  10.21500 4.84200 32.64800
C  9.95300 5.26600 34.08100
H  10.91600 4.68300 35.07700
N  7.46800 5.88500 27.31900
C  6.81300 6.53600 28.37900
C  6.03100 7.72000 27.77100
C  6.15500 7.59700 26.34200
C  7.07100 6.43800 26.08900
C  5.21300 8.56100 28.60100
C  5.63600 8.50800 25.22000
O  6.00200 8.29100 24.09200
C  4.44700 9.42300 25.53100
N  8.94800 3.99200 25.50600
C  8.25600 4.74600 24.57200
C  8.41400 4.20900 23.14500
C  9.45700 3.00600 23.41000
C  9.50800 2.87800 24.90300
C  7.01700 3.88300 22.35400
C  10.85500 3.13200 22.80300
C  11.96400 3.96000 23.51400
N  9.86200 2.45700 27.67100
C  10.51100 1.68800 26.73600
C  11.43800 0.78100 27.41600
C  11.36400 1.08300 28.80200
C  10.43500 2.12700 28.93000
C  12.38600 -0.18600 26.69500
C  11.89600 0.77900 30.10800
O  12.75600 -0.02000 30.47900
C  11.28100 1.86300 31.03000
C  10.66900 1.08100 32.16800
O  10.11700 0.03100 32.10100
O  10.84000 1.75100 33.41400
C  10.46800 1.09600 34.69300
H  6.16100 6.61700 30.44600
H  6.93700 6.12800 23.91900
H  10.56200 1.08400 24.72000
H  8.78300 3.15200 32.67700
H  7.87800 5.85700 32.46700
H  5.63200 5.14500 32.80200
H  6.68200 3.82700 33.36000
H  5.92200 3.76800 31.76500
H  10.26000 5.71100 31.99200
H  11.20100 4.41300 32.47000
H  8.92100 5.13900 34.40800
H  10.05800 6.33900 34.24100
H  4.16700 8.26700 28.51500
H  5.40200 9.55000 28.18300
H  5.44400 8.56900 29.66600
H  3.65800 8.84100 26.00600
H  4.08000 9.83600 24.59100
H  4.59000 10.20000 26.28200
H  8.98600 4.97200 22.61600
H  9.03500 2.03000 23.16600
H  6.10900 3.74400 22.94200
H  7.13400 2.91400 21.86800
H  6.92400 4.62400 21.56000
H  10.69500 3.60300 21.83200
H  11.23000 2.11900 22.65900
H  11.64400 4.56800 24.36000
H  12.40000 4.73400 22.88300
H  12.80200 3.30200 23.74600
H  11.82700 -1.07000 26.38900
H  13.04600 -0.56400 27.47600
H  12.87200 0.27700 25.83700
H  11.98700 2.61100 31.39300
H  11.11400 1.57400 35.43000
H  10.68500 0.03000 34.62700
H  9.41000 1.27500 34.88700
Mg 55.27300 23.23100 45.41700
C  53.00800 25.62500 44.53100
C  52.92500 20.88100 44.27900
C  57.68300 20.91500 45.17900
C  57.62900 25.66300 46.17700
N  53.15000 23.27500 44.70100
C  52.35100 24.38800 44.34800
C  51.04000 24.03800 43.70300
C  51.08700 22.55100 44.04000
C  52.46600 22.19100 44.32000
C  50.13300 22.00900 45.12300
C  50.92500 24.33400 42.19300
C  49.62800 24.83800 41.68900
H  48.90600 24.09700 40.52000
N  55.34300 21.14800 44.82900
C  54.27400 20.41500 44.42400
C  54.68600 19.02000 44.14500
C  56.12900 19.03900 44.34600
C  56.42100 20.37000 44.79300
C  53.72600 18.00200 43.61300
C  56.99600 17.92700 43.92400
O  56.53100 16.89800 43.49000
C  58.51700 17.90700 44.02500
N  57.40300 23.31100 45.45600
C  58.12200 22.20900 45.40600
C  59.57200 22.40000 45.88200
C  59.63600 23.92400 46.00100
C  58.11000 24.35800 45.86700
C  59.87900 21.69200 47.23800
C  60.34400 24.69300 44.78800
C  60.92100 26.08300 45.23100
N  55.34900 25.27100 45.54000
C  56.29800 26.15100 45.85500
C  55.71300 27.57500 45.86700
C  54.48100 27.30300 45.35800
C  54.31600 25.93000 45.10400
C  56.39600 28.83200 46.15000
C  53.28300 28.06400 44.89500
O  53.04600 29.22600 44.81200
C  52.39500 27.04300 44.23800
C  52.47100 27.58900 42.87900
O  53.51900 27.58400 42.23500
O  51.20300 27.96000 42.42900
C  51.23800 28.25900 41.00300
H  52.15100 20.19000 43.93900
H  58.41400 20.10300 45.17100
H  58.30300 26.45700 46.50500
H  50.25600 24.56600 44.24500
H  50.72600 21.99100 43.17800
H  49.30600 22.68100 45.35200
H  50.58400 21.91200 46.11000
H  49.78400 21.06300 44.70900
H  51.32600 23.41800 41.75800
H  51.60300 25.09700 41.81000
H  49.80000 25.87900 41.41700
H  48.87400 24.91500 42.47200
H  53.68200 18.12100 42.53100
H  52.77100 18.24500 44.07900
H  53.98700 16.99800 43.95000
H  58.97200 18.63700 43.35500
H  58.77300 16.93200 43.61100
H  58.94000 17.94500 45.02900
H  60.12600 22.01300 45.02700
H  60.06400 24.24500 46.95000
H  59.08100 20.99600 47.49600
H  60.02700 22.23000 48.17400
H  60.83600 21.17600 47.15300
H  59.55100 24.82300 44.05200
H  61.15700 24.08600 44.39000
H  61.01100 26.14900 46.31500
H  60.31500 26.86700 44.77800
H  61.97100 26.13300 44.94200
H  56.80100 29.17400 45.19700
H  57.15900 28.77300 46.92600
H  55.60500 29.49200 46.50600
H  51.40100 27.23700 44.64000
H  51.92200 29.07800 40.78100
H  50.24500 28.67600 40.83800
H  51.46700 27.28800 40.56300

