158

Mg 6.03300 52.81100 40.79400
C  6.14000 49.32500 40.26600
C  9.15700 53.09100 39.53100
C  5.50500 56.24900 40.57700
C  2.63500 52.46400 41.86600
N  7.37900 51.35700 39.92800
C  7.30500 49.95600 39.81000
C  8.63300 49.28200 39.27100
C  9.59500 50.53400 39.36000
C  8.70200 51.73300 39.59300
C  10.69100 50.45300 40.39900
C  8.52800 48.78000 37.77500
C  7.87100 49.51900 36.62900
H  6.69400 48.80300 35.87000
N  7.16100 54.49500 40.09500
C  8.48900 54.33000 39.76600
C  9.01500 55.67200 39.56100
C  7.93200 56.55600 39.67100
C  6.73800 55.79000 40.06000
C  10.49700 55.99800 39.39200
C  8.10100 58.07900 39.41300
O  9.28200 58.48700 39.22900
C  6.92400 59.03200 39.32300
N  4.30700 54.17100 41.11600
C  4.45900 55.51200 41.05200
C  3.17100 56.18300 41.65100
C  2.26000 54.99800 41.94800
C  3.04700 53.79700 41.60500
C  3.34900 56.99000 42.99000
C  0.86000 55.09900 41.22100
C  -0.30500 55.45200 42.21200
N  4.69600 51.22500 41.08000
C  3.37600 51.22200 41.55300
C  2.93200 49.80700 41.70100
C  4.05800 49.05100 41.30400
C  5.06800 49.92800 40.89600
C  1.61500 49.27600 42.11700
C  4.44000 47.71300 41.07300
O  3.82100 46.68700 41.24500
C  5.83800 47.81100 40.44900
C  5.83700 47.04400 39.11800
O  5.20900 47.40200 38.13900
O  6.56100 45.81300 39.26700
C  6.28900 44.88800 38.11300
H  10.21200 53.14900 39.25900
H  5.48200 57.34000 40.60500
H  1.66700 52.29900 42.34400
H  8.92100 48.46800 39.93500
H  10.11000 50.70000 38.41400
H  10.85100 51.38700 40.93800
H  11.59600 50.25800 39.82500
H  10.60200 49.56800 41.02900
H  8.03300 47.81600 37.88600
H  9.59100 48.71100 37.54600
H  8.67400 49.84100 35.96600
H  7.53100 50.47600 37.02500
H  10.65000 56.57300 38.47900
H  10.95400 55.01100 39.32600
H  10.99400 56.41800 40.26700
H  7.19700 59.86800 38.68000
H  6.49500 59.20600 40.30900
H  6.28500 58.40600 38.69800
H  2.76200 56.81700 40.86400
H  2.12000 54.93000 43.02700
H  4.18800 56.58300 43.55500
H  2.48700 57.01500 43.65600
H  3.61000 58.01600 42.72900
H  0.55700 54.18500 40.71100
H  0.94600 55.91400 40.50200
H  -0.67400 54.43400 42.33800
H  -1.06700 56.10600 41.78800
H  0.05300 55.83100 43.16900
H  0.92300 50.09600 42.30900
H  1.63000 48.84100 43.11600
H  1.06600 48.59500 41.46700
H  6.53400 47.33200 41.13800
H  6.59700 45.41600 37.21000
H  5.21800 44.71800 38.00700
H  6.88500 44.02300 38.40300
Mg -11.00900 38.05500 41.99600
C  -9.29500 35.03400 41.49600
C  -8.54000 39.69500 40.27800
C  -12.99900 40.71400 41.90200
C  -13.72900 36.13100 43.25800
N  -9.25100 37.45400 40.99400
C  -8.67800 36.17800 40.92700
C  -7.46200 36.15900 40.00200
C  -7.10700 37.64500 39.84200
C  -8.36700 38.34500 40.40000
C  -5.74100 38.14400 40.44700
C  -7.87400 35.36400 38.70100
C  -7.19200 34.08000 38.34500
H  -6.53900 34.07500 36.99000
N  -10.77300 39.92500 41.25900
C  -9.65500 40.48000 40.69200
C  -9.91900 41.85000 40.29300
C  -11.20800 42.17600 40.71500
C  -11.70200 40.90000 41.31500
C  -8.97000 42.74400 39.53100
C  -11.83600 43.54700 40.53500
O  -11.25900 44.45800 39.93200
C  -13.16700 43.91600 41.08800
N  -13.08200 38.33900 42.58300
C  -13.64200 39.54000 42.37200
C  -15.09300 39.55500 42.76300
C  -15.34400 38.12500 43.25900
C  -13.95100 37.51700 43.03600
C  -15.51100 40.78500 43.60100
C  -16.49800 37.33600 42.66200
C  -17.29300 36.39300 43.57700
N  -11.36800 36.01600 42.50900
C  -12.47000 35.43100 43.17200
C  -12.11400 34.06200 43.47300
C  -10.87600 33.86500 42.80100
C  -10.45900 35.09000 42.30900
C  -12.97600 33.08100 44.32900
C  -9.89200 32.89100 42.53100
O  -9.94900 31.69600 42.78600
C  -8.78400 33.58600 41.59600
C  -7.44000 33.51000 42.17000
O  -6.52700 32.76700 41.74500
O  -7.33700 34.27800 43.31600
C  -6.05200 34.04900 43.98600
H  -7.74000 40.30200 39.85000
H  -13.65800 41.58500 41.90700
H  -14.59800 35.60200 43.65400
H  -6.64000 35.61000 40.46000
H  -7.14700 37.83400 38.76900
H  -5.17400 37.26300 40.74900
H  -5.87400 38.89100 41.22900
H  -5.13700 38.66700 39.70600
H  -7.88200 36.05600 37.85800
H  -8.89600 35.02800 38.87500
H  -7.82500 33.19600 38.26900
H  -6.37700 33.88900 39.04400
H  -9.19400 43.01900 38.50000
H  -8.02900 42.19400 39.54900
H  -8.65500 43.64800 40.05200
H  -13.83000 43.27700 40.50500
H  -13.23600 45.00100 41.01200
H  -13.32100 43.62400 42.12700
H  -15.64600 39.63100 41.82700
H  -15.46500 38.30200 44.32700
H  -14.65700 41.40000 43.88600
H  -16.16400 40.52500 44.43400
H  -16.03500 41.42100 42.88700
H  -16.08700 36.72900 41.85600
H  -17.24100 38.01400 42.24100
H  -18.33800 36.69600 43.65300
H  -16.85700 36.41600 44.57500
H  -17.20900 35.38300 43.17500
H  -12.29100 32.59000 45.02000
H  -13.34000 32.25700 43.71400
H  -13.76300 33.58600 44.88900
H  -8.78800 33.07000 40.63600
H  -5.87600 34.71300 44.83300
H  -5.17200 34.05700 43.34300
H  -6.10200 33.06000 44.44100

