158

Mg 34.82900 2.00900 29.11300
C  32.69100 3.08800 31.68500
C  37.43300 2.04000 31.33800
C  37.07400 1.95000 26.48700
C  32.34800 2.86800 26.80100
N  35.04000 2.47600 31.27300
C  34.02900 2.81900 32.10700
C  34.52700 2.72300 33.53600
C  36.08900 2.64900 33.42300
C  36.27300 2.33300 31.94000
C  36.79600 3.98400 33.95800
C  33.85800 1.69000 34.45300
C  33.40800 2.16400 35.88000
H  34.14200 3.27200 36.55900
N  36.91300 1.71800 28.96900
C  37.77600 1.79100 30.00000
C  39.10200 1.62000 29.49300
C  39.04700 1.64100 28.09100
C  37.59900 1.76300 27.75500
C  40.33000 1.43700 30.40200
C  40.18700 1.59400 27.09600
O  40.05300 1.65500 25.86500
C  41.62200 1.44800 27.62000
N  34.66900 2.24100 26.96100
C  35.72600 2.09000 26.11200
C  35.27400 2.26100 24.65800
C  33.71700 2.31500 24.77700
C  33.52900 2.44600 26.21600
C  35.87900 3.54800 24.04000
C  32.97200 1.06800 24.25200
C  33.03600 -0.25000 25.08000
N  32.81800 2.64400 29.16800
C  31.97500 2.98600 28.15500
C  30.65800 3.31500 28.69100
C  30.83400 3.35300 30.09100
C  32.22400 2.99800 30.33300
C  29.38800 3.74100 27.93800
C  30.24200 3.56900 31.35100
O  29.11900 3.95600 31.60700
C  31.47000 3.37700 32.47000
C  31.61200 4.62700 33.39600
O  32.31000 5.64200 33.17900
O  30.92100 4.34400 34.55200
C  30.84800 5.55500 35.43000
H  38.38300 2.02600 31.87700
H  37.77500 1.96900 25.65000
H  31.48300 3.18700 26.21700
H  34.27200 3.74600 33.81200
H  36.46000 1.76600 33.94200
H  36.20600 4.62400 34.61400
H  37.16600 4.54900 33.10300
H  37.64500 3.75300 34.60100
H  34.56500 0.87600 34.61600
H  33.11500 1.11000 33.90500
H  33.37900 1.25000 36.47400
H  32.38800 2.53200 35.77300
H  40.91800 0.60700 30.00800
H  40.07200 1.19900 31.43400
H  40.90900 2.35100 30.27000
H  41.90900 0.40000 27.70400
H  41.75300 2.12900 28.46100
H  42.20900 1.90800 26.82500
H  35.47600 1.42900 23.98200
H  33.28200 3.06700 24.12000
H  35.13800 4.30000 23.77000
H  36.44100 3.42800 23.11300
H  36.59200 4.02000 24.71500
H  33.31500 0.86600 23.23700
H  31.89200 1.22000 24.26400
H  32.04100 -0.53600 25.42200
H  33.76100 -0.13300 25.88600
H  33.44700 -1.05000 24.46400
H  28.59500 3.00200 28.05100
H  29.48700 3.97700 26.87800
H  28.91200 4.59300 28.42300
H  31.33600 2.57200 33.19300
H  29.95900 5.35400 36.02700
H  30.69800 6.43000 34.79800
H  31.67400 5.66300 36.13400
Mg 29.84200 58.23900 40.70900
C  26.83700 56.60900 39.39200
C  31.66600 55.90800 39.44000
C  32.40800 60.39200 40.92700
C  27.64200 60.87400 41.59600
N  29.26600 56.52100 39.55600
C  28.07400 55.98300 39.12500
C  28.26300 54.65600 38.36100
C  29.71200 54.33700 38.78400
C  30.33800 55.64000 39.24700
C  29.85400 53.10700 39.79400
C  28.09800 54.95800 36.83600
C  27.31300 53.91000 36.05600
H  27.48300 53.96900 34.54100
N  31.83500 58.19300 40.31400
C  32.40200 57.12800 39.81900
C  33.81500 57.30600 39.80300
C  34.09700 58.63500 40.26200
C  32.77700 59.16000 40.52900
C  34.82000 56.24400 39.34100
C  35.51500 59.15400 40.49200
O  36.51500 58.42100 40.46000
C  35.77100 60.71800 40.87900
N  30.02200 60.29300 41.24800
C  31.14900 61.02700 41.18400
C  30.97600 62.49200 41.58100
C  29.50200 62.48500 42.05000
C  28.96400 61.16500 41.52000
C  32.02400 63.14900 42.47200
C  28.80100 63.83500 41.54800
C  27.79000 64.40000 42.56100
N  27.65400 58.61500 40.66400
C  26.94900 59.80400 40.99900
C  25.48900 59.57000 40.84300
C  25.43400 58.37100 40.16700
C  26.75100 57.81000 40.09700
C  24.38700 60.49000 41.13400
C  24.50100 57.37400 39.52100
O  23.31900 57.53500 39.30100
C  25.36600 56.20500 39.22000
C  24.93100 55.00500 40.05800
O  25.50600 54.55000 41.02800
O  23.88200 54.43500 39.44100
C  23.03800 53.71500 40.37300
H  32.28700 55.03800 39.21400
H  33.16500 61.17200 41.03300
H  26.94600 61.62600 41.97200
H  27.49000 53.93700 38.63300
H  30.24900 54.08200 37.87000
H  28.89700 52.59300 39.89000
H  30.17200 53.52300 40.75000
H  30.66200 52.43000 39.51600
H  29.06100 54.95800 36.32600
H  27.78800 55.99700 36.72500
H  26.27200 54.08700 36.32700
H  27.66400 52.91600 36.33500
H  34.38900 55.50700 38.66300
H  35.26100 55.64800 40.14000
H  35.64600 56.65900 38.76200
H  36.79200 61.08600 40.77300
H  35.20500 60.92700 41.78600
H  35.32600 61.43000 40.18400
H  31.05600 62.95600 40.59800
H  29.43600 62.28600 43.12000
H  31.41200 63.52400 43.29200
H  32.55700 63.92900 41.92800
H  32.70900 62.40800 42.88200
H  28.19800 63.58100 40.67600
H  29.41300 64.65900 41.18100
H  27.86400 65.48400 42.65100
H  27.98100 63.90500 43.51400
H  26.79000 64.09000 42.25900
H  23.83500 60.15400 42.01200
H  23.79200 60.62200 40.23100
H  24.80700 61.48300 41.29400
H  25.26700 55.81300 38.20800
H  23.51100 52.82300 40.78300
H  22.08800 53.46100 39.90300
H  22.75400 54.37600 41.19100

