158

Mg -2.44200 17.20100 25.89100
C  -2.66600 14.86200 28.53900
C  -3.45700 19.59400 28.17200
C  -2.70300 19.46800 23.43000
C  -1.75800 14.78600 23.74900
N  -2.77300 17.17800 28.28600
C  -2.89200 16.10500 29.11000
C  -3.35300 16.51700 30.49100
C  -3.65700 18.08300 30.26300
C  -3.28200 18.30500 28.80300
C  -5.10300 18.44800 30.68100
C  -2.48200 16.07100 31.65700
C  -2.44400 16.99300 32.81700
H  -2.09600 16.30100 34.09900
N  -2.66500 19.28000 25.87900
C  -3.10300 20.09800 26.93400
C  -3.17000 21.54400 26.48500
C  -2.85200 21.48600 25.09700
C  -2.75000 20.09400 24.76600
C  -3.54700 22.73500 27.36400
C  -2.67200 22.62200 24.05700
O  -2.42000 22.44000 22.86100
C  -2.65900 23.97600 24.56100
N  -2.33300 17.16000 23.90500
C  -2.57100 18.16500 23.03200
C  -2.52900 17.73800 21.59400
C  -1.94100 16.26700 21.76800
C  -1.99600 16.01700 23.24500
C  -3.87900 17.72800 20.77000
C  -0.54800 16.09100 21.02500
C  0.75200 16.15400 21.91700
N  -2.36500 15.20800 25.99800
C  -1.88900 14.38200 25.06400
C  -1.84900 13.02900 25.56300
C  -2.10800 13.19500 26.92900
C  -2.37400 14.55300 27.19300
C  -1.59800 11.74100 24.75500
C  -2.16000 12.45800 28.16400
O  -1.98000 11.30600 28.41800
C  -2.47500 13.55200 29.27700
C  -1.27700 13.57300 30.13300
O  -0.17600 13.99800 29.89800
O  -1.63900 13.06200 31.33800
C  -0.58300 12.88900 32.35400
H  -3.81400 20.31800 28.90700
H  -2.90100 20.15200 22.60200
H  -1.47900 14.07500 22.96800
H  -4.33400 16.04700 30.57100
H  -2.87700 18.69100 30.72200
H  -5.55200 17.85800 31.48000
H  -5.76400 18.40600 29.81500
H  -5.05100 19.49000 30.99900
H  -1.45000 15.93100 31.33700
H  -2.92100 15.10700 31.91700
H  -3.34900 17.60100 32.84500
H  -1.62000 17.68200 32.63100
H  -2.63400 23.32900 27.36900
H  -3.80900 22.43900 28.38000
H  -4.33900 23.31800 26.89400
H  -3.64900 24.26800 24.90800
H  -2.40400 24.69100 23.77900
H  -1.97500 23.98400 25.41000
H  -1.81600 18.37200 21.06700
H  -2.62200 15.58500 21.26000
H  -4.53900 18.32800 21.39600
H  -4.42400 16.80500 20.57300
H  -3.84300 18.42000 19.92800
H  -0.48400 16.99300 20.41500
H  -0.51700 15.22200 20.36800
H  1.48600 16.80100 21.43600
H  1.13500 15.18300 22.23200
H  0.63300 16.76400 22.81200
H  -1.00600 11.14900 25.45300
H  -1.09800 11.78000 23.78700
H  -2.57000 11.32900 24.48500
H  -3.34900 13.21200 29.83100
H  -0.78600 12.28500 33.23800
H  -0.33000 13.84100 32.82000
H  0.29900 12.48000 31.86200
Mg -6.30300 24.52500 26.53800
C  -4.55200 26.41700 28.89900
C  -7.07500 22.28600 29.06600
C  -7.88200 22.65700 24.26900
C  -4.98600 26.57200 23.99900
N  -5.95000 24.40000 28.79400
C  -5.37100 25.41000 29.50500
C  -5.54000 25.05800 31.01400
C  -5.96200 23.52800 30.99700
C  -6.41200 23.35600 29.49700
C  -4.80000 22.44700 31.39500
C  -6.64200 26.03400 31.67700
C  -6.36400 26.32900 33.08800
H  -6.94500 25.79400 34.38100
N  -7.30200 22.74600 26.65000
C  -7.52200 21.99900 27.75700
C  -8.25000 20.84000 27.44900
C  -8.61400 20.92600 26.08300
C  -7.98100 22.14800 25.56300
C  -8.68800 19.75100 28.46200
C  -9.52500 19.93700 25.27300
O  -9.73500 20.20100 24.07100
C  -10.27900 18.78300 25.90900
N  -6.52200 24.64800 24.53900
C  -7.23100 23.82000 23.79300
C  -7.48700 24.31200 22.29600
C  -6.42000 25.46700 22.27600
C  -5.86600 25.57900 23.66900
C  -7.39700 23.22500 21.12000
C  -6.88800 26.85300 21.67000
C  -5.96800 27.48100 20.54000
N  -4.98700 26.13400 26.37900
C  -4.61400 26.85600 25.30400
C  -3.86000 27.97800 25.73300
C  -3.77500 27.90500 27.12400
C  -4.51500 26.72100 27.49700
C  -3.33600 28.97300 24.78800
C  -3.23900 28.56500 28.38600
O  -2.60300 29.58100 28.63500
C  -3.73800 27.56500 29.53600
C  -2.53700 27.17600 30.33500
O  -1.67800 26.38600 29.95200
O  -2.63800 27.71200 31.53900
C  -1.67900 27.32900 32.59600
H  -7.32900 21.70400 29.95400
H  -8.37000 22.08700 23.47500
H  -4.71800 27.23800 23.17600
H  -4.61800 25.33200 31.52700
H  -6.88300 23.33100 31.54600
H  -4.71300 21.68600 30.62000
H  -5.06600 21.86100 32.27500
H  -3.82600 22.87200 31.63900
H  -7.57200 25.47300 31.58100
H  -6.79500 26.93100 31.07800
H  -6.38200 27.41800 33.14000
H  -5.30600 26.19500 33.31300
H  -9.57300 19.99700 29.04900
H  -7.85400 19.47300 29.10500
H  -8.96700 18.89300 27.85000
H  -10.71100 19.07000 26.86700
H  -9.59000 17.95900 26.09400
H  -11.17100 18.50400 25.34600
H  -8.40600 24.87500 22.13100
H  -5.62100 25.09200 21.63600
H  -7.59300 22.18200 21.36800
H  -6.44000 23.26700 20.59900
H  -8.21600 23.48300 20.44900
H  -7.00600 27.62400 22.43100
H  -7.85300 26.85600 21.16100
H  -5.66200 28.51100 20.72500
H  -6.55500 27.44000 19.62300
H  -5.10100 26.83900 20.38800
H  -4.13200 29.30900 24.12300
H  -2.56400 28.60000 24.11400
H  -2.88000 29.85900 25.23000
H  -4.44400 28.15100 30.12500
H  -0.69000 27.19200 32.16000
H  -2.06500 26.43100 33.07800
H  -1.54900 28.20600 33.23000

