158

Mg -1.46100 17.77700 26.97600
C  -2.00300 15.83300 29.78400
C  -2.18500 20.53000 29.03800
C  -1.71700 19.82400 24.26500
C  -2.09500 14.99900 24.91900
N  -2.02500 18.16600 29.17200
C  -1.98300 17.18800 30.14900
C  -2.14400 17.78500 31.57300
C  -2.63500 19.25300 31.24900
C  -2.28700 19.35800 29.71100
C  -4.19300 19.60400 31.49700
C  -0.93800 17.75800 32.51500
C  -1.45500 17.56800 34.04100
H  -0.49200 16.78400 34.86900
N  -1.66800 19.86400 26.68700
C  -1.96300 20.81600 27.66500
C  -1.93100 22.13700 27.02600
C  -1.66000 21.86500 25.72500
C  -1.67300 20.46500 25.46900
C  -2.15300 23.41200 27.66100
C  -1.20700 22.83400 24.58800
O  -0.88000 22.60900 23.45200
C  -1.31300 24.32300 24.95800
N  -1.91100 17.39800 24.91900
C  -1.73700 18.40700 24.02500
C  -1.75300 17.86800 22.52200
C  -1.83200 16.30400 22.76700
C  -1.99900 16.17000 24.29000
C  -2.89800 18.51500 21.72300
C  -0.65800 15.53000 22.18800
C  0.74700 15.77600 22.82400
N  -1.82800 15.76900 27.24500
C  -2.03500 14.72600 26.33200
C  -2.22300 13.52100 27.05600
C  -2.19600 13.90300 28.46300
C  -1.92700 15.25900 28.49400
C  -2.34100 12.13600 26.47700
C  -2.35000 13.36200 29.80100
O  -2.62900 12.24100 30.20600
C  -2.37800 14.67900 30.73600
C  -1.35000 14.35200 31.77200
O  -0.15500 14.61000 31.66700
O  -1.89800 13.76500 32.94700
C  -0.91700 13.30500 33.94400
H  -2.45000 21.37500 29.67800
H  -1.73300 20.43800 23.36200
H  -2.33300 14.14200 24.28600
H  -3.05300 17.33000 31.96600
H  -2.07400 19.95000 31.87200
H  -4.27300 20.22700 32.38800
H  -4.68300 18.65300 31.70600
H  -4.67900 20.15700 30.69300
H  -0.39200 18.68400 32.33800
H  -0.20100 16.97700 32.32600
H  -2.51500 17.32200 34.09400
H  -1.40500 18.56300 34.48200
H  -1.23600 23.98300 27.80300
H  -2.38800 23.17600 28.69900
H  -2.97500 24.01000 27.26600
H  -2.37700 24.55300 25.02200
H  -0.85700 24.84000 24.11400
H  -0.67200 24.63300 25.78300
H  -0.79500 18.18800 22.11200
H  -2.79600 15.97800 22.37800
H  -3.80700 17.93100 21.86600
H  -2.66000 18.53700 20.66000
H  -3.14000 19.49200 22.14100
H  -0.86800 15.72000 21.13500
H  -0.90800 14.48000 22.33800
H  0.67800 16.25300 23.80100
H  1.35100 16.28300 22.07100
H  1.25200 14.82500 22.99300
H  -1.40100 11.58900 26.55800
H  -2.61600 12.14100 25.42200
H  -3.09800 11.63300 27.07800
H  -3.31100 14.77800 31.29100
H  -0.38000 12.49000 33.45800
H  -1.42200 12.86600 34.80500
H  -0.19600 14.04800 34.28500
Mg 16.30300 52.53800 26.78300
C  18.27300 51.14300 29.35300
C  13.73600 52.94800 28.98000
C  14.76800 53.96900 24.30100
C  18.96200 51.46800 24.58100
N  15.97400 52.02700 28.97800
C  16.94300 51.60700 29.87400
C  16.43300 51.87900 31.25600
C  14.92800 52.19900 31.10700
C  14.78900 52.29000 29.57100
C  13.98000 51.21600 31.80400
C  17.28600 53.00800 31.97800
C  17.46100 52.86000 33.51100
H  16.50000 53.60600 34.46900
N  14.45400 53.34400 26.59200
C  13.51200 53.36600 27.63700
C  12.36200 54.11500 27.22100
C  12.56200 54.39900 25.82500
C  13.99400 53.97000 25.49900
C  11.14000 54.37200 28.11000
C  11.65300 55.14900 24.82500
O  12.10100 55.55000 23.72900
C  10.29200 55.35800 25.25400
N  16.76200 52.54800 24.66800
C  16.00700 53.39500 23.92600
C  16.74200 53.64700 22.62100
C  18.05000 52.77400 22.67500
C  17.92700 52.17000 24.01600
C  15.97800 53.40000 21.25300
C  19.47400 53.45100 22.45000
C  20.43400 52.62900 21.69700
N  18.15300 51.54100 26.85000
C  19.05800 51.10100 25.87500
C  20.12500 50.28800 26.43900
C  19.90300 50.38500 27.80900
C  18.68600 51.08200 27.97000
C  21.22100 49.52000 25.77100
C  20.38100 50.04400 29.13300
O  21.31800 49.28300 29.37800
C  19.44000 50.66500 30.13800
C  19.17700 49.56900 31.18600
O  18.68300 48.49200 30.96400
O  19.50000 49.96300 32.44500
C  19.05100 49.20400 33.60500
H  13.07000 53.17700 29.81400
H  14.21800 54.55800 23.56400
H  19.66600 50.99800 23.89000
H  16.62900 50.99700 31.86500
H  14.75900 53.20900 31.48000
H  13.48900 50.54900 31.09600
H  13.19300 51.81500 32.26000
H  14.51600 50.75300 32.63400
H  16.75000 53.94700 31.84100
H  18.22200 53.11200 31.43000
H  18.44800 53.21000 33.81400
H  17.42200 51.80600 33.78400
H  10.32000 53.88200 27.58400
H  10.98300 55.41800 28.37500
H  11.34500 54.00400 29.11500
H  10.15600 55.90200 26.18900
H  9.80600 54.38600 25.33600
H  9.84500 55.79900 24.36300
H  16.98400 54.70600 22.53700
H  17.96600 51.93600 21.98300
H  16.35200 52.57900 20.64100
H  16.02300 54.28000 20.61100
H  14.92600 53.18500 21.44000
H  19.86800 53.79900 23.40500
H  19.43000 54.41300 21.94000
H  19.95900 51.84700 21.10500
H  21.16500 52.26400 22.41800
H  21.05800 53.08900 20.93200
H  21.64000 49.97800 24.87600
H  20.70300 48.60600 25.47900
H  21.97100 49.39100 26.55100
H  19.92400 51.53100 30.59100
H  17.99800 49.45300 33.73400
H  19.49400 49.54500 34.54100
H  18.97400 48.11800 33.54500

