158

Mg 30.59000 60.16600 39.12600
C  27.73200 58.41700 38.07600
C  32.48700 57.37800 38.40600
C  33.41800 62.01900 39.50100
C  28.57800 63.01800 39.36500
N  30.16200 58.13900 38.19400
C  28.94000 57.70400 37.85700
C  29.12500 56.30700 37.32400
C  30.52200 55.91700 37.82700
C  31.10700 57.25600 38.10900
C  30.72800 54.94800 39.06000
C  28.96900 56.14200 35.67800
C  28.42600 54.84200 35.10700
H  27.08200 55.13200 34.40000
N  32.70400 59.70100 38.98000
C  33.26200 58.49200 38.78700
C  34.67500 58.52900 39.03500
C  35.01500 59.95500 39.22500
C  33.70700 60.63400 39.22900
C  35.60200 57.30300 38.87200
C  36.40100 60.51600 39.50100
O  37.36400 59.73400 39.51500
C  36.71200 62.01700 39.87000
N  30.99400 62.20500 39.33100
C  32.24700 62.76300 39.54500
C  32.20600 64.30600 39.77500
C  30.65400 64.50900 39.83100
C  30.00200 63.19400 39.45500
C  32.99300 64.97600 40.96800
C  30.16400 65.77300 39.09400
C  29.19300 66.68000 39.88500
N  28.53600 60.62500 38.99900
C  27.88100 61.79900 39.19400
C  26.48700 61.66300 38.96100
C  26.38100 60.37300 38.52600
C  27.64400 59.78700 38.54700
C  25.36900 62.59900 38.96700
C  25.46300 59.33000 38.10800
O  24.26800 59.34300 37.89800
C  26.30600 58.07200 37.76600
C  25.79500 56.89400 38.55600
O  25.40000 56.87600 39.72100
O  25.68400 55.84700 37.72900
C  25.35100 54.52200 38.22900
H  33.00800 56.44000 38.20400
H  34.23600 62.70400 39.73500
H  27.97900 63.92700 39.45300
H  28.35200 55.67600 37.76300
H  31.01800 55.43800 36.98200
H  31.56500 54.26500 38.92000
H  29.86900 54.27900 39.11300
H  30.88800 55.50500 39.98400
H  29.93300 56.34600 35.21100
H  28.37200 56.96900 35.29400
H  28.09500 54.14900 35.88000
H  29.12100 54.30700 34.45900
H  35.13000 56.56100 38.22700
H  35.75900 56.85900 39.85500
H  36.55600 57.60500 38.44200
H  37.78000 62.05400 40.08500
H  36.18700 62.23100 40.80100
H  36.41000 62.72300 39.09700
H  32.57200 64.68100 38.81900
H  30.45500 64.48600 40.90200
H  33.67800 64.26700 41.43300
H  32.39200 65.43400 41.75400
H  33.73300 65.68700 40.60100
H  29.48700 65.50700 38.28200
H  30.95100 66.40000 38.67600
H  28.68600 66.07300 40.63400
H  28.42100 67.09200 39.23400
H  29.60800 67.60800 40.28000
H  24.39900 62.10300 39.01300
H  25.42600 63.09000 37.99500
H  25.48900 63.27300 39.81400
H  26.20400 57.83600 36.70700
H  25.25000 53.85300 37.37500
H  24.38900 54.51100 38.74300
H  26.02100 54.06500 38.95700
Mg 0.27400 42.95500 26.36700
C  2.50600 42.60200 28.97600
C  -2.24600 41.73900 28.56800
C  -1.76100 42.34800 23.73700
C  2.98900 43.30100 24.16400
N  0.10300 42.29600 28.61900
C  1.17500 42.33800 29.48900
C  0.63800 42.27900 30.92400
C  -0.80200 41.75200 30.77100
C  -0.98700 41.83700 29.22500
C  -1.17800 40.34400 31.27500
C  0.68800 43.59900 31.66600
C  1.23700 43.57600 33.15100
H  0.91500 42.32300 34.08800
N  -1.68600 42.22900 26.14100
C  -2.58100 41.84000 27.13600
C  -3.89400 41.53300 26.56700
C  -3.71800 41.68400 25.17500
C  -2.39300 42.09000 24.93400
C  -5.16400 41.18200 27.43000
C  -4.80700 41.45200 24.13100
O  -4.65800 41.63000 22.92800
C  -6.17100 40.94900 24.51200
N  0.58800 42.63000 24.29200
C  -0.41900 42.54800 23.42900
C  0.09200 42.74500 21.97900
C  1.52200 43.25600 22.14500
C  1.73900 43.03000 23.63600
C  -0.07600 41.42300 21.13800
C  1.79700 44.79800 21.83200
C  1.38000 45.88300 22.78000
N  2.38200 43.03000 26.46500
C  3.34300 43.20800 25.50500
C  4.63300 43.36400 26.15800
C  4.32700 43.10000 27.48800
C  2.99000 42.87200 27.58000
C  5.97700 43.61300 25.58500
C  4.97100 42.92800 28.77800
O  6.18900 43.08100 29.04500
C  3.78400 42.72000 29.83600
C  4.07400 41.48900 30.54100
O  4.39000 40.38900 30.06600
O  3.98900 41.73900 31.94500
C  4.07700 40.50300 32.79200
H  -3.06000 41.44200 29.23300
H  -2.33800 42.28400 22.81200
H  3.74000 43.71300 23.48600
H  1.28100 41.51000 31.35200
H  -1.58300 42.43500 31.10400
H  -1.92700 39.94800 30.58900
H  -1.69600 40.50700 32.22000
H  -0.42600 39.56100 31.37300
H  -0.27700 44.10600 31.65100
H  1.41000 44.20000 31.11400
H  0.76200 44.44600 33.60400
H  2.32700 43.59500 33.15600
H  -5.44800 40.13600 27.31300
H  -5.97300 41.79900 27.03800
H  -5.10300 41.45200 28.48400
H  -6.66600 41.73200 25.08600
H  -6.03600 40.09900 25.18100
H  -6.71500 40.66800 23.61100
H  -0.53300 43.51800 21.53200
H  2.27900 42.59700 21.72000
H  -0.83400 40.81000 21.62600
H  0.88600 40.91200 21.12000
H  -0.39700 41.67400 20.12700
H  1.09400 45.06300 21.04300
H  2.84800 45.01000 21.63500
H  2.31200 46.09100 23.30500
H  0.62100 45.52800 23.47700
H  1.01200 46.77400 22.27000
H  6.01600 43.91400 24.53800
H  6.61900 42.73900 25.69300
H  6.48600 44.39000 26.15400
H  3.78300 43.51500 30.58200
H  3.44300 39.63300 32.62100
H  3.94600 40.91200 33.79400
H  5.07300 40.06600 32.71400

