158

Mg 54.63000 24.84300 44.07900
C  51.87900 26.97100 43.73300
C  52.44200 22.17500 43.62200
C  57.30300 22.95200 43.89100
C  56.75800 27.72400 43.95700
N  52.38200 24.63200 43.54900
C  51.46200 25.64400 43.64800
C  50.07900 25.05000 43.76400
C  50.32600 23.57100 43.95700
C  51.78000 23.42800 43.64100
C  49.90600 22.98500 45.35600
C  49.03500 25.45400 42.76500
C  49.31800 24.87700 41.33200
H  49.49100 25.88400 40.20100
N  54.85500 22.85200 43.69500
C  53.81500 21.89700 43.62600
C  54.39800 20.57700 43.36200
C  55.81400 20.80000 43.37900
C  56.04200 22.23100 43.61600
C  53.53400 19.33400 43.04000
C  56.80600 19.59300 43.30800
O  56.44600 18.43200 43.17000
C  58.30200 19.85900 43.36300
N  56.67500 25.23700 43.96200
C  57.61500 24.23800 44.00000
C  59.05800 24.73900 44.09300
C  58.88500 26.28000 44.14200
C  57.30900 26.44300 44.00600
C  59.84400 24.16400 45.34300
C  59.82000 26.95200 43.06800
C  60.77400 28.05000 43.61500
N  54.43900 26.92400 43.95900
C  55.38800 27.94400 44.08500
C  54.59900 29.17600 44.37000
C  53.24800 28.88000 44.25300
C  53.19500 27.49000 43.92800
C  55.24100 30.45700 44.81500
C  51.86700 29.38000 44.30100
O  51.46600 30.50200 44.55400
C  50.89500 28.16900 43.92000
C  50.24400 28.53000 42.68300
O  50.76200 28.44400 41.58400
O  48.94100 28.91500 43.00200
C  47.98800 29.13900 41.92100
H  51.71300 21.36200 43.62600
H  58.16800 22.28700 43.83400
H  57.52700 28.49700 44.01000
H  49.72200 25.35100 44.74900
H  49.75100 22.96900 43.25300
H  49.53800 23.64000 46.14600
H  50.75200 22.51300 45.85600
H  49.20600 22.16600 45.19200
H  48.86700 26.53000 42.74500
H  48.14200 25.01900 43.21500
H  48.52800 24.21000 40.98600
H  50.17900 24.21000 41.38700
H  54.09400 18.39900 43.03000
H  53.33000 19.32600 41.96900
H  52.61500 19.29100 43.62400
H  58.59000 20.44100 42.48800
H  58.78900 18.88600 43.30000
H  58.66900 20.30500 44.28700
H  59.60500 24.39900 43.21300
H  59.17800 26.63600 45.13000
H  59.13500 23.87000 46.11700
H  60.61500 24.76300 45.82700
H  60.28600 23.25500 44.93500
H  59.26000 27.47300 42.29200
H  60.49400 26.21200 42.63600
H  60.70800 28.03400 44.70300
H  60.43800 29.03100 43.27900
H  61.82300 27.93100 43.34400
H  54.53400 31.28100 44.72000
H  56.05100 30.64800 44.11000
H  55.65700 30.58300 45.81400
H  50.18700 28.05100 44.74000
H  47.24000 29.83000 42.31000
H  47.39100 28.28600 41.60000
H  48.54800 29.47700 41.04900
Mg -5.76200 25.63300 25.70600
C  -4.53000 27.09800 28.75700
C  -7.66700 23.48800 27.74400
C  -6.80700 24.05500 23.01900
C  -3.48200 27.48900 23.95000
N  -6.21300 25.47500 28.00500
C  -5.54700 26.12700 28.98600
C  -6.07600 25.75300 30.36600
C  -7.06800 24.57500 30.03700
C  -6.98400 24.46000 28.48800
C  -6.63500 23.27700 30.76000
C  -6.72400 26.93700 31.13000
C  -6.53600 26.80400 32.65300
H  -6.14600 25.49200 33.29600
N  -7.18900 24.15900 25.38500
C  -7.70200 23.30100 26.36000
C  -8.67100 22.49900 25.68500
C  -8.43500 22.51100 24.32600
C  -7.44100 23.59300 24.15200
C  -9.72600 21.69500 26.52900
C  -9.16700 21.80900 23.20800
O  -8.93200 22.03500 22.01500
C  -10.24100 20.70100 23.54700
N  -5.20300 25.75700 23.82500
C  -5.75700 24.99000 22.85700
C  -5.09200 25.25100 21.52800
C  -4.05700 26.38700 21.77300
C  -4.23000 26.57300 23.25900
C  -4.30800 23.85000 21.13000
C  -4.33100 27.64400 21.01100
C  -3.40300 27.98400 19.74300
N  -4.30800 27.04100 26.20700
C  -3.41100 27.68100 25.35800
C  -2.70900 28.63000 26.11100
C  -3.02200 28.34600 27.41600
C  -4.07600 27.43000 27.45900
C  -1.72900 29.58300 25.58900
C  -2.66800 28.72200 28.71900
O  -1.83100 29.45400 29.15300
C  -3.71300 28.01300 29.71100
C  -2.97500 27.22400 30.81000
O  -2.55400 26.05300 30.66300
O  -2.77000 28.02100 31.88600
C  -2.26900 27.17800 33.05100
H  -8.20900 22.73800 28.32500
H  -7.10100 23.63600 22.05400
H  -2.92900 28.27500 23.43200
H  -5.15300 25.48700 30.88100
H  -8.04700 24.90500 30.38500
H  -6.46200 22.43200 30.09300
H  -7.27400 22.99200 31.59500
H  -5.69200 23.39800 31.29300
H  -7.80500 26.96400 30.99100
H  -6.22000 27.85400 30.82300
H  -7.49900 27.16400 33.01600
H  -5.85100 27.58900 32.97500
H  -10.67800 21.56700 26.01500
H  -9.94000 22.06900 27.53000
H  -9.35200 20.67300 26.58900
H  -10.03300 20.02600 24.37600
H  -10.30700 20.15500 22.60600
H  -11.12300 21.32000 23.71400
H  -5.82100 25.44500 20.74200
H  -3.02300 26.04900 21.70400
H  -3.24500 24.09000 21.09100
H  -4.77200 23.70600 20.15400
H  -4.53600 23.05700 21.84200
H  -4.34000 28.45800 21.73600
H  -5.34700 27.61500 20.61700
H  -3.13200 29.03800 19.80200
H  -4.02600 27.81700 18.86400
H  -2.47700 27.41000 19.71000
H  -0.99900 29.05600 24.97400
H  -1.23900 30.03200 26.45300
H  -2.16000 30.36600 24.96500
H  -4.42700 28.68800 30.18400
H  -1.22800 27.44100 33.23700
H  -2.54400 26.12300 33.04600
H  -2.87100 27.54800 33.88000

