158

Mg 30.41200 58.28800 38.56600
C  27.66500 56.22700 37.29800
C  32.48100 55.38300 38.16200
C  33.04100 60.22800 38.76700
C  28.31400 60.98100 37.95600
N  30.06500 56.07100 37.77000
C  28.82600 55.50800 37.37400
C  29.09700 54.00700 37.12600
C  30.55300 53.71000 37.69100
C  31.05200 55.14900 37.91400
C  30.69400 52.82200 38.98600
C  28.93500 53.41200 35.66900
C  29.28100 54.41000 34.56600
H  28.32300 54.55600 33.30800
N  32.50300 57.82100 38.48900
C  33.14100 56.64100 38.27800
C  34.59700 56.81800 38.47600
C  34.79900 58.26100 38.55100
C  33.43400 58.85200 38.65900
C  35.63000 55.68100 38.36800
C  36.08500 58.91300 38.47600
O  37.14500 58.24300 38.42300
C  36.25000 60.41600 38.52400
N  30.61200 60.30800 38.45200
C  31.84300 60.95100 38.65100
C  31.75400 62.44800 38.30100
C  30.25800 62.65800 38.08700
C  29.69700 61.26100 38.01600
C  32.28800 63.32900 39.47400
C  29.95100 63.66600 36.87900
C  28.95600 64.83000 37.15600
N  28.32300 58.60100 38.04500
C  27.60800 59.69300 37.92600
C  26.19500 59.38000 37.57100
C  26.21400 58.00400 37.40200
C  27.54200 57.58800 37.58300
C  25.15300 60.36500 37.42000
C  25.35800 56.88800 37.09400
O  24.13400 56.80300 36.83000
C  26.27700 55.66000 37.01400
C  25.80200 54.62800 37.89900
O  25.91200 54.62900 39.11300
O  25.12500 53.67700 37.17000
C  24.49600 52.56500 37.89300
H  33.04900 54.45100 38.17700
H  33.82900 60.94500 39.00600
H  27.70800 61.85900 37.72300
H  28.47800 53.48100 37.85400
H  31.13000 53.31800 36.85300
H  31.50300 52.10300 38.85600
H  29.85000 52.16800 39.20600
H  30.94800 53.31400 39.92400
H  27.88300 53.13400 35.59800
H  29.55600 52.52600 35.53800
H  30.22100 54.07000 34.13200
H  29.46200 55.43600 34.88400
H  35.93300 55.69900 37.32100
H  35.16700 54.70700 38.53100
H  36.46100 55.86500 39.04800
H  35.89700 60.75500 39.49800
H  35.64300 60.75200 37.68200
H  37.26200 60.78800 38.36700
H  32.21800 62.67800 37.34300
H  29.83600 63.08000 38.99900
H  33.12300 63.96300 39.17700
H  32.65900 62.74000 40.31300
H  31.52500 63.98800 39.88900
H  29.67200 63.04800 36.02500
H  30.87100 64.16400 36.57100
H  27.97700 64.56400 36.75500
H  29.14000 65.76000 36.61800
H  28.84500 65.02300 38.22300
H  25.03900 60.59400 36.36000
H  25.41400 61.32400 37.86800
H  24.18500 60.10300 37.84600
H  26.30800 55.14900 36.05200
H  24.03100 51.97900 37.10000
H  23.63400 52.88300 38.48000
H  25.21500 51.94800 38.43200
Mg -11.72700 39.32100 41.58100
C  -10.34600 36.54800 40.25400
C  -9.39300 41.34400 39.93200
C  -13.88600 42.00900 41.75100
C  -14.41100 37.32200 42.73000
N  -10.12800 38.96100 40.21600
C  -9.68400 37.71300 39.94700
C  -8.34000 37.74000 39.21100
C  -8.00000 39.25400 39.08600
C  -9.24200 39.94000 39.77700
C  -6.68400 39.60500 39.70900
C  -8.45500 37.01600 37.86700
C  -7.49100 35.78400 37.55500
H  -6.54700 36.05500 36.34300
N  -11.47500 41.47400 41.21900
C  -10.43200 42.08200 40.51600
C  -10.75000 43.51600 40.47000
C  -12.06600 43.70700 41.03400
C  -12.52600 42.37200 41.41900
C  -9.76900 44.41300 39.85800
C  -12.75600 45.15800 41.27600
O  -12.36200 46.11400 40.69900
C  -13.80400 45.30300 42.28900
N  -13.89100 39.68300 42.30400
C  -14.43200 40.91300 42.31800
C  -15.92000 40.80300 42.78400
C  -15.92600 39.33600 43.34600
C  -14.69700 38.66600 42.75600
C  -16.36200 41.91900 43.89000
C  -17.25800 38.60600 43.12400
C  -17.47500 37.92800 41.73000
N  -12.29200 37.31100 41.70900
C  -13.32100 36.60500 42.26300
C  -13.16800 35.21200 42.14400
C  -11.95100 35.11800 41.37200
C  -11.50900 36.45400 41.15300
C  -13.87000 34.05100 42.85200
C  -11.04000 34.20200 40.78900
O  -11.16400 32.97900 40.71400
C  -9.93600 35.06800 40.05100
C  -8.69100 34.66500 40.63800
O  -8.12800 33.64500 40.35000
O  -8.20200 35.56800 41.56800
C  -7.06700 35.12300 42.33700
H  -8.59300 41.83500 39.37500
H  -14.47400 42.91900 41.88400
H  -15.28300 36.75700 43.06700
H  -7.58900 37.25800 39.83800
H  -7.94300 39.49900 38.02500
H  -6.11900 38.73400 40.04000
H  -6.79600 40.34800 40.49900
H  -5.99300 39.85800 38.90500
H  -8.33200 37.72800 37.05100
H  -9.49300 36.70300 37.75400
H  -8.08200 34.88400 37.38800
H  -6.83800 35.60200 38.40900
H  -9.45300 45.04100 40.69100
H  -10.20000 45.12100 39.15000
H  -8.87000 43.95200 39.44700
H  -14.65900 45.34200 41.61400
H  -13.69600 46.25600 42.80700
H  -13.86100 44.51300 43.03800
H  -16.62100 40.86200 41.95100
H  -15.88700 39.36400 44.43500
H  -16.69300 42.87100 43.47300
H  -15.51400 42.20900 44.51100
H  -17.06800 41.38200 44.52400
H  -18.03200 39.37400 43.14600
H  -17.33800 37.91500 43.96300
H  -17.58800 36.85400 41.87900
H  -16.61500 38.05500 41.07200
H  -18.24200 38.35200 41.08300
H  -13.23000 33.52900 43.56300
H  -14.42400 33.42900 42.14800
H  -14.72900 34.44200 43.39800
H  -9.90600 34.71400 39.02100
H  -6.67600 35.91300 42.97900
H  -6.19700 34.80300 41.76300
H  -7.58300 34.48000 43.04900

