158

Mg 26.83000 0.81400 29.90600
C  28.58800 0.40700 32.87700
C  23.99300 1.13600 32.02700
C  24.82700 0.47700 27.21700
C  29.64900 -0.11300 28.10200
N  26.35500 0.75600 32.24600
C  27.24200 0.65600 33.22800
C  26.64300 0.70900 34.61100
C  25.13500 1.12000 34.24100
C  25.14500 0.94100 32.72100
C  24.06500 0.24600 34.93800
C  27.45200 1.71700 35.54200
C  26.68800 2.33700 36.72200
H  27.47200 2.78000 37.96600
N  24.72800 0.84100 29.64100
C  23.73700 1.02900 30.62400
C  22.46200 1.18600 29.96900
C  22.66500 0.81200 28.61400
C  24.14500 0.67900 28.42600
C  21.19600 1.59100 30.58600
C  21.63700 0.65100 27.48200
O  21.93000 0.28100 26.32200
C  20.14200 0.74000 27.75300
N  27.21000 0.23400 27.89100
C  26.23400 0.26700 26.96600
C  26.83600 -0.12400 25.55900
C  28.40800 -0.17200 25.84400
C  28.46500 0.06200 27.38600
C  26.20400 -1.48900 25.12400
C  29.39900 0.74200 25.07700
C  29.84100 2.06000 25.61600
N  28.75000 0.32000 30.33600
C  29.75700 -0.05600 29.47300
C  30.99900 -0.21900 30.25600
C  30.57600 -0.05500 31.56800
C  29.18100 0.25000 31.59300
C  32.34000 -0.64200 29.75800
C  30.98100 -0.09900 32.97900
O  32.08500 -0.36400 33.49000
C  29.78200 0.24700 33.88100
C  29.62800 -0.97000 34.69700
O  29.21200 -2.01200 34.29400
O  30.00400 -0.76900 35.99400
C  29.83600 -1.89900 36.93200
H  23.19400 1.45300 32.70100
H  24.14300 0.28000 26.38900
H  30.54000 -0.33800 27.51200
H  26.76900 -0.29500 35.01600
H  24.98800 2.19900 34.28500
H  23.38200 0.81700 35.56600
H  24.62300 -0.28800 35.70600
H  23.58200 -0.45900 34.26000
H  27.87100 2.52200 34.93800
H  28.28700 1.11800 35.90500
H  25.99800 1.52500 36.95300
H  26.14500 3.17300 36.28200
H  21.41200 2.12300 31.51200
H  20.60900 0.69700 30.79800
H  20.62400 2.27100 29.95500
H  19.89700 0.23200 28.68600
H  19.66800 0.27000 26.89100
H  19.74700 1.74500 27.90300
H  26.48900 0.63200 24.85500
H  28.79700 -1.19000 25.81200
H  25.52200 -2.08500 25.73000
H  27.06900 -2.04200 24.75700
H  25.56000 -1.29000 24.26800
H  29.02400 0.82100 24.05600
H  30.21400 0.06200 24.82900
H  29.45500 2.25800 26.61700
H  29.40200 2.81400 24.96300
H  30.92200 2.18400 25.56600
H  32.63800 0.04700 28.96800
H  32.30700 -1.68700 29.44900
H  33.14500 -0.53700 30.48500
H  29.98200 1.10500 34.52300
H  29.99500 -2.89700 36.52500
H  28.86900 -1.87200 37.43300
H  30.59600 -1.71900 37.69400
Mg 16.50000 53.02500 26.24700
C  18.59700 51.82200 28.83200
C  14.17100 53.73400 28.57800
C  14.59200 54.49400 23.77800
C  18.77900 51.99400 23.85500
N  16.41200 52.83600 28.43700
C  17.38000 52.37200 29.30700
C  16.95400 52.50700 30.81400
C  15.43400 52.82000 30.62300
C  15.27900 53.13900 29.10700
C  14.49400 51.63300 31.13600
C  17.90100 53.52600 31.57000
C  17.33100 54.13700 32.85100
H  16.45500 53.25100 33.72000
N  14.71100 54.08200 26.24900
C  13.80000 54.22000 27.29900
C  12.61200 54.91800 26.87600
C  12.75700 55.12500 25.49500
C  14.07800 54.56800 25.09200
C  11.41300 55.06300 27.77700
C  11.82900 55.90600 24.59700
O  12.15500 56.30300 23.46200
C  10.42600 56.38500 25.13700
N  16.79500 53.44700 24.16800
C  15.76200 53.93300 23.34900
C  16.13300 53.81500 21.89700
C  17.44800 53.00100 21.77900
C  17.70000 52.74000 23.35200
C  14.99800 53.38400 20.86600
C  18.56200 53.58700 20.95400
C  19.15800 54.92600 21.41900
N  18.19800 51.94000 26.29200
C  19.07200 51.61000 25.20600
C  20.25200 50.94100 25.75500
C  20.07200 50.99400 27.12300
C  18.88500 51.66700 27.41900
C  21.35100 50.28500 24.94600
C  20.69900 50.65700 28.43800
O  21.74600 50.00800 28.64500
C  19.77800 51.16000 29.62600
C  19.39700 50.02300 30.52700
O  18.91500 48.98200 30.18100
O  19.51400 50.47500 31.83300
C  19.13900 49.55600 32.92600
H  13.44600 53.95400 29.36500
H  14.04800 55.01400 22.98600
H  19.54500 51.61000 23.17800
H  17.02300 51.58000 31.38300
H  15.22600 53.74500 31.16000
H  15.11600 50.91800 31.67300
H  14.00800 51.12700 30.30100
H  13.75200 52.12800 31.76300
H  18.05100 54.26300 30.78100
H  18.87900 53.09600 31.78300
H  16.71900 55.00800 32.61500
H  18.15700 54.41300 33.50600
H  10.99700 56.07000 27.79300
H  11.56000 54.79400 28.82400
H  10.60500 54.47400 27.34300
H  9.87500 56.83100 24.30800
H  10.42300 57.17500 25.88800
H  9.75900 55.58600 25.45800
H  16.51100 54.83400 21.81200
H  17.15600 52.05700 21.31800
H  15.47900 52.95200 19.98800
H  14.52600 54.24400 20.39000
H  14.21000 52.78800 21.32600
H  18.11200 53.78200 19.98000
H  19.37500 52.86100 20.94100
H  18.84700 55.18000 22.43300
H  18.85000 55.71300 20.73100
H  20.22700 54.97400 21.21500
H  22.28600 50.33300 25.50500
H  21.56100 50.84600 24.03600
H  21.17400 49.21900 24.80300
H  20.29300 51.92000 30.21400
H  18.09500 49.24800 32.88100
H  19.13200 50.12700 33.85400
H  19.93500 48.82400 33.06200

