158

Mg 6.95500 2.24700 27.69000
C  8.76200 1.06700 30.26200
C  5.02200 4.23300 29.72400
C  5.43600 3.52300 24.84800
C  8.39900 -0.27900 25.60600
N  6.81100 2.52400 29.81500
C  7.80200 2.05500 30.61700
C  7.64100 2.51600 32.01100
C  6.33400 3.44400 31.84800
C  6.00400 3.41800 30.37900
C  5.19300 2.90000 32.83900
C  8.87500 3.32300 32.52600
C  8.67700 4.11100 33.85200
H  9.77700 3.84900 34.84600
N  5.35000 3.63300 27.35300
C  4.75600 4.40300 28.34100
C  3.90500 5.36000 27.65700
C  3.99900 5.14200 26.26400
C  4.94800 4.02700 26.09700
C  3.04500 6.25500 28.42800
C  3.22100 5.81500 25.11100
O  3.31300 5.51300 23.95600
C  2.08500 6.73700 25.42100
N  6.62800 1.49800 25.55300
C  6.32800 2.43100 24.63200
C  6.81200 1.97900 23.15400
C  7.61800 0.66600 23.44400
C  7.51600 0.57900 24.97600
C  5.69000 1.79100 22.09800
C  9.03000 0.76700 22.80400
C  9.39000 -0.48200 22.03100
N  8.24000 0.59900 27.88500
C  8.77200 -0.29400 26.95000
C  9.70700 -1.14200 27.61300
C  9.74600 -0.69600 28.94300
C  8.87400 0.42700 29.03300
C  10.45700 -2.28600 26.96200
C  10.29400 -0.82900 30.32100
O  11.14100 -1.60600 30.75300
C  9.79000 0.33800 31.17100
C  9.17000 -0.37000 32.38300
O  8.43800 -1.34900 32.29000
O  9.57800 0.22900 33.54500
C  9.25700 -0.39600 34.78300
H  4.65200 5.01800 30.38700
H  5.09200 4.02500 23.94100
H  8.73700 -1.05000 24.91100
H  7.36700 1.66400 32.63400
H  6.62100 4.47800 32.04200
H  5.00100 3.51200 33.72100
H  5.45700 1.93400 33.27000
H  4.28800 2.78700 32.24300
H  9.14100 4.00400 31.71700
H  9.74000 2.67200 32.64900
H  7.73800 3.86400 34.34700
H  8.56400 5.13400 33.49300
H  3.49200 6.46400 29.40000
H  2.07200 5.79500 28.60000
H  2.93900 7.15200 27.81800
H  1.40000 6.98500 24.61100
H  2.53800 7.69600 25.67100
H  1.49200 6.30400 26.22600
H  7.45600 2.83200 22.94000
H  7.05800 -0.15200 22.99100
H  4.77200 1.62800 22.66400
H  5.99000 0.98200 21.43200
H  5.50600 2.72900 21.57300
H  9.88200 0.84400 23.47800
H  9.11800 1.64700 22.16700
H  10.05700 -0.22800 21.20800
H  8.53700 -1.07700 21.70300
H  9.85500 -1.13600 22.76900
H  10.61900 -1.99000 25.92500
H  9.79300 -3.14500 27.05800
H  11.33700 -2.47400 27.57800
H  10.57700 1.00600 31.51900
H  10.20000 -0.70600 35.23200
H  8.48400 -1.16500 34.79900
H  8.85100 0.41200 35.39100
Mg 10.32800 46.74700 24.71900
C  8.07200 47.14000 27.43100
C  12.76100 48.31200 26.51800
C  12.29200 46.58800 21.97100
C  7.53100 45.81200 22.77200
N  10.36800 47.73500 26.58300
C  9.40200 47.63300 27.65700
C  9.96700 47.98600 28.99400
C  11.34400 48.73500 28.53500
C  11.51600 48.30500 27.09200
C  11.14700 50.25700 28.64600
C  10.26600 46.72000 29.86400
C  10.09900 47.10100 31.39400
H  9.85900 45.89300 32.34100
N  12.35100 47.18300 24.34800
C  13.19700 47.74900 25.28700
C  14.50700 47.66200 24.80900
C  14.38600 47.16700 23.49600
C  12.97900 46.98500 23.16700
C  15.70000 47.92400 25.69600
C  15.51700 46.84400 22.50900
O  15.29100 46.47800 21.37400
C  16.96100 46.78900 22.83000
N  9.88900 46.36700 22.70600
C  10.90300 46.37200 21.77400
C  10.42800 45.91600 20.41700
C  8.98200 45.41700 20.70700
C  8.76800 45.80600 22.16800
C  10.51000 46.93500 19.30700
C  8.74300 43.92100 20.46500
C  9.47700 43.01600 21.54200
N  8.22400 46.42400 25.04300
C  7.22200 46.13500 24.14500
C  5.88600 46.33700 24.73700
C  6.16600 46.57900 26.12000
C  7.58100 46.68000 26.20700
C  4.57900 46.17600 24.08200
C  5.67600 46.76300 27.43700
O  4.52900 46.57300 27.89000
C  6.89300 47.06800 28.42400
C  7.03000 45.92600 29.34200
O  7.50200 44.84200 29.05600
O  6.46700 46.41600 30.51100
C  6.47800 45.53400 31.65500
H  13.63200 48.63400 27.09100
H  12.94400 46.31800 21.13600
H  6.71900 45.86800 22.04400
H  9.12000 48.54500 29.39300
H  12.11800 48.46400 29.25300
H  10.37800 50.80800 28.10400
H  12.13200 50.66600 28.42200
H  10.94000 50.47100 29.69400
H  11.32900 46.49400 29.78600
H  9.68100 45.83000 29.63000
H  9.15100 47.60700 31.57900
H  10.86200 47.77900 31.77600
H  15.56500 47.57100 26.71900
H  16.05700 48.95300 25.66900
H  16.51000 47.30200 25.31300
H  17.03700 45.90100 23.45800
H  17.08300 47.78300 23.26000
H  17.64000 46.80800 21.97700
H  11.13200 45.15700 20.07800
H  8.30800 46.02700 20.10600
H  11.26700 47.69800 19.48600
H  9.52800 47.35400 19.08500
H  10.82200 46.36400 18.43300
H  9.10100 43.63400 19.47700
H  7.65700 43.83100 20.48200
H  8.73500 42.51700 22.16500
H  10.21600 43.54400 22.14400
H  10.16100 42.31700 21.06000
H  3.86800 46.91400 24.45400
H  4.35100 45.14400 24.34900
H  4.64400 46.41100 23.01900
H  6.75500 47.97500 29.01300
H  6.90500 46.19500 32.41000
H  7.11800 44.66600 31.49900
H  5.47200 45.25200 31.96800

