158

Mg 44.21900 2.93600 46.56700
C  43.36900 6.32300 45.74600
C  40.90300 2.13800 45.62900
C  45.00700 -0.25400 46.82700
C  47.45900 3.96900 46.96800
N  42.29100 4.09200 45.86700
C  42.23800 5.49600 45.58900
C  40.89900 5.87200 45.15400
C  40.01900 4.58400 45.37800
C  41.10700 3.51900 45.62100
C  38.90900 4.69900 46.40500
C  40.76500 6.49600 43.76200
C  40.10500 7.86600 43.55500
H  39.19500 7.84700 42.38800
N  43.13300 1.09100 46.16400
C  41.78800 0.99700 45.85000
C  41.42600 -0.41200 45.79500
C  42.63700 -1.12300 46.20800
C  43.67000 -0.10200 46.47000
C  40.05700 -0.90500 45.34500
C  42.76200 -2.62700 46.17600
O  41.85800 -3.30900 45.76100
C  44.05700 -3.36700 46.60000
N  45.97600 1.96300 46.72000
C  46.05600 0.65600 47.07100
C  47.42500 0.22700 47.55700
C  48.15500 1.61600 47.68300
C  47.15700 2.57900 47.04800
C  47.35500 -0.65800 48.82200
C  49.46000 1.68500 46.92700
C  50.56100 2.43600 47.58300
N  45.26500 4.80000 46.50300
C  46.64700 5.05600 46.60700
C  46.88400 6.46600 46.47500
C  45.62000 7.04400 46.14100
C  44.67600 5.97300 46.09000
C  48.23300 7.15500 46.83900
C  44.95900 8.24000 45.83700
O  45.34500 9.40100 45.83600
C  43.43100 7.87500 45.64000
C  42.67500 8.48900 46.70300
O  42.87800 8.36800 47.88100
O  41.64100 9.16800 46.19400
C  40.57700 9.51500 47.11700
H  39.89000 1.86000 45.33000
H  45.33100 -1.29200 46.93400
H  48.51000 4.24300 47.08100
H  40.51000 6.59300 45.87400
H  39.49300 4.32300 44.45900
H  38.94400 5.63300 46.96500
H  38.96000 3.90700 47.15100
H  37.94800 4.61800 45.89600
H  40.53200 5.68400 43.07500
H  41.81200 6.65400 43.50500
H  40.92200 8.55000 43.32700
H  39.49200 8.15400 44.40900
H  39.85900 -1.74400 46.01200
H  40.10300 -1.17700 44.29000
H  39.18300 -0.26100 45.44300
H  44.38400 -3.02100 47.58000
H  44.77100 -3.10700 45.81900
H  44.05700 -4.45100 46.48200
H  47.79200 -0.28900 46.67100
H  48.27800 1.83000 48.74500
H  47.33600 -1.65900 48.39000
H  46.39000 -0.53400 49.31200
H  48.19100 -0.35600 49.45400
H  49.22800 2.19200 45.99000
H  49.86500 0.69200 46.73200
H  51.44500 1.80200 47.64400
H  50.28800 2.84100 48.55700
H  50.90700 3.25100 46.94700
H  48.94500 6.51600 47.36000
H  48.04300 8.05500 47.42400
H  48.57000 7.54500 45.87800
H  43.01400 8.18000 44.68000
H  40.84900 10.39200 47.70600
H  40.24200 8.71600 47.77900
H  39.67100 9.72600 46.54900
Mg 36.37800 49.89800 25.72400
C  36.23500 47.98600 28.74300
C  35.12500 52.51000 27.40700
C  35.98500 51.37000 22.81800
C  37.32400 46.73800 24.09200
N  35.77300 50.22700 27.90300
C  35.95700 49.38500 28.91600
C  35.56800 50.09600 30.22900
C  35.24300 51.50300 29.82200
C  35.35500 51.42100 28.25800
C  33.88000 52.02800 30.39100
C  36.64300 49.90700 31.32500
C  36.12300 49.41000 32.68800
H  34.70300 49.65300 33.11400
N  35.77300 51.68500 25.27200
C  35.31700 52.61700 26.04500
C  34.91300 53.76700 25.22300
C  35.38300 53.54900 23.93100
C  35.74100 52.13700 23.95000
C  34.06700 54.81600 25.77000
C  35.19100 54.32800 22.62400
O  35.51100 53.99500 21.48100
C  34.50300 55.71800 22.62900
N  36.32900 48.98600 23.70700
C  36.24000 49.96000 22.67900
C  36.71300 49.24500 21.33100
C  37.12100 47.78100 21.80600
C  36.99700 47.84900 23.32000
C  35.72200 49.35300 20.23100
C  38.49900 47.31600 21.28000
C  39.76700 47.84300 21.97600
N  36.67600 47.75400 26.26000
C  37.08600 46.63700 25.48100
C  37.20600 45.49800 26.30800
C  36.86200 45.98500 27.64100
C  36.55700 47.33500 27.50000
C  37.63800 44.08300 25.87700
C  36.71100 45.61700 29.01500
O  36.75400 44.51400 29.51100
C  36.25600 46.85900 29.81200
C  34.91300 46.60400 30.47500
O  33.76600 46.66500 30.01800
O  35.19500 45.94500 31.68600
C  34.01900 45.47400 32.56300
H  34.75900 53.33600 28.02000
H  36.11700 51.89800 21.87200
H  37.68200 45.84500 23.57400
H  34.65500 49.56000 30.49000
H  36.07300 52.10800 30.18800
H  33.97600 52.83100 31.12100
H  33.30300 51.24200 30.87800
H  33.29400 52.55300 29.63600
H  37.15600 50.86100 31.44600
H  37.34600 49.13300 31.01700
H  36.75700 49.86000 33.45200
H  36.32300 48.33900 32.69800
H  34.71000 55.69400 25.69700
H  33.83600 54.77200 26.83500
H  33.14100 54.89000 25.20000
H  33.45100 55.57300 22.87500
H  34.55500 56.07100 21.59900
H  35.00300 56.32400 23.38500
H  37.61600 49.76200 21.00700
H  36.38100 47.07600 21.42700
H  34.76600 49.73200 20.59300
H  35.51500 48.42000 19.70700
H  35.98800 49.95400 19.36100
H  38.58800 47.42400 20.19900
H  38.63400 46.24700 21.44700
H  39.45000 48.77000 22.45400
H  40.60400 48.13200 21.34200
H  40.25500 47.28800 22.77800
H  36.87600 43.55700 25.30100
H  37.68100 43.39800 26.72300
H  38.61400 44.05000 25.39300
H  37.06100 46.97100 30.53800
H  33.84000 45.97100 33.51600
H  34.12500 44.39200 32.65400
H  33.01900 45.56200 32.14000

