158

Mg 47.62900 24.25300 28.07800
C  48.49500 26.44600 30.63900
C  47.02000 21.80900 30.29300
C  47.12300 22.20600 25.53800
C  48.69400 26.61900 25.70800
N  47.84700 24.14600 30.31700
C  48.07100 25.25900 31.12800
C  47.88400 24.85800 32.62100
C  47.50900 23.29500 32.42100
C  47.53900 22.97500 30.91300
C  48.39400 22.30900 33.22800
C  46.70200 25.71700 33.25500
C  47.01000 26.43700 34.49800
H  46.08500 26.39800 35.75100
N  46.95200 22.29800 27.94300
C  46.81500 21.39300 28.96200
C  46.43700 20.16400 28.46600
C  46.44400 20.28300 27.07500
C  46.90300 21.64000 26.77200
C  46.17900 18.98700 29.39500
C  46.16200 19.26400 25.98500
O  46.10300 19.50300 24.80300
C  45.82600 17.82600 26.36400
N  47.82400 24.40900 25.89900
C  47.48800 23.48600 25.10300
C  47.42800 23.85100 23.62200
C  47.72900 25.40000 23.67500
C  48.11200 25.47200 25.15000
C  48.39400 23.00100 22.71800
C  46.53600 26.26400 23.26600
C  46.88300 27.16000 22.11500
N  48.60200 26.10800 28.10900
C  48.90500 26.94700 27.05900
C  49.37400 28.18700 27.60000
C  49.19900 28.02500 29.05300
C  48.71000 26.75900 29.22600
C  50.08400 29.19900 26.73500
C  49.42100 28.64800 30.27000
O  49.95600 29.74900 30.49800
C  48.78200 27.70900 31.36400
C  49.88700 27.55400 32.40600
O  50.94200 26.99300 32.14800
O  49.57700 28.26200 33.53700
C  50.52700 28.15800 34.68100
H  46.72800 21.02900 31.00000
H  46.98400 21.51200 24.70700
H  48.95100 27.26500 24.86600
H  48.79500 25.03900 33.19200
H  46.48400 23.22100 32.78400
H  48.68100 21.51100 32.54300
H  47.78800 21.80000 33.97700
H  49.26900 22.87300 33.54900
H  45.81900 25.08000 33.30600
H  46.59700 26.54400 32.55300
H  47.24900 27.48600 34.32300
H  48.00500 26.09100 34.77800
H  46.49800 18.03400 28.97400
H  45.11100 18.91900 29.60200
H  46.60100 19.12300 30.39100
H  45.58000 17.11100 25.57900
H  44.99400 17.88400 27.06500
H  46.79300 17.52600 26.76800
H  46.42700 23.63000 23.25000
H  48.66500 25.53300 23.13200
H  47.96400 23.13900 21.72600
H  48.52700 22.02200 23.17700
H  49.41600 23.37900 22.70500
H  46.28300 26.85900 24.14400
H  45.68000 25.65200 22.98000
H  46.98900 28.20000 22.42600
H  46.05200 27.04500 21.41900
H  47.79200 26.85700 21.59600
H  49.53000 29.52100 25.85300
H  51.06800 28.77600 26.53400
H  50.24200 30.07300 27.36700
H  47.91000 28.22300 31.77000
H  51.53300 27.78400 34.49500
H  50.12600 27.56600 35.50400
H  50.63300 29.16900 35.07400
Mg 6.08600 53.50600 40.68300
C  5.20200 50.10000 40.50800
C  9.34300 52.66700 39.83300
C  6.64300 56.76800 39.82400
C  2.67000 54.30700 41.17400
N  7.12900 51.56800 40.12900
C  6.60100 50.30100 40.17000
C  7.57400 49.27100 39.74700
C  8.94300 50.05500 39.83900
C  8.46700 51.53300 39.90500
C  9.83800 49.60900 41.07600
C  7.40000 48.58400 38.35500
C  6.98000 49.46500 37.12600
H  6.00200 48.89400 36.10600
N  7.70600 54.60300 39.96800
C  9.03900 54.06200 39.76400
C  9.95100 55.14600 39.32800
C  9.12800 56.35300 39.41800
C  7.75000 55.93700 39.76100
C  11.34600 55.08000 38.80500
C  9.58700 57.80000 39.00300
O  10.76200 57.99200 38.75400
C  8.65800 58.96300 38.94800
N  4.77200 55.28100 40.38600
C  5.28100 56.45700 40.18800
C  4.22300 57.59800 40.25200
C  2.99100 56.81800 40.74400
C  3.47600 55.35400 40.84200
C  4.64200 58.81100 41.22600
C  1.75500 56.97200 39.71200
C  0.46800 57.63300 40.26700
N  4.30900 52.44000 40.98300
C  2.99100 52.90300 41.12100
C  2.08700 51.75900 41.28100
C  2.89800 50.63400 41.05500
C  4.26100 51.13600 40.86100
C  0.61200 51.88300 41.52200
C  2.97000 49.20400 40.94300
O  2.09300 48.38600 41.17700
C  4.44300 48.78400 40.71000
C  4.38500 47.86200 39.55400
O  4.14200 48.21800 38.42700
O  4.75100 46.53400 39.88700
C  5.07300 45.71200 38.72200
H  10.38900 52.47800 39.58200
H  6.77800 57.83900 39.65700
H  1.67100 54.61300 41.49200
H  7.49900 48.53500 40.54800
H  9.55000 49.87600 38.95100
H  10.71100 49.07800 40.69600
H  9.28000 48.88900 41.67400
H  10.23400 50.42600 41.67900
H  6.62100 47.83800 38.51100
H  8.33200 48.07100 38.11700
H  7.87800 49.82000 36.62000
H  6.59300 50.42100 37.48100
H  11.50900 55.26100 37.74200
H  11.76900 54.10900 39.06500
H  12.01700 55.75100 39.34100
H  9.22100 59.87200 38.73500
H  8.35300 59.24900 39.95500
H  7.81900 58.93100 38.25300
H  4.10100 58.04300 39.26400
H  2.76300 57.11100 41.76900
H  3.89100 58.99800 41.99400
H  4.74100 59.78100 40.73800
H  5.56400 58.50000 41.71700
H  1.49700 55.96000 39.40100
H  1.97800 57.52000 38.79700
H  -0.24800 56.82400 40.41600
H  0.04800 58.40100 39.61900
H  0.68200 58.08100 41.23800
H  0.19100 51.50800 40.58900
H  0.23600 52.89900 41.63800
H  0.54900 51.24100 42.40100
H  4.80500 48.22700 41.57400
H  5.94900 46.02800 38.15500
H  4.17900 45.74500 38.09800
H  5.21400 44.66700 38.99900

