158

Mg 25.82100 -0.13200 29.05000
C  27.61900 -0.65800 32.01400
C  22.94400 -0.03500 30.84000
C  24.14700 0.20800 26.22500
C  28.82900 -0.81500 27.19500
N  25.36900 -0.31400 31.13400
C  26.23800 -0.44500 32.21600
C  25.49100 -0.34400 33.60600
C  23.98600 -0.26200 33.18500
C  24.09600 -0.25400 31.61900
C  23.05000 -1.33400 33.83100
C  26.00300 0.88300 34.49500
C  26.46200 0.70200 35.94900
H  26.21400 1.79500 36.99000
N  23.85900 0.17900 28.60400
C  22.76300 0.20400 29.45000
C  21.49900 0.24300 28.77100
C  21.83900 0.34800 27.38100
C  23.35300 0.30800 27.35600
C  20.10800 0.12200 29.32000
C  21.02300 0.45900 26.13900
O  21.58100 0.48400 25.01300
C  19.58200 0.41300 26.22800
N  26.40900 -0.44500 26.98700
C  25.54100 -0.00200 26.03800
C  26.11400 -0.10600 24.56800
C  27.66600 -0.28100 24.88100
C  27.69000 -0.52800 26.41500
C  25.40400 -1.08300 23.67400
C  28.56100 0.92900 24.44600
C  28.19600 2.23900 25.01500
N  27.79000 -0.62700 29.45000
C  28.85300 -0.88000 28.58500
C  30.00500 -1.22900 29.38700
C  29.54200 -1.10200 30.72500
C  28.23900 -0.74100 30.74100
C  31.40600 -1.40100 28.87400
C  30.02700 -1.23300 32.09500
O  31.16200 -1.49100 32.47200
C  28.77200 -0.82900 33.03200
C  28.51400 -2.07000 33.84300
O  27.74200 -2.95200 33.48100
O  29.20100 -1.88400 35.05200
C  28.84000 -2.97600 35.99100
H  21.95700 0.01400 31.30500
H  23.84300 0.59300 25.24900
H  29.74400 -1.00000 26.62800
H  25.65800 -1.25100 34.18600
H  23.56000 0.72600 33.36000
H  23.50500 -1.74000 34.73400
H  22.81800 -2.14900 33.14600
H  22.11800 -0.86400 34.14600
H  25.18500 1.59700 34.59300
H  26.86600 1.38400 34.05700
H  27.55000 0.67900 35.88000
H  26.07200 -0.23800 36.33900
H  20.15700 -0.02100 30.40000
H  19.41700 -0.53900 28.79600
H  19.63300 1.10300 29.33100
H  19.21600 1.12200 26.97000
H  19.37800 -0.64100 26.41600
H  19.23000 0.73100 25.24700
H  25.95100 0.87100 24.11200
H  28.10200 -1.18700 24.46200
H  26.11700 -1.76100 23.20300
H  25.03300 -0.43000 22.88400
H  24.57000 -1.60000 24.14600
H  28.49000 1.16700 23.38500
H  29.59500 0.73500 24.73200
H  29.03900 2.65000 25.57000
H  27.33900 2.18200 25.68700
H  27.93700 3.00000 24.28000
H  31.45300 -2.04300 27.99500
H  32.04700 -1.59800 29.73300
H  31.51000 -0.40000 28.45600
H  29.03300 0.13000 33.47800
H  29.73200 -3.01700 36.61700
H  28.72200 -3.92300 35.46300
H  27.98200 -2.65800 36.58300
Mg 47.82000 45.32400 42.74500
C  44.50400 44.25800 42.72500
C  48.71900 41.85400 42.60000
C  50.92600 46.13200 41.90700
C  46.73200 48.64500 42.60100
N  46.78300 43.33700 42.73200
C  45.43200 43.18000 42.71900
C  45.09700 41.68500 42.76500
C  46.41300 40.87800 42.91400
C  47.36100 42.07100 42.76500
C  46.58800 40.07400 44.30000
C  44.13300 41.04100 41.68400
C  44.74000 41.13900 40.19900
H  43.76900 41.00300 38.94400
N  49.60500 44.20200 42.39400
C  49.77200 42.80500 42.38400
C  51.23500 42.49100 42.24300
C  51.83600 43.71700 42.00100
C  50.85500 44.74900 42.08200
C  51.76900 41.10500 42.05400
C  53.29000 43.88700 41.62000
O  54.00200 42.89200 41.49900
C  53.91000 45.18900 41.41600
N  48.61800 47.03800 42.34000
C  49.97000 47.19000 42.05200
C  50.39100 48.66100 41.97900
C  49.20700 49.39500 42.52700
C  48.08500 48.30400 42.47500
C  51.68100 49.12900 42.67800
C  48.87000 50.68500 41.71600
C  48.55200 51.92200 42.54600
N  46.04000 46.26000 42.91100
C  45.68500 47.66800 42.65900
C  44.29700 47.79800 42.56800
C  43.74800 46.46500 42.69600
C  44.85700 45.59900 42.83600
C  43.49200 49.00400 42.16900
C  42.53400 45.71200 42.70900
O  41.34100 46.03800 42.61400
C  42.95900 44.18900 42.85200
C  42.37500 43.67900 44.15100
O  41.40500 42.90300 44.27200
O  42.89300 44.48400 45.12900
C  42.35200 44.43700 46.43600
H  49.03500 40.81300 42.69400
H  51.86500 46.60600 41.61400
H  46.44400 49.69400 42.69600
H  44.58300 41.61000 43.72400
H  46.66700 40.11600 42.17600
H  45.57400 40.01700 44.69400
H  47.15300 40.74700 44.94500
H  47.11700 39.12200 44.34000
H  43.08500 41.30700 41.82600
H  44.03900 39.98900 41.95500
H  45.37200 40.25300 40.26400
H  45.30300 42.05900 40.04700
H  52.24400 40.97400 41.08100
H  51.02100 40.34800 42.28800
H  52.63000 40.95800 42.70500
H  53.67800 45.64500 40.45300
H  54.98700 45.03800 41.48800
H  53.52700 45.80000 42.23400
H  50.49500 48.69900 40.89500
H  49.40500 49.65600 43.56700
H  51.63500 50.20200 42.86600
H  52.58900 48.86000 42.13700
H  51.76000 48.59700 43.62600
H  48.10900 50.40000 40.99000
H  49.71500 50.94300 41.07600
H  47.52800 52.27200 42.41800
H  49.10000 52.77900 42.15600
H  48.84900 51.73900 43.57900
H  42.61200 48.72700 41.58800
H  44.11900 49.69700 41.60800
H  43.25800 49.53800 43.08900
H  42.44500 43.67700 42.03900
H  41.52000 43.73700 46.51900
H  41.98600 45.38200 46.83600
H  43.21000 44.12700 47.03200

