158

Mg 15.68400 51.77100 25.83000
C  17.52200 50.93000 28.53200
C  13.01100 52.17200 27.91400
C  13.73300 52.02900 23.11800
C  18.36200 50.70200 23.77500
N  15.42500 51.77800 28.05600
C  16.35000 51.44300 28.96000
C  15.88800 51.83800 30.37900
C  14.33900 51.85200 30.14300
C  14.19800 51.96600 28.63400
C  13.61400 50.50500 30.70100
C  16.45600 53.16800 30.90500
C  16.63400 53.26800 32.44600
H  16.00700 52.31500 33.41900
N  13.65500 52.24400 25.54900
C  12.75100 52.24300 26.55500
C  11.41800 52.55600 25.92100
C  11.58700 52.38900 24.53200
C  13.06400 52.27100 24.31300
C  10.12900 52.68900 26.68600
C  10.54700 52.51000 23.42100
O  10.92300 52.43300 22.24400
C  9.13700 52.87700 23.76300
N  16.07100 51.51600 23.76100
C  15.09400 51.73400 22.88100
C  15.60500 51.62100 21.48400
C  17.15600 51.42700 21.69500
C  17.22100 51.19200 23.17000
C  14.99500 50.44100 20.67200
C  18.11500 52.66300 21.27400
C  18.96500 52.46200 20.06300
N  17.53600 50.80800 26.04100
C  18.56800 50.51100 25.15900
C  19.70400 49.90800 25.83000
C  19.34300 50.19600 27.17100
C  18.03800 50.66400 27.25200
C  20.97000 49.35200 25.23900
C  19.79500 49.94600 28.47600
O  20.86300 49.45900 28.79800
C  18.68200 50.50900 29.45900
C  18.26100 49.41600 30.42200
O  17.20000 48.71900 30.40400
O  19.19200 49.41100 31.45400
C  18.86900 48.69200 32.67600
H  12.13200 52.27000 28.55400
H  13.19200 52.17500 22.18100
H  19.17700 50.34300 23.14300
H  16.11400 51.15500 31.19800
H  13.86100 52.69100 30.64800
H  13.77700 50.55600 31.77800
H  14.18200 49.67500 30.28200
H  12.61800 50.45800 30.26100
H  15.84500 54.02100 30.61000
H  17.41600 53.22500 30.39300
H  16.35400 54.29400 32.68300
H  17.71000 53.30200 32.61400
H  10.25500 53.24300 27.61600
H  9.76800 51.68900 26.92700
H  9.27500 53.23400 26.28500
H  9.06800 53.86300 24.22400
H  8.66300 52.03600 24.27000
H  8.60700 52.96700 22.81400
H  15.37000 52.52700 20.92600
H  17.46500 50.47200 21.27000
H  14.43500 49.93300 21.45700
H  15.74800 49.81500 20.19300
H  14.28500 50.88600 19.97500
H  18.90900 52.81200 22.00600
H  17.58500 53.60400 21.12200
H  19.07000 51.46500 19.63500
H  19.99800 52.54400 20.40000
H  18.69700 53.13600 19.24800
H  21.31700 48.72200 26.05800
H  21.61300 50.21300 25.05800
H  20.80800 48.88600 24.26700
H  19.01000 51.45000 29.90100
H  19.13100 49.30100 33.54100
H  19.39700 47.73900 32.72000
H  17.79000 48.53700 32.70800
Mg -1.94000 34.15700 26.81600
C  -3.27500 32.55000 29.65200
C  -0.42200 36.46400 28.89100
C  -1.40600 36.21700 24.16000
C  -4.00400 32.15500 24.83900
N  -1.86300 34.44400 28.96400
C  -2.45600 33.64600 29.94700
C  -1.97200 33.98900 31.33100
C  -1.18200 35.35400 31.02500
C  -1.18900 35.47100 29.53500
C  -1.44800 36.66200 31.87000
C  -1.06600 32.88100 31.92900
C  -0.43400 33.33200 33.27500
H  -0.85200 32.40000 34.41600
N  -0.85800 35.99800 26.56000
C  -0.27300 36.72400 27.51300
C  0.43100 37.85700 26.85100
C  0.16300 37.77500 25.44300
C  -0.69600 36.58600 25.31100
C  1.04300 38.95200 27.64300
C  0.79800 38.56700 24.29000
O  0.65100 38.21400 23.13200
C  1.54300 39.84200 24.54200
N  -2.66800 34.22900 24.83300
C  -2.26500 35.09900 23.94900
C  -2.79200 34.77900 22.55700
C  -3.43500 33.39300 22.71800
C  -3.36500 33.20200 24.22900
C  -3.69400 35.96700 22.05600
C  -2.67700 32.22100 22.01600
C  -1.22700 31.82900 22.47100
N  -3.31200 32.60900 27.15400
C  -4.06900 31.91600 26.22700
C  -4.81100 30.84300 26.93000
C  -4.53000 31.07500 28.28800
C  -3.63900 32.14700 28.31900
C  -5.61600 29.75200 26.36900
C  -4.81100 30.59900 29.62800
O  -5.43900 29.58200 30.07900
C  -4.06800 31.63200 30.57600
C  -4.97400 32.36400 31.46300
O  -5.89400 33.13700 31.11500
O  -4.82200 31.80600 32.74700
C  -5.79500 32.31300 33.80200
H  0.13200 37.16700 29.51600
H  -1.17600 36.62200 23.17200
H  -4.63900 31.51200 24.22600
H  -2.77800 34.32000 31.98500
H  -0.11900 35.15600 31.16100
H  -2.05400 36.71400 32.77500
H  -1.64600 37.43200 31.12500
H  -0.44200 36.88800 32.22200
H  -0.30400 32.61400 31.19700
H  -1.56700 31.92500 32.07700
H  -0.65600 34.33700 33.63400
H  0.65000 33.26300 33.18900
H  0.44300 39.85100 27.50000
H  2.00200 39.17300 27.17400
H  1.06900 38.67900 28.69800
H  1.55500 40.36000 23.58400
H  2.50500 39.60100 24.99500
H  0.97800 40.38800 25.29800
H  -1.91700 34.64200 21.92200
H  -4.46200 33.51400 22.37400
H  -3.61600 36.79400 22.76000
H  -4.72900 35.68800 21.85900
H  -3.27300 36.28300 21.10100
H  -2.67300 32.44700 20.94900
H  -3.28000 31.31300 21.98400
H  -1.10300 30.77900 22.20300
H  -1.05200 32.03300 23.52700
H  -0.47600 32.36800 21.89400
H  -5.92200 29.07800 27.16900
H  -5.03900 29.21900 25.61400
H  -6.44200 30.33000 25.95400
H  -3.31100 31.11600 31.16600
H  -6.17000 31.40200 34.26800
H  -6.66200 32.86900 33.44500
H  -5.18600 32.88200 34.50500

