158

Mg 49.01500 35.07300 27.17300
C  46.82400 34.42000 29.84000
C  49.92000 38.00200 28.78100
C  50.86400 35.78300 24.59000
C  47.76900 32.18300 25.63300
N  48.52100 36.10100 29.14400
C  47.66200 35.58900 30.09600
C  47.55200 36.47700 31.32900
C  48.31300 37.79000 30.85200
C  49.00300 37.27900 29.50500
C  47.47600 39.08800 30.66300
C  48.23900 35.88500 32.63100
C  47.44500 35.77300 33.86600
H  47.60600 36.81900 34.99900
N  50.20400 36.69100 26.74800
C  50.50800 37.73000 27.55500
C  51.32300 38.70300 26.80000
C  51.67900 38.03600 25.62000
C  50.98400 36.77900 25.62000
C  51.77500 39.99000 27.33900
C  52.61100 38.54500 24.50900
O  52.85700 37.80300 23.54500
C  53.25700 39.93300 24.54800
N  49.28800 34.14200 25.25900
C  50.10900 34.63000 24.34600
C  50.18700 33.81400 23.10600
C  49.26600 32.56600 23.40900
C  48.79000 32.88800 24.85600
C  49.76800 34.59000 21.89600
C  49.93000 31.15400 23.42500
C  51.09900 30.77700 22.47300
N  47.43100 33.66700 27.50400
C  47.13900 32.51800 26.88400
C  46.07900 31.78000 27.63200
C  45.87100 32.59100 28.72900
C  46.74300 33.66400 28.64500
C  45.55800 30.38800 27.42500
C  45.16800 32.60200 29.98400
O  44.43100 31.74200 30.43000
C  45.70200 33.83500 30.71100
C  46.18800 33.27700 31.97300
O  47.29300 32.80000 32.13800
O  45.18100 33.30500 32.89500
C  45.46500 32.61700 34.18400
H  50.13600 38.93800 29.30000
H  51.43800 36.11500 23.72200
H  47.54000 31.24300 25.12700
H  46.53300 36.76500 31.58800
H  49.09400 38.07500 31.55700
H  46.46500 38.85900 31.00000
H  47.38400 39.45600 29.64100
H  47.91200 39.87300 31.28200
H  49.02500 36.57300 32.94200
H  48.79800 34.95500 32.52900
H  47.58100 34.83200 34.40000
H  46.39000 35.84400 33.60200
H  51.46700 40.76700 26.63900
H  52.85000 40.16500 27.34600
H  51.48600 40.20600 28.36800
H  52.42700 40.63800 24.51100
H  53.84000 39.97700 23.62900
H  53.90600 39.90500 25.42300
H  51.21200 33.44900 23.03000
H  48.39100 32.56100 22.76000
H  49.20000 35.47500 22.18200
H  49.07200 34.14100 21.18800
H  50.59300 35.01700 21.32500
H  49.05400 30.59300 23.09800
H  50.27100 30.94100 24.43800
H  51.18500 31.48000 21.64400
H  51.05500 29.75100 22.10900
H  51.93900 30.82200 23.16600
H  46.07200 30.02900 26.53400
H  44.55300 30.35300 27.00500
H  45.68500 29.70300 28.26300
H  44.88600 34.55100 30.81000
H  46.44800 32.16600 34.32400
H  44.60300 32.05400 34.54300
H  45.57600 33.47800 34.84300
Mg -2.27500 34.78900 27.03700
C  -3.87700 33.33400 29.78300
C  -0.80900 37.16500 29.26700
C  -0.79500 36.21600 24.39700
C  -3.86500 32.48400 24.87300
N  -2.50200 35.28000 29.24400
C  -3.15300 34.48600 30.18600
C  -2.71600 34.94200 31.63700
C  -1.83500 36.28300 31.33700
C  -1.70800 36.32500 29.83300
C  -2.34900 37.64100 31.97700
C  -1.91300 33.87400 32.44700
C  -1.41400 34.30100 33.93900
H  -1.67500 33.37900 35.06400
N  -0.92400 36.45600 26.86000
C  -0.43700 37.22500 27.87300
C  0.50800 38.13700 27.27400
C  0.47200 37.96800 25.85900
C  -0.47800 36.81900 25.64200
C  1.19900 39.20900 28.02000
C  1.28000 38.76500 24.72100
O  0.92800 38.69900 23.51400
C  2.31800 39.82500 25.03700
N  -2.15800 34.28300 24.89500
C  -1.60300 35.11200 24.01100
C  -1.93200 34.67300 22.60000
C  -2.51800 33.19200 22.88100
C  -2.97600 33.35700 24.26500
C  -2.84600 35.59700 21.83400
C  -1.50900 32.03800 22.60400
C  -0.53500 31.63800 23.70200
N  -3.74400 33.29500 27.20500
C  -4.15300 32.36000 26.26300
C  -4.94200 31.33400 27.03700
C  -4.81700 31.69900 28.39400
C  -4.07400 32.86000 28.43600
C  -5.58800 30.09000 26.43600
C  -5.17600 31.30900 29.65600
O  -5.91900 30.37400 30.05100
C  -4.49700 32.20200 30.63100
C  -5.43800 32.62400 31.70100
O  -6.26000 33.48500 31.53100
O  -5.27900 31.97000 32.94600
C  -6.51200 32.11000 33.77800
H  -0.39100 37.94200 29.91100
H  -0.36300 36.67600 23.50600
H  -4.27700 31.84200 24.09100
H  -3.61400 35.13600 32.22300
H  -0.86200 36.19800 31.82000
H  -2.26000 38.61600 31.49800
H  -1.77500 37.72200 32.90000
H  -3.35600 37.47100 32.35500
H  -1.04500 33.68500 31.81400
H  -2.56000 32.99800 32.49900
H  -1.86200 35.25700 34.21100
H  -0.32700 34.31500 33.86800
H  0.67900 40.15300 27.85300
H  2.24300 39.28800 27.71800
H  1.17400 39.05400 29.09800
H  2.08800 40.44700 25.90200
H  2.51300 40.38000 24.11900
H  3.27100 39.33400 25.23500
H  -1.06200 34.63100 21.94400
H  -3.27100 32.95000 22.13100
H  -3.74100 35.13200 21.42000
H  -2.25600 36.02500 21.02300
H  -3.20400 36.38700 22.49300
H  -0.88600 32.20600 21.72500
H  -1.98200 31.13000 22.23000
H  -0.69300 32.13200 24.66100
H  0.45100 31.77400 23.25700
H  -0.67700 30.56500 23.83200
H  -5.44500 29.24500 27.10900
H  -5.05900 29.85000 25.51300
H  -6.63300 30.39900 26.45700
H  -3.70000 31.61000 31.08000
H  -6.25900 32.05200 34.83700
H  -7.19400 31.27900 33.59600
H  -7.10200 33.02500 33.71900

