158

Mg 35.41400 2.99000 29.82700
C  33.12100 3.73000 32.30700
C  37.91100 2.94500 32.12300
C  37.62300 2.65000 27.21700
C  32.82700 3.07400 27.45900
N  35.58300 3.34500 31.94600
C  34.47100 3.57400 32.72700
C  34.89500 3.59000 34.16500
C  36.44900 3.69100 34.05200
C  36.72100 3.37200 32.60800
C  37.06000 5.00700 34.45700
C  34.35400 2.29600 34.99500
C  34.06700 2.34500 36.48100
H  34.70300 3.42400 37.29200
N  37.43800 2.84300 29.67800
C  38.34600 2.84600 30.69700
C  39.67100 2.71100 30.23100
C  39.59900 2.55300 28.79100
C  38.17000 2.66800 28.47700
C  40.83800 2.76000 31.14800
C  40.76700 2.25000 27.72200
O  40.66500 2.19300 26.49000
C  42.24500 2.25900 28.23900
N  35.27700 2.94400 27.67500
C  36.26700 2.70000 26.81600
C  35.76600 2.35900 25.46700
C  34.29700 2.60300 25.53100
C  34.07500 2.88200 27.00800
C  36.52700 3.06100 24.24300
C  33.34600 1.53200 24.91900
C  33.29000 0.05800 25.48500
N  33.37400 3.25600 29.82800
C  32.43100 3.32200 28.77800
C  31.09900 3.67500 29.32200
C  31.33900 3.80400 30.70500
C  32.72600 3.62700 30.95300
C  29.77000 3.84200 28.77100
C  30.69700 4.01300 32.00100
O  29.57400 4.39900 32.32700
C  31.87900 3.96900 33.07000
C  31.86700 5.18900 33.91000
O  31.94800 6.31700 33.46700
O  31.63100 4.82200 35.24200
C  31.64600 5.90500 36.27900
H  38.73900 2.88600 32.83300
H  38.35000 2.53800 26.41000
H  32.02700 3.20400 26.72700
H  34.54200 4.55900 34.52000
H  36.94800 2.98200 34.71200
H  37.71000 5.35200 33.65300
H  37.73200 5.05400 35.31400
H  36.29900 5.78100 34.55500
H  35.03700 1.45600 34.87300
H  33.42000 1.95900 34.54700
H  34.31600 1.35900 36.87200
H  32.99700 2.38500 36.68600
H  41.30600 1.78200 31.26600
H  40.55800 3.28600 32.06000
H  41.58300 3.32000 30.58100
H  42.41400 3.27600 28.59400
H  42.89700 1.97400 27.41400
H  42.41000 1.42600 28.92200
H  35.78300 1.27100 25.39600
H  34.00900 3.51800 25.01300
H  35.81000 3.40000 23.49600
H  37.19800 2.38600 23.71200
H  37.11100 3.94400 24.50100
H  33.55600 1.51200 23.84900
H  32.33400 1.93500 24.91200
H  33.71400 -0.53600 24.67600
H  32.31900 -0.36400 25.74600
H  33.95800 -0.01500 26.34300
H  29.88700 4.29900 27.78800
H  29.14200 4.49000 29.38200
H  29.22600 2.90000 28.69300
H  31.63200 3.09700 33.67500
H  30.68200 6.41000 36.22700
H  32.35700 6.67700 35.98700
H  31.82500 5.45500 37.25500
Mg 27.43300 49.72700 26.48400
C  25.18800 50.62900 29.12000
C  29.72800 49.02100 28.96900
C  29.59900 49.40700 24.05200
C  25.12500 51.00500 24.23300
N  27.41000 49.65100 28.72500
C  26.36200 50.04400 29.60600
C  26.72500 49.80600 31.07900
C  28.30800 49.38000 31.01500
C  28.49900 49.43400 29.45400
C  29.26800 50.24400 31.93100
C  25.71800 48.76700 31.75000
C  24.95300 49.31200 32.97100
H  25.06000 48.55000 34.25900
N  29.31300 49.09700 26.51400
C  30.11000 48.85900 27.59500
C  31.45200 48.56100 27.13200
C  31.44900 48.66900 25.71700
C  30.08100 49.07900 25.36100
C  32.60900 48.24500 28.07700
C  32.62900 48.52800 24.68700
O  32.47200 48.62200 23.51500
C  34.04400 48.19500 25.30200
N  27.42900 50.18500 24.50500
C  28.39400 49.84800 23.67100
C  28.08000 50.15400 22.22800
C  26.53200 50.60300 22.24800
C  26.33400 50.60600 23.77500
C  29.03400 51.15400 21.49000
C  25.60400 49.71300 21.34200
C  24.66900 48.64100 22.00200
N  25.55400 50.65600 26.58900
C  24.77000 51.09800 25.58100
C  23.51300 51.61200 26.15400
C  23.68900 51.51800 27.53200
C  24.92400 50.90700 27.75800
C  22.47300 52.20000 25.30000
C  23.04200 51.76100 28.79700
O  21.95200 52.21300 29.11000
C  24.03400 51.21400 29.84500
C  24.39300 52.24800 30.86600
O  25.16000 53.20200 30.64500
O  23.70400 52.12400 32.01500
C  23.92800 53.16700 33.08700
H  30.46500 48.86900 29.76000
H  30.31700 49.17400 23.26300
H  24.45000 51.42300 23.48300
H  26.56800 50.74900 31.60300
H  28.36100 48.30800 31.20900
H  28.73100 51.07600 32.38800
H  29.97400 50.72800 31.25600
H  29.80600 49.68000 32.69300
H  26.14100 47.77400 31.90700
H  24.98900 48.50200 30.98400
H  23.89700 49.45700 32.74100
H  25.37000 50.28400 33.23300
H  33.04900 47.32400 27.69300
H  32.23700 48.14400 29.09700
H  33.34600 49.04700 28.11400
H  34.28700 48.86200 26.12900
H  34.89400 48.19300 24.62000
H  34.06500 47.18800 25.71900
H  28.28200 49.15200 21.84700
H  26.43500 51.62500 21.88100
H  29.82600 51.54200 22.13000
H  28.48800 51.98500 21.04400
H  29.42300 50.64900 20.60500
H  26.15700 49.16000 20.58200
H  24.95300 50.32100 20.71300
H  24.87800 48.64600 23.07100
H  24.84600 47.68800 21.50400
H  23.62700 48.96000 22.01500
H  21.48600 52.31100 25.74800
H  22.31600 51.63700 24.38000
H  22.87200 53.17900 25.03300
H  23.50900 50.43000 30.39100
H  24.76100 52.90800 33.74000
H  23.04500 53.18100 33.72700
H  23.94700 54.14100 32.59900

