158

Mg -1.80400 17.12300 27.07400
C  -2.68200 14.96000 29.81600
C  -2.37000 19.71200 29.23700
C  -1.75600 19.10000 24.38500
C  -1.54100 14.27300 25.06900
N  -2.31600 17.21800 29.28900
C  -2.64700 16.29100 30.19300
C  -3.03700 16.86500 31.50000
C  -2.93000 18.43000 31.28300
C  -2.52700 18.45300 29.81200
C  -4.18000 19.24400 31.76400
C  -2.26100 16.31500 32.78500
C  -2.19400 17.19700 33.92700
H  -1.53500 16.55400 35.17100
N  -1.92400 19.11600 26.85200
C  -2.16500 20.02300 27.88700
C  -2.16400 21.35000 27.32300
C  -2.04000 21.20200 25.87000
C  -1.94000 19.75400 25.64500
C  -2.41700 22.57800 28.14000
C  -2.07200 22.21100 24.84000
O  -2.09200 21.96500 23.63300
C  -2.09900 23.68600 25.23700
N  -1.78700 16.75100 24.97900
C  -1.65700 17.76000 24.12400
C  -1.34500 17.24000 22.64800
C  -0.95800 15.68300 22.97100
C  -1.35300 15.54500 24.44100
C  -2.48800 17.37700 21.62900
C  0.52200 15.38400 22.59800
C  1.60400 15.29900 23.68200
N  -2.14800 15.00200 27.31900
C  -1.91700 14.03800 26.39600
C  -2.21600 12.73500 27.03500
C  -2.58400 13.05900 28.34600
C  -2.38900 14.43100 28.49700
C  -2.29000 11.41800 26.29400
C  -3.04900 12.53200 29.61500
O  -3.31900 11.39000 29.96600
C  -2.96500 13.70600 30.68100
C  -1.85400 13.39200 31.59800
O  -0.66600 13.37600 31.29700
O  -2.37900 13.05800 32.79900
C  -1.35200 12.96800 33.85900
H  -2.57500 20.46500 30.00100
H  -1.70200 19.78500 23.53600
H  -1.54600 13.45300 24.34800
H  -4.09600 16.64000 31.61700
H  -2.10700 18.76900 31.91300
H  -3.98100 19.95400 32.56700
H  -4.98800 18.57900 32.06800
H  -4.53500 19.90500 30.97400
H  -1.28300 15.88100 32.57900
H  -2.92800 15.57000 33.22000
H  -3.17600 17.63500 34.10600
H  -1.47100 17.97200 33.67000
H  -2.47300 22.29200 29.19000
H  -3.33100 23.06100 27.79300
H  -1.62100 23.31900 28.07200
H  -3.04900 23.95100 25.70200
H  -2.16000 24.33900 24.36700
H  -1.31300 24.01900 25.91500
H  -0.52400 17.83700 22.25200
H  -1.66900 14.99400 22.51500
H  -2.30600 16.53300 20.96400
H  -2.25500 18.33800 21.17000
H  -3.46600 17.34700 22.10900
H  0.92400 16.19800 21.99600
H  0.66400 14.48000 22.00600
H  1.14800 15.58300 24.63000
H  2.31300 16.10100 23.47400
H  2.10600 14.33400 23.62100
H  -1.65000 11.51300 25.41700
H  -3.27600 11.28700 25.84900
H  -1.93200 10.72000 27.05100
H  -3.90800 13.85700 31.20600
H  -0.88900 11.98100 33.85000
H  -1.78000 13.24700 34.82200
H  -0.54700 13.70300 33.88200
Mg 35.94500 49.47800 25.17100
C  36.39200 47.78400 28.30900
C  34.15600 51.79400 26.86600
C  35.20400 50.73600 22.22000
C  37.39400 46.72000 23.58500
N  35.24400 49.66900 27.31300
C  35.73700 48.98600 28.42200
C  35.42100 49.71700 29.70500
C  34.59200 50.97400 29.23600
C  34.67200 50.82000 27.72300
C  33.08600 50.98000 29.83500
C  36.73000 50.10200 30.39900
C  36.80400 49.84600 31.90600
H  35.52300 49.95400 32.78400
N  34.77100 50.96400 24.60700
C  34.11400 51.92400 25.48200
C  33.40300 52.88300 24.73400
C  33.67700 52.57100 23.35700
C  34.60500 51.40200 23.33900
C  32.35800 53.75200 25.32000
C  33.08400 53.14700 22.07600
O  33.43000 52.74000 20.94500
C  32.25000 54.42900 22.09600
N  36.14600 48.72100 23.18300
C  35.91500 49.48800 22.18000
C  36.38500 48.94500 20.82300
C  37.34500 47.78000 21.27000
C  36.89900 47.69300 22.74600
C  35.11800 48.50400 19.98700
C  38.81100 48.10700 20.96500
C  39.61300 47.07100 20.15000
N  36.61200 47.57900 25.74500
C  37.21900 46.60400 24.93500
C  37.70400 45.52800 25.78400
C  37.34500 45.92900 27.12500
C  36.72400 47.23400 27.02300
C  38.32000 44.24100 25.30700
C  37.50700 45.58400 28.52300
O  37.97900 44.61400 29.07600
C  36.87900 46.76000 29.29300
C  35.74200 46.19000 30.18000
O  34.62800 45.92100 29.82400
O  36.17900 46.07500 31.46500
C  35.06300 45.82400 32.39000
H  33.79700 52.63100 27.46900
H  35.01500 51.11800 21.21500
H  37.92200 45.87300 23.14300
H  34.74400 49.09200 30.28700
H  35.00900 51.95800 29.44600
H  32.43600 50.25100 29.35200
H  32.64200 51.97400 29.79000
H  33.12700 50.65000 30.87300
H  37.00400 51.15500 30.34100
H  37.58200 49.54700 30.00700
H  37.43900 50.66000 32.25700
H  37.22700 48.87700 32.17000
H  32.33800 54.73500 24.85100
H  32.59000 53.91300 26.37300
H  31.38100 53.30800 25.13000
H  32.71100 55.21100 22.70000
H  31.23700 54.19500 22.42400
H  32.14000 54.81200 21.08200
H  36.90900 49.62500 20.15200
H  37.09400 46.85800 20.74600
H  34.20600 48.63300 20.57000
H  35.15500 47.48600 19.59800
H  35.12600 49.02900 19.03300
H  39.35900 48.22900 21.90000
H  38.84200 49.12800 20.58300
H  39.06600 46.12800 20.17300
H  40.63600 46.95800 20.50800
H  39.57100 47.41200 19.11600
H  38.67600 44.31300 24.27900
H  37.55000 43.47200 25.35800
H  39.12200 43.95600 25.98800
H  37.55900 47.27300 29.97300
H  34.47300 44.94800 32.12100
H  34.27100 46.56000 32.25200
H  35.27200 45.63200 33.44300

