158

Mg 17.31300 -2.88600 28.45700
C  16.12300 -0.77500 31.06000
C  19.38200 -4.53600 30.83100
C  18.73200 -4.36900 25.95000
C  15.41400 -0.80700 26.25100
N  17.81700 -2.58300 30.71500
C  16.99300 -1.84500 31.55800
C  17.33300 -2.17100 33.03500
C  18.49600 -3.19600 32.98700
C  18.63300 -3.46600 31.43300
C  19.79200 -2.69600 33.74200
C  16.17200 -2.73300 33.89200
C  16.03700 -2.21500 35.32600
H  17.26500 -1.86900 36.12700
N  18.80600 -4.30100 28.35900
C  19.50700 -4.87700 29.42000
C  20.27900 -5.94700 28.83600
C  20.18200 -5.86200 27.39700
C  19.20700 -4.78800 27.16300
C  21.07500 -6.95400 29.60400
C  20.91100 -6.69600 26.25600
O  20.66200 -6.60600 25.02000
C  21.81200 -7.71500 26.58800
N  17.00900 -2.67900 26.40900
C  17.72500 -3.42900 25.55300
C  17.50100 -2.99400 24.06500
C  16.26700 -2.04100 24.17000
C  16.20200 -1.89200 25.75900
C  18.77800 -2.50000 23.40000
C  14.97300 -2.46900 23.41400
C  14.11600 -1.32700 22.78000
N  16.03900 -1.13700 28.56100
C  15.42500 -0.43000 27.59200
C  14.62500 0.54500 28.18600
C  14.92400 0.49100 29.53000
C  15.78100 -0.54500 29.74400
C  13.72700 1.42100 27.46100
C  14.63700 1.07400 30.79900
O  13.86300 1.98000 31.13900
C  15.47800 0.29800 31.89000
C  16.47400 1.20600 32.54600
O  17.14300 2.06100 32.06800
O  16.35200 1.09400 33.93700
C  16.78900 2.16600 34.78200
H  20.06900 -5.12700 31.44000
H  19.23300 -4.98400 25.19900
H  14.67300 -0.33100 25.60500
H  17.70500 -1.25800 33.50100
H  18.16900 -4.18900 33.29600
H  19.90500 -1.62100 33.87700
H  20.66600 -3.04800 33.19400
H  19.98100 -3.20600 34.68700
H  16.21000 -3.82200 33.90500
H  15.20800 -2.48100 33.44800
H  15.57000 -3.09900 35.76000
H  15.29800 -1.44100 35.11700
H  20.66100 -7.89800 29.24800
H  20.93400 -6.85900 30.68100
H  22.11800 -6.85200 29.30600
H  22.15000 -8.26600 25.71000
H  21.32500 -8.40200 27.27900
H  22.77600 -7.41100 26.99700
H  17.20400 -3.88400 23.50900
H  16.66600 -1.07200 23.86800
H  18.52900 -1.67400 22.73400
H  19.25500 -3.35600 22.92100
H  19.37100 -2.11200 24.22800
H  14.46700 -3.06600 24.17300
H  15.21700 -3.23800 22.68100
H  13.18900 -1.11200 23.31300
H  13.99600 -1.46300 21.70500
H  14.69100 -0.40800 22.88700
H  13.50800 2.31300 28.04900
H  12.76600 0.91800 27.35900
H  14.12100 1.70200 26.48500
H  14.73700 -0.09700 32.58500
H  17.02100 1.75900 35.76600
H  15.87300 2.72400 34.97800
H  17.51000 2.83300 34.31000
Mg 52.49900 24.54300 45.57100
C  50.18500 26.89600 44.20800
C  50.80200 22.14600 43.86400
C  55.09000 22.42600 45.93800
C  54.45500 27.24800 46.55500
N  50.82700 24.60500 43.97100
C  49.94500 25.63400 43.70900
C  48.77300 25.14600 42.78200
C  48.65800 23.67500 43.31100
C  50.19400 23.42000 43.69500
C  47.73100 23.38400 44.52800
C  49.14500 25.29500 41.29200
C  47.90600 25.43400 40.34900
H  48.00900 24.52900 39.10800
N  52.81500 22.54300 45.13600
C  52.02600 21.74100 44.42500
C  52.41800 20.35000 44.56300
C  53.63400 20.41700 45.34100
C  53.87200 21.83600 45.56000
C  51.63400 19.14400 43.92200
C  54.52900 19.23800 45.75000
O  54.24300 18.12100 45.34500
C  55.59600 19.42000 46.76800
N  54.43200 24.82200 46.08400
C  55.34800 23.77200 46.25900
C  56.69600 24.28300 46.78700
C  56.44200 25.80700 47.03300
C  55.03000 25.98500 46.52500
C  57.20000 23.47700 48.02100
C  57.39700 26.77200 46.28400
C  58.93700 26.42200 45.99300
N  52.25100 26.58500 45.74600
C  53.12800 27.51100 46.18100
C  52.44800 28.75500 46.26500
C  51.28100 28.62700 45.46300
C  51.26400 27.29900 45.11100
C  53.01400 30.04100 46.93600
C  50.12800 29.28000 44.94500
O  49.82000 30.47400 44.93500
C  49.35900 28.18200 44.12200
C  49.16700 28.78600 42.73900
O  49.98700 29.07400 41.87000
O  47.81400 28.84800 42.49500
C  47.43500 29.64700 41.29400
H  50.14900 21.27700 43.76300
H  56.01100 21.84500 46.02500
H  54.92300 28.12900 47.00000
H  47.88800 25.70600 43.08400
H  48.39700 22.94900 42.54000
H  48.38200 23.15900 45.37300
H  47.06500 22.53300 44.38700
H  47.16800 24.27500 44.80400
H  49.72600 24.43900 40.94900
H  49.69400 26.23400 41.21200
H  47.85100 26.49600 40.10800
H  46.95800 25.30100 40.87000
H  50.87300 18.82300 44.63300
H  52.27900 18.30100 43.67800
H  51.07200 19.38000 43.01800
H  56.58200 19.56800 46.32900
H  55.47900 18.48800 47.32100
H  55.32000 20.24300 47.42700
H  57.45000 24.17200 46.00800
H  56.38400 26.05400 48.09300
H  58.02900 22.77800 47.91500
H  56.34000 22.84500 48.24100
H  57.37200 24.15400 48.85800
H  57.47900 27.63300 46.94600
H  56.86000 27.00700 45.36500
H  59.17800 26.54300 44.93700
H  59.09400 25.38200 46.27900
H  59.54400 27.08900 46.60600
H  52.72600 29.96500 47.98500
H  52.56000 30.88000 46.40900
H  54.09000 30.15200 46.80200
H  48.42000 28.12300 44.67200
H  46.84600 29.00200 40.64200
H  48.30900 29.90700 40.69700
H  46.80900 30.49600 41.57200

