158

Mg 34.94900 1.23900 30.10700
C  32.72900 2.10900 32.68300
C  37.48200 1.14900 32.35100
C  36.97400 0.46000 27.59800
C  32.29200 1.85100 27.79000
N  35.09800 1.74200 32.28300
C  34.06700 1.91000 33.18000
C  34.58400 1.96100 34.66400
C  36.13700 1.97700 34.45200
C  36.30100 1.65700 32.93100
C  36.99400 3.22500 34.90800
C  33.97500 0.89700 35.56600
C  33.65800 1.40900 37.01300
H  34.57600 2.56800 37.65400
N  36.97700 0.88700 29.97200
C  37.87200 0.84000 30.99400
C  39.19600 0.46700 30.48600
C  39.03600 0.21300 29.12300
C  37.63700 0.52600 28.81600
C  40.47800 0.64500 31.21400
C  40.04100 -0.35500 28.16000
O  39.83200 -0.39600 26.93600
C  41.47100 -0.70100 28.60800
N  34.66000 1.24500 28.00100
C  35.68800 0.77800 27.23400
C  35.20500 0.65600 25.73100
C  33.74600 1.23200 25.73300
C  33.52500 1.46400 27.20100
C  36.07700 1.48800 24.72700
C  32.70600 0.27100 24.99300
C  31.98400 0.89200 23.83700
N  32.94700 1.69300 30.20400
C  32.03000 2.03100 29.16500
C  30.80100 2.45000 29.80200
C  31.05200 2.46300 31.13900
C  32.31200 1.92800 31.38700
C  29.55000 2.94100 29.15600
C  30.41300 2.67200 32.35100
O  29.32800 3.08400 32.59600
C  31.48400 2.40600 33.48100
C  31.55300 3.68300 34.24300
O  31.99500 4.73000 33.84900
O  30.88900 3.49100 35.43500
C  31.04000 4.55300 36.41400
H  38.20700 0.82400 33.10000
H  37.59200 0.03100 26.80800
H  31.59000 2.16100 27.01300
H  34.36900 2.94300 35.08400
H  36.62600 1.10800 34.89300
H  36.21500 3.95700 35.12100
H  37.68300 3.54700 34.12700
H  37.65300 2.91700 35.72000
H  34.77100 0.15300 35.57100
H  33.12100 0.35300 35.16200
H  33.32600 0.61200 37.67900
H  32.69800 1.89800 36.84300
H  41.22100 1.09500 30.55400
H  40.84800 -0.32100 31.55700
H  40.34300 1.33300 32.04800
H  41.38100 -1.30900 29.50800
H  42.06800 0.20400 28.72400
H  41.88400 -1.22300 27.74500
H  35.22100 -0.38200 25.39700
H  33.68700 2.22300 25.28300
H  36.15100 1.09600 23.71300
H  37.09100 1.48100 25.12700
H  35.89100 2.56000 24.65700
H  31.98100 -0.02000 25.75300
H  33.13100 -0.70200 24.74600
H  32.13000 0.17200 23.03300
H  32.31400 1.91200 23.63600
H  30.94400 1.07000 24.11200
H  29.78100 3.37700 28.18300
H  29.19300 3.73100 29.81700
H  28.83400 2.13500 28.99700
H  31.14400 1.56600 34.08700
H  30.17500 4.53900 37.07800
H  31.15800 5.52900 35.94400
H  31.94600 4.38800 36.99700
Mg -4.93900 25.15000 25.82600
C  -3.17300 26.68700 28.53900
C  -6.15900 22.95200 28.17700
C  -6.58500 23.67400 23.34900
C  -3.43600 27.40600 23.68600
N  -4.85700 25.00900 28.14400
C  -4.04400 25.72000 28.98200
C  -4.40400 25.39400 30.41600
C  -5.13500 24.00600 30.30300
C  -5.31800 23.93600 28.74900
C  -4.44600 22.81700 31.00600
C  -5.12900 26.50100 31.15200
C  -4.74000 26.80900 32.68500
H  -4.47700 25.47400 33.39400
N  -6.15300 23.47000 25.74900
C  -6.51800 22.74800 26.83200
C  -7.47100 21.74900 26.36200
C  -7.68000 21.95200 24.93700
C  -6.81700 23.07100 24.61300
C  -8.08100 20.64300 27.24200
C  -8.48600 21.20500 23.93700
O  -8.38600 21.39400 22.72200
C  -9.24100 20.02600 24.33800
N  -4.75500 25.34200 23.78400
C  -5.63800 24.66000 22.98400
C  -5.70800 25.26200 21.52700
C  -4.71000 26.45100 21.61600
C  -4.27200 26.40200 23.11000
C  -5.37500 24.28000 20.37800
C  -5.25200 27.89200 21.37400
C  -6.20600 28.20500 20.12900
N  -3.52100 26.68400 26.02900
C  -3.04200 27.49500 25.00300
C  -2.08400 28.42400 25.63600
C  -2.14300 28.12400 26.95900
C  -3.01700 27.11100 27.22200
C  -1.28200 29.48800 24.94600
C  -1.63200 28.50700 28.30300
O  -0.88900 29.43200 28.59800
C  -2.30000 27.58300 29.34100
C  -1.27000 26.79900 30.10000
O  -0.35700 26.15600 29.60000
O  -1.37300 26.86200 31.45700
C  -0.44100 26.08700 32.27700
H  -6.64500 22.32300 28.92500
H  -7.23200 23.24400 22.58100
H  -2.93900 28.11300 23.01800
H  -3.44800 25.34300 30.93600
H  -6.10800 24.01800 30.79300
H  -5.13500 22.32600 31.69300
H  -3.48700 22.97500 31.50000
H  -4.23300 22.02200 30.29100
H  -6.19100 26.26600 31.08700
H  -4.94400 27.49200 30.73700
H  -5.61800 27.27900 33.12900
H  -3.89900 27.48500 32.83900
H  -9.17000 20.65500 27.20300
H  -7.91900 20.78900 28.31000
H  -7.69600 19.68300 26.89800
H  -8.47300 19.36500 24.73900
H  -9.61000 19.50000 23.45700
H  -9.96700 20.29700 25.10400
H  -6.72500 25.61200 21.34700
H  -3.86600 26.15700 20.99100
H  -4.62700 23.62200 20.82000
H  -4.99900 24.70100 19.44500
H  -6.16500 23.57800 20.11400
H  -4.38100 28.52200 21.19800
H  -5.81700 28.41500 22.14600
H  -6.39700 27.29000 19.56800
H  -5.67800 28.86900 19.44500
H  -7.14900 28.67200 20.41300
H  -1.89700 29.92700 24.16000
H  -0.45000 29.03800 24.40600
H  -0.89900 30.31800 25.54000
H  -2.82100 28.23900 30.03700
H  0.48300 26.66400 32.33100
H  -0.14700 25.15000 31.80500
H  -0.75000 25.90000 33.30500

