158

Mg 40.95600 8.81400 29.38900
C  42.78500 10.22600 32.11800
C  38.91500 7.23600 31.69000
C  39.28800 7.43200 26.90900
C  43.56900 9.70700 27.25200
N  40.74300 8.96000 31.65900
C  41.65800 9.47900 32.55400
C  41.37700 9.03300 33.95300
C  40.35400 7.85300 33.70100
C  39.98700 8.01000 32.27100
C  40.73800 6.40300 34.15500
C  40.85800 10.16700 34.91400
C  40.47500 9.63200 36.27500
H  41.24600 10.29200 37.50100
N  39.21100 7.71900 29.27900
C  38.50300 7.19700 30.32900
C  37.37100 6.34400 29.83800
C  37.35700 6.61300 28.40700
C  38.66900 7.20300 28.11300
C  36.58300 5.48900 30.75700
C  36.31900 6.34700 27.42900
O  36.51300 6.38900 26.23200
C  34.94400 6.05800 27.79200
N  41.44400 8.53400 27.39800
C  40.50800 8.01600 26.53000
C  40.95800 8.23600 25.02000
C  42.38100 8.94400 25.17500
C  42.48300 9.13100 26.68900
C  41.08400 6.99600 24.12900
C  42.52100 10.33700 24.37100
C  41.84000 11.50400 24.96300
N  42.75100 9.82400 29.57200
C  43.75900 10.08100 28.60000
C  44.84900 10.83700 29.21700
C  44.49000 11.00400 30.57500
C  43.24200 10.33200 30.75300
C  46.10200 11.37800 28.55400
C  44.95900 11.49700 31.91200
O  45.94700 12.16200 32.21000
C  43.88300 11.00100 32.97100
C  44.63000 10.02900 33.94900
O  44.92100 8.90400 33.78100
O  44.85300 10.72600 35.13100
C  45.66900 10.03100 36.12400
H  38.31300 6.71300 32.43500
H  38.72200 7.26800 25.99000
H  44.39700 10.02400 26.61500
H  42.29200 8.69200 34.43800
H  39.40500 8.06800 34.19300
H  41.74700 6.55900 34.53800
H  40.75900 5.56300 33.46000
H  40.29100 6.16800 35.12000
H  40.02800 10.57200 34.33600
H  41.68400 10.87600 34.94900
H  40.69500 8.57000 36.38900
H  39.42200 9.90900 36.32600
H  36.93200 5.30100 31.77300
H  36.38500 4.49000 30.36900
H  35.61500 5.98600 30.81900
H  34.96500 5.34700 28.61700
H  34.51000 5.66800 26.87100
H  34.40800 6.99900 27.91500
H  40.22400 8.89400 24.55300
H  43.20400 8.26500 24.95100
H  42.04500 6.85400 23.63700
H  40.38000 7.23400 23.33100
H  40.80900 6.10000 24.68500
H  42.19000 10.29000 23.33300
H  43.59100 10.51600 24.26400
H  42.42100 12.38400 25.23700
H  41.19700 11.18200 25.78200
H  41.05400 11.82300 24.27900
H  45.90900 11.59300 27.50300
H  46.83400 10.59600 28.75900
H  46.46100 12.26000 29.08500
H  43.59200 11.91900 33.48200
H  45.24200 9.11900 36.54400
H  46.08100 10.55800 36.98500
H  46.56400 9.69500 35.60000
Mg -1.80700 34.83000 27.16000
C  -3.82100 33.12300 29.27300
C  -0.77200 36.97900 29.47600
C  -0.03100 36.57000 24.77800
C  -2.84100 32.64600 24.45200
N  -2.37200 35.00600 29.07200
C  -3.01200 34.08800 29.86100
C  -2.78400 34.38300 31.36200
C  -2.02500 35.75400 31.37300
C  -1.69400 35.97600 29.87300
C  -3.13000 36.83200 31.94600
C  -1.96900 33.25700 31.95900
C  -2.11900 32.98700 33.47800
H  -2.51400 34.12000 34.46000
N  -0.44600 36.43300 27.15100
C  -0.24400 37.20800 28.24100
C  0.62300 38.31000 27.86800
C  0.97800 38.19400 26.49200
C  0.22300 36.98600 26.07400
C  0.90100 39.45700 28.79200
C  1.76900 39.03300 25.52600
O  2.11200 38.62200 24.38400
C  2.46500 40.31200 26.07300
N  -1.38300 34.60900 24.92500
C  -0.62500 35.47700 24.23600
C  -0.48500 35.02900 22.74200
C  -1.44100 33.87700 22.67200
C  -1.90300 33.67600 24.08000
C  -0.73000 36.11700 21.63000
C  -0.84200 32.58000 22.08400
C  0.32400 32.04000 22.93100
N  -3.13500 33.25900 26.83300
C  -3.45600 32.48800 25.70200
C  -4.35100 31.44000 26.11000
C  -4.56500 31.67400 27.50000
C  -3.82000 32.79600 27.91800
C  -5.02200 30.32900 25.23300
C  -5.30700 31.19900 28.65500
O  -6.15100 30.32300 28.80100
C  -4.62700 32.05700 29.85800
C  -5.70400 32.60500 30.64900
O  -6.51500 33.44900 30.29600
O  -5.55700 32.32700 31.97100
C  -6.69000 32.74000 32.85100
H  -0.39000 37.63200 30.26400
H  0.49200 37.11500 23.99000
H  -3.08300 31.88600 23.70600
H  -3.80400 34.48200 31.73300
H  -1.10100 35.79000 31.94900
H  -2.79000 37.20100 32.91400
H  -4.12500 36.41100 32.08600
H  -3.05800 37.74400 31.35300
H  -0.93900 33.17200 31.61300
H  -2.37900 32.34900 31.51700
H  -1.09900 32.69600 33.73100
H  -2.86900 32.23800 33.73200
H  1.70900 40.13300 28.51600
H  1.06900 39.16900 29.83000
H  -0.02800 40.02700 28.77100
H  1.65500 40.93200 26.45600
H  2.99700 40.80100 25.25600
H  3.17900 39.95100 26.81300
H  0.54500 34.68600 22.64600
H  -2.32200 34.18400 22.10700
H  -1.38200 35.78700 20.82100
H  0.20600 36.03600 21.07700
H  -0.95200 37.15800 21.86400
H  -0.40400 32.72200 21.09500
H  -1.56100 31.80100 21.83100
H  0.46800 32.52000 23.89900
H  1.22000 32.15600 22.32200
H  0.31000 30.99600 23.24300
H  -5.19500 30.60600 24.19300
H  -5.99400 30.13400 25.68600
H  -4.43500 29.41100 25.27900
H  -3.98200 31.46700 30.50800
H  -6.32900 33.63500 33.35700
H  -6.85400 31.87100 33.48900
H  -7.65200 32.99100 32.40400

