158

Mg 26.10500 50.51400 27.55400
C  23.85600 51.91600 29.89900
C  28.21400 49.77800 29.99100
C  28.30600 49.74500 25.16200
C  23.93300 51.95800 25.00900
N  25.93100 50.72200 29.77900
C  25.00500 51.33200 30.56700
C  25.21100 51.02800 32.09000
C  26.69100 50.42200 32.04200
C  27.00100 50.34300 30.54500
C  27.86000 51.12300 32.84500
C  24.16000 50.10100 32.80600
C  23.78800 50.45600 34.24100
H  24.80600 50.76500 35.27500
N  28.02300 49.62100 27.59700
C  28.75300 49.51300 28.68100
C  30.09200 49.03900 28.35400
C  30.11700 48.90200 26.88800
C  28.77700 49.41000 26.45700
C  31.20600 48.86000 29.38700
C  31.24000 48.34300 25.98300
O  31.14100 48.37800 24.79800
C  32.41600 47.47400 26.55400
N  26.19100 50.91300 25.38100
C  27.16900 50.36800 24.60600
C  26.75000 50.40200 23.14000
C  25.23700 50.73300 23.22800
C  25.10000 51.27500 24.65600
C  27.73500 51.21100 22.37000
C  24.20200 49.64800 22.77900
C  24.25700 49.02700 21.38000
N  24.32800 51.80300 27.41800
C  23.56000 52.23200 26.37200
C  22.39100 52.88900 26.82500
C  22.51600 52.83200 28.24000
C  23.70700 52.14600 28.52900
C  21.27400 53.30100 25.87600
C  21.86200 53.24400 29.46700
O  20.76700 53.71800 29.76200
C  22.67500 52.60400 30.61400
C  23.07100 53.70700 31.57100
O  23.82900 54.59800 31.43400
O  22.42800 53.36400 32.75800
C  22.74900 54.27000 33.88000
H  28.95200 49.56300 30.76700
H  28.97800 49.63600 24.30800
H  23.33100 52.27200 24.15400
H  25.14900 51.99600 32.58700
H  26.59100 49.42700 32.47600
H  28.79000 51.14500 32.27700
H  27.94100 50.89900 33.90800
H  27.46300 52.13800 32.88600
H  24.51200 49.08200 32.96500
H  23.24800 49.95000 32.22800
H  23.17300 49.68500 34.70500
H  23.17500 51.35700 34.25800
H  32.22200 48.68600 29.03400
H  31.08500 47.89000 29.87000
H  31.19200 49.66900 30.11700
H  33.14100 48.22500 26.86900
H  32.68600 46.92100 25.65500
H  31.96200 46.85600 27.32900
H  26.68100 49.37300 22.78800
H  25.05400 51.60000 22.59300
H  27.39500 52.19300 22.04000
H  27.92600 50.61000 21.48100
H  28.73000 51.27300 22.81100
H  23.26500 50.19800 22.86600
H  24.13100 48.87000 23.53800
H  24.36900 47.95500 21.54800
H  25.05500 49.42600 20.75500
H  23.36300 49.38500 20.86800
H  21.12000 52.52500 25.12500
H  21.45300 54.26400 25.39800
H  20.47400 53.47500 26.59500
H  22.07100 51.86200 31.13700
H  22.97300 55.29700 33.59100
H  23.61900 53.80400 34.34300
H  21.94900 54.25800 34.62000
Mg -4.65400 25.79100 25.79500
C  -3.76200 27.62500 28.64600
C  -6.12900 23.44300 27.61900
C  -5.18100 24.03400 22.99500
C  -2.69100 28.05600 23.90300
N  -4.76100 25.56000 27.90500
C  -4.51900 26.47900 28.93300
C  -5.00700 25.96700 30.33100
C  -5.64100 24.62400 29.90600
C  -5.52700 24.51800 28.33700
C  -4.99200 23.39800 30.54100
C  -6.06300 27.01000 30.96200
C  -6.40500 26.65600 32.44500
H  -5.73900 25.43800 33.13600
N  -5.59800 23.99000 25.40300
C  -6.27300 23.30800 26.23400
C  -7.09500 22.32100 25.59500
C  -6.72200 22.34200 24.20600
C  -5.81600 23.54500 24.15700
C  -8.07100 21.47000 26.43900
C  -7.19000 21.60500 23.06800
O  -6.75500 21.61600 21.91200
C  -8.33600 20.63800 23.30400
N  -4.11700 26.04700 23.64300
C  -4.35100 25.14300 22.76600
C  -3.61300 25.42400 21.45000
C  -2.86100 26.83300 21.62000
C  -3.26500 27.04800 23.15700
C  -2.64500 24.23300 20.94500
C  -3.48700 27.97300 20.72900
C  -4.93500 28.44400 21.07500
N  -3.48500 27.47900 26.13900
C  -2.71000 28.26200 25.25500
C  -2.06400 29.24200 26.04000
C  -2.48100 29.08000 27.35100
C  -3.30900 27.98200 27.40300
C  -1.21400 30.39000 25.55100
C  -2.34300 29.62300 28.65300
O  -1.61200 30.55100 29.08100
C  -3.13400 28.71100 29.59500
C  -2.21100 28.03500 30.60200
O  -1.06600 27.69100 30.41800
O  -2.80500 27.75500 31.83100
C  -2.08300 26.90400 32.83700
H  -6.64000 22.79700 28.33700
H  -5.27200 23.38200 22.12400
H  -2.09200 28.63100 23.19400
H  -4.17400 25.71200 30.98600
H  -6.69100 24.53300 30.18400
H  -5.78700 22.84500 31.04100
H  -4.13500 23.50700 31.20500
H  -4.66400 22.63400 29.83700
H  -6.87200 27.07500 30.23500
H  -5.64500 28.01600 30.93200
H  -7.45200 26.36700 32.34800
H  -6.38700 27.49000 33.14700
H  -7.96100 20.41700 26.18000
H  -9.11600 21.77600 26.39700
H  -7.84600 21.46400 27.50500
H  -8.63600 20.25500 22.32900
H  -9.19700 21.13600 23.75000
H  -7.93000 19.88000 23.97400
H  -4.34000 25.64600 20.66900
H  -1.77800 26.77900 21.51200
H  -1.61400 24.56200 21.07500
H  -2.92500 23.98000 19.92300
H  -2.91500 23.39800 21.59200
H  -3.38300 27.69000 19.68200
H  -2.86800 28.86600 20.81400
H  -5.36000 28.39300 20.07300
H  -4.83900 29.42700 21.53700
H  -5.38700 27.77400 21.80600
H  -0.67500 30.19100 24.62500
H  -0.43500 30.56900 26.29200
H  -1.70300 31.35300 25.40100
H  -3.91600 29.30400 30.07000
H  -1.01500 27.08800 32.95100
H  -2.18900 25.91300 32.39700
H  -2.65700 27.01400 33.75700

