158

Mg 41.66900 8.54100 29.62900
C  43.54500 9.68800 32.43300
C  39.15200 7.69100 31.76100
C  40.02900 7.21000 26.93900
C  44.36600 9.42800 27.66100
N  41.45800 8.38100 31.92000
C  42.31900 9.01900 32.87600
C  41.70700 8.89000 34.31300
C  40.34800 8.10300 34.08100
C  40.25600 8.11000 32.47200
C  40.18900 6.66400 34.68200
C  41.41400 10.27600 34.87200
C  40.44900 10.23600 36.06300
H  40.77600 11.22500 37.14700
N  39.89800 7.48000 29.40100
C  38.96500 7.36600 30.38500
C  37.79300 6.82600 29.75400
C  37.94200 6.78300 28.31800
C  39.29800 7.22100 28.15900
C  36.60100 6.35100 30.51500
C  36.98000 6.31700 27.21100
O  37.35100 6.15700 26.06500
C  35.55700 6.06400 27.51000
N  42.13800 8.27100 27.64000
C  41.30600 7.69100 26.64600
C  41.90500 7.74300 25.16800
C  43.16200 8.71600 25.50700
C  43.20200 8.89700 27.07300
C  42.23700 6.36200 24.48100
C  43.11900 10.03600 24.69900
C  42.51200 11.32700 25.37300
N  43.59700 9.34400 29.91000
C  44.57600 9.68800 29.03300
C  45.64600 10.23200 29.62600
C  45.28500 10.25000 30.96700
C  44.00800 9.73900 31.10600
C  46.94900 10.62000 28.92000
C  45.73000 10.74000 32.25700
O  46.74000 11.36400 32.57900
C  44.62900 10.24200 33.28900
C  45.17800 9.46700 34.45700
O  46.12400 8.65700 34.43700
O  44.43400 9.76000 35.59200
C  44.65700 8.87600 36.71100
H  38.34400 7.44800 32.45400
H  39.58100 6.69900 26.08400
H  45.09600 9.72800 26.90600
H  42.39200 8.35400 34.97000
H  39.52400 8.77200 34.32900
H  39.40100 6.62800 35.43400
H  41.03700 6.36000 35.29500
H  40.18200 5.90400 33.90100
H  40.94100 10.80600 34.04500
H  42.24000 10.92000 35.17200
H  40.33100 9.24300 36.49600
H  39.47400 10.61300 35.75500
H  36.70300 6.47500 31.59300
H  36.50900 5.30500 30.22200
H  35.70000 6.84000 30.14600
H  35.12900 5.83600 26.53400
H  35.18200 6.95600 28.01200
H  35.51200 5.17300 28.13600
H  41.18700 8.20100 24.48800
H  44.05300 8.11500 25.32000
H  43.30500 6.25900 24.28900
H  41.81100 6.28900 23.48000
H  41.99300 5.43000 24.99000
H  42.55000 9.95900 23.77300
H  44.13100 10.35400 24.44900
H  41.97100 10.94800 26.24100
H  41.78900 11.84600 24.74200
H  43.28200 12.07100 25.58000
H  47.85200 10.29800 29.43800
H  47.00600 11.69900 29.06100
H  47.09800 10.15500 27.94600
H  44.24300 11.17800 33.69300
H  44.18200 9.33600 37.57800
H  45.71600 8.70000 36.89400
H  44.23300 7.88400 36.55300
Mg 26.40400 49.56500 25.61600
C  24.57400 50.94100 28.33100
C  28.65900 48.40300 28.02100
C  28.15600 48.31200 23.17800
C  24.03100 50.90300 23.42600
N  26.56600 49.76600 27.99500
C  25.67100 50.27300 28.83500
C  25.97500 49.93000 30.27400
C  27.40100 49.28900 30.15900
C  27.52400 49.06300 28.63000
C  28.67100 50.07300 30.65000
C  24.85100 49.09600 30.98900
C  25.33200 48.32600 32.29700
H  24.70400 48.52300 33.64000
N  28.25600 48.43400 25.59200
C  29.02000 48.09200 26.65700
C  30.24600 47.36200 26.09100
C  30.10000 47.34200 24.63400
C  28.81900 48.06800 24.41400
C  31.36000 46.88200 26.98100
C  31.11700 46.86700 23.53900
O  30.88100 47.13000 22.35000
C  32.44600 46.24100 23.85400
N  26.14500 49.65700 23.51600
C  26.97000 48.86700 22.78800
C  26.47000 48.89900 21.26900
C  25.07400 49.58900 21.42900
C  25.10000 50.17800 22.83300
C  27.41100 49.50200 20.18000
C  23.82500 48.73300 21.07500
C  23.60700 47.50000 21.96300
N  24.72300 50.79800 25.78200
C  23.85400 51.32600 24.80300
C  22.88000 52.13000 25.49100
C  23.09400 51.94100 26.86700
C  24.24800 51.17600 26.97300
C  21.74600 52.85500 24.82600
C  22.55600 52.24800 28.15500
O  21.51000 52.74700 28.51500
C  23.53500 51.57700 29.16800
C  24.04200 52.58400 30.10900
O  24.84600 53.41400 29.78900
O  23.51500 52.37600 31.35600
C  23.96500 53.33200 32.36400
H  29.38000 47.98800 28.72900
H  28.63100 47.76700 22.35900
H  23.28700 51.28700 22.72600
H  25.98600 50.88500 30.79800
H  27.48200 48.34200 30.69300
H  29.17700 50.38300 29.73600
H  29.21800 49.27000 31.14400
H  28.37700 50.90000 31.29600
H  24.33000 48.47300 30.26100
H  24.08900 49.81700 31.28500
H  26.35400 48.66300 32.46500
H  25.39100 47.26700 32.04500
H  32.33900 46.70900 26.53300
H  30.89800 46.09000 27.57100
H  31.48700 47.73100 27.65300
H  32.83200 45.71300 22.98200
H  32.15600 45.46500 24.56200
H  33.19700 46.89700 24.29300
H  26.21800 47.88500 20.95900
H  25.04000 50.44300 20.75300
H  26.98000 50.36200 19.66700
H  27.45000 48.77300 19.37000
H  28.38900 49.59500 20.65100
H  23.74800 48.45500 20.02400
H  22.93700 49.33600 21.26400
H  24.07800 47.73600 22.91700
H  24.21600 46.66000 21.62900
H  22.52900 47.36600 22.05100
H  22.12800 53.47700 24.01700
H  21.17000 53.42300 25.55700
H  21.08400 52.08600 24.42800
H  22.94300 50.82500 29.69000
H  23.60500 52.89300 33.29400
H  23.59900 54.35800 32.32900
H  25.04700 53.30500 32.49400

