158

Mg 24.31700 -5.50500 45.94000
C  26.60700 -3.24700 44.48700
C  21.99100 -4.15200 43.85500
C  22.69000 -8.28800 46.21900
C  27.17300 -7.09500 47.43100
N  24.34400 -4.01200 44.32900
C  25.30600 -3.10700 44.00600
C  24.79500 -2.04100 43.03100
C  23.32600 -2.08600 43.30100
C  23.19400 -3.52600 43.81500
C  22.79800 -1.07800 44.22900
C  25.17000 -2.34900 41.59300
C  25.05000 -1.23400 40.58000
H  25.10300 -1.45900 39.08800
N  22.56300 -6.14600 45.19300
C  21.70300 -5.41300 44.44200
C  20.38300 -6.04600 44.44600
C  20.55500 -7.30700 45.06600
C  21.98600 -7.35400 45.57700
C  19.15100 -5.35700 44.10000
C  19.53200 -8.31200 45.30500
O  18.39800 -8.17200 44.78300
C  19.69400 -9.57200 46.23300
N  24.72400 -7.30900 46.96500
C  23.90800 -8.35900 46.83400
C  24.45100 -9.65500 47.34300
C  25.83100 -9.24500 47.88600
C  25.95400 -7.77700 47.53400
C  23.44800 -10.32700 48.33100
C  27.04000 -10.12100 47.35300
C  28.24300 -10.27700 48.30200
N  26.42700 -5.12100 46.14800
C  27.38300 -5.81600 46.77500
C  28.66800 -5.13000 46.70600
C  28.44100 -4.06100 45.81100
C  27.05900 -4.16400 45.51400
C  29.97900 -5.61900 47.29900
C  29.04400 -3.01100 44.96700
O  30.17300 -2.58600 44.78300
C  27.86000 -2.45500 44.12500
C  27.81000 -0.96800 44.31400
O  27.38700 -0.48700 45.35400
O  27.95400 -0.29300 43.14800
C  27.47100 1.10400 43.14800
H  21.05200 -3.77900 43.44100
H  22.17500 -9.25200 46.21800
H  28.00200 -7.66700 47.85200
H  25.09100 -0.99600 43.12400
H  22.75400 -1.93100 42.38600
H  23.56500 -0.50100 44.74600
H  22.14700 -1.45200 45.01900
H  22.11200 -0.45400 43.65700
H  24.43400 -3.06300 41.22500
H  26.19500 -2.70900 41.50200
H  25.83600 -0.50600 40.77900
H  24.09300 -0.74700 40.76700
H  18.25700 -5.67500 44.63600
H  19.09800 -5.44500 43.01500
H  19.17600 -4.30000 44.36300
H  18.66900 -9.92600 46.34800
H  20.13400 -9.18400 47.15200
H  20.40400 -10.33100 45.90700
H  24.50600 -10.40600 46.55600
H  25.77300 -9.31100 48.97200
H  22.91100 -11.15400 47.86700
H  22.68400 -9.62300 48.66000
H  24.06800 -10.83600 49.06900
H  27.39800 -9.65000 46.43700
H  26.51300 -11.05400 47.15200
H  28.41700 -11.33000 48.52200
H  28.12900 -9.69500 49.21700
H  29.07100 -9.85200 47.73600
H  30.68600 -4.79600 47.40700
H  30.47600 -6.33500 46.64500
H  29.70000 -6.00100 48.28100
H  28.14800 -2.65300 43.09300
H  28.11000 1.44200 42.33200
H  27.66900 1.70700 44.03400
H  26.43300 1.19300 42.82600
Mg 48.49000 46.71700 43.20800
C  45.16000 47.73900 42.23600
C  48.14900 43.99400 41.19000
C  51.71400 46.36400 43.64900
C  48.73000 50.06300 44.50800
N  46.93100 46.13200 41.74900
C  45.61500 46.58200 41.62900
C  44.81100 45.79000 40.61600
C  45.84300 44.62500 40.20300
C  47.04900 44.89600 41.12100
C  45.39700 43.11300 40.15500
C  44.40200 46.80300 39.53300
C  42.91900 46.83200 39.12300
H  42.55200 46.30000 37.75400
N  49.76300 45.24200 42.67600
C  49.45800 44.20800 41.84700
C  50.61600 43.33700 41.82300
C  51.63300 43.98600 42.51200
C  51.10700 45.25800 43.03300
C  50.61500 41.98200 41.10000
C  53.02200 43.40500 42.68100
O  53.28900 42.29600 42.21200
C  54.14600 44.09400 43.51900
N  49.96700 48.01300 44.00300
C  51.26400 47.61800 44.04900
C  52.23300 48.70400 44.48600
C  51.30200 49.92600 44.67700
C  49.89400 49.35300 44.40100
C  53.13500 48.36700 45.73600
C  51.53900 51.08000 43.72200
C  51.14200 52.48600 44.20200
N  47.17300 48.45400 43.49100
C  47.44800 49.67100 44.05100
C  46.15900 50.44600 44.16900
C  45.28000 49.67000 43.49600
C  45.91700 48.49300 43.04700
C  46.03300 51.77000 44.81200
C  43.88900 49.59100 43.09100
O  42.98700 50.41600 43.25500
C  43.70600 48.25300 42.26700
C  42.69400 47.35600 42.97600
O  41.52200 47.22100 42.63200
O  43.31500 46.43400 43.83700
C  42.48900 45.27600 44.09800
H  48.07000 43.10800 40.55600
H  52.80500 46.32100 43.65400
H  48.72500 51.04800 44.97900
H  44.02500 45.28800 41.18000
H  46.25000 44.77000 39.20200
H  45.89500 42.52100 39.38600
H  44.33100 43.03000 39.94200
H  45.61800 42.61200 41.09700
H  44.91000 46.55400 38.60100
H  44.65700 47.84300 39.73700
H  42.73300 47.90400 39.19200
H  42.30000 46.22900 39.78700
H  51.43100 41.87400 40.38600
H  49.66400 41.86400 40.58000
H  50.74800 41.18100 41.82800
H  54.92500 43.34400 43.65600
H  53.61500 44.23900 44.46000
H  54.56800 44.99500 43.07300
H  52.92400 48.90200 43.66700
H  51.34400 50.28600 45.70500
H  53.15900 47.27700 45.73600
H  52.82400 48.66200 46.73800
H  54.13000 48.74900 45.50800
H  50.96200 50.99900 42.80100
H  52.59400 51.16700 43.46600
H  50.32900 52.76700 43.53300
H  52.02100 53.11400 44.05500
H  50.86700 52.58100 45.25200
H  46.19800 52.54600 44.06600
H  46.78300 51.74900 45.60300
H  45.03500 51.86700 45.24100
H  43.24300 48.68800 41.38100
H  42.52700 44.56100 43.27600
H  41.44200 45.51600 44.28500
H  42.91500 44.83500 44.99900

