158

Mg 25.92300 -0.15400 29.37800
C  27.69900 -0.15400 32.29700
C  23.05600 0.17300 31.19900
C  24.29300 -0.55000 26.44900
C  28.86400 -0.63700 27.56100
N  25.45600 0.15100 31.48500
C  26.37400 0.06700 32.53500
C  25.67500 0.25800 33.90500
C  24.15600 0.24000 33.57200
C  24.19300 0.20100 31.99200
C  23.37100 -0.92800 34.27600
C  26.24400 1.58600 34.54400
C  26.94700 1.50500 35.97700
H  26.69300 2.50900 37.12800
N  23.95200 -0.19200 28.92700
C  22.89900 -0.04500 29.77900
C  21.67300 -0.04000 29.00200
C  22.02000 -0.12300 27.60800
C  23.52100 -0.29800 27.63900
C  20.26500 0.07800 29.62900
C  21.04700 -0.16300 26.43600
O  21.41000 -0.37400 25.29000
C  19.59000 0.08100 26.69100
N  26.45900 -0.51800 27.20200
C  25.59200 -0.59000 26.21300
C  26.22200 -0.67700 24.78100
C  27.73300 -0.74300 25.18200
C  27.70300 -0.65700 26.74600
C  25.69200 -1.85900 23.89600
C  28.72900 0.26000 24.52200
C  28.40300 1.71400 24.71900
N  27.83400 -0.51500 29.84100
C  28.99600 -0.66000 28.99600
C  30.22200 -0.66500 29.79300
C  29.74300 -0.47400 31.09700
C  28.30400 -0.39100 31.06900
C  31.67100 -0.85000 29.22000
C  30.15200 -0.35600 32.48000
O  31.29000 -0.31400 32.94400
C  28.88100 -0.07200 33.26100
C  28.82500 -1.18600 34.25000
O  28.33200 -2.30100 34.03000
O  29.38400 -0.79400 35.44100
C  29.44800 -1.80300 36.48700
H  22.12100 0.36800 31.72900
H  23.64100 -0.84700 25.62500
H  29.79900 -0.74200 27.00700
H  26.00600 -0.62000 34.45900
H  23.69900 1.17800 33.88700
H  22.98100 -1.70800 33.62200
H  22.47700 -0.48100 34.71100
H  23.94000 -1.44400 35.04900
H  25.44000 2.31100 34.67500
H  26.97300 2.02900 33.86600
H  27.96500 1.72500 35.65800
H  26.92700 0.44400 36.22600
H  19.74800 -0.83600 29.33800
H  19.79100 1.04000 29.43100
H  20.29200 -0.08900 30.70600
H  19.06700 0.34800 25.77200
H  19.47600 1.02400 27.22600
H  19.09500 -0.68100 27.29300
H  26.10400 0.22000 24.17300
H  28.06300 -1.75500 24.94500
H  26.54200 -2.49500 23.64700
H  25.19500 -1.59300 22.96300
H  24.98100 -2.37800 24.53800
H  28.64000 0.06000 23.45400
H  29.75900 0.07400 24.82600
H  27.34100 1.93500 24.61600
H  29.05600 2.23400 24.01800
H  28.78700 2.15500 25.63900
H  32.38000 -0.34400 29.87500
H  31.77400 -0.39500 28.23500
H  31.91600 -1.90500 29.10700
H  29.02700 0.88100 33.77200
H  28.96900 -1.43400 37.39300
H  30.50200 -1.93900 36.73200
H  29.00300 -2.76900 36.24900
Mg 53.85100 24.83000 44.89400
C  51.02100 26.92000 44.07700
C  51.95800 22.05300 43.48600
C  56.54900 22.89700 44.78400
C  55.62800 27.68700 45.61200
N  51.96000 24.62700 43.71600
C  50.96300 25.60400 43.64000
C  49.71400 24.98100 42.96300
C  49.94700 23.53900 43.29700
C  51.41800 23.34600 43.48200
C  49.10400 22.77900 44.33900
C  49.38000 25.28200 41.52800
C  50.25000 24.78100 40.38500
H  50.88500 25.69900 39.33300
N  54.22200 22.72700 44.25900
C  53.29300 21.81100 43.79000
C  53.93700 20.48400 43.78900
C  55.28200 20.64500 44.19300
C  55.42700 22.12800 44.45300
C  53.27100 19.15000 43.53900
C  56.34900 19.50200 44.23300
O  56.06300 18.29500 43.98800
C  57.68500 19.81400 44.84500
N  55.82100 25.33800 44.89500
C  56.76000 24.33000 45.06200
C  58.14300 24.84800 45.37900
C  57.84900 26.39900 45.59800
C  56.34000 26.56300 45.28900
C  59.00000 24.08600 46.46200
C  58.69700 27.39900 44.80100
C  59.28500 28.53400 45.58700
N  53.38800 26.84300 45.08800
C  54.25800 27.91500 45.37100
C  53.46100 29.16300 45.51400
C  52.11800 28.81800 45.08500
C  52.18600 27.36900 44.76800
C  53.97900 30.51700 46.04000
C  50.77200 29.29700 44.82000
O  50.33100 30.41900 44.77300
C  50.02600 28.15300 44.12200
C  49.65200 28.68200 42.79400
O  50.38000 28.73200 41.78100
O  48.38400 29.27800 42.76800
C  47.92600 29.68200 41.44000
H  51.37400 21.16200 43.24600
H  57.56300 22.49300 44.76200
H  56.19900 28.48200 46.09500
H  48.89400 25.35900 43.57400
H  49.78600 22.98000 42.37600
H  49.75700 22.12800 44.92100
H  48.42600 22.11800 43.79900
H  48.60800 23.54300 44.93600
H  49.21000 26.34800 41.37800
H  48.35400 24.94600 41.37300
H  49.67200 24.07300 39.79200
H  51.12300 24.28300 40.80600
H  53.59700 18.67500 42.61300
H  52.19800 19.21000 43.35700
H  53.46700 18.36500 44.27000
H  57.51100 20.42500 45.73100
H  58.37400 20.33500 44.18000
H  58.16200 18.88700 45.16300
H  58.59800 24.73000 44.39500
H  57.96900 26.64100 46.65400
H  58.52500 23.16700 46.80500
H  59.19600 24.71900 47.32800
H  59.95900 23.70900 46.10600
H  58.08000 27.78200 43.98900
H  59.58300 26.88500 44.42900
H  60.34900 28.31900 45.68100
H  58.73900 28.72300 46.51100
H  59.26400 29.40600 44.93400
H  53.19800 31.10800 46.51900
H  54.45600 31.09700 45.25100
H  54.72700 30.38600 46.82200
H  49.10400 27.89000 44.64000
H  47.07700 30.36500 41.46500
H  47.55200 28.86300 40.82600
H  48.74000 30.19300 40.92600

