158

Mg 47.08200 35.55800 28.45200
C  45.47300 33.70500 30.92400
C  47.30500 38.13100 30.73200
C  48.00600 37.59700 25.99500
C  46.32800 33.02100 26.15400
N  46.55400 35.83800 30.56400
C  45.97100 34.90300 31.41200
C  46.03800 35.42800 32.88500
C  46.12800 36.94800 32.71700
C  46.65000 36.99600 31.25700
C  44.84500 37.76700 33.01600
C  47.32100 34.80400 33.58200
C  46.99700 34.40700 35.03700
H  47.45500 35.47600 36.09300
N  47.80300 37.50800 28.45100
C  47.86800 38.37500 29.49600
C  48.50000 39.59900 28.92900
C  48.74200 39.39600 27.52600
C  48.18900 38.14000 27.27300
C  48.77400 40.73700 29.82100
C  49.45400 40.33300 26.50600
O  49.79600 40.04200 25.35600
C  49.79300 41.68300 26.89600
N  47.20500 35.38700 26.41700
C  47.55700 36.37300 25.57200
C  47.46300 35.82000 24.08600
C  47.00500 34.37800 24.18500
C  46.73800 34.25100 25.71400
C  46.69700 36.79800 23.08100
C  47.97100 33.36000 23.55600
C  47.35900 32.44600 22.54000
N  46.15500 33.68200 28.47200
C  46.01000 32.65800 27.51800
C  45.53000 31.44900 28.08800
C  45.24700 31.83700 29.40300
C  45.66500 33.19100 29.58000
C  45.20600 30.13600 27.42500
C  44.64200 31.37900 30.65600
O  44.16900 30.23900 30.92300
C  44.59700 32.66200 31.56800
C  45.03800 32.29500 32.98700
O  46.17900 31.82800 33.22300
O  43.92700 32.50200 33.81600
C  43.96800 31.90100 35.11800
H  47.39600 38.93500 31.46600
H  48.38100 38.23800 25.19300
H  46.23100 32.17400 25.47200
H  45.10800 35.15800 33.38500
H  46.79100 37.31400 33.50100
H  44.73400 38.51500 32.23100
H  44.97600 38.28100 33.96800
H  43.98300 37.10700 33.11700
H  48.00200 35.65200 33.50600
H  47.78400 33.96700 33.06000
H  47.56000 33.50300 35.26800
H  45.95000 34.14400 35.18900
H  49.86200 40.67900 29.85000
H  48.41500 40.59400 30.84000
H  48.56800 41.70000 29.35400
H  48.91600 42.14000 27.35500
H  50.11400 42.25700 26.02700
H  50.66200 41.73400 27.55100
H  48.47800 35.66200 23.72000
H  46.03700 34.26900 23.69700
H  46.08500 37.57300 23.54200
H  45.97400 36.23100 22.49400
H  47.40300 37.28900 22.41200
H  48.45600 32.75000 24.31800
H  48.75200 33.83500 22.96200
H  48.18000 32.25200 21.85000
H  46.45200 32.80300 22.05100
H  47.01900 31.53400 23.03000
H  44.33100 30.36400 26.81600
H  45.14500 29.35300 28.18000
H  46.04100 29.98600 26.74100
H  43.57200 33.00900 31.70400
H  43.68700 32.66500 35.84400
H  44.94500 31.46300 35.31900
H  43.18700 31.14100 35.10200
Mg -8.72600 41.05600 42.26500
C  -7.52400 37.73600 41.33500
C  -5.90500 42.28900 40.79900
C  -10.09300 44.04800 42.55000
C  -11.59400 39.51500 43.34700
N  -7.00800 40.06700 41.11800
C  -6.67100 38.72100 40.94900
C  -5.28500 38.61800 40.27400
C  -4.76000 40.09500 40.30900
C  -5.96500 40.89100 40.86000
C  -3.44900 40.33900 41.16800
C  -5.44700 38.00500 38.86300
C  -4.48900 36.94800 38.25900
H  -3.64400 37.44500 37.05600
N  -8.07600 43.00000 41.74900
C  -6.86300 43.30400 41.13400
C  -6.86000 44.73700 40.89100
C  -8.01300 45.28200 41.53100
C  -8.84100 44.13100 41.92000
C  -5.67900 45.41300 40.22000
C  -8.34100 46.79200 41.67000
O  -7.59200 47.67200 41.22300
C  -9.56000 47.26000 42.43700
N  -10.55500 41.62900 42.78600
C  -10.81700 42.94500 42.97800
C  -12.25200 43.16300 43.53800
C  -12.71900 41.75900 43.84200
C  -11.51900 40.86800 43.40900
C  -12.33200 44.14900 44.68500
C  -14.06600 41.39800 43.19200
C  -14.92600 40.44100 44.01300
N  -9.47700 39.04800 42.42200
C  -10.64100 38.58700 42.93800
C  -10.75800 37.12900 42.84400
C  -9.50000 36.78400 42.13500
C  -8.80300 37.98100 41.91700
C  -11.90400 36.30900 43.38200
C  -8.75800 35.67500 41.59400
O  -9.09900 34.50500 41.71500
C  -7.46900 36.21600 41.09000
C  -6.27800 35.50100 41.65200
O  -5.74200 35.87800 42.69900
O  -5.89500 34.41800 40.92700
C  -4.69500 33.62300 41.26800
H  -5.01800 42.81500 40.43800
H  -10.50300 45.03200 42.79100
H  -12.50400 39.01700 43.68900
H  -4.62700 37.93900 40.81700
H  -4.40400 40.41300 39.32900
H  -2.80300 41.16400 40.86700
H  -2.79100 39.47400 41.08200
H  -3.47500 40.31900 42.25800
H  -5.30000 38.82900 38.16500
H  -6.48600 37.70900 38.71400
H  -5.05500 36.03700 38.06400
H  -3.77400 36.85900 39.07600
H  -6.10100 46.31000 39.76700
H  -5.11800 44.73100 39.58100
H  -4.95000 45.75900 40.95300
H  -10.46200 46.99400 41.88500
H  -9.54800 48.34700 42.52000
H  -9.52300 46.95800 43.48300
H  -12.82200 43.53700 42.68800
H  -12.91200 41.70900 44.91300
H  -11.40600 44.60500 45.03400
H  -12.88700 43.75300 45.53600
H  -13.09200 44.88100 44.41100
H  -13.92700 40.77500 42.30900
H  -14.68300 42.26800 42.96700
H  -15.88200 40.90900 44.24900
H  -14.44400 40.25400 44.97300
H  -15.12600 39.46700 43.56700
H  -12.75200 36.64100 42.78300
H  -12.14300 36.60200 44.40500
H  -11.74600 35.23400 43.46600
H  -7.49300 35.91700 40.04200
H  -4.94700 32.65900 41.71100
H  -4.01200 34.24000 41.85100
H  -4.02300 33.38700 40.44200

