158

Mg 48.13500 45.63800 43.08700
C  44.72700 44.91400 42.42800
C  48.90100 42.37600 42.31900
C  51.40600 46.54300 43.03500
C  47.25500 48.93800 43.60500
N  46.89900 43.86200 42.14400
C  45.53500 43.76300 42.14000
C  45.10500 42.31900 41.74700
C  46.43200 41.50500 41.89400
C  47.50800 42.62900 42.21200
C  46.54600 40.29900 42.88700
C  44.44900 42.30700 40.29700
C  45.27200 42.79000 39.08400
H  45.13500 42.03200 37.67600
N  49.95200 44.61300 42.67400
C  50.04000 43.28500 42.38900
C  51.43200 42.90900 42.26800
C  52.22500 44.09000 42.54900
C  51.19500 45.14600 42.74400
C  51.89800 41.46300 42.21200
C  53.73300 44.21300 42.59800
O  54.46100 43.26800 42.54800
C  54.47800 45.49400 42.90500
N  49.19000 47.54000 43.25400
C  50.51000 47.62100 43.31800
C  50.98700 49.06300 43.50600
C  49.64900 49.84100 43.73700
C  48.63100 48.70300 43.53600
C  52.01800 49.30800 44.58600
C  49.41500 51.11900 42.81900
C  49.29800 52.51200 43.42700
N  46.38000 46.77100 43.15100
C  46.16600 48.08800 43.37100
C  44.75700 48.37400 43.46800
C  44.16800 47.13000 43.05500
C  45.18800 46.18100 42.86400
C  44.11700 49.62100 43.74100
C  42.93200 46.43100 42.75900
O  41.74900 46.76400 42.73300
C  43.21000 44.95500 42.51100
C  42.63000 44.21000 43.68100
O  41.75100 43.38800 43.50300
O  43.29200 44.38700 44.88000
C  42.76600 43.64800 46.02800
H  49.13500 41.31100 42.25900
H  52.41600 46.95500 42.97700
H  46.93000 49.91800 43.96000
H  44.33600 41.93100 42.41600
H  46.64700 41.03300 40.93500
H  46.77400 39.39200 42.32600
H  45.54900 40.29400 43.32900
H  47.36100 40.37800 43.60600
H  43.63100 43.02300 40.22700
H  43.89200 41.39800 40.07500
H  46.33700 42.67500 39.28900
H  45.15100 43.85100 38.86400
H  51.38500 40.90700 41.42800
H  51.69300 40.92100 43.13500
H  52.95700 41.35400 41.97800
H  54.04800 45.94200 43.80100
H  54.37400 46.16600 42.05400
H  55.50400 45.31200 43.22400
H  51.43400 49.31200 42.54300
H  49.50400 50.06200 44.79500
H  52.92000 49.53500 44.01800
H  52.30900 48.40200 45.11900
H  51.66800 49.92200 45.41500
H  48.40600 50.92600 42.45700
H  50.09300 51.07000 41.96700
H  49.70400 53.23300 42.71700
H  49.81000 52.52100 44.38900
H  48.25000 52.77700 43.56900
H  43.10600 49.61000 43.33300
H  44.70000 50.39600 43.24200
H  44.02500 49.74800 44.81900
H  42.78100 44.46500 41.63700
H  41.80100 43.99100 46.40100
H  43.47400 43.65700 46.85700
H  42.82900 42.57900 45.82200
Mg 5.98800 53.44900 40.74100
C  5.67800 49.87700 40.75300
C  8.87000 52.99600 39.09800
C  5.65500 56.52900 39.52800
C  2.56200 53.49200 41.73100
N  7.07200 51.65900 39.99000
C  6.83300 50.35700 40.16000
C  7.92600 49.47400 39.51700
C  9.08100 50.47300 39.60000
C  8.33200 51.81900 39.56300
C  10.06000 50.37800 40.75800
C  7.64600 48.99400 38.00400
C  6.68200 49.82200 37.15700
H  7.14800 51.04800 36.47700
N  7.20600 54.72800 39.66200
C  8.38500 54.32000 39.01100
C  8.96800 55.36700 38.21400
C  8.00000 56.40200 38.33900
C  6.84300 55.93100 39.17400
C  10.46500 55.33600 37.62900
C  8.14200 57.74700 37.59400
O  9.00700 57.95000 36.75100
C  7.12200 58.81800 37.76300
N  4.26100 54.80500 40.56900
C  4.42200 56.07900 40.13700
C  3.23900 57.02200 40.41900
C  2.23600 55.97100 41.02600
C  3.04600 54.66700 41.14100
C  3.65000 58.25100 41.24300
C  0.96100 55.73200 40.21400
C  -0.29500 55.48800 41.10600
N  4.48500 52.02800 41.46700
C  3.21200 52.25600 41.85400
C  2.70300 51.03900 42.43700
C  3.57800 50.02200 41.90600
C  4.67300 50.70900 41.35100
C  1.38800 50.87700 43.19900
C  3.83300 48.60600 41.77900
O  3.26400 47.66000 42.31700
C  5.19600 48.48700 40.98400
C  4.75600 47.77300 39.80000
O  4.05200 48.20600 38.88200
O  5.28100 46.47900 39.87700
C  4.98500 45.59300 38.76200
H  9.84400 52.83800 38.63100
H  5.50600 57.57100 39.23700
H  1.53100 53.48800 42.09100
H  8.07800 48.61800 40.17400
H  9.63100 50.38100 38.66400
H  11.01700 49.95700 40.45200
H  9.72600 49.71000 41.55100
H  10.30500 51.36300 41.15600
H  7.31300 47.95600 38.01900
H  8.61300 49.06600 37.50500
H  5.82200 50.11700 37.75900
H  6.33600 49.11500 36.40300
H  10.97000 54.37500 37.72700
H  11.02200 56.15000 38.09300
H  10.49500 55.50800 36.55300
H  6.97000 59.04900 38.81700
H  6.20300 58.42600 37.32700
H  7.58800 59.64300 37.22400
H  2.82200 57.25900 39.44000
H  2.14200 56.21300 42.08400
H  2.93900 58.31300 42.06700
H  3.52300 59.08200 40.54900
H  4.70300 58.34900 41.50800
H  1.06200 54.90500 39.51200
H  0.75500 56.55600 39.53000
H  -0.09000 55.30900 42.16100
H  -0.82600 54.62500 40.70700
H  -0.84500 56.41800 40.96000
H  0.95200 51.83100 43.49400
H  1.36100 50.11500 43.97800
H  0.69800 50.53700 42.42600
H  5.87300 47.86500 41.56900
H  5.33800 45.94200 37.79100
H  3.92900 45.32500 38.76800
H  5.51300 44.64600 38.88000

