158

Mg 6.92300 53.05800 40.31300
C  6.76500 49.66900 40.10900
C  10.29900 52.94800 39.94000
C  7.04000 56.50300 39.93300
C  3.48700 53.19900 40.49600
N  8.32500 51.49700 39.96100
C  8.07200 50.16100 39.93700
C  9.34500 49.31400 39.72900
C  10.45400 50.40800 39.83100
C  9.63000 51.71900 39.88300
C  11.34200 50.25100 41.04900
C  9.42100 48.57800 38.33500
C  9.25700 49.33400 36.97500
H  8.48500 50.73500 36.99200
N  8.46300 54.56500 39.98300
C  9.83800 54.27800 40.00100
C  10.62100 55.49700 39.89500
C  9.65000 56.60100 39.83600
C  8.35300 55.97400 39.93500
C  12.10600 55.55500 39.96100
C  10.03100 58.01400 39.62200
O  11.22100 58.22800 39.40300
C  9.05800 59.13100 39.65600
N  5.43500 54.65000 39.98200
C  5.72000 55.97800 39.98700
C  4.51300 56.81100 40.21300
C  3.39000 55.81000 40.52900
C  4.12900 54.44500 40.26800
C  4.70400 57.90200 41.29900
C  2.12300 56.01000 39.68800
C  0.69600 55.47600 40.32000
N  5.45000 51.74300 40.33600
C  4.04500 51.94400 40.56900
C  3.34400 50.68600 40.90000
C  4.43300 49.75900 40.82900
C  5.61300 50.44100 40.37100
C  1.91900 50.46800 41.40600
C  4.86300 48.38900 41.05900
O  4.24000 47.50200 41.59500
C  6.29300 48.22400 40.44200
C  6.11000 47.31300 39.23700
O  5.63900 47.65000 38.18700
O  6.37300 45.98700 39.59300
C  5.66700 45.05300 38.68100
H  11.37100 52.74100 39.91600
H  6.86700 57.56900 39.77000
H  2.45200 53.38200 40.79300
H  9.36400 48.64300 40.58800
H  11.13800 50.50300 38.98700
H  11.20200 49.32000 41.59800
H  11.24500 51.17800 41.61400
H  12.39700 50.19800 40.78100
H  8.72700 47.73800 38.29200
H  10.42800 48.16300 38.27900
H  8.49700 48.73200 36.47700
H  10.20200 49.31000 36.43200
H  12.59100 55.45400 38.99000
H  12.60000 54.75600 40.51400
H  12.46200 56.49600 40.38000
H  9.46100 60.14300 39.63000
H  8.31300 59.08400 40.45000
H  8.57900 59.06100 38.67900
H  4.37000 57.20400 39.20700
H  3.19100 55.73500 41.59800
H  4.93300 58.89600 40.91300
H  5.47400 57.65300 42.02900
H  3.79800 58.08900 41.87600
H  2.33700 55.48600 38.75600
H  1.96300 57.05800 39.43600
H  0.95300 54.95100 41.24000
H  0.19100 54.83100 39.60100
H  -0.02100 56.24000 40.62000
H  1.51400 49.54300 40.99700
H  1.41800 51.34100 40.98600
H  1.84700 50.42500 42.49300
H  6.99900 47.65900 41.05000
H  5.98900 45.17400 37.64700
H  4.58100 45.13900 38.67400
H  5.83100 44.04400 39.06000
Mg -11.86000 15.64300 41.25100
C  -8.74700 13.99200 40.86900
C  -10.27400 18.33700 39.77200
C  -14.77200 17.04900 40.98200
C  -13.21600 12.57100 42.07500
N  -9.69800 16.10000 40.65600
C  -8.59600 15.27900 40.46400
C  -7.40800 15.95300 39.86400
C  -7.87900 17.44500 39.89300
C  -9.40300 17.34300 40.13900
C  -7.11100 18.23100 41.07900
C  -7.11900 15.44100 38.42100
C  -5.64700 15.28900 38.04100
H  -5.23500 15.89500 36.68100
N  -12.42900 17.53900 40.64100
C  -11.64500 18.43900 40.00300
C  -12.46800 19.57800 39.70000
C  -13.80400 19.28100 40.10700
C  -13.72300 17.92100 40.68100
C  -11.89100 20.84600 39.02100
C  -15.00100 20.17800 39.91600
O  -15.00000 21.25200 39.37500
C  -16.36000 19.71400 40.39200
N  -13.71400 14.93200 41.39100
C  -14.77300 15.70500 41.31100
C  -16.11400 14.87400 41.37900
C  -15.58700 13.43200 41.79200
C  -14.07000 13.64000 41.73600
C  -17.24000 15.38700 42.27600
C  -16.03600 12.31300 40.88400
C  -17.06200 11.33200 41.39300
N  -11.11200 13.68600 41.67900
C  -11.78900 12.50800 41.95100
C  -10.87400 11.40200 42.08700
C  -9.69200 11.98700 41.63500
C  -9.89900 13.35200 41.36000
C  -11.23600 10.02300 42.52500
C  -8.25200 11.72200 41.38300
O  -7.62100 10.69200 41.47100
C  -7.62000 12.97300 40.85700
C  -6.54500 13.37700 41.85500
O  -6.67700 13.81900 42.94800
O  -5.32700 12.99300 41.35600
C  -4.18900 13.23900 42.25600
H  -9.79800 19.23300 39.36800
H  -15.78500 17.45800 40.97600
H  -13.79900 11.73000 42.45700
H  -6.55100 15.92800 40.53700
H  -7.60700 17.99700 38.99400
H  -6.51500 17.51700 41.64800
H  -7.80600 18.67900 41.78900
H  -6.51400 19.08400 40.75800
H  -7.60900 16.19000 37.79900
H  -7.66400 14.52000 38.21200
H  -5.43900 14.22200 38.11900
H  -5.02100 15.79900 38.77300
H  -12.58600 21.33100 38.33500
H  -11.05200 20.49500 38.42000
H  -11.56600 21.56000 39.77700
H  -16.79300 18.99300 39.70000
H  -16.95400 20.62800 40.39700
H  -16.20300 19.31800 41.39500
H  -16.47200 14.87000 40.34900
H  -15.87000 13.21900 42.82300
H  -16.94600 16.29300 42.80600
H  -17.51900 14.55300 42.92000
H  -18.05400 15.65800 41.60300
H  -15.21300 11.83700 40.35100
H  -16.58600 12.68900 40.02100
H  -17.52400 11.79400 42.26600
H  -16.56300 10.39600 41.64500
H  -17.82000 11.00600 40.68200
H  -10.34100 9.43200 42.71800
H  -11.87900 9.60600 41.75000
H  -11.80600 10.18900 43.44000
H  -7.20900 12.71000 39.88200
H  -4.30100 12.72100 43.20900
H  -4.26700 14.30900 42.44900
H  -3.24200 12.92300 41.82000

