158

Mg 1.53500 8.68200 27.25900
C  2.20000 10.51100 30.21000
C  1.19100 5.82400 29.07100
C  1.10700 7.10400 24.39900
C  1.75900 11.81900 25.56100
N  1.86100 8.19400 29.38800
C  1.97600 9.11300 30.50000
C  1.85400 8.38400 31.84900
C  1.69800 6.92400 31.38900
C  1.60400 6.90600 29.85500
C  2.87800 5.92200 31.78100
C  0.69600 8.99900 32.75300
C  1.20100 9.27800 34.23700
H  2.15800 8.22200 34.82600
N  1.20800 6.77300 26.80000
C  1.00100 5.68100 27.65400
C  0.60600 4.51800 26.90000
C  0.62000 4.86400 25.55300
C  1.00700 6.30900 25.51300
C  0.35700 3.18500 27.60000
C  0.32100 4.03700 24.27300
O  0.28000 4.52000 23.13200
C  0.13900 2.52600 24.42300
N  1.44900 9.40500 25.36200
C  1.29500 8.50000 24.33300
C  1.21700 9.16500 22.94400
C  1.07100 10.65600 23.35000
C  1.51500 10.64800 24.86500
C  2.52100 8.83600 22.20800
C  -0.30000 11.25700 23.11500
C  -0.46500 12.22300 21.90500
N  1.94000 10.80600 27.74300
C  2.05100 11.93500 26.95900
C  2.31700 13.08100 27.80800
C  2.54500 12.57200 29.04400
C  2.20600 11.19600 28.97700
C  2.38400 14.53700 27.36000
C  2.90400 12.87900 30.39900
O  3.26700 13.97200 30.86300
C  2.56700 11.59400 31.21500
C  3.65100 11.29100 32.17100
O  4.58900 10.51100 31.98300
O  3.34100 11.99900 33.36700
C  4.32000 11.93100 34.46700
H  1.12700 4.94000 29.70900
H  1.06400 6.60900 23.42700
H  1.62200 12.75700 25.01800
H  2.82300 8.41100 32.34700
H  0.74700 6.49300 31.70200
H  3.71500 5.91800 31.08300
H  2.45600 4.91700 31.75000
H  3.22500 6.07700 32.80200
H  -0.07600 8.23100 32.80500
H  0.38900 9.91200 32.24300
H  0.37900 9.35800 34.94800
H  1.78700 10.19100 34.33800
H  0.74600 2.28900 27.11500
H  -0.70600 3.12300 27.83200
H  0.88500 3.16500 28.55300
H  1.17100 2.21100 24.57400
H  -0.25200 2.12400 23.48800
H  -0.66700 2.40700 25.14700
H  0.34100 8.90400 22.35000
H  1.80800 11.19500 22.75400
H  2.30700 8.29400 21.28700
H  3.21800 8.23200 22.78900
H  3.11500 9.73600 22.04500
H  -0.48400 11.85900 24.00500
H  -1.17900 10.61600 23.05600
H  -1.21300 11.89600 21.18300
H  0.43800 12.25400 21.29600
H  -0.72100 13.22000 22.26400
H  1.77300 15.19400 27.97800
H  2.01200 14.52000 26.33500
H  3.36900 14.96800 27.17400
H  1.61900 11.84600 31.68800
H  3.72300 11.75700 35.36200
H  4.86100 12.87700 34.46400
H  4.94100 11.04200 34.35200
Mg 48.25700 34.13600 27.01800
C  46.32000 32.53900 29.44300
C  48.54700 36.76700 29.05400
C  49.79000 35.59400 24.50600
C  47.33500 31.37700 24.78400
N  47.54400 34.51700 29.10100
C  46.89900 33.70300 29.92800
C  46.93500 34.18500 31.37300
C  47.17200 35.66000 31.09400
C  47.90700 35.64200 29.65300
C  45.94000 36.50800 31.18200
C  48.10300 33.56300 32.22000
C  48.35700 34.08800 33.64000
H  47.24800 34.85100 34.43300
N  49.16200 35.86500 26.86500
C  49.18700 36.87000 27.81400
C  50.00600 38.01600 27.24200
C  50.32200 37.70100 25.90900
C  49.73400 36.36000 25.74400
C  50.29100 39.32100 28.09100
C  51.17800 38.49500 24.85400
O  51.51300 38.05800 23.74900
C  51.52500 39.91500 25.20800
N  48.44500 33.63100 24.89800
C  49.15500 34.39600 24.15800
C  49.28200 33.84700 22.78100
C  48.68500 32.39500 22.93900
C  48.07600 32.46400 24.28200
C  48.79100 34.64200 21.58300
C  49.64400 31.19200 22.69400
C  50.49400 31.25300 21.43300
N  46.88900 32.44200 26.94500
C  46.68600 31.36800 26.01500
C  45.88100 30.39100 26.70200
C  45.68000 30.83100 27.99500
C  46.35500 32.07800 28.09700
C  45.53800 29.00800 26.12800
C  45.10300 30.42800 29.31900
O  44.52500 29.40300 29.67200
C  45.41300 31.64600 30.20300
C  45.72200 31.09400 31.55300
O  46.69400 30.39500 31.76600
O  44.77100 31.44600 32.45300
C  45.12800 31.09700 33.82300
H  48.43900 37.76300 29.48800
H  50.28800 36.02500 23.63600
H  47.08400 30.53600 24.13500
H  46.01700 34.00500 31.93300
H  47.77600 36.16900 31.84500
H  45.98200 37.28800 30.42200
H  45.86600 37.10900 32.08800
H  44.98100 36.00100 31.07700
H  49.07900 33.66400 31.74400
H  47.98900 32.48000 32.27100
H  49.24400 34.72100 33.59600
H  48.50700 33.16800 34.20400
H  51.35200 39.53800 28.21200
H  49.98100 39.17700 29.12600
H  49.69300 40.09900 27.61500
H  52.04000 40.08800 26.15300
H  50.54100 40.37300 25.10800
H  52.03100 40.40100 24.37400
H  50.36800 33.77100 22.72800
H  47.82800 32.15800 22.30800
H  48.04600 34.09200 21.00800
H  49.67200 34.85500 20.97700
H  48.27400 35.52100 21.96900
H  49.09600 30.25200 22.76000
H  50.30300 31.22600 23.56200
H  50.21200 30.39300 20.82600
H  51.53600 30.99500 21.61900
H  50.36000 32.12500 20.79200
H  45.69700 29.10100 25.05400
H  44.49300 28.79400 26.35400
H  46.30100 28.26700 26.36900
H  44.53700 32.28800 30.29600
H  45.98300 31.61800 34.25600
H  45.38400 30.03800 33.83500
H  44.29000 31.30000 34.49000

