158

Mg 34.94000 3.53500 29.97300
C  32.57300 4.57600 32.21100
C  37.34400 3.84700 32.46600
C  37.25600 2.55100 27.74900
C  32.57300 3.60300 27.49200
N  34.94200 4.11500 32.06800
C  33.81700 4.36500 32.79200
C  34.26400 4.48300 34.28700
C  35.74800 4.75400 34.18600
C  36.06200 4.27000 32.79600
C  36.06200 6.20200 34.40600
C  33.72300 3.27900 35.18000
C  34.19200 3.39000 36.60400
H  34.35200 4.71300 37.35100
N  36.98300 3.28500 30.10000
C  37.76900 3.46100 31.16800
C  39.07600 3.12400 30.77900
C  39.14300 2.71200 29.40600
C  37.74000 2.84500 28.96500
C  40.23200 3.31000 31.69300
C  40.34200 2.11900 28.54200
O  40.18700 1.84500 27.36000
C  41.64900 1.96500 29.08400
N  34.96300 3.37300 27.87300
C  36.00400 2.83100 27.17500
C  35.68000 2.49300 25.66600
C  34.16500 2.72500 25.68200
C  33.85600 3.25900 27.06600
C  36.58300 3.26000 24.69600
C  33.51100 1.36700 25.34500
C  33.01900 0.53400 26.53200
N  33.01400 3.99700 29.83300
C  32.15600 3.99900 28.74600
C  30.84200 4.42000 29.13900
C  30.92900 4.64100 30.51600
C  32.28500 4.40300 30.85500
C  29.62200 4.61200 28.32100
C  30.19600 4.89300 31.71200
O  29.03800 5.14300 31.96700
C  31.27200 4.89900 32.92700
C  31.35600 6.17800 33.61400
O  32.20500 7.05100 33.42200
O  30.60000 6.19400 34.78700
C  31.03900 7.06800 35.89400
H  38.09800 3.93300 33.25100
H  37.83800 2.17900 26.90300
H  31.77900 3.55100 26.74400
H  33.63800 5.29200 34.66500
H  36.38400 4.15600 34.83900
H  36.16300 6.41100 35.47100
H  35.22000 6.77000 34.01200
H  36.96900 6.33400 33.81600
H  33.90100 2.28500 34.76900
H  32.65700 3.43300 35.34500
H  35.03200 2.72800 36.81100
H  33.38900 2.96600 37.20700
H  40.49200 2.31000 32.04100
H  40.17700 3.98400 32.54700
H  41.00100 3.73300 31.04600
H  41.74900 1.35100 29.97900
H  41.96800 3.00000 29.21100
H  42.27600 1.63700 28.25500
H  35.93400 1.43900 25.55700
H  33.85800 3.47500 24.95300
H  36.12200 4.02100 24.06700
H  37.01000 2.53600 24.00200
H  37.34600 3.78500 25.27100
H  34.01500 0.76300 24.59100
H  32.56200 1.69000 24.91700
H  31.98500 0.28900 26.29000
H  33.13300 0.97500 27.52200
H  33.63700 -0.36000 26.45600
H  29.69500 4.49000 27.24000
H  29.08100 5.49300 28.66700
H  29.00200 3.77000 28.62900
H  31.01900 4.17300 33.70000
H  30.32400 7.88200 36.01300
H  31.97200 7.61600 35.76400
H  31.05100 6.59400 36.87500
Mg 47.91100 16.21800 28.25300
C  46.06400 16.04700 31.24000
C  50.34500 17.94900 29.98300
C  49.38300 16.85100 25.33500
C  45.19100 14.88400 26.61800
N  48.04900 17.18900 30.38800
C  47.29300 16.76600 31.42100
C  47.86200 17.32200 32.77300
C  49.19800 18.04500 32.28400
C  49.15300 17.82300 30.76300
C  49.22300 19.56900 32.64500
C  48.07800 16.32300 33.92900
C  47.43300 16.49600 35.28700
H  47.17300 17.88100 35.87700
N  49.61500 17.20700 27.71900
C  50.53100 17.73000 28.60700
C  51.70200 18.06700 27.82000
C  51.48900 17.82400 26.48100
C  50.08900 17.34800 26.46000
C  52.97900 18.38700 28.51300
C  52.38200 18.16600 25.33800
O  51.97300 18.05000 24.15200
C  53.76600 18.82000 25.54700
N  47.29300 15.89500 26.18800
C  48.17300 16.13100 25.18600
C  47.52600 15.74500 23.84900
C  46.10600 15.26000 24.23900
C  46.22800 15.26400 25.75000
C  47.64100 16.79800 22.69400
C  45.60800 13.87400 23.75400
C  44.62900 13.77900 22.61400
N  46.15200 15.42400 28.79500
C  45.14400 14.90600 28.02600
C  43.96700 14.58100 28.86400
C  44.32900 14.99500 30.14400
C  45.59400 15.50200 30.06600
C  42.63500 14.17100 28.35100
C  43.85100 15.02000 31.43100
O  42.86500 14.48800 31.88000
C  44.96900 15.68000 32.27000
C  44.44500 16.78200 33.13000
O  44.54100 17.91100 32.76800
O  43.80100 16.32400 34.23800
C  42.92800 17.31700 34.89800
H  51.18000 18.27900 30.60400
H  50.01100 16.74200 24.44800
H  44.36600 14.39700 26.09200
H  47.22600 18.17900 32.99200
H  50.11700 17.59400 32.65800
H  48.74000 20.25100 31.94600
H  50.19100 20.03200 32.83400
H  48.68200 19.79100 33.56500
H  49.14100 16.21700 34.14600
H  47.73500 15.37200 33.52100
H  48.15400 15.97500 35.91700
H  46.49100 15.94700 35.28600
H  53.67500 17.69000 28.04500
H  52.95000 18.08100 29.55900
H  53.15200 19.45300 28.37100
H  54.16500 19.13300 24.58200
H  54.47300 18.05400 25.86700
H  53.65000 19.63700 26.25900
H  48.03200 14.82700 23.55100
H  45.51100 16.08200 23.84300
H  47.96200 16.25300 21.80600
H  48.42200 17.51500 22.94800
H  46.72700 17.38100 22.59200
H  45.18200 13.36300 24.61700
H  46.52900 13.38700 23.43200
H  45.20600 13.42100 21.76100
H  44.15100 14.74800 22.47800
H  43.92000 12.97700 22.82300
H  42.45900 13.10200 28.46700
H  42.41400 14.53800 27.34900
H  41.81300 14.68100 28.85200
H  45.31900 14.98700 33.03500
H  42.62000 18.12800 34.23800
H  43.47700 17.68200 35.76600
H  41.98300 16.82900 35.13600

