158

Mg 3.02200 -1.15400 43.58200
C  6.43500 -0.43500 43.30000
C  2.34900 1.83400 42.06800
C  -0.04600 -2.30300 43.09900
C  3.98100 -4.32000 44.93900
N  4.29800 0.45600 42.67200
C  5.65200 0.58200 42.72300
C  6.16400 1.85500 42.14900
C  4.79000 2.61000 41.89300
C  3.71600 1.57600 42.22600
C  4.59300 4.01900 42.60100
C  7.06300 1.71600 40.84800
C  6.56700 0.93000 39.69400
H  6.33700 1.67900 38.41500
N  1.35400 -0.33200 42.81600
C  1.33000 0.91500 42.26000
C  -0.12300 1.17800 41.91200
C  -0.81800 -0.02900 42.12600
C  0.15900 -0.94400 42.70900
C  -0.51400 2.59700 41.45200
C  -2.35200 -0.20200 41.93500
O  -2.95500 0.83200 41.63900
C  -3.12900 -1.47400 42.28600
N  2.15000 -3.04300 43.94500
C  0.81600 -3.26800 43.75100
C  0.37000 -4.63000 44.31200
C  1.68700 -5.16300 44.97700
C  2.67000 -4.13800 44.52600
C  -0.94400 -4.56700 45.16700
C  2.17100 -6.61700 44.59100
C  2.58000 -7.54900 45.71600
N  4.80500 -2.22700 44.11600
C  5.04500 -3.44900 44.66000
C  6.42600 -3.62500 44.90400
C  7.02100 -2.41800 44.41100
C  5.98600 -1.60800 43.94600
C  7.02800 -4.75800 45.63400
C  8.30500 -1.75300 44.30500
O  9.40000 -2.20200 44.64500
C  7.94600 -0.33400 43.63700
C  8.26700 0.69600 44.58800
O  7.96500 0.78800 45.73700
O  9.14000 1.64200 43.98100
C  9.62400 2.76600 44.75800
H  2.09200 2.76900 41.56500
H  -1.03700 -2.70900 42.88400
H  4.28900 -5.23100 45.45600
H  6.70200 2.35500 42.95500
H  4.73300 2.91500 40.84900
H  3.67500 4.07100 43.18600
H  4.55700 4.87400 41.92600
H  5.40900 4.23800 43.28900
H  8.06900 1.38200 41.10200
H  7.15400 2.76200 40.55800
H  5.62600 0.43200 39.92500
H  7.30300 0.12700 39.68200
H  0.13500 2.96400 40.65600
H  -0.42500 3.28500 42.29200
H  -1.53200 2.55900 41.06300
H  -2.83400 -2.26000 41.59200
H  -4.18400 -1.20500 42.33900
H  -2.76500 -1.70900 43.28600
H  0.09100 -5.20400 43.42900
H  1.69700 -4.89800 46.03400
H  -0.93300 -5.21300 46.04500
H  -1.81100 -4.79700 44.54800
H  -1.07700 -3.52900 45.47400
H  3.03800 -6.51500 43.93800
H  1.41300 -7.10900 43.98200
H  3.54700 -7.97400 45.45000
H  1.87700 -8.38200 45.72900
H  2.55300 -6.99300 46.65300
H  7.39500 -5.52800 44.95500
H  6.33500 -5.18100 46.36200
H  7.92500 -4.44800 46.17000
H  8.44800 -0.20600 42.67800
H  10.54000 2.47600 45.27200
H  8.93100 3.05000 45.55000
H  9.69000 3.67400 44.15800
Mg 6.60600 53.81500 41.47100
C  5.86800 50.38800 41.50100
C  9.50500 53.13900 39.72800
C  6.94000 57.13100 40.79800
C  3.52000 54.45500 42.92500
N  7.48100 51.97000 40.50800
C  6.97000 50.64700 40.70800
C  7.99500 49.67600 40.01200
C  9.30100 50.58700 39.87400
C  8.78700 52.00600 40.04500
C  10.43200 50.27500 40.90400
C  7.53800 48.94200 38.64200
C  6.14500 49.31200 37.99400
H  5.90100 48.53600 36.64400
N  7.95800 55.00600 40.33900
C  9.10100 54.53300 39.86400
C  9.95700 55.68000 39.49600
C  9.34200 56.83300 39.84600
C  7.95100 56.33400 40.32700
C  11.37500 55.38600 38.96100
C  9.94000 58.20600 39.76700
O  11.02300 58.35800 39.20800
C  9.29000 59.40400 40.35100
N  5.31100 55.45100 41.65000
C  5.68600 56.73900 41.32600
C  4.52900 57.77300 41.61700
C  3.50800 56.94100 42.42600
C  4.14900 55.55000 42.32300
C  5.00400 59.04000 42.41000
C  2.05900 56.90300 41.86700
C  0.95600 56.91500 42.88900
N  5.02400 52.69400 42.18700
C  3.94600 53.11600 42.89900
C  3.31600 51.89500 43.44300
C  4.06600 50.74200 42.94400
C  4.99100 51.30800 42.14200
C  2.20600 51.76600 44.42600
C  4.09800 49.34300 42.90100
O  3.43500 48.51200 43.53100
C  5.34600 49.04000 42.08000
C  5.10000 47.91500 41.11200
O  4.10000 47.89000 40.37800
O  6.03100 46.91500 41.32100
C  5.84200 45.78500 40.41500
H  10.39700 52.86400 39.16100
H  7.03600 58.21100 40.67000
H  2.57000 54.58800 43.44700
H  8.25600 48.91800 40.75100
H  9.74700 50.57700 38.87900
H  11.27800 50.02000 40.26600
H  10.06400 49.59200 41.67000
H  10.70300 51.16300 41.47500
H  7.44400 47.92800 39.03100
H  8.46000 49.12600 38.09100
H  6.17000 50.37900 37.77400
H  5.30300 49.07400 38.64400
H  11.70800 54.45100 38.51100
H  12.14300 55.57400 39.71100
H  11.53800 56.08500 38.14100
H  8.88200 59.13000 41.32400
H  8.56900 59.89100 39.69500
H  10.08000 60.09100 40.65500
H  3.93700 57.93600 40.71700
H  3.44500 57.29700 43.45400
H  4.98700 59.93900 41.79400
H  6.03300 58.87600 42.72800
H  4.33400 59.23100 43.24800
H  1.93600 56.00300 41.26500
H  1.92500 57.82300 41.29900
H  0.20700 56.12700 42.81000
H  0.45300 57.88200 42.87200
H  1.28300 56.90500 43.92800
H  2.12800 50.79500 44.91600
H  1.30300 51.85600 43.82200
H  2.20400 52.61000 45.11600
H  6.11500 48.60900 42.72000
H  4.75500 45.69700 40.43200
H  6.30000 44.85100 40.74000
H  6.18900 45.91500 39.39000

