158

Mg 24.66700 1.23600 29.86500
C  26.89600 1.33400 32.58900
C  22.10800 1.63100 32.03600
C  22.77500 1.01500 27.20500
C  27.46500 0.74600 27.82100
N  24.55600 1.50600 32.06300
C  25.53700 1.49000 32.98800
C  24.99600 1.66200 34.39900
C  23.45500 1.58000 34.22500
C  23.30100 1.65400 32.68300
C  22.71600 0.33500 34.85500
C  25.36000 2.96200 35.11000
C  26.01200 2.84400 36.53400
H  25.57300 3.79200 37.58900
N  22.73100 1.41400 29.64000
C  21.81500 1.61300 30.64900
C  20.50000 1.71900 30.05000
C  20.68200 1.38700 28.66900
C  22.13600 1.22600 28.48200
C  19.17900 2.02900 30.80800
C  19.60200 1.32200 27.58300
O  19.80800 0.95000 26.45300
C  18.18200 1.68800 27.86000
N  25.12000 0.87000 27.73100
C  24.09400 0.89500 26.90400
C  24.57700 0.84000 25.49900
C  26.14800 0.91700 25.58500
C  26.29700 0.91400 27.10300
C  23.94300 -0.35700 24.62600
C  26.77600 2.18200 24.98800
C  26.58300 3.50400 25.80000
N  26.74300 1.00000 30.07600
C  27.72900 0.80300 29.19300
C  29.04100 0.64200 29.83500
C  28.74500 0.97600 31.14400
C  27.37500 1.09700 31.29100
C  30.38700 0.39500 29.18800
C  29.29800 1.11600 32.50100
O  30.49200 0.98100 32.90300
C  28.06600 1.28500 33.49000
C  27.93900 0.18600 34.49100
O  27.48500 -0.95200 34.37200
O  28.62200 0.51500 35.66100
C  28.73800 -0.41200 36.80200
H  21.17100 1.77600 32.57900
H  22.24300 1.20300 26.27100
H  28.30900 0.69900 27.13000
H  25.29300 0.78200 34.97000
H  22.82700 2.38200 34.61200
H  21.82200 0.57300 35.43300
H  23.39500 -0.06300 35.60900
H  22.51100 -0.43800 34.11500
H  24.52900 3.66600 35.13700
H  26.11400 3.38500 34.44500
H  27.06400 2.96300 36.27400
H  25.78000 1.83000 36.85900
H  18.59400 1.11300 30.72600
H  18.63900 2.80300 30.26200
H  19.24500 2.32000 31.85600
H  17.64600 1.63600 26.91300
H  18.24300 2.71800 28.21000
H  17.71300 0.94700 28.50700
H  24.26300 1.79100 25.07000
H  26.54500 0.03100 25.08900
H  23.23300 -0.90500 25.24600
H  24.65000 -1.17600 24.49200
H  23.58400 -0.08500 23.63400
H  26.31300 2.22500 24.00200
H  27.85000 2.12800 24.80900
H  25.59200 3.80900 25.46300
H  27.30900 4.21700 25.40800
H  26.58400 3.46000 26.88900
H  31.10300 0.60000 29.98300
H  30.52500 1.10700 28.37400
H  30.42500 -0.68200 29.02400
H  28.23900 2.15000 34.13000
H  29.63600 -0.26600 37.40300
H  28.69000 -1.48300 36.60500
H  27.87600 -0.19300 37.43300
Mg 30.76400 58.07900 39.75600
C  28.42800 55.93200 38.71100
C  33.21000 55.78600 38.80600
C  33.02300 60.46800 40.13300
C  28.18700 60.42200 40.36400
N  30.80500 55.91600 38.98400
C  29.68600 55.31500 38.48300
C  30.08000 53.96600 37.77600
C  31.55800 53.81800 38.37900
C  31.90100 55.23200 38.71200
C  31.67900 52.78800 39.51300
C  29.99500 54.04300 36.17500
C  28.97800 53.08200 35.45900
H  28.06900 53.83200 34.45400
N  32.83300 58.15700 39.50000
C  33.71200 57.10600 39.10800
C  35.05600 57.58400 39.11900
C  35.05500 58.94000 39.67000
C  33.61400 59.25100 39.75600
C  36.24700 56.73300 38.68600
C  36.26600 59.83400 39.92100
O  37.39800 59.42600 39.68400
C  36.05700 61.22700 40.50100
N  30.68300 60.19000 40.20100
C  31.74400 60.98000 40.28300
C  31.38700 62.37400 40.81900
C  29.85500 62.35500 40.84400
C  29.48700 60.81400 40.44200
C  32.21700 62.67200 42.22500
C  29.20000 63.38200 39.89800
C  27.80000 63.95200 40.32600
N  28.75500 58.20600 39.65400
C  27.81800 59.20700 39.91600
C  26.52300 58.72100 39.60500
C  26.65700 57.46900 39.11500
C  28.07300 57.20000 39.12300
C  25.28400 59.53800 39.65300
C  25.96200 56.35900 38.38600
O  24.75800 56.20700 38.10400
C  27.09300 55.29800 38.20900
C  26.72900 54.06700 39.01100
O  27.15000 53.73600 40.14700
O  25.76100 53.31800 38.32000
C  25.17900 52.23400 39.05700
H  34.02500 55.06700 38.69100
H  33.59400 61.35800 40.40400
H  27.42700 61.15500 40.64300
H  29.35000 53.23900 38.13200
H  32.30600 53.54600 37.63400
H  32.44000 52.05700 39.24100
H  30.69800 52.33200 39.64100
H  32.04300 53.23900 40.43600
H  30.94000 53.72900 35.73200
H  29.91700 55.09500 35.90000
H  28.31600 52.53800 36.13300
H  29.62300 52.39300 34.91400
H  36.36400 57.01200 37.63800
H  35.95300 55.69100 38.80800
H  37.09500 56.89400 39.35100
H  36.98800 61.77100 40.66100
H  35.64600 61.19900 41.51000
H  35.43700 61.90500 39.91400
H  31.79700 63.12700 40.14600
H  29.69200 62.55100 41.90400
H  32.96400 63.44700 42.05200
H  32.73400 61.77600 42.56600
H  31.56100 63.03900 43.01500
H  29.13600 62.89900 38.92200
H  29.92100 64.13600 39.58500
H  27.37100 63.70800 41.29800
H  27.04700 63.74000 39.56800
H  27.91200 65.02400 40.16600
H  24.46600 58.86400 39.39800
H  25.36200 60.34500 38.92500
H  25.09400 60.02900 40.60700
H  27.11700 54.96500 37.17200
H  24.27400 52.65600 39.49600
H  25.77400 51.88000 39.89800
H  24.73000 51.46700 38.42600

