158

Mg 47.93600 24.77100 28.53700
C  49.00200 27.00100 30.93300
C  46.95600 22.63000 31.01100
C  47.26500 22.64400 26.04400
C  49.33200 26.95800 26.20000
N  47.93600 24.83200 30.67900
C  48.34000 25.91100 31.48700
C  47.91900 25.70200 32.99200
C  47.51400 24.19300 32.97500
C  47.43000 23.86400 31.45700
C  48.35500 23.30500 33.89200
C  46.82200 26.70900 33.53400
C  46.11500 26.26300 34.83200
H  46.24900 27.21900 36.15200
N  47.00800 22.93600 28.53400
C  46.77700 22.13800 29.70400
C  46.19500 20.88000 29.23900
C  46.09500 20.93300 27.76200
C  46.69600 22.24600 27.36900
C  45.67100 19.87200 30.19100
C  45.62800 19.88000 26.78000
O  45.84500 19.96900 25.59600
C  44.99600 18.68300 27.29200
N  48.16700 24.85200 26.34500
C  47.91300 23.75700 25.58400
C  48.30500 23.92600 24.13300
C  48.72600 25.47700 24.21800
C  48.75800 25.82000 25.69500
C  49.46300 22.96600 23.61300
C  47.79300 26.41800 23.48600
C  47.78700 26.27600 21.97500
N  48.99300 26.55600 28.54300
C  49.42400 27.34400 27.54000
C  49.93600 28.66300 28.01000
C  49.88400 28.53200 29.38600
C  49.25900 27.28200 29.59200
C  50.48800 29.71200 27.08300
C  50.05900 29.17300 30.66600
O  50.65500 30.20200 30.96700
C  49.45000 28.20500 31.71000
C  50.45300 27.84600 32.72000
O  51.39700 27.16000 32.47700
O  50.30400 28.49500 33.86300
C  51.29200 28.18500 34.88400
H  46.82500 21.94500 31.85100
H  47.26400 21.82100 25.32500
H  49.69000 27.66500 25.44900
H  48.69300 25.99300 33.70300
H  46.54000 24.08100 33.45200
H  49.38900 23.63700 33.80600
H  48.41300 22.26000 33.58700
H  47.93000 23.31000 34.89600
H  46.00000 26.70000 32.81700
H  47.15200 27.73800 33.67800
H  46.40500 25.24100 35.07600
H  45.03800 26.21200 34.67300
H  46.09100 18.89300 29.96100
H  44.58700 19.79300 30.10000
H  45.76800 20.15200 31.24000
H  44.39300 18.83700 28.18700
H  45.77400 17.92300 27.36700
H  44.36100 18.30500 26.49100
H  47.47900 23.85100 23.42600
H  49.71700 25.62100 23.78900
H  49.18400 22.24200 22.84800
H  49.96800 22.43000 24.41700
H  50.11500 23.63900 23.05600
H  48.12400 27.39900 23.82700
H  46.75100 26.34900 23.80000
H  47.04500 26.96300 21.56700
H  47.73300 25.30300 21.48800
H  48.74400 26.75000 21.75600
H  50.56700 30.65600 27.62200
H  49.80700 29.91500 26.25600
H  51.48300 29.50500 26.69000
H  48.58500 28.76400 32.06600
H  50.98700 27.23900 35.33200
H  51.06600 28.83200 35.73100
H  52.34600 28.20600 34.60700
Mg 43.06000 41.38300 26.01600
C  41.87600 43.53800 28.43500
C  43.97200 39.21600 28.47800
C  44.34100 39.40000 23.71400
C  42.40900 43.83200 23.52000
N  42.96300 41.41200 28.24300
C  42.33500 42.37000 29.01600
C  42.52700 42.14200 30.58900
C  43.33400 40.77500 30.51600
C  43.47100 40.47600 29.03100
C  44.67200 40.80500 31.26500
C  41.15100 42.11700 31.32100
C  41.02900 42.83600 32.67800
H  40.55900 42.09700 33.94200
N  43.95800 39.49600 26.08600
C  44.19700 38.78500 27.20000
C  44.74200 37.51700 26.75600
C  44.83200 37.45400 25.36300
C  44.35900 38.81200 24.99000
C  45.06500 36.41000 27.75100
C  45.29200 36.34600 24.43900
O  45.31300 36.44200 23.20100
C  45.85600 35.09400 24.98600
N  43.62500 41.76100 23.96000
C  44.00700 40.65500 23.25900
C  43.82600 40.84300 21.79100
C  43.16000 42.28900 21.67100
C  43.04200 42.64000 23.07300
C  44.95900 40.57200 20.83100
C  41.84500 42.34100 20.86600
C  41.60300 43.69800 20.13300
N  42.32900 43.32500 25.94900
C  42.12400 44.18700 24.87500
C  41.62700 45.36500 25.33900
C  41.53300 45.23800 26.72100
C  41.90200 43.95400 27.05100
C  41.04700 46.48800 24.49700
C  41.21600 45.85900 27.98200
O  40.77800 46.99300 28.21000
C  41.48600 44.81800 29.17200
C  42.59400 45.34200 30.02300
O  43.80800 45.32100 29.64200
O  42.13000 45.85300 31.26000
C  43.21600 46.24300 32.21300
H  44.14600 38.48800 29.27300
H  44.75700 38.61100 23.08400
H  42.15800 44.54500 22.73200
H  43.03000 43.02700 30.98000
H  42.71700 39.97300 30.92200
H  45.48500 40.71500 30.54500
H  44.66900 39.98200 31.97900
H  44.65800 41.78300 31.74500
H  40.90000 41.10500 31.64000
H  40.41300 42.44400 30.58900
H  40.20800 43.55200 32.66000
H  41.89300 43.39900 33.03000
H  44.80900 36.57600 28.79800
H  46.13900 36.24500 27.66600
H  44.48600 35.53600 27.45100
H  46.62200 35.35100 25.71800
H  46.16200 34.29500 24.31200
H  44.94500 34.74200 25.47000
H  43.04000 40.13600 21.52400
H  43.89100 42.99300 21.27100
H  44.54500 39.77900 20.20800
H  45.97900 40.46300 21.19900
H  45.12600 41.46900 20.23500
H  40.99300 42.14000 21.51600
H  41.93600 41.54500 20.12600
H  41.17600 44.47800 20.76300
H  40.90700 43.39800 19.34900
H  42.51100 44.05200 19.64600
H  40.14000 46.91000 24.92800
H  40.78300 45.97400 23.57300
H  41.76600 47.27400 24.26400
H  40.59900 44.69200 29.79300
H  44.24400 46.31200 31.85800
H  43.15700 45.61600 33.10200
H  43.01300 47.26600 32.53100

