158

Mg 2.88600 -1.90100 44.48600
C  6.05700 -0.55300 44.07100
C  1.51200 0.81100 43.06300
C  -0.17400 -3.49300 44.61300
C  4.37500 -4.96000 45.45200
N  3.71700 -0.12400 43.69500
C  5.02200 0.23300 43.62200
C  5.13400 1.67400 43.14900
C  3.64400 2.05600 42.80600
C  2.87300 0.85200 43.24100
C  3.13500 3.35000 43.52300
C  6.17300 2.05600 42.00400
C  5.82800 1.41000 40.61800
H  6.97400 0.65200 39.90000
N  0.91500 -1.35400 43.96900
C  0.57900 -0.19300 43.37300
C  -0.80700 -0.21900 43.14100
C  -1.34700 -1.40900 43.66300
C  -0.22600 -2.12900 44.17300
C  -1.49400 0.90800 42.47900
C  -2.76800 -1.78700 43.56800
O  -3.51800 -0.90900 43.24900
C  -3.35600 -3.07600 43.86600
N  2.20200 -3.94400 44.87200
C  0.90100 -4.35900 44.94500
C  0.77200 -5.83000 45.30800
C  2.17600 -6.33600 45.45700
C  2.97400 -5.02000 45.26000
C  -0.13500 -6.15000 46.55700
C  2.60800 -7.54200 44.54700
C  2.95800 -8.87600 45.29200
N  4.78500 -2.65900 44.89200
C  5.29100 -3.85600 45.29800
C  6.66000 -3.81700 45.60000
C  7.02800 -2.53300 45.02000
C  5.84500 -1.89000 44.58700
C  7.46500 -4.80200 46.39000
C  8.12400 -1.63500 44.83600
O  9.35300 -1.80400 45.03400
C  7.57100 -0.22400 44.24800
C  7.82900 0.82200 45.37400
O  7.64800 0.61500 46.56800
O  8.40600 1.94000 44.84100
C  8.60200 3.07000 45.77500
H  1.15200 1.80900 42.80500
H  -1.16900 -3.93500 44.53000
H  4.87800 -5.83800 45.86300
H  5.44900 2.30300 43.98200
H  3.57200 2.38900 41.77000
H  2.24400 3.20400 44.13300
H  2.84300 4.07600 42.76300
H  3.86600 3.81700 44.18200
H  7.19800 1.78800 42.26000
H  6.11600 3.11100 41.73600
H  5.45400 2.21700 39.98900
H  5.04000 0.66400 40.72300
H  -2.01600 0.58800 41.57700
H  -0.83000 1.73700 42.23400
H  -2.22700 1.30600 43.18100
H  -2.83900 -3.90600 43.38600
H  -4.39600 -2.93500 43.57200
H  -3.27100 -3.11400 44.95200
H  0.12200 -6.14900 44.49300
H  2.35600 -6.49500 46.52100
H  -1.17800 -5.95900 46.30600
H  0.05800 -5.45600 47.37500
H  0.04500 -7.18700 46.83900
H  3.42700 -7.16100 43.93700
H  1.70400 -7.67600 43.95300
H  2.53800 -9.79500 44.88300
H  2.59500 -8.78000 46.31500
H  4.03700 -9.02800 45.27500
H  8.44700 -4.56900 46.80200
H  7.56200 -5.67700 45.74700
H  6.76200 -5.20400 47.12000
H  8.10300 0.05800 43.34000
H  9.20500 2.68200 46.59700
H  7.68800 3.43700 46.24200
H  9.09700 3.94000 45.34200
Mg 29.98000 57.70900 40.03300
C  27.00100 55.82200 39.02700
C  31.94800 55.24600 38.77600
C  32.54400 59.95800 39.85600
C  27.67300 60.60200 40.20800
N  29.46000 55.77500 39.04700
C  28.23100 55.13000 38.88100
C  28.51400 53.62500 38.52900
C  30.07500 53.52500 38.26200
C  30.53600 54.91700 38.78700
C  30.79100 52.39400 39.04200
C  27.74500 53.07700 37.24700
C  27.50900 53.98100 36.01800
H  28.12900 53.82900 34.64700
N  31.99000 57.54600 39.60700
C  32.60200 56.43200 39.08900
C  34.01700 56.69900 38.86800
C  34.20000 58.05900 39.09800
C  32.88100 58.59700 39.52900
C  34.95700 55.58700 38.29300
C  35.49900 58.78300 38.87500
O  36.55700 58.20400 38.53000
C  35.65900 60.24300 39.12300
N  30.02700 60.03800 39.77600
C  31.30000 60.57100 39.98000
C  31.10900 62.06800 40.22200
C  29.55500 62.19800 40.48300
C  28.98600 60.93100 40.08000
C  32.10800 62.72700 41.31100
C  28.90600 63.44300 39.72600
C  28.22000 64.43000 40.64800
N  27.76700 58.18100 39.88200
C  27.07700 59.34300 40.00100
C  25.73900 59.05900 39.95500
C  25.63600 57.69500 39.52000
C  26.89400 57.18700 39.52800
C  24.63600 59.99700 40.19200
C  24.70300 56.66200 39.13200
O  23.49300 56.75000 39.01800
C  25.48100 55.45500 38.79500
C  25.04900 54.27500 39.65500
O  25.47400 54.05200 40.79300
O  24.07600 53.50500 39.06900
C  23.23000 52.63600 39.79600
H  32.62000 54.48500 38.37400
H  33.35500 60.66600 40.03400
H  26.92900 61.33800 40.52000
H  28.26900 53.00100 39.38900
H  30.25900 53.44100 37.19100
H  30.19900 51.68500 39.62000
H  31.46700 52.81400 39.78800
H  31.38200 51.79600 38.34900
H  26.78300 52.71000 37.60500
H  28.33100 52.18600 37.02000
H  27.78900 54.98300 36.34400
H  26.42200 53.95900 35.94200
H  35.13800 55.78400 37.23600
H  34.58200 54.58700 38.51200
H  35.86700 55.65900 38.88800
H  36.71800 60.43800 38.95300
H  35.45600 60.34400 40.18900
H  34.94500 60.76800 38.48800
H  31.18700 62.69200 39.33200
H  29.34600 62.21600 41.55300
H  33.05300 62.92000 40.80200
H  32.29800 62.09800 42.18000
H  31.59100 63.60500 41.69800
H  28.13000 63.11400 39.03600
H  29.58200 63.99100 39.06900
H  28.28300 65.44200 40.24900
H  28.56700 64.41400 41.68100
H  27.15000 64.22500 40.61900
H  24.76700 60.76400 40.95500
H  23.75300 59.43900 40.50300
H  24.55000 60.58600 39.27900
H  25.31700 55.24600 37.73800
H  23.74000 51.67900 39.89900
H  22.26000 52.55100 39.30700
H  23.03100 53.07500 40.77400

