158

Mg 1.63900 -2.08500 44.14900
C  5.14400 -1.58800 43.60000
C  1.07100 0.74400 42.30100
C  -1.46200 -3.08500 43.71900
C  2.56000 -5.17900 45.60400
N  2.95600 -0.60800 43.07100
C  4.36600 -0.57800 43.03000
C  4.83600 0.62900 42.19700
C  3.55500 1.38500 42.05700
C  2.41100 0.49500 42.56600
C  3.53300 2.85100 42.64000
C  5.53000 0.27200 40.85900
C  6.92900 0.91000 40.60300
H  6.99400 1.66200 39.25200
N  -0.06100 -1.25300 43.18800
C  -0.07700 -0.08000 42.48800
C  -1.40900 0.11100 42.04900
C  -2.14800 -1.03300 42.38800
C  -1.23700 -1.85800 43.13300
C  -1.87400 1.27800 41.24600
C  -3.61900 -1.20900 42.13500
O  -4.25600 -0.30200 41.62800
C  -4.39900 -2.42900 42.48800
N  0.74100 -3.88900 44.48300
C  -0.64300 -3.96400 44.42400
C  -1.19900 -5.18200 45.00200
C  0.09900 -5.90800 45.57900
C  1.20700 -4.91600 45.23200
C  -2.27700 -4.92700 46.09700
C  0.39000 -7.25600 44.91500
C  0.17000 -8.36900 45.85900
N  3.45800 -3.21000 44.67400
C  3.68500 -4.38300 45.30600
C  5.11000 -4.59500 45.37800
C  5.68100 -3.51100 44.82100
C  4.67500 -2.70400 44.37600
C  5.63400 -5.91900 45.65600
C  7.01600 -3.00500 44.36900
O  8.15400 -3.44000 44.52200
C  6.66400 -1.67400 43.59900
C  7.19200 -0.57900 44.41500
O  6.83200 -0.28400 45.52300
O  8.25800 0.01000 43.79500
C  8.97900 1.00300 44.66700
H  0.97200 1.73100 41.84500
H  -2.45300 -3.54400 43.69800
H  2.71000 -6.11900 46.14100
H  5.52500 1.22100 42.80100
H  3.28800 1.60000 41.02200
H  3.78200 3.49200 41.79400
H  4.28300 2.95900 43.42400
H  2.57500 3.14300 43.06900
H  4.77100 0.45000 40.09700
H  5.83400 -0.77500 40.89000
H  7.72900 0.16900 40.57500
H  7.23600 1.64900 41.34400
H  -2.59900 1.12800 40.44600
H  -1.08400 1.89200 40.81300
H  -2.38100 1.93100 41.95600
H  -4.15800 -3.37000 41.99200
H  -5.40300 -2.21100 42.12400
H  -4.55000 -2.51800 43.56300
H  -1.70400 -5.73700 44.21100
H  0.11200 -5.85900 46.66800
H  -2.26200 -3.90200 46.46900
H  -2.08200 -5.43800 47.03900
H  -3.31300 -5.12600 45.82000
H  1.44900 -7.27800 44.66000
H  -0.19100 -7.41000 44.00600
H  -0.22100 -7.97500 46.79800
H  1.18800 -8.67700 46.09600
H  -0.40000 -9.14500 45.34800
H  5.64600 -6.10000 46.73000
H  6.68200 -6.03100 45.38000
H  5.04600 -6.68200 45.14500
H  6.96400 -1.63600 42.55200
H  9.34000 0.48000 45.55200
H  8.44600 1.93900 44.83600
H  9.82600 1.21700 44.01400
Mg -11.03300 38.85600 41.12600
C  -9.23800 35.93400 40.50200
C  -8.37900 40.64000 39.72500
C  -12.98700 41.57100 41.23800
C  -13.82000 36.87000 42.14900
N  -9.08200 38.36600 40.01300
C  -8.53500 37.10300 39.96500
C  -7.24800 37.09200 39.17700
C  -6.81800 38.61600 39.23700
C  -8.16100 39.25100 39.71900
C  -5.58900 39.00300 40.18700
C  -7.34600 36.36900 37.84000
C  -6.34800 35.14400 37.66800
H  -5.09300 35.58000 36.86200
N  -10.71300 40.93200 40.60600
C  -9.51400 41.41600 40.05600
C  -9.71500 42.85400 39.90100
C  -11.07100 43.14000 40.25400
C  -11.71100 41.85100 40.68900
C  -8.70600 43.82400 39.27800
C  -11.79400 44.57200 40.08600
O  -11.19600 45.53700 39.65800
C  -13.17500 44.78100 40.41800
N  -13.14800 39.20400 41.56500
C  -13.64500 40.45400 41.63800
C  -15.20600 40.46400 41.82000
C  -15.48200 38.93500 41.99900
C  -14.10500 38.26200 41.85800
C  -15.69500 41.40300 42.98800
C  -16.47900 38.52400 40.90000
C  -17.06100 37.10200 40.95600
N  -11.42600 36.85900 41.42900
C  -12.55200 36.21300 41.92800
C  -12.24700 34.84100 42.00800
C  -10.97700 34.70400 41.41000
C  -10.51900 35.96700 41.08000
C  -13.17300 33.79200 42.38800
C  -9.91000 33.76700 41.03200
O  -9.89600 32.55200 41.02900
C  -8.78100 34.58000 40.32600
C  -7.53600 34.24300 41.06200
O  -7.11300 33.12500 41.03300
O  -7.05300 35.17200 41.87100
C  -5.93200 34.83300 42.70600
H  -7.66400 41.34800 39.30100
H  -13.55800 42.48400 41.41900
H  -14.65800 36.24300 42.46000
H  -6.43900 36.57600 39.69400
H  -6.53800 38.81800 38.20300
H  -4.96000 39.82300 39.84000
H  -5.09700 38.06700 40.44900
H  -5.98400 39.44100 41.10400
H  -7.07900 37.10900 37.08600
H  -8.36300 36.07900 37.57600
H  -6.82400 34.40400 37.02500
H  -6.00700 34.71200 38.60900
H  -9.14600 44.21100 38.35900
H  -7.85500 43.16900 39.09200
H  -8.56500 44.63800 39.99000
H  -13.38500 44.63800 41.47800
H  -13.56700 43.92300 39.87100
H  -13.72700 45.64700 40.05200
H  -15.64500 40.77300 40.87100
H  -15.94700 38.82400 42.97800
H  -16.64100 41.89900 42.76900
H  -15.02700 42.23700 43.20100
H  -15.90000 40.81400 43.88300
H  -16.09200 38.38700 39.89000
H  -17.41600 39.07900 40.84700
H  -18.14300 37.18200 41.06500
H  -16.53800 36.50500 41.70300
H  -16.73400 36.63100 40.02900
H  -13.23800 33.73500 43.47500
H  -12.80400 32.84400 41.99700
H  -14.15300 34.13700 42.05800
H  -8.62600 34.27200 39.29200
H  -5.63400 33.78500 42.65200
H  -6.23000 35.03800 43.73400
H  -5.13100 35.56900 42.63600

