158

Mg 47.79600 16.21500 28.53300
C  45.96400 15.78400 31.49500
C  50.09100 18.08500 30.42900
C  49.26300 17.04100 25.67100
C  45.44400 14.37900 26.79400
N  47.99200 16.85200 30.73300
C  47.21100 16.44200 31.72900
C  47.70400 17.00000 33.10500
C  48.86100 17.94500 32.69700
C  49.02100 17.57000 31.18400
C  48.49100 19.39600 33.05500
C  48.04300 15.73800 34.06100
C  47.77600 15.89700 35.58800
H  47.64600 17.28200 36.23400
N  49.52100 17.34200 28.10900
C  50.27400 18.01100 28.97300
C  51.34500 18.66100 28.24500
C  51.21500 18.30600 26.88700
C  49.95300 17.55000 26.81800
C  52.47700 19.35100 28.87500
C  52.04700 18.80700 25.69900
O  51.79700 18.37300 24.56000
C  53.12300 19.87000 25.88200
N  47.50100 15.60100 26.53500
C  48.22100 16.14800 25.52000
C  47.79300 15.62600 24.14000
C  46.70300 14.60800 24.56800
C  46.54300 14.82000 26.03300
C  47.26500 16.79800 23.21700
C  46.85900 13.14000 24.23200
C  45.71800 12.55400 23.43800
N  46.05600 15.35900 29.01700
C  45.23500 14.55500 28.18300
C  44.02600 14.30300 28.84400
C  44.27900 14.64800 30.16000
C  45.53500 15.29200 30.22300
C  42.74300 13.82900 28.29300
C  43.72100 14.62800 31.51300
O  42.71600 14.13000 31.90900
C  44.82300 15.39200 32.45800
C  44.30200 16.52300 33.24900
O  43.94900 17.61300 32.80700
O  44.15000 16.17900 34.57800
C  43.41600 17.19500 35.40500
H  50.65200 18.80100 31.03300
H  49.66300 17.24800 24.67500
H  44.69900 13.70000 26.37500
H  46.89900 17.48600 33.65700
H  49.83600 17.69200 33.11400
H  48.74100 19.52000 34.10900
H  47.40400 19.46900 33.01100
H  49.01400 20.10100 32.40900
H  49.08400 15.47500 33.87500
H  47.41600 14.89000 33.78500
H  48.68300 15.40700 35.94300
H  46.94600 15.26400 35.89900
H  52.34000 20.42800 28.77600
H  53.42700 19.03600 28.44400
H  52.56200 19.02000 29.91000
H  53.40100 20.42200 24.98400
H  54.07100 19.47600 26.24900
H  52.63700 20.61200 26.51600
H  48.62600 15.16200 23.61200
H  45.81700 15.18100 24.29300
H  46.31700 16.40700 22.84700
H  47.87800 16.90600 22.32200
H  47.05700 17.73800 23.72900
H  46.94500 12.59900 25.17400
H  47.79300 12.92100 23.71300
H  46.13200 11.78500 22.78600
H  45.13300 13.24200 22.82800
H  45.04100 12.17500 24.20400
H  42.34000 14.38200 27.44400
H  41.95700 13.89200 29.04500
H  42.61500 12.77300 28.05600
H  45.20400 14.64200 33.15100
H  42.34200 17.33200 35.28100
H  43.89800 18.17300 35.40600
H  43.51500 16.85500 36.43600
Mg 47.62400 35.59100 27.97100
C  46.33700 33.62200 30.47300
C  48.09700 38.10800 30.31800
C  49.21200 37.28900 25.60800
C  47.37800 32.87500 25.76700
N  47.21300 35.87300 30.15500
C  46.92900 34.83000 31.00800
C  47.35000 35.12300 32.41900
C  47.54300 36.73000 32.40600
C  47.55900 36.96800 30.88000
C  46.35700 37.48500 33.20000
C  48.55600 34.21600 32.87500
C  49.17500 34.47200 34.27400
H  48.28000 35.29500 35.28300
N  48.35400 37.54600 27.90300
C  48.39600 38.42600 28.94800
C  49.05500 39.68900 28.47600
C  49.44000 39.49300 27.12900
C  48.96000 38.02900 26.79600
C  49.28800 40.78500 29.46400
C  50.13800 40.34900 26.16300
O  50.58300 39.95600 25.08200
C  50.50300 41.76500 26.53800
N  48.09100 35.15600 25.87800
C  48.75600 36.03500 25.13800
C  49.23300 35.42000 23.84000
C  48.55400 34.00700 23.86300
C  47.92300 33.99300 25.19900
C  48.89100 36.27800 22.53400
C  49.55300 32.90000 23.54000
C  50.06600 32.90600 22.09700
N  46.86100 33.66700 27.95900
C  46.88000 32.67100 27.04400
C  46.22700 31.53200 27.61700
C  46.01900 31.89500 28.95800
C  46.35300 33.22200 29.09800
C  46.07500 30.08500 27.02600
C  45.40900 31.33400 30.18800
O  44.95400 30.25300 30.46500
C  45.49400 32.46400 31.13600
C  45.82600 32.06300 32.51400
O  46.70100 31.36700 32.89700
O  44.82400 32.66100 33.27600
C  44.66900 32.36500 34.67600
H  48.40300 38.89800 31.00800
H  49.78100 37.83900 24.85500
H  47.35700 31.95600 25.17700
H  46.44100 34.93000 32.98800
H  48.55800 36.99500 32.70300
H  46.73900 38.27200 33.85000
H  45.77200 36.90000 33.91000
H  45.67300 37.93900 32.48300
H  49.33400 34.49400 32.16400
H  48.40700 33.17300 32.59600
H  50.03900 35.09700 34.05000
H  49.46100 33.45300 34.53300
H  49.31200 41.79200 29.04800
H  50.19700 40.63100 30.04600
H  48.39100 40.78100 30.08200
H  49.64400 42.23100 27.02200
H  50.86900 42.23500 25.62600
H  51.26300 41.67100 27.31400
H  50.30400 35.22400 23.80300
H  47.75700 34.07700 23.12300
H  48.51200 37.26000 22.81500
H  48.04700 35.76200 22.07700
H  49.67500 36.39400 21.78500
H  49.14200 31.89600 23.64900
H  50.33300 32.82000 24.29700
H  49.95900 31.89500 21.70500
H  51.11100 33.20600 22.16600
H  49.61000 33.64500 21.43900
H  46.29100 29.93500 25.96800
H  45.09800 29.72400 27.34900
H  46.75700 29.41700 27.55300
H  44.49500 32.89300 31.22000
H  43.63100 32.03100 34.67200
H  44.75200 33.34000 35.15600
H  45.47000 31.74600 35.07900

