158

Mg -2.26900 17.20900 27.49000
C  -2.64300 14.98800 30.32600
C  -2.68000 19.83400 29.66100
C  -1.92500 19.30100 24.88300
C  -2.27100 14.47300 25.49700
N  -2.72100 17.35900 29.73900
C  -2.67000 16.36600 30.67600
C  -2.79000 16.95400 32.08300
C  -2.89100 18.50300 31.82100
C  -2.73300 18.59200 30.30900
C  -4.15400 19.17500 32.44000
C  -1.64300 16.51700 33.03200
C  -1.22700 17.38300 34.24100
H  -0.96000 16.69600 35.59300
N  -2.16900 19.30100 27.32600
C  -2.40700 20.21400 28.28500
C  -2.05100 21.55500 27.78600
C  -1.76600 21.37200 26.43500
C  -1.93400 19.96400 26.17100
C  -2.22200 22.74700 28.64700
C  -1.49300 22.36100 25.33900
O  -1.42500 22.12900 24.11900
C  -1.30100 23.77200 25.75600
N  -2.18000 16.92500 25.51700
C  -2.05900 17.94300 24.61000
C  -1.91100 17.36300 23.13500
C  -1.59000 15.88000 23.41700
C  -2.03600 15.73300 24.87400
C  -3.27700 17.65700 22.28000
C  -0.18200 15.31000 23.05700
C  0.94900 16.10100 23.66500
N  -2.48500 15.16500 27.72100
C  -2.53700 14.14800 26.85600
C  -2.72800 12.90700 27.48600
C  -2.77800 13.14600 28.86200
C  -2.55700 14.54200 28.98300
C  -2.75100 11.66900 26.70700
C  -2.89800 12.52400 30.22400
O  -2.91500 11.40500 30.62800
C  -2.80400 13.76400 31.20400
C  -1.75400 13.49300 32.20200
O  -0.59100 13.53900 32.02300
O  -2.35200 13.12000 33.38600
C  -1.41600 12.59600 34.33600
H  -2.56400 20.57100 30.45800
H  -1.66000 19.75500 23.92600
H  -2.25600 13.63700 24.79400
H  -3.71300 16.52600 32.47400
H  -2.04200 19.03700 32.24900
H  -4.84600 19.38000 31.62300
H  -3.78100 20.08200 32.91500
H  -4.75800 18.54200 33.08900
H  -0.71400 16.37800 32.48000
H  -2.05100 15.63000 33.51800
H  -1.93900 18.20800 34.27300
H  -0.23500 17.80500 34.08400
H  -1.23900 23.19800 28.78300
H  -2.62300 22.50200 29.63000
H  -2.79900 23.53000 28.15500
H  -0.82200 23.69700 26.73200
H  -2.31100 24.14600 25.92500
H  -0.80700 24.30400 24.94300
H  -1.02300 17.82000 22.70000
H  -2.18500 15.13400 22.89100
H  -3.84700 18.44500 22.77100
H  -3.89400 16.76000 22.22000
H  -3.08000 17.91100 21.23800
H  -0.10700 15.59400 22.00800
H  -0.04500 14.23200 23.13800
H  0.66600 16.85500 24.40000
H  1.63600 16.56900 22.96000
H  1.52700 15.42400 24.29500
H  -3.73600 11.53400 26.26200
H  -2.48300 10.81400 27.32800
H  -2.03700 11.81400 25.89600
H  -3.76300 13.96400 31.68100
H  -0.99300 13.47800 34.81700
H  -0.59200 12.05200 33.87400
H  -1.91900 11.94600 35.05200
Mg 23.85600 -5.66800 46.35400
C  26.26000 -3.78800 44.59600
C  21.55800 -4.75200 44.03900
C  21.97700 -8.31100 47.24200
C  26.56400 -7.11300 48.09300
N  23.92600 -4.46300 44.52500
C  24.96500 -3.70500 44.10100
C  24.61300 -2.81600 42.90800
C  23.01700 -2.95200 42.91400
C  22.82200 -4.11200 43.88100
C  22.15200 -1.70700 43.21100
C  25.32400 -3.17000 41.62100
C  26.07100 -2.02100 40.94200
H  25.24800 -1.29700 39.81500
N  21.93800 -6.42500 45.82300
C  21.12000 -5.82800 44.88700
C  19.80300 -6.45100 44.92100
C  19.86100 -7.50900 45.89400
C  21.32400 -7.50900 46.34200
C  18.71100 -6.00000 43.96200
C  18.67400 -8.37100 46.30400
O  17.54500 -8.16600 45.90100
C  18.81500 -9.49400 47.27400
N  24.27200 -7.56600 47.33000
C  23.23200 -8.31500 47.72600
C  23.61100 -9.55500 48.51700
C  25.09100 -9.09100 48.92800
C  25.36100 -7.77700 48.17900
C  22.63200 -10.01500 49.66900
C  26.19000 -10.17600 48.55500
C  26.83500 -10.16000 47.18700
N  25.99600 -5.40200 46.48400
C  26.97600 -6.04600 47.26200
C  28.26200 -5.44300 47.08800
C  28.02400 -4.50800 46.05400
C  26.65000 -4.58300 45.74000
C  29.52800 -5.86200 47.74100
C  28.70100 -3.47500 45.26000
O  29.82200 -2.99800 45.27200
C  27.55500 -3.00700 44.24300
C  27.41400 -1.53600 44.43800
O  26.73300 -1.02300 45.29800
O  28.15300 -0.86400 43.47600
C  28.02200 0.57000 43.57800
H  20.89000 -4.31100 43.29700
H  21.35200 -9.12400 47.61600
H  27.36000 -7.52800 48.71500
H  24.75900 -1.78900 43.24200
H  22.60400 -3.27700 41.95900
H  21.74400 -1.96100 44.19000
H  21.40400 -1.61000 42.42400
H  22.72400 -0.81000 43.44600
H  24.60100 -3.48300 40.86800
H  26.09200 -3.93500 41.73100
H  27.06600 -2.27400 40.57700
H  26.19400 -1.25000 41.70300
H  18.41100 -6.93300 43.48500
H  19.13500 -5.33600 43.20900
H  17.82100 -5.62600 44.46800
H  17.85100 -9.75100 47.71400
H  19.39400 -9.26900 48.16900
H  19.38000 -10.23600 46.71100
H  23.74100 -10.34200 47.77500
H  25.28000 -8.84300 49.97200
H  22.15600 -10.97400 49.46500
H  21.85300 -9.25700 49.74900
H  23.15800 -10.21900 50.60200
H  25.80300 -11.18400 48.70200
H  27.03400 -10.08400 49.23900
H  27.89500 -9.91100 47.23100
H  26.34700 -9.49400 46.47600
H  26.78800 -11.19200 46.83900
H  29.52100 -6.41900 48.67800
H  30.15100 -4.97200 47.82900
H  29.95900 -6.55000 47.01300
H  27.91700 -3.11800 43.22100
H  27.37700 0.95600 42.78900
H  28.98300 1.05800 43.41600
H  27.61000 0.97000 44.50400

