158

Mg 42.54800 41.69600 25.55700
C  41.66400 43.75600 28.08500
C  44.01200 39.58400 27.90600
C  43.55600 39.46900 23.06400
C  41.92400 44.07000 23.20500
N  42.68200 41.61400 27.81000
C  42.17800 42.57800 28.63500
C  42.30400 42.23800 30.15200
C  43.29400 40.94700 29.95500
C  43.46000 40.74000 28.47700
C  44.59300 40.92700 30.73600
C  41.06600 41.98600 31.00700
C  41.21400 42.54600 32.39800
H  40.15000 42.28000 33.49600
N  43.66200 39.79200 25.51000
C  44.07900 39.08500 26.60400
C  44.70300 37.84600 26.16900
C  44.56500 37.81700 24.76900
C  43.91500 39.07600 24.41700
C  45.36000 36.86400 27.08500
C  45.02600 36.68200 23.88700
O  45.07000 36.87500 22.68700
C  45.34500 35.34300 24.48200
N  42.96400 41.86400 23.44400
C  43.12600 40.71900 22.65900
C  42.71500 40.99200 21.21000
C  42.28600 42.42200 21.27200
C  42.30600 42.82700 22.74000
C  43.82800 40.83000 20.15500
C  40.79200 42.60300 20.67800
C  40.58800 43.82400 19.80500
N  41.90900 43.49900 25.59600
C  41.69900 44.35400 24.59100
C  41.18700 45.62100 25.10700
C  41.11200 45.38200 26.48100
C  41.57500 44.07100 26.75000
C  40.86800 46.91900 24.39900
C  40.78200 46.04300 27.71500
O  40.38100 47.19300 27.99800
C  41.06800 44.95600 28.76900
C  42.04500 45.63900 29.65800
O  43.20900 45.90300 29.27700
O  41.43300 46.03100 30.85000
C  42.45200 46.54600 31.75300
H  44.36900 38.85000 28.63100
H  43.55200 38.78700 22.21100
H  41.70300 44.82700 22.45000
H  43.01900 42.96400 30.53900
H  42.76400 40.06000 30.30300
H  45.49200 41.48700 30.47900
H  44.81400 39.91300 31.07000
H  44.24600 41.41000 31.64900
H  40.97900 40.92300 31.23400
H  40.13900 42.42700 30.64100
H  41.27700 43.62500 32.25800
H  42.17900 42.23900 32.80200
H  44.69100 36.01900 27.24500
H  45.59200 37.35000 28.03300
H  46.31500 36.42600 26.79500
H  46.31100 35.49800 24.96300
H  45.40500 34.66000 23.63500
H  44.56300 35.17800 25.22300
H  41.96100 40.28700 20.86100
H  42.97900 43.13100 20.82000
H  43.71100 39.81800 19.76800
H  44.82400 40.80600 20.59600
H  43.69900 41.57900 19.37400
H  39.96000 42.54700 21.37900
H  40.58200 41.79000 19.98300
H  40.46900 43.48700 18.77500
H  41.49700 44.42400 19.77400
H  39.72100 44.43600 20.05300
H  39.79600 46.88800 24.20300
H  41.30100 47.07100 23.41000
H  40.97100 47.73800 25.11000
H  40.16500 44.69500 29.32000
H  41.93300 46.69400 32.70000
H  43.17600 47.29600 31.43500
H  43.22600 45.82500 32.01500
Mg -1.37800 34.69900 27.24100
C  -3.10300 32.58500 29.54300
C  0.06100 36.25900 29.91600
C  -0.13400 36.77800 25.09700
C  -3.08700 33.00600 24.66600
N  -1.45100 34.42900 29.45100
C  -2.29600 33.54500 30.14100
C  -2.02600 33.73100 31.67600
C  -1.38400 35.12800 31.73600
C  -0.88700 35.29800 30.31200
C  -2.33300 36.23800 32.25700
C  -1.21900 32.58900 32.43700
C  -2.02400 31.74200 33.48200
H  -1.33100 31.61600 34.87400
N  -0.15800 36.26000 27.48300
C  0.40500 36.80500 28.63300
C  1.35000 37.77100 28.31300
C  1.30300 37.93000 26.88800
C  0.23600 36.99600 26.42100
C  2.12300 38.53500 29.39600
C  2.14900 38.88400 25.95000
O  2.07900 39.02300 24.72000
C  3.24800 39.65300 26.64500
N  -1.62200 34.93000 25.20500
C  -0.94600 35.89500 24.50700
C  -1.14300 35.80500 23.00000
C  -2.20400 34.60500 22.87600
C  -2.28300 34.10200 24.35600
C  -1.41700 37.14800 22.32400
C  -1.70800 33.41300 21.95000
C  -2.65600 33.13800 20.77200
N  -2.83400 33.18000 27.08800
C  -3.38400 32.55800 25.96200
C  -4.12500 31.35100 26.39100
C  -4.05200 31.33500 27.80700
C  -3.28700 32.52900 28.17000
C  -4.72900 30.36800 25.49200
C  -4.45600 30.64200 28.95400
O  -5.17000 29.66200 29.05300
C  -3.83700 31.44700 30.17100
C  -4.93900 31.87500 31.06300
O  -5.52800 32.97300 31.01500
O  -5.27500 30.96600 32.00800
C  -6.30000 31.31800 33.02200
H  0.60900 36.62500 30.78700
H  0.38800 37.37000 24.34200
H  -3.63400 32.46300 23.89300
H  -3.02300 33.67500 32.11400
H  -0.47000 35.28900 32.30800
H  -3.22100 36.24000 31.62400
H  -1.82200 37.20100 32.25000
H  -2.67000 36.00100 33.26600
H  -0.28800 32.92900 32.89100
H  -0.91800 31.81200 31.73400
H  -2.28700 30.72100 33.20300
H  -2.96900 32.23800 33.70600
H  1.62000 39.48700 29.56700
H  3.18700 38.69200 29.22200
H  1.97000 37.97600 30.31900
H  4.01700 39.19300 27.26600
H  2.76600 40.42200 27.24800
H  3.71500 40.30800 25.90900
H  -0.22400 35.42900 22.55000
H  -3.19200 34.93100 22.55100
H  -1.75000 37.82000 23.11500
H  -2.25500 37.12100 21.62800
H  -0.46000 37.49800 21.93800
H  -1.53100 32.46200 22.45100
H  -0.72100 33.72800 21.61100
H  -2.07900 33.51100 19.92500
H  -3.58300 33.70200 20.87000
H  -2.73000 32.07300 20.55600
H  -5.65200 30.69600 25.01400
H  -4.77600 29.34300 25.86100
H  -3.93100 30.30500 24.75200
H  -3.15900 30.79900 30.72600
H  -5.93300 32.11200 33.67100
H  -6.47800 30.46400 33.67600
H  -7.30600 31.58000 32.69500

