158

Mg 17.81500 -2.34400 28.08600
C  16.61100 -0.10000 30.39900
C  19.80700 -3.67500 30.54600
C  19.08400 -4.32100 25.72600
C  15.96900 -0.53900 25.48800
N  18.03600 -2.03200 30.28200
C  17.48800 -1.06800 31.00800
C  17.80300 -1.15100 32.49900
C  18.90700 -2.23000 32.50100
C  18.95300 -2.74600 31.01200
C  20.31000 -1.72300 32.90100
C  16.57700 -1.53400 33.37600
C  16.47000 -0.91400 34.80700
H  17.64200 -0.11500 35.37600
N  19.22600 -3.88200 28.14600
C  19.92300 -4.28300 29.27700
C  20.72000 -5.38600 28.90100
C  20.50600 -5.60800 27.48500
C  19.54300 -4.64100 27.02300
C  21.61200 -6.06000 29.90600
C  21.23000 -6.74500 26.64200
O  20.83200 -6.99800 25.46500
C  22.20900 -7.59800 27.27700
N  17.56900 -2.37600 26.03200
C  18.22900 -3.36400 25.30300
C  17.95300 -3.21600 23.85500
C  17.05500 -1.99700 23.69800
C  16.82300 -1.61800 25.16100
C  19.23000 -3.06300 23.04500
C  15.79400 -2.23500 22.81600
C  15.25200 -1.05500 22.14400
N  16.51900 -0.69000 27.91200
C  15.78600 -0.07900 26.85200
C  15.00200 1.04800 27.31700
C  15.26400 1.05900 28.71200
C  16.18700 0.00700 29.02900
C  14.04800 1.92700 26.66700
C  14.91600 1.67600 29.95000
O  14.08400 2.55100 30.14300
C  15.81400 0.95200 31.06500
C  16.69700 1.98700 31.73900
O  17.81400 2.29100 31.53400
O  15.94200 2.62900 32.69100
C  16.49700 3.92700 33.22200
H  20.38500 -4.17200 31.32700
H  19.47700 -5.02800 24.99300
H  15.60300 0.08900 24.67300
H  18.17800 -0.19900 32.87500
H  18.74000 -3.04300 33.20700
H  21.15100 -2.16100 32.36300
H  20.59900 -1.93700 33.93000
H  20.39200 -0.65500 32.69700
H  16.74300 -2.61000 33.43900
H  15.68200 -1.27300 32.81200
H  16.27900 -1.78100 35.44000
H  15.63200 -0.21900 34.75100
H  21.82500 -5.49900 30.81600
H  22.57900 -6.17300 29.41500
H  21.17700 -7.01000 30.21700
H  21.93000 -8.09900 28.20400
H  23.10100 -7.02500 27.53000
H  22.44900 -8.34200 26.51800
H  17.37600 -4.12100 23.66500
H  17.61300 -1.18000 23.23900
H  19.92900 -3.89900 23.07500
H  19.85400 -2.21700 23.33600
H  18.89000 -3.09300 22.01000
H  15.05900 -2.75100 23.43400
H  16.05500 -2.93100 22.01900
H  14.17400 -0.90300 22.18500
H  15.49300 -1.17600 21.08800
H  15.70500 -0.11400 22.45500
H  13.30300 1.39800 26.07300
H  14.66600 2.50000 25.97600
H  13.53400 2.60300 27.35100
H  15.04100 0.65600 31.77500
H  17.16300 3.62000 34.02800
H  15.81500 4.70000 33.57600
H  17.11500 4.39400 32.45500
Mg 30.56300 58.58900 41.31000
C  27.96400 56.59300 40.25400
C  32.80000 56.11800 40.31700
C  33.25300 60.76800 41.54600
C  28.33400 61.27300 41.40500
N  30.40500 56.64700 40.37900
C  29.23300 56.04700 40.16800
C  29.42200 54.75100 39.42100
C  30.84900 54.39100 39.91300
C  31.46000 55.78700 40.10000
C  31.13000 53.40000 41.12300
C  29.30200 54.76700 37.81800
C  28.24100 53.84800 37.07500
H  27.44600 54.58400 35.95700
N  32.75300 58.42200 41.08500
C  33.40500 57.27500 40.74200
C  34.83500 57.52500 40.77700
C  35.03100 58.87300 41.15600
C  33.66300 59.43600 41.23800
C  35.85300 56.47500 40.36500
C  36.25700 59.65500 41.29700
O  37.33100 59.06200 41.12000
C  36.43000 61.05500 41.74900
N  30.78500 60.71200 41.37200
C  31.95800 61.32800 41.49900
C  31.74600 62.90700 41.73000
C  30.21900 63.01100 41.79000
C  29.73700 61.54400 41.54900
C  32.37000 63.43600 43.07200
C  29.67900 63.92200 40.65300
C  30.21200 65.34100 40.55000
N  28.50900 58.92300 41.04200
C  27.72600 60.03400 41.10200
C  26.35900 59.61600 40.95400
C  26.40700 58.28600 40.60900
C  27.74900 57.90600 40.62300
C  25.05600 60.41600 41.02500
C  25.62000 57.15100 40.27600
O  24.42600 57.08200 40.09200
C  26.58100 56.01900 40.06000
C  26.39500 54.81300 40.86900
O  26.63100 54.70100 42.06000
O  25.88400 53.78600 40.12600
C  25.56000 52.54100 40.87900
H  33.41100 55.25400 40.04800
H  33.98800 61.57300 41.60600
H  27.61800 62.05300 41.67000
H  28.69500 54.03900 39.81300
H  31.40300 53.96800 39.07500
H  31.70900 53.83800 41.93600
H  31.64600 52.57200 40.63600
H  30.17700 53.07500 41.54200
H  30.24800 54.49800 37.34800
H  29.05200 55.78400 37.51600
H  27.50100 53.56200 37.82300
H  28.88000 53.07900 36.64100
H  36.07800 56.58600 39.30400
H  35.59600 55.43100 40.54400
H  36.74800 56.65700 40.96100
H  35.80900 61.11200 42.64300
H  36.15000 61.75900 40.96600
H  37.41800 61.28200 42.15100
H  32.23400 63.29000 40.83400
H  29.77100 63.46800 42.67300
H  32.71400 62.58200 43.65600
H  31.75200 64.09400 43.68200
H  33.24000 64.07300 42.91400
H  28.59800 63.93700 40.79000
H  29.86600 63.58400 39.63400
H  30.73000 65.55100 39.61400
H  30.88100 65.45400 41.40300
H  29.41000 66.06900 40.67900
H  24.39100 60.02900 40.25300
H  25.23900 61.43000 40.66900
H  24.55900 60.34800 41.99200
H  26.58700 55.78700 38.99500
H  26.40800 51.85700 40.83400
H  24.67800 52.04300 40.47800
H  25.23400 52.69800 41.90700

