158

Mg 48.92000 34.77000 26.51100
C  46.99900 33.37900 29.14600
C  48.99700 37.74400 28.36600
C  50.28700 36.27300 23.84800
C  48.21300 31.89700 24.61400
N  48.30400 35.36800 28.57600
C  47.58100 34.64500 29.49600
C  47.55000 35.32200 30.87000
C  47.77500 36.82600 30.38600
C  48.39900 36.67400 28.99100
C  46.59900 37.82300 30.57500
C  48.65600 34.70000 31.85900
C  48.17300 34.58800 33.34700
H  46.95800 35.45800 33.74100
N  49.70900 36.69000 26.20400
C  49.65100 37.77500 27.11100
C  50.31100 38.90000 26.50600
C  50.73900 38.49100 25.20800
C  50.28600 37.05000 25.02900
C  50.35200 40.24700 27.19300
C  51.52700 39.23400 24.15100
O  51.97400 38.64500 23.19100
C  51.85700 40.71700 24.23000
N  49.27600 34.05800 24.54400
C  49.78200 34.96200 23.60400
C  49.94700 34.19000 22.30100
C  49.68500 32.69100 22.65000
C  49.01800 32.86400 24.00100
C  49.10000 34.58500 21.07000
C  50.99800 31.72200 22.65300
C  51.08700 30.62100 21.52400
N  47.71800 33.01700 26.66700
C  47.53000 31.94000 25.87800
C  46.72500 30.94500 26.53000
C  46.55600 31.44200 27.85000
C  47.09500 32.71800 27.86200
C  46.23200 29.60600 25.96000
C  45.77700 31.21100 29.15300
O  45.07300 30.27800 29.50100
C  46.04300 32.54000 29.97100
C  46.33700 32.14400 31.38200
O  47.43000 31.79400 31.84400
O  45.12500 32.09500 32.04000
C  45.29200 31.42000 33.35500
H  48.99400 38.64000 28.99000
H  50.64600 36.72100 22.91900
H  47.99500 31.02600 23.99300
H  46.51400 35.24500 31.20000
H  48.62100 37.22100 30.94900
H  45.78600 37.51000 31.23000
H  46.34600 38.05400 29.54000
H  46.87400 38.78000 31.01800
H  49.55700 35.31400 31.88400
H  48.99100 33.79600 31.35000
H  48.94200 34.81700 34.08500
H  47.92400 33.54100 33.52000
H  51.40700 40.43100 27.39100
H  49.88400 40.35000 28.17200
H  49.99300 41.04200 26.53900
H  52.20400 40.99100 25.22700
H  51.11600 41.32400 23.71100
H  52.72300 40.78800 23.57200
H  51.00100 34.33000 22.06100
H  49.06600 32.13500 21.94700
H  49.72700 35.14400 20.37500
H  48.31200 35.23400 21.45200
H  48.53800 33.78100 20.59500
H  51.04600 31.35100 23.67700
H  51.88600 32.33400 22.49900
H  51.94900 30.76000 20.87100
H  50.29900 30.61600 20.77200
H  51.22700 29.62200 21.93600
H  47.09900 28.94500 25.99900
H  45.81900 29.79500 24.97000
H  45.54600 29.09900 26.63900
H  45.14300 33.15500 29.99600
H  45.54300 30.37500 33.17100
H  44.30000 31.56000 33.78500
H  45.96900 32.01700 33.96600
Mg -10.50900 39.06100 40.48400
C  -9.47400 35.97500 39.60200
C  -7.53400 40.39700 39.11000
C  -11.79000 42.20300 40.37300
C  -13.61900 37.75200 41.45900
N  -8.74500 38.30000 39.38800
C  -8.54300 36.97000 39.22500
C  -7.07800 36.66900 38.67400
C  -6.41700 38.08100 38.95300
C  -7.63100 39.00200 39.07100
C  -5.58200 38.13400 40.24600
C  -7.12100 36.15200 37.13700
C  -7.86200 37.01900 36.08800
H  -8.62700 36.21500 35.07600
N  -9.71600 40.98300 39.97500
C  -8.50700 41.31600 39.43100
C  -8.35700 42.71500 39.37300
C  -9.59000 43.24700 39.75000
C  -10.45700 42.12700 40.01500
C  -7.06600 43.40700 38.82000
C  -9.84600 44.74300 39.94700
O  -9.08700 45.61800 39.41500
C  -11.01800 45.22000 40.65000
N  -12.43100 39.87700 40.97500
C  -12.71500 41.20300 40.70900
C  -14.19600 41.42900 40.94800
C  -14.88300 40.00100 41.11900
C  -13.57400 39.12800 41.26500
C  -14.53500 42.44900 42.07000
C  -15.79300 39.63500 39.92300
C  -17.23800 39.20400 40.30800
N  -11.35200 37.24900 40.64500
C  -12.66400 36.80300 41.07800
C  -12.72000 35.43800 40.98400
C  -11.47500 35.03100 40.45100
C  -10.69200 36.18300 40.26600
C  -13.94200 34.52800 41.13700
C  -10.73700 33.88500 39.93200
O  -11.03100 32.69700 39.94400
C  -9.40000 34.47900 39.41000
C  -8.33600 33.87700 40.24400
O  -8.41100 33.65600 41.42500
O  -7.15200 33.57300 39.51900
C  -6.03800 33.06100 40.24000
H  -6.62400 40.84900 38.71100
H  -12.38200 43.11800 40.29600
H  -14.56700 37.31700 41.78100
H  -6.67100 35.84900 39.26500
H  -5.81200 38.32600 38.08000
H  -4.52900 38.07300 39.97100
H  -5.84900 37.41200 41.01800
H  -5.74000 39.10000 40.72300
H  -7.55100 35.15200 37.08800
H  -6.11800 36.05700 36.72200
H  -7.19900 37.73900 35.60700
H  -8.67900 37.57400 36.54700
H  -6.89400 43.20300 37.76300
H  -6.26300 43.00000 39.43500
H  -6.98700 44.47800 39.00400
H  -11.25100 44.68500 41.57000
H  -11.79100 45.25900 39.88200
H  -11.01700 46.27400 40.92900
H  -14.51900 42.03700 40.10300
H  -15.49100 39.97200 42.02300
H  -15.56700 42.78500 42.17000
H  -13.91700 43.34400 41.99700
H  -14.12600 42.03000 42.99000
H  -15.31700 38.80900 39.39400
H  -15.86600 40.54700 39.33000
H  -17.88200 39.78400 39.64700
H  -17.46300 39.31700 41.36900
H  -17.49400 38.17100 40.07500
H  -13.77700 33.84100 41.96700
H  -13.89300 33.91200 40.23900
H  -14.94500 34.94800 41.05800
H  -9.12000 34.19600 38.39500
H  -5.17500 33.69400 40.03200
H  -5.76800 32.07800 39.85500
H  -6.14500 33.11500 41.32400

