158

Mg 9.39500 47.49300 25.74400
C  7.39800 47.68100 28.55200
C  11.89200 49.03700 27.44700
C  11.22900 47.68300 22.85400
C  6.54700 47.03900 23.80500
N  9.60000 48.25100 27.78300
C  8.68900 48.08400 28.86100
C  9.30800 48.54000 30.18500
C  10.68100 49.20300 29.70400
C  10.72200 48.83600 28.22800
C  10.78000 50.78900 29.98300
C  9.54100 47.36000 31.12000
C  9.32300 47.59700 32.58800
H  8.89100 46.43600 33.41000
N  11.37800 48.11500 25.19600
C  12.29400 48.67800 26.13900
C  13.56000 48.76300 25.47700
C  13.39900 48.29700 24.13300
C  12.00900 48.02000 24.00300
C  14.82400 49.29700 26.04200
C  14.41300 48.20100 22.97500
O  14.06600 47.85700 21.82400
C  15.94000 48.26300 23.20400
N  8.94800 47.35100 23.73800
C  9.81900 47.56900 22.73200
C  9.22800 47.01800 21.30200
C  7.76700 46.77300 21.59100
C  7.76600 47.04200 23.12900
C  9.58600 47.84300 20.03800
C  7.38000 45.27800 21.33100
C  8.15100 44.26500 22.23400
N  7.31900 47.31700 26.03200
C  6.27100 47.19200 25.15800
C  5.03100 46.94100 25.91100
C  5.41400 47.18300 27.22000
C  6.80200 47.47300 27.26800
C  3.68600 46.73500 25.44000
C  4.91800 47.19600 28.58300
O  3.73700 47.04300 28.98100
C  6.21000 47.41900 29.55200
C  6.31700 46.11500 30.14500
O  6.81900 45.14500 29.67100
O  5.71600 46.18900 31.37600
C  5.44400 44.85800 31.99000
H  12.78400 49.37200 27.98000
H  11.74400 47.47400 21.91400
H  5.60100 46.79600 23.31600
H  8.54000 49.24600 30.50300
H  11.57100 48.71900 30.10600
H  9.98000 51.19500 30.60100
H  10.67300 51.30000 29.02600
H  11.75900 51.03500 30.39500
H  10.59500 47.11800 30.98300
H  9.16000 46.44100 30.67600
H  8.57300 48.38700 32.54300
H  10.18400 48.06000 33.06900
H  14.61900 49.78700 26.99400
H  15.52300 49.96800 25.54400
H  15.42200 48.39600 26.17600
H  16.20700 47.42700 23.85000
H  16.24400 49.24000 23.57900
H  16.44500 48.16100 22.24300
H  9.64600 46.01400 21.21800
H  7.12800 47.46300 21.03900
H  8.72900 48.46800 19.79000
H  10.02100 47.34800 19.16900
H  10.36400 48.49100 20.44100
H  7.66200 45.21600 20.28000
H  6.30500 45.10200 21.31300
H  8.63200 43.46700 21.67000
H  7.28600 43.84600 22.74900
H  8.81800 44.70500 22.97500
H  3.56800 46.37300 24.41900
H  3.29600 47.75000 25.36800
H  3.21100 46.03100 26.12400
H  5.84200 48.21400 30.20100
H  4.37500 44.68500 31.86800
H  5.69500 44.95100 33.04700
H  6.03100 44.04600 31.56200
Mg -5.44100 24.62800 25.82600
C  -4.02000 26.05900 28.66400
C  -7.18600 22.52500 27.75900
C  -6.04000 22.85800 23.05300
C  -3.23900 26.82400 23.85600
N  -5.44600 24.23400 28.01400
C  -4.93300 25.02100 28.98000
C  -5.51500 24.69500 30.38400
C  -6.43400 23.40800 30.05800
C  -6.35500 23.34500 28.52400
C  -6.00900 22.06000 30.59900
C  -6.29700 25.84900 31.02900
C  -6.00200 26.08300 32.54600
H  -5.17800 25.02300 33.35000
N  -6.72600 23.01500 25.45100
C  -7.42400 22.33500 26.41300
C  -8.23000 21.32900 25.71000
C  -7.86000 21.41800 24.26300
C  -6.77500 22.42400 24.17600
C  -9.19200 20.43200 26.43300
C  -8.33400 20.64300 23.13500
O  -7.86500 20.77400 22.01500
C  -9.35100 19.63700 23.33000
N  -4.82300 24.90200 23.67600
C  -5.15900 23.90100 22.80400
C  -4.42100 24.10500 21.45800
C  -3.49300 25.33700 21.76900
C  -3.88200 25.75400 23.15400
C  -3.47900 22.97700 20.98000
C  -3.56400 26.45500 20.62500
C  -2.20300 27.12500 20.35000
N  -3.98700 26.10900 26.15300
C  -3.33000 26.97800 25.23800
C  -2.68600 28.03800 25.98200
C  -2.93900 27.67500 27.27900
C  -3.67300 26.46400 27.35100
C  -1.87400 29.17500 25.51500
C  -2.59700 28.06800 28.59800
O  -1.88000 28.96400 29.06600
C  -3.36600 27.12100 29.63800
C  -2.29600 26.48800 30.51000
O  -1.59000 25.55400 30.25300
O  -2.20100 27.23900 31.61300
C  -1.00600 26.95200 32.48200
H  -7.87200 22.01400 28.43800
H  -6.14000 22.15800 22.22100
H  -2.64700 27.49800 23.23300
H  -4.69200 24.42500 31.04700
H  -7.41300 23.63300 30.48100
H  -5.51500 21.29200 30.00500
H  -6.95300 21.67600 30.98500
H  -5.41800 22.19500 31.50500
H  -7.37400 25.68300 30.99900
H  -6.12800 26.77300 30.47600
H  -6.89600 26.25700 33.14500
H  -5.59600 27.09000 32.64300
H  -10.13100 20.29300 25.89800
H  -9.43800 20.91400 27.38000
H  -8.73900 19.45800 26.61800
H  -9.31000 19.02000 22.43300
H  -10.29700 20.17700 23.28000
H  -9.27300 19.04300 24.24100
H  -5.18100 24.29900 20.70100
H  -2.42300 25.12700 21.79500
H  -3.44800 22.30600 21.83800
H  -2.44200 23.18700 20.71800
H  -3.83200 22.45900 20.08700
H  -4.18700 27.26200 21.01100
H  -4.12200 26.11200 19.75400
H  -1.94100 27.26600 19.30200
H  -1.29900 26.59200 20.64500
H  -2.05700 28.12500 20.75900
H  -0.85000 28.83200 25.37100
H  -1.88400 29.97300 26.25800
H  -2.29800 29.52100 24.57200
H  -4.01700 27.69800 30.29500
H  -0.12000 26.66800 31.91500
H  -1.19200 26.16700 33.21600
H  -0.68200 27.90500 32.90000

