158

Mg -2.14300 17.19200 27.55400
C  -2.22900 15.15000 30.26500
C  -2.60500 19.94800 29.52400
C  -2.41200 19.21800 24.71000
C  -2.12100 14.42900 25.41400
N  -2.40500 17.47400 29.63300
C  -2.29300 16.50300 30.60200
C  -2.36300 17.21000 32.00200
C  -2.72500 18.68900 31.73100
C  -2.57700 18.71000 30.22100
C  -3.86900 19.26400 32.46800
C  -0.91400 17.09100 32.78500
C  -0.58200 18.03000 34.02000
H  0.32400 17.52000 35.11300
N  -2.29700 19.33500 27.19700
C  -2.48100 20.26400 28.13500
C  -2.40400 21.60000 27.53200
C  -2.32800 21.38300 26.12300
C  -2.35600 19.95100 25.94500
C  -2.40200 22.88600 28.28600
C  -2.21800 22.49100 25.00000
O  -2.34200 22.20800 23.81300
C  -2.14900 23.99300 25.40600
N  -2.38400 16.82200 25.49900
C  -2.51700 17.79300 24.51200
C  -2.58800 17.20500 23.03400
C  -1.95400 15.81000 23.30900
C  -2.12300 15.66800 24.84800
C  -3.92800 17.23200 22.24800
C  -0.49500 15.76700 22.81100
C  0.59500 16.67200 23.33600
N  -2.14900 15.18500 27.74000
C  -2.17600 14.15700 26.81800
C  -2.35100 12.88100 27.47700
C  -2.32100 13.19000 28.85900
C  -2.19300 14.57500 28.92500
C  -2.40500 11.51000 26.79700
C  -2.31600 12.69400 30.19800
O  -2.39000 11.53500 30.56900
C  -2.23700 13.89600 31.11000
C  -1.13200 13.79600 32.09700
O  0.06700 14.04500 31.94300
O  -1.57500 13.32600 33.28000
C  -0.67200 13.27600 34.45400
H  -2.58900 20.86300 30.12000
H  -2.41600 19.83300 23.80700
H  -2.21500 13.57100 24.74400
H  -3.19700 16.84800 32.60200
H  -1.94200 19.39600 32.00300
H  -3.55800 20.09800 33.09800
H  -4.23100 18.50500 33.16100
H  -4.59000 19.61700 31.73100
H  -0.18500 17.32700 32.01000
H  -0.69100 16.07900 33.12300
H  -1.51100 18.33300 34.50300
H  -0.06900 18.93100 33.68100
H  -2.42600 22.74200 29.36600
H  -3.33800 23.32900 27.94600
H  -1.53100 23.50600 28.07200
H  -2.25000 24.57800 24.49200
H  -1.20100 24.17800 25.91000
H  -3.03900 24.31600 25.94600
H  -1.83700 17.72900 22.44400
H  -2.49000 15.00400 22.80900
H  -4.64900 17.91600 22.69600
H  -4.34200 16.22700 22.16000
H  -3.76000 17.73100 21.29400
H  -0.67300 15.93700 21.74900
H  -0.21800 14.74300 23.06000
H  1.19800 16.10200 24.04200
H  0.18400 17.56000 23.81500
H  1.26900 17.09800 22.59300
H  -1.54400 11.44200 26.13300
H  -3.33700 11.45500 26.23400
H  -2.52800 10.84100 27.64900
H  -3.11000 13.94600 31.76100
H  -0.42700 14.26100 34.85100
H  0.24900 12.83400 34.07400
H  -1.11100 12.65900 35.23800
Mg 46.03300 34.82700 28.22000
C  44.43300 32.80600 30.58800
C  46.07200 37.41000 30.46800
C  47.29200 36.93300 25.78700
C  45.84100 32.22700 25.88100
N  45.40500 35.00700 30.33700
C  44.85000 34.03100 31.12900
C  44.89500 34.47200 32.63100
C  45.10800 36.01900 32.47100
C  45.58500 36.16300 31.01800
C  43.79400 36.84100 32.69600
C  46.16200 33.77200 33.33100
C  46.19800 33.61600 34.86000
H  45.28500 34.59200 35.64600
N  46.78100 36.85400 28.20600
C  46.62100 37.79200 29.20900
C  47.21000 39.05900 28.85700
C  47.58100 38.91600 27.45600
C  47.23900 37.53100 27.09800
C  47.33800 40.23200 29.78200
C  48.29200 39.89100 26.46300
O  48.63000 39.50200 25.35600
C  48.52000 41.35600 26.90000
N  46.43800 34.60400 26.18000
C  46.87600 35.63500 25.45500
C  47.05000 35.19200 23.94100
C  46.71400 33.65200 23.98900
C  46.34600 33.41900 25.44900
C  46.37900 36.06600 22.87000
C  47.80600 32.64800 23.47800
C  47.47800 31.71100 22.30700
N  45.27900 32.89300 28.16500
C  45.36400 31.94900 27.16900
C  44.77000 30.70600 27.61100
C  44.38600 30.93900 29.00900
C  44.69700 32.30600 29.26900
C  44.73000 29.36500 26.84400
C  43.90400 30.39900 30.25000
O  43.53000 29.24600 30.46200
C  43.54500 31.65500 31.18600
C  43.85100 31.25800 32.58900
O  44.83400 30.73100 33.01400
O  42.82000 31.68200 33.36900
C  42.86500 31.28300 34.80400
H  46.08900 38.21800 31.20200
H  47.48500 37.55500 24.91000
H  45.83300 31.44800 25.11600
H  44.00300 34.17500 33.18200
H  45.82300 36.38000 33.21000
H  43.10300 36.27300 33.31900
H  43.20000 37.09100 31.81700
H  43.78300 37.77000 33.26700
H  47.11800 34.08900 32.91300
H  46.13500 32.77900 32.88400
H  47.24300 33.84500 35.06600
H  46.02400 32.57700 35.14200
H  46.66900 41.04800 29.50900
H  48.41800 40.37700 29.76700
H  47.15000 39.85700 30.78800
H  48.86500 41.30200 27.93200
H  47.56600 41.88400 26.92700
H  49.17800 41.84100 26.17900
H  48.11600 35.31200 23.74700
H  45.77200 33.39800 23.50500
H  47.17200 36.44500 22.22500
H  45.85600 36.92200 23.29600
H  45.66400 35.52200 22.25200
H  48.28300 32.04100 24.24700
H  48.66900 33.22100 23.13900
H  48.20700 31.90400 21.52100
H  46.45300 31.86700 21.96900
H  47.48500 30.63900 22.50100
H  45.41100 29.27400 25.99800
H  43.74200 29.13400 26.44600
H  44.97500 28.63500 27.61500
H  42.49800 31.86800 30.96800
H  43.48800 30.40500 34.97300
H  41.89800 31.25600 35.30700
H  43.21200 32.07800 35.46500

