158

Mg 48.81000 45.17200 42.12200
C  45.28700 45.22200 41.50300
C  48.81600 41.95100 41.19300
C  52.10900 45.52000 42.00000
C  48.49900 48.77000 42.68800
N  47.22600 43.78700 41.39300
C  45.89300 43.95900 41.30700
C  45.13600 42.74200 40.84200
C  46.19700 41.63200 41.07200
C  47.50200 42.48000 41.22500
C  45.94300 40.65500 42.23900
C  44.59600 42.91600 39.35100
C  43.13200 42.44000 39.07500
H  42.84600 41.79800 37.72200
N  50.29800 43.89600 41.51600
C  50.07300 42.55200 41.26500
C  51.37100 41.98100 40.86200
C  52.32800 42.94400 41.12800
C  51.59200 44.17600 41.56900
C  51.50100 40.54000 40.34400
C  53.79500 42.67100 40.99600
O  54.19900 41.57100 40.58200
C  54.91100 43.68400 41.39200
N  50.15400 47.07100 42.02800
C  51.48400 46.74100 42.27500
C  52.21100 48.08400 42.50500
C  51.04100 49.09500 42.88500
C  49.85000 48.27000 42.53700
C  53.33300 47.98900 43.59300
C  51.21100 50.34700 42.00000
C  50.99200 51.61400 42.77400
N  47.25300 46.74500 42.12700
C  47.29300 48.09300 42.48400
C  45.96500 48.61300 42.56000
C  45.15000 47.54400 42.05500
C  45.96500 46.43800 41.91100
C  45.56100 49.97700 43.03900
C  43.73100 47.21300 41.86700
O  42.73600 47.85100 41.99400
C  43.84900 45.61800 41.39600
C  42.99300 44.88600 42.33500
O  41.95800 44.41900 41.94000
O  43.54100 44.73300 43.64300
C  42.81500 43.97500 44.67500
H  48.77400 40.90000 40.89800
H  53.19500 45.61200 42.06400
H  48.35400 49.81400 42.97500
H  44.34100 42.61100 41.57600
H  46.18200 40.92300 40.24400
H  45.69100 41.24400 43.12100
H  46.86900 40.14700 42.51200
H  45.20300 39.87600 42.05700
H  45.26300 42.31000 38.73800
H  44.63400 43.96800 39.06800
H  42.54100 43.35600 39.05100
H  42.61800 41.84700 39.83200
H  51.64800 40.49700 39.26400
H  50.62100 39.91900 40.50400
H  52.35600 40.11400 40.87000
H  54.77000 43.93100 42.44400
H  54.80600 44.59200 40.79700
H  55.91700 43.31100 41.19700
H  52.70600 48.30100 41.55800
H  51.17700 49.51400 43.88200
H  53.28500 46.97100 43.97800
H  53.25200 48.72600 44.39200
H  54.32800 48.08300 43.15800
H  50.58900 50.30300 41.10700
H  52.20000 50.37000 41.54200
H  51.94500 51.89900 43.21800
H  50.22100 51.68500 43.54200
H  50.66500 52.27700 41.97300
H  44.48000 50.10200 43.09700
H  45.90600 50.72100 42.32100
H  45.82000 50.24200 44.06400
H  43.44800 45.49400 40.39000
H  43.58900 43.60500 45.34700
H  42.33700 43.09100 44.25200
H  42.08000 44.60700 45.17300
Mg 9.34100 48.31200 26.04200
C  6.75200 48.66100 28.56000
C  11.62900 49.62900 28.17000
C  11.54300 48.26900 23.46100
C  6.71200 47.62900 23.74800
N  9.21100 48.87300 28.16100
C  8.06900 48.98100 28.98900
C  8.49100 49.42300 30.45800
C  9.99400 49.98900 30.21600
C  10.33200 49.43100 28.77400
C  10.16000 51.54100 30.29100
C  8.42800 48.38000 31.57700
C  8.91300 48.82000 32.94800
H  8.23800 48.28600 34.21100
N  11.36100 48.76600 25.85900
C  12.08900 49.31800 26.86400
C  13.40600 49.50000 26.33300
C  13.47500 48.89400 25.07700
C  12.08700 48.61600 24.74100
C  14.51200 50.14800 27.10500
C  14.72200 48.61700 24.16200
O  14.57300 47.89300 23.16600
C  16.11100 49.14000 24.56200
N  9.15400 48.07400 23.91000
C  10.20900 48.00000 23.15100
C  9.87000 47.61700 21.62500
C  8.36800 47.30800 21.74000
C  8.03800 47.63500 23.23700
C  10.23300 48.58300 20.47500
C  8.00000 45.87000 21.32800
C  8.27900 44.82400 22.42600
N  7.14600 48.15400 26.06300
C  6.25200 47.93000 25.02100
C  4.95300 47.98300 25.62100
C  5.04600 48.26700 26.99900
C  6.43000 48.29100 27.25400
C  3.59600 47.77100 24.84500
C  4.35000 48.44700 28.31700
O  3.14100 48.38600 28.63100
C  5.47400 48.75600 29.34800
C  5.24900 47.86000 30.47600
O  5.88000 46.82600 30.64900
O  4.42100 48.46900 31.35000
C  4.20200 47.66800 32.52500
H  12.44800 49.95400 28.81500
H  12.28500 48.23100 22.66000
H  5.90100 47.40500 23.05200
H  7.86600 50.30200 30.61800
H  10.71200 49.57800 30.92600
H  10.09400 51.94300 29.28000
H  11.11100 51.77800 30.76700
H  9.33000 51.93100 30.88000
H  8.76800 47.39500 31.25600
H  7.35800 48.24500 31.72900
H  8.81700 49.90000 33.05100
H  9.90900 48.41400 33.12500
H  14.09000 50.90900 27.76100
H  15.28900 50.67600 26.55300
H  14.98600 49.35000 27.67800
H  16.90200 48.70900 23.94800
H  16.25700 48.88000 25.61000
H  16.14400 50.22600 24.47300
H  10.45400 46.70000 21.54200
H  7.84000 48.06700 21.16300
H  11.09600 49.16600 20.79600
H  9.43700 49.24800 20.14300
H  10.64600 47.96000 19.68100
H  8.59100 45.61000 20.45000
H  6.96800 45.91300 20.97900
H  7.34900 44.31100 22.66900
H  8.74200 45.21800 23.33100
H  8.93700 44.15600 21.87000
H  3.40800 46.70100 24.76000
H  3.78600 48.24200 23.88100
H  2.79200 48.34900 25.30000
H  5.33300 49.78900 29.66600
H  3.60700 48.25300 33.22700
H  5.14400 47.48900 33.04200
H  3.80500 46.71000 32.19100

