158

Mg 24.17300 -5.98800 45.20700
C  26.72300 -3.83000 43.91800
C  21.98900 -4.68200 42.97800
C  22.34400 -8.78700 45.58000
C  26.89500 -7.71200 46.89500
N  24.41000 -4.43700 43.65600
C  25.51400 -3.65200 43.29300
C  25.19900 -2.76500 42.06000
C  23.65200 -2.91500 42.01300
C  23.30200 -4.08000 42.98200
C  22.79300 -1.61800 42.21700
C  25.96600 -3.22400 40.81200
C  26.81200 -2.17900 40.13500
H  26.52100 -1.89500 38.68900
N  22.41200 -6.57500 44.54800
C  21.61200 -5.83700 43.67600
C  20.31500 -6.55600 43.44800
C  20.41100 -7.76000 44.30300
C  21.77700 -7.74600 44.88900
C  19.21000 -6.12500 42.57400
C  19.37800 -8.90700 44.42700
O  18.28900 -8.78300 43.84100
C  19.52100 -10.00600 45.44000
N  24.52400 -7.90400 46.16400
C  23.59000 -8.87400 46.18200
C  24.04200 -10.11200 47.03900
C  25.42400 -9.66300 47.59000
C  25.66300 -8.33200 46.89600
C  23.06900 -10.45700 48.21300
C  26.52200 -10.74700 47.29800
C  27.50800 -11.08400 48.44800
N  26.32000 -5.70200 45.62500
C  27.21100 -6.54800 46.23700
C  28.54800 -5.97200 46.19300
C  28.41700 -4.80100 45.40600
C  26.99600 -4.74700 44.97700
C  29.80500 -6.51800 46.70400
C  29.14500 -3.76700 44.69300
O  30.35600 -3.51000 44.63800
C  28.09000 -3.04100 43.76700
C  28.00600 -1.54400 44.00300
O  27.01600 -0.91900 44.32300
O  29.27800 -0.97200 43.82600
C  29.25800 0.49200 43.96600
H  21.29500 -4.18300 42.29800
H  21.87700 -9.71900 45.90500
H  27.70300 -8.24100 47.40500
H  25.52100 -1.76000 42.33300
H  23.45000 -3.46700 41.09500
H  22.16700 -1.56800 41.32600
H  23.39700 -0.71200 42.17100
H  22.05300 -1.68900 43.01400
H  25.19800 -3.45400 40.07300
H  26.52900 -4.14100 40.98600
H  27.85700 -2.49100 40.11700
H  26.85400 -1.23700 40.68200
H  19.61700 -6.31200 41.58100
H  19.21100 -5.03600 42.61800
H  18.27400 -6.59600 42.87500
H  18.57400 -10.50500 45.64500
H  19.80600 -9.48900 46.35600
H  20.28800 -10.61900 44.96600
H  24.16100 -10.84800 46.24400
H  25.46600 -9.37800 48.64200
H  23.46800 -10.20900 49.19600
H  22.97300 -11.54300 48.22200
H  22.07300 -10.03700 48.07400
H  27.07900 -10.46900 46.40400
H  26.16000 -11.71100 46.94200
H  27.45800 -12.17100 48.50600
H  27.02300 -10.81200 49.38500
H  28.50700 -10.65100 48.40100
H  30.66600 -5.95200 46.34700
H  29.90600 -7.51800 46.28100
H  29.75100 -6.49600 47.79200
H  28.52500 -3.18200 42.77800
H  30.29900 0.69500 43.71400
H  28.99500 0.88100 44.94900
H  28.68000 1.02400 43.21100
Mg 47.73400 44.88300 42.71200
C  44.36200 45.61300 41.63800
C  47.45400 41.86500 41.16000
C  51.05200 44.73500 42.66600
C  47.77400 48.12100 43.86000
N  46.13700 43.94800 41.32300
C  44.88000 44.44300 41.10200
C  44.14200 43.39600 40.26600
C  44.96000 42.03500 40.57700
C  46.27100 42.64500 41.06000
C  44.28300 40.99300 41.62800
C  44.07300 43.86600 38.79500
C  42.87000 43.46000 37.95900
H  43.30100 42.59700 36.80100
N  49.08600 43.42600 42.01000
C  48.76600 42.20300 41.54200
C  49.96000 41.42000 41.57300
C  51.06800 42.28500 41.86600
C  50.43500 43.56600 42.12700
C  50.01500 40.01100 41.22700
C  52.51900 41.83300 41.90700
O  52.83800 40.70400 41.63100
C  53.74600 42.72800 42.31800
N  49.20900 46.34100 42.97600
C  50.50900 45.95000 43.09000
C  51.35100 47.16300 43.53900
C  50.33400 48.12100 44.20900
C  49.03600 47.46400 43.72100
C  52.54200 46.75000 44.55900
C  50.47600 49.60200 43.82000
C  50.21300 50.49600 45.05700
N  46.29800 46.46400 42.99300
C  46.49200 47.75100 43.55100
C  45.18400 48.38500 43.65000
C  44.30500 47.61100 42.88400
C  45.05500 46.45900 42.46500
C  44.93800 49.66700 44.34000
C  42.97400 47.51600 42.43700
O  41.96300 48.11800 42.67800
C  42.98200 46.23100 41.50500
C  42.00100 45.22600 42.04500
O  40.95700 44.88200 41.42700
O  42.32200 44.81700 43.32000
C  41.25200 44.03000 43.99700
H  47.24700 40.85500 40.80100
H  52.14000 44.79700 42.73300
H  47.86000 49.07700 44.38000
H  43.13400 43.34200 40.67700
H  45.15100 41.49400 39.65100
H  43.20700 41.16500 41.58500
H  44.57300 41.41500 42.59100
H  44.63500 39.96300 41.59200
H  44.95500 43.45300 38.30600
H  44.22400 44.94400 38.73400
H  42.47100 44.36700 37.50600
H  42.20200 42.90800 38.62000
H  50.38100 39.47500 42.10300
H  50.55800 39.74600 40.32000
H  48.98200 39.68000 41.12100
H  53.78600 43.12500 43.33200
H  53.82800 43.55900 41.61800
H  54.53200 41.99700 42.12800
H  51.78600 47.52400 42.60700
H  50.25900 47.99100 45.28800
H  53.40700 46.51000 43.94100
H  52.11900 45.89300 45.08400
H  52.77700 47.50500 45.30900
H  49.88900 49.83400 42.93100
H  51.43000 49.92900 43.40600
H  50.23600 49.87600 45.95400
H  49.30500 51.09700 45.02100
H  51.02500 51.21900 44.98300
H  43.92600 49.91200 44.01600
H  45.64600 50.44700 44.06300
H  45.10700 49.52200 45.40700
H  42.62000 46.43300 40.49700
H  41.71700 43.14000 44.42200
H  40.53000 43.56800 43.32400
H  40.60000 44.48800 44.74100

