158

Mg 8.86100 3.81000 28.48000
C  10.30900 2.10700 31.24600
C  7.37600 5.88000 30.44800
C  7.55900 5.18600 25.63000
C  9.92300 0.88300 26.48300
N  8.92000 3.96000 30.64200
C  9.57800 3.26200 31.57800
C  9.22500 3.84700 32.96400
C  8.30700 5.09000 32.59700
C  8.22500 4.97600 31.10000
C  6.93700 5.09000 33.34900
C  10.47900 4.16500 33.84800
C  10.37800 5.42000 34.89700
H  10.94500 5.21100 36.26300
N  7.67900 5.38500 28.08200
C  7.05900 6.09900 29.10700
C  6.42500 7.18800 28.47600
C  6.41100 6.99200 27.06100
C  7.27900 5.83300 26.86600
C  5.81700 8.38200 29.27800
C  5.66500 7.76100 25.96900
O  5.75600 7.51900 24.75100
C  4.77200 8.87500 26.29200
N  8.77700 3.07900 26.35300
C  8.22200 3.86000 25.40300
C  8.05500 3.05700 24.10700
C  9.00000 1.78800 24.37600
C  9.26400 1.92500 25.86300
C  6.65200 2.61300 23.61700
C  10.30100 1.67600 23.44700
C  10.61200 0.37200 22.66800
N  9.98200 2.00200 28.72200
C  10.36500 0.95900 27.85900
C  11.16800 0.00400 28.52800
C  11.31000 0.45300 29.81700
C  10.53900 1.66100 29.92300
C  11.83600 -1.21500 27.90300
C  11.86100 0.20200 31.16000
O  12.66500 -0.61500 31.61400
C  11.14000 1.20800 32.11900
C  10.27700 0.32400 32.96500
O  9.38100 -0.37400 32.53200
O  10.53900 0.40000 34.27900
C  9.61500 -0.22700 35.21400
H  6.93300 6.62800 31.10900
H  7.23200 5.67200 24.70800
H  10.07900 -0.01700 25.88500
H  8.62200 3.04700 33.39300
H  8.81700 6.03700 32.77100
H  6.02900 4.94300 32.76400
H  6.73700 6.03300 33.85700
H  6.87700 4.40100 34.19100
H  11.38200 4.36900 33.27100
H  10.76000 3.25900 34.38500
H  9.32400 5.69400 34.93000
H  10.97900 6.23200 34.48800
H  4.75400 8.18900 29.42400
H  5.95500 9.34600 28.78800
H  6.03400 8.47700 30.34200
H  4.33500 8.86700 27.29000
H  3.98800 8.75800 25.54300
H  5.33600 9.79200 26.12300
H  8.54200 3.62700 23.31600
H  8.43000 0.86800 24.24900
H  6.00700 3.32600 24.13100
H  6.38000 1.64600 24.04000
H  6.81400 2.85100 22.56600
H  11.20200 1.88000 24.02600
H  10.40000 2.46000 22.69500
H  9.91800 -0.36400 23.07400
H  11.61400 0.06100 22.96400
H  10.51300 0.58000 21.60300
H  11.23900 -1.59200 27.07200
H  11.89500 -1.94700 28.70900
H  12.84700 -0.90100 27.64400
H  11.80900 1.84500 32.69700
H  9.55400 0.29500 36.16900
H  9.91700 -1.22200 35.54000
H  8.56900 -0.22700 34.91000
Mg 47.65000 34.01000 26.92000
C  45.80100 32.55600 29.50600
C  48.07500 36.81400 29.07400
C  49.04600 35.81000 24.37400
C  46.95500 31.47900 24.85000
N  46.93500 34.65500 29.02800
C  46.24100 33.81800 29.91000
C  46.08900 34.55700 31.27300
C  46.44300 35.97900 30.82100
C  47.25300 35.78300 29.58200
C  45.21300 36.86800 30.61100
C  47.02700 33.99700 32.31000
C  46.49400 33.97600 33.75800
H  45.62200 35.06600 34.33100
N  48.65200 35.93800 26.77900
C  48.72200 36.86800 27.80200
C  49.55700 37.90400 27.30500
C  49.80800 37.71200 25.95000
C  49.13500 36.47200 25.62700
C  50.06600 39.06200 28.22100
C  50.51300 38.58000 24.87400
O  50.64600 38.26200 23.72000
C  51.29900 39.74800 25.40500
N  47.87500 33.78500 24.94300
C  48.55400 34.62600 24.03900
C  48.60200 34.01300 22.67000
C  48.25100 32.45600 23.00000
C  47.65400 32.56200 24.37400
C  47.97100 34.73500 21.47000
C  49.44800 31.48500 23.00700
C  49.30100 30.28600 22.07500
N  46.61000 32.37600 27.08500
C  46.42300 31.40100 26.15700
C  45.71700 30.30800 26.80800
C  45.48400 30.66700 28.14200
C  46.06500 31.95500 28.23500
C  45.25400 29.02200 26.15900
C  44.83200 30.26100 29.35100
O  44.26000 29.23800 29.61700
C  44.85600 31.51200 30.21500
C  45.21400 31.14500 31.64500
O  46.32800 30.88900 32.01900
O  44.07600 30.89800 32.35200
C  44.39600 30.30900 33.68600
H  48.32500 37.61000 29.78000
H  49.61000 36.30600 23.58200
H  46.82900 30.63400 24.17100
H  45.07900 34.40000 31.65200
H  47.06500 36.36100 31.63100
H  44.24200 36.40900 30.80100
H  45.09400 37.22900 29.59000
H  45.16100 37.68700 31.32800
H  47.94200 34.57400 32.44200
H  47.39300 33.00000 32.06500
H  47.43100 34.05400 34.30900
H  46.12900 32.95900 33.89900
H  51.08900 39.42500 28.12400
H  50.18000 38.69100 29.24000
H  49.36900 39.87600 28.02300
H  50.60100 40.43600 25.88200
H  51.63600 40.17900 24.46300
H  52.11300 39.65000 26.12400
H  49.68500 34.07100 22.56500
H  47.42900 32.17700 22.33900
H  47.80800 34.13800 20.57300
H  48.55600 35.59500 21.14300
H  46.94100 34.99400 21.71600
H  49.67800 31.21700 24.03800
H  50.34400 32.05800 22.76600
H  49.45800 29.45500 22.76300
H  50.04600 30.44400 21.29500
H  48.35500 30.16400 21.54900
H  45.54700 28.23700 26.85600
H  45.79000 28.86400 25.22300
H  44.17300 28.96900 26.03300
H  43.86100 31.94000 30.33600
H  44.89700 31.02300 34.34000
H  44.98500 29.39600 33.60400
H  43.47100 29.99400 34.16900

