158

Mg 48.38500 35.26000 27.43900
C  46.40500 33.98400 30.07400
C  49.02200 38.03100 29.39700
C  49.47200 36.83200 24.71400
C  47.60600 32.42500 25.61600
N  47.84100 35.84300 29.52000
C  47.11000 35.13700 30.36000
C  47.38700 35.66700 31.82000
C  47.72700 37.19100 31.52600
C  48.26800 37.04600 30.06200
C  46.55000 38.12400 31.79200
C  48.62900 34.94600 32.51800
C  48.68300 35.18000 34.02000
H  47.60500 36.09600 34.65000
N  49.17800 37.18000 27.08900
C  49.32700 38.10500 27.97300
C  49.85900 39.27200 27.37100
C  50.05400 38.95700 25.98600
C  49.55700 37.63600 25.86100
C  50.19800 40.53200 28.11100
C  50.74200 39.69900 24.93000
O  50.82000 39.25900 23.77600
C  51.29900 40.99100 25.29000
N  48.67500 34.66000 25.55200
C  49.10900 35.46300 24.54000
C  49.44400 34.51800 23.31300
C  49.11400 33.05200 23.75700
C  48.36400 33.38600 25.03600
C  48.82800 34.96000 21.99500
C  50.37400 32.08200 24.08500
C  50.14000 30.64600 23.54400
N  47.29000 33.61300 27.70600
C  47.06600 32.52400 26.90700
C  46.20900 31.57000 27.52200
C  45.91200 32.08700 28.76600
C  46.58600 33.31300 28.79500
C  45.85100 30.23600 27.01400
C  45.18600 31.89800 29.95500
O  44.48200 30.96000 30.27500
C  45.39700 33.10200 30.88100
C  45.67200 32.76600 32.30700
O  46.76300 32.30300 32.72800
O  44.60200 32.97700 33.07800
C  44.65000 32.58300 34.49700
H  49.25300 38.90000 30.01700
H  49.87700 37.21500 23.77500
H  47.43100 31.51700 25.03400
H  46.45200 35.50700 32.35700
H  48.55400 37.50000 32.16500
H  45.87000 37.64600 32.49600
H  46.02200 38.40000 30.87900
H  47.02600 38.96700 32.29400
H  49.56000 35.35700 32.12600
H  48.67300 33.86900 32.35600
H  49.71700 35.45100 34.23300
H  48.56400 34.21200 34.50800
H  51.26700 40.73400 28.04400
H  49.85400 40.52200 29.14500
H  49.75700 41.40200 27.62600
H  50.59200 41.67700 25.75700
H  51.62800 41.45900 24.36200
H  52.16300 40.77700 25.91900
H  50.51900 34.67800 23.23300
H  48.39800 32.56500 23.09400
H  49.64700 34.90300 21.27800
H  48.27900 35.90200 22.01000
H  48.18100 34.29300 21.42500
H  50.80300 32.19000 25.08100
H  51.03400 32.51400 23.33400
H  49.12800 30.52800 23.15800
H  50.18500 29.94000 24.37300
H  50.88600 30.33000 22.81400
H  45.74800 30.14900 25.93200
H  44.87600 30.07700 27.47500
H  46.53700 29.49800 27.43000
H  44.46400 33.66400 30.90300
H  44.28800 33.35600 35.17500
H  45.67300 32.49100 34.86000
H  44.08200 31.66300 34.63200
Mg -11.44700 16.48200 41.16800
C  -8.37700 14.62600 40.84300
C  -9.91900 19.11200 39.62200
C  -14.49500 17.64900 40.37100
C  -12.91100 13.48800 42.41000
N  -9.39300 16.76400 40.38300
C  -8.34100 15.89400 40.19300
C  -7.14600 16.57900 39.51800
C  -7.61600 18.09300 39.44400
C  -9.05800 18.03100 39.84700
C  -6.90700 19.20700 40.26700
C  -6.73200 15.80400 38.22000
C  -5.21700 15.71900 38.05200
H  -4.79700 16.30500 36.66700
N  -12.15700 18.25800 40.30100
C  -11.33200 19.21100 39.77000
C  -12.18600 20.31400 39.21000
C  -13.50100 19.90300 39.47700
C  -13.45800 18.56500 40.00600
C  -11.51300 21.58500 38.57100
C  -14.70800 20.68100 39.03400
O  -14.61200 21.75500 38.43700
C  -16.09400 20.26600 39.39900
N  -13.39200 15.58500 41.18000
C  -14.52500 16.37900 40.95800
C  -15.85000 15.62000 41.20100
C  -15.38800 14.41400 42.02600
C  -13.77200 14.58200 41.99300
C  -17.05200 16.37200 41.76100
C  -15.88500 13.05500 41.47800
C  -16.47700 12.18300 42.56000
N  -10.76700 14.48900 41.76300
C  -11.50200 13.38300 42.19200
C  -10.56600 12.26500 42.29100
C  -9.34400 12.72100 41.82100
C  -9.54900 14.04700 41.42200
C  -10.93300 10.88400 42.75900
C  -7.99500 12.34800 41.65600
O  -7.47600 11.23800 41.86200
C  -7.28200 13.51500 40.89700
C  -6.11300 13.88000 41.61700
O  -6.07100 14.33900 42.74200
O  -4.98600 13.63600 40.81200
C  -3.67400 14.23800 41.34100
H  -9.44000 19.97500 39.15500
H  -15.48200 18.00600 40.07000
H  -13.41700 12.57800 42.74000
H  -6.34600 16.54100 40.25800
H  -7.53300 18.36200 38.39100
H  -7.56400 19.62700 41.02800
H  -6.59400 20.05000 39.65100
H  -6.09500 18.65900 40.74400
H  -7.10200 16.24500 37.29400
H  -7.13900 14.79500 38.16800
H  -4.87600 14.70700 38.27000
H  -4.74000 16.37200 38.78300
H  -10.56400 21.38500 38.07300
H  -11.29100 22.28600 39.37700
H  -12.16800 21.95700 37.78300
H  -16.68700 21.17500 39.29800
H  -16.15200 19.88000 40.41700
H  -16.45100 19.53100 38.67600
H  -16.08200 15.27300 40.19400
H  -15.76800 14.43900 43.04700
H  -17.92400 16.14900 41.14600
H  -16.85800 17.44300 41.81700
H  -17.13300 15.99100 42.77900
H  -15.07500 12.56400 40.93800
H  -16.75700 13.04300 40.82400
H  -17.55200 12.02900 42.47000
H  -16.31600 12.44800 43.60500
H  -15.99500 11.22700 42.35500
H  -11.78700 10.47000 42.22300
H  -11.09300 10.82400 43.83600
H  -10.10300 10.21400 42.53700
H  -7.07000 13.11800 39.90400
H  -2.79700 13.82300 40.84400
H  -3.53200 13.95700 42.38500
H  -3.75200 15.32300 41.26700

