158

Mg 54.84000 24.70500 43.54400
C  52.25100 27.08600 43.11800
C  52.71700 22.33400 42.44700
C  57.45000 22.55100 43.41000
C  57.02200 27.32800 44.25000
N  52.75700 24.71100 42.82200
C  51.88500 25.81300 42.73200
C  50.57600 25.34700 42.18600
C  50.64200 23.73600 42.23500
C  52.11100 23.58900 42.55600
C  49.76900 22.88200 43.13300
C  50.25400 25.89700 40.78500
C  51.41100 26.02400 39.79200
H  51.00800 25.84700 38.28100
N  55.04900 22.65700 43.05100
C  54.04400 21.89300 42.65100
C  54.54800 20.63000 42.52700
C  55.89800 20.58400 42.88100
C  56.21000 21.98400 43.18400
C  53.77000 19.43700 42.18000
C  56.77700 19.27800 43.03200
O  56.36800 18.12800 42.81900
C  58.22400 19.42100 43.44500
N  56.95500 24.94700 43.70400
C  57.76800 23.87600 43.78200
C  59.19700 24.26000 44.04400
C  59.12400 25.78200 44.25800
C  57.59700 26.09400 44.03200
C  59.68000 23.46400 45.29100
C  59.98300 26.78900 43.39400
C  59.53500 26.87800 41.90600
N  54.71700 26.79800 43.49800
C  55.61600 27.70900 44.04100
C  54.93400 28.94700 44.33600
C  53.63500 28.72200 44.00600
C  53.54600 27.46500 43.45300
C  55.58900 30.15200 44.94300
C  52.30700 29.33600 43.98000
O  51.97300 30.38200 44.39700
C  51.38500 28.38700 43.22200
C  50.90200 29.08500 41.96300
O  51.63100 29.34400 41.03400
O  49.53300 29.28900 41.99500
C  48.91600 29.53900 40.72800
H  52.03100 21.53700 42.15400
H  58.31000 21.89800 43.25000
H  57.72600 28.01100 44.73000
H  49.83400 25.77700 42.85800
H  50.46900 23.31100 41.24600
H  50.39300 22.51100 43.94600
H  49.31400 21.98400 42.71700
H  48.87500 23.31300 43.58400
H  49.72600 26.83500 40.95800
H  49.55800 25.19300 40.32900
H  52.28700 25.40700 39.99100
H  51.60700 27.09400 39.72900
H  54.24700 19.10800 41.25700
H  52.69500 19.59400 42.09600
H  53.93300 18.59000 42.84700
H  58.76400 18.49500 43.64100
H  58.38300 20.11300 44.27200
H  58.83000 19.77100 42.61000
H  59.71200 23.90700 43.15000
H  59.47000 26.06400 45.25300
H  60.30600 24.11600 45.89900
H  60.28300 22.66400 44.86000
H  58.96400 23.14200 46.04700
H  61.04500 26.74500 43.63800
H  59.91200 27.79900 43.79700
H  58.64300 27.45800 41.67100
H  59.33700 25.87900 41.51900
H  60.41800 27.12700 41.31600
H  56.58200 30.34800 44.54000
H  55.69300 30.01200 46.01900
H  55.08000 31.09700 44.75500
H  50.59800 28.24500 43.96300
H  48.81500 30.62000 40.63500
H  47.88500 29.20800 40.85400
H  49.37600 29.06200 39.86200
Mg 27.16900 49.59900 26.08300
C  25.01800 50.67700 28.69700
C  29.51300 48.81200 28.42000
C  29.46300 49.12500 23.50700
C  24.91800 50.92200 23.79100
N  27.30400 49.90800 28.27700
C  26.28700 50.17900 29.19300
C  26.59300 49.79000 30.62100
C  28.15100 49.54000 30.46500
C  28.35000 49.34000 28.92400
C  29.20700 50.48000 31.17900
C  25.72000 48.53900 31.04900
C  25.45900 48.25700 32.61300
H  25.91700 49.27300 33.68900
N  29.11800 48.90600 26.02700
C  29.89800 48.65900 27.09000
C  31.16900 48.22600 26.68400
C  31.29300 48.47900 25.26000
C  29.94600 48.86800 24.87400
C  32.20000 47.69300 27.61000
C  32.53800 48.37400 24.42900
O  32.54800 48.58200 23.22200
C  33.79900 47.87800 24.97700
N  27.14100 49.79300 23.92900
C  28.14900 49.55000 23.08100
C  27.73900 49.75200 21.64800
C  26.29800 50.27000 21.72200
C  26.09700 50.37700 23.24800
C  28.72300 50.65100 20.77400
C  25.26900 49.34500 21.04300
C  24.21300 50.08800 20.26000
N  25.29200 50.64200 26.13200
C  24.53600 51.12100 25.11700
C  23.33700 51.60100 25.72000
C  23.44600 51.43100 27.13200
C  24.69900 50.90700 27.33700
C  22.18900 52.26900 24.99000
C  22.81600 51.74600 28.39700
O  21.69000 52.20500 28.64600
C  23.81200 51.15900 29.45900
C  24.16800 52.17400 30.51300
O  25.08700 52.96400 30.47700
O  23.18200 52.17200 31.51500
C  23.40400 53.06700 32.67600
H  30.11400 48.28900 29.16700
H  30.19500 49.00200 22.70600
H  24.18800 51.22700 23.03800
H  26.33100 50.63000 31.26400
H  28.37800 48.59300 30.95500
H  28.58300 51.20700 31.70000
H  29.72600 51.08200 30.43300
H  29.90600 50.01300 31.87200
H  26.30500 47.75000 30.57700
H  24.72600 48.69100 30.62900
H  25.86600 47.29500 32.92400
H  24.38000 48.10400 32.56500
H  32.76100 46.87300 27.16100
H  31.66400 47.28300 28.46600
H  32.86700 48.53100 27.81500
H  34.61400 47.92800 24.25500
H  33.86800 46.87500 25.39900
H  34.09000 48.55300 25.78200
H  27.70700 48.72500 21.28400
H  26.24800 51.24100 21.23000
H  29.11600 51.38200 21.48000
H  28.17300 51.16900 19.98900
H  29.60700 50.15800 20.37000
H  24.87800 48.61100 21.74800
H  25.73600 48.69400 20.30400
H  23.32900 49.45400 20.33200
H  24.51700 50.39100 19.25800
H  23.91300 50.94400 20.86500
H  22.46800 53.23500 24.57000
H  21.30500 52.35200 25.62300
H  22.04700 51.67000 24.09100
H  23.20200 50.30400 29.75100
H  24.31200 52.60900 33.06800
H  22.55800 52.94700 33.35300
H  23.52600 54.13800 32.51900

