158

Mg 26.01700 0.82000 29.19100
C  27.92200 0.58100 32.14000
C  23.25700 0.93200 31.16200
C  24.18700 1.16100 26.32500
C  28.81500 0.13900 27.26200
N  25.72700 0.93800 31.44700
C  26.63300 0.83100 32.49800
C  26.07800 1.15600 33.83600
C  24.52100 1.07600 33.51400
C  24.46000 0.92800 31.95600
C  23.75400 -0.08600 34.16200
C  26.59500 2.50200 34.41400
C  27.13800 2.55500 35.90000
H  26.42200 3.40000 36.88800
N  24.03400 0.98400 28.77100
C  23.03200 0.94600 29.74000
C  21.70700 0.99500 29.12600
C  22.04100 1.23800 27.70100
C  23.51400 1.19000 27.55800
C  20.42000 0.93600 29.92800
C  21.05800 1.25800 26.61000
O  21.38000 1.48600 25.39700
C  19.63400 1.01100 26.90200
N  26.46200 0.52000 27.09600
C  25.55100 0.88900 26.12000
C  26.09300 0.81300 24.72300
C  27.60700 0.41600 25.04500
C  27.64800 0.36300 26.52700
C  25.43500 -0.17200 23.73500
C  28.60100 1.41400 24.29300
C  29.53500 0.76300 23.28600
N  28.00900 0.45100 29.58400
C  29.03900 0.21900 28.68100
C  30.24600 0.09700 29.43200
C  29.85400 0.30300 30.80300
C  28.47500 0.45900 30.82800
C  31.60300 -0.15800 29.00900
C  30.34000 0.33600 32.15300
O  31.46700 0.19600 32.57800
C  29.12600 0.64200 33.03100
C  29.12000 -0.16200 34.24700
O  28.48200 -1.21200 34.38200
O  29.94100 0.45700 35.16700
C  29.96500 -0.21800 36.46600
H  22.33900 0.84500 31.74700
H  23.56300 1.44400 25.47400
H  29.76700 -0.10000 26.78300
H  26.26900 0.30900 34.49500
H  24.05400 2.01900 33.79800
H  23.53900 0.41800 35.10400
H  24.47100 -0.89300 34.31500
H  22.91100 -0.48900 33.60100
H  25.75000 3.18900 34.37500
H  27.42600 2.86300 33.80800
H  28.20000 2.79000 35.97200
H  27.00800 1.50700 36.17200
H  19.65900 1.51200 29.40000
H  20.54800 1.29200 30.95000
H  20.07900 -0.09900 29.92100
H  19.54500 0.11200 27.51200
H  19.13800 0.97300 25.93200
H  19.28100 1.85000 27.50200
H  26.02400 1.80900 24.28500
H  27.93700 -0.55100 24.66600
H  25.08000 0.50300 22.95600
H  24.57900 -0.67800 24.18200
H  26.14400 -0.90400 23.34800
H  29.22300 1.99200 24.97600
H  28.05500 2.23200 23.82400
H  30.59900 0.73100 23.52300
H  29.44000 1.26200 22.32200
H  29.12500 -0.23500 23.13200
H  31.97100 0.84100 28.77400
H  31.55700 -0.80900 28.13700
H  32.00800 -0.49100 29.96400
H  29.27000 1.69000 33.29400
H  29.77300 -1.28800 36.54200
H  29.15100 0.11800 37.10700
H  30.93400 -0.04800 36.93500
Mg 49.95500 44.76000 42.97000
C  46.66800 45.43800 41.94500
C  49.36200 41.38000 42.39500
C  53.38100 44.17400 42.56500
C  50.60300 48.15000 42.49900
N  48.18600 43.48900 42.53000
C  47.02100 44.07400 42.01000
C  46.04700 42.93700 41.63800
C  46.73800 41.65600 42.29400
C  48.17400 42.13300 42.47100
C  46.22000 41.24300 43.68200
C  45.90300 42.87300 40.12100
C  44.45900 43.00700 39.67500
H  44.11600 43.97200 38.54300
N  51.25100 43.04000 42.64700
C  50.77200 41.77200 42.38400
C  51.92800 40.93000 42.16200
C  53.12300 41.69700 42.23900
C  52.63300 43.03000 42.50400
C  51.79800 39.40000 41.82700
C  54.58100 41.25100 42.02000
O  54.71000 40.05900 41.79900
C  55.85700 41.99600 42.31400
N  51.74700 46.03500 42.61500
C  53.02300 45.55500 42.62100
C  54.08100 46.67100 42.67100
C  53.20600 47.96700 42.18800
C  51.76200 47.39000 42.49000
C  54.60500 46.62800 44.09300
C  53.17200 48.43300 40.64500
C  53.15400 49.96200 40.34200
N  48.84200 46.52000 42.66100
C  49.24200 47.82200 42.53000
C  48.09200 48.65700 42.24400
C  47.07100 47.75500 42.03000
C  47.56300 46.44700 42.29500
C  48.10200 50.05900 41.79700
C  45.69700 47.70200 41.60800
O  44.82400 48.55300 41.38700
C  45.35400 46.14900 41.54100
C  44.18800 45.79000 42.41000
O  44.32200 45.73400 43.64100
O  43.05500 45.45200 41.69400
C  41.78800 45.32100 42.39600
H  49.29500 40.29500 42.28700
H  54.45200 44.03800 42.39700
H  50.77200 49.22100 42.37100
H  45.07500 43.12600 42.09400
H  46.95100 40.81900 41.62800
H  47.00400 41.48700 44.39800
H  46.19100 40.15300 43.71100
H  45.41000 41.87500 44.04700
H  46.41200 42.01100 39.69100
H  46.34800 43.74500 39.64100
H  43.83400 43.25300 40.53400
H  44.20300 42.00100 39.34200
H  52.47000 39.09200 41.02600
H  50.81500 39.30500 41.36600
H  51.78400 38.88500 42.78800
H  56.12900 42.59300 41.44400
H  56.67100 41.27300 42.35600
H  55.89000 42.48400 43.28800
H  54.86600 46.39600 41.96600
H  53.60200 48.81100 42.75300
H  55.68600 46.49200 44.10600
H  54.10100 45.88100 44.70700
H  54.48300 47.52200 44.70400
H  52.22600 48.09100 40.22700
H  53.88000 47.86400 40.04100
H  52.86100 50.16800 39.31200
H  54.14800 50.39800 40.45000
H  52.42300 50.50700 40.93800
H  48.37900 50.66400 42.65900
H  47.19800 50.42800 41.31100
H  48.94700 50.14800 41.11400
H  45.14600 45.99900 40.48100
H  41.72800 46.01300 43.23700
H  41.84000 44.26400 42.65700
H  40.94800 45.36500 41.70300

