158

Mg 46.80900 15.93000 28.40600
C  44.46200 15.61100 30.96900
C  48.81800 17.68300 30.53300
C  48.57100 16.73800 25.83500
C  44.42600 14.48100 26.20200
N  46.51700 16.81300 30.43400
C  45.63200 16.27300 31.37500
C  45.96600 16.86600 32.80300
C  47.18100 17.76200 32.55300
C  47.52100 17.47500 31.03200
C  46.78000 19.27000 32.73100
C  46.18200 15.66800 33.75900
C  45.52500 15.73500 35.13200
H  45.32200 17.11600 35.77100
N  48.62100 16.95900 28.23100
C  49.30500 17.56900 29.23500
C  50.59500 17.93900 28.76600
C  50.60900 17.62700 27.37600
C  49.27900 17.02700 27.07600
C  51.72900 18.45000 29.68300
C  51.62200 17.89400 26.22700
O  51.40100 17.62200 25.08500
C  53.05400 18.45400 26.58400
N  46.34800 15.90300 26.28000
C  47.36200 16.27300 25.46100
C  46.85400 16.17700 23.94500
C  45.65400 15.23400 24.17400
C  45.44500 15.15100 25.64300
C  46.56000 17.50700 23.27100
C  45.75400 13.79300 23.54100
C  44.46400 13.43200 22.84300
N  44.90000 14.99400 28.52500
C  44.08100 14.39800 27.58600
C  42.83300 14.04000 28.25200
C  42.97200 14.44500 29.57900
C  44.24100 15.06100 29.70800
C  41.64800 13.26000 27.59700
C  42.39300 14.38300 30.80400
O  41.29900 13.93200 31.08500
C  43.33100 15.15300 31.83600
C  42.49900 16.16100 32.47300
O  42.42200 17.33900 32.06700
O  42.10000 15.74000 33.66600
C  41.25400 16.71300 34.40900
H  49.55700 17.99500 31.27500
H  49.14300 17.00300 24.94300
H  43.69600 13.96300 25.57700
H  45.07400 17.39200 33.14400
H  48.06500 17.51600 33.14100
H  45.71500 19.43000 32.89900
H  46.94600 19.70700 31.74600
H  47.34300 19.80900 33.49300
H  47.24900 15.46400 33.84700
H  45.82100 14.72800 33.34100
H  46.11900 15.23200 35.89500
H  44.57500 15.21400 35.01700
H  51.61600 19.51500 29.88400
H  52.73600 18.27800 29.30400
H  51.64100 18.02100 30.68100
H  52.97800 19.38900 27.13800
H  53.60600 18.64300 25.66300
H  53.57400 17.68400 27.15400
H  47.60600 15.70000 23.31500
H  44.74400 15.73200 23.84200
H  46.74100 18.33600 23.95500
H  45.51600 17.41900 22.97000
H  47.07800 17.65800 22.32400
H  45.95600 13.12900 24.38200
H  46.48800 13.77900 22.73600
H  44.62400 13.25600 21.78000
H  43.65300 14.14100 23.01100
H  44.06600 12.51000 23.26700
H  42.14600 12.46500 27.04100
H  41.18300 14.01900 26.96800
H  40.97000 12.76500 28.29200
H  43.64200 14.43700 32.59600
H  40.32500 17.03000 33.93600
H  41.87900 17.55400 34.70800
H  41.04100 16.24600 35.37100
Mg -11.25100 38.46100 42.09700
C  -9.33300 35.87900 40.58400
C  -9.39900 40.86400 40.68100
C  -13.72300 40.68900 42.89200
C  -13.51300 35.77700 43.12100
N  -9.55300 38.34300 40.80400
C  -8.93800 37.24600 40.30300
C  -7.67000 37.61800 39.55000
C  -7.63300 39.17400 39.64300
C  -8.96300 39.52000 40.38800
C  -6.37300 39.75300 40.35800
C  -7.65800 36.99400 38.11900
C  -6.34800 36.21900 37.75500
H  -5.44800 36.81000 36.67300
N  -11.43500 40.57400 41.92000
C  -10.56200 41.35700 41.25000
C  -11.08700 42.70700 41.34500
C  -12.38600 42.65600 41.84200
C  -12.55600 41.25300 42.25400
C  -10.37500 43.86900 40.66500
C  -13.35700 43.78400 41.99500
O  -13.03500 44.90100 41.61900
C  -14.64000 43.74400 42.86200
N  -13.32900 38.21200 42.77200
C  -14.05000 39.37900 43.17300
C  -15.38000 38.91400 43.71000
C  -15.25200 37.38000 43.76500
C  -13.99300 37.09100 43.10500
C  -15.86600 39.62400 45.04700
C  -16.52000 36.63400 43.23200
C  -17.31600 35.90300 44.32800
N  -11.35000 36.31500 41.98000
C  -12.29400 35.40600 42.48200
C  -11.76800 33.97700 42.29500
C  -10.65900 34.16500 41.53100
C  -10.42700 35.58400 41.36200
C  -12.34400 32.62100 42.68700
C  -9.57400 33.40300 40.91700
O  -9.29900 32.22200 40.93500
C  -8.63200 34.55300 40.29800
C  -7.41300 34.50300 41.23100
O  -7.33200 34.79600 42.43300
O  -6.48900 33.86300 40.46800
C  -5.23800 33.33500 41.04700
H  -8.74400 41.65800 40.31800
H  -14.51400 41.38900 43.17000
H  -14.14500 35.03400 43.61200
H  -6.81800 37.31400 40.15700
H  -7.56800 39.66400 38.67100
H  -6.34400 40.83500 40.22500
H  -5.48000 39.34600 39.88300
H  -6.41100 39.50800 41.41900
H  -7.84800 37.76900 37.37800
H  -8.56700 36.39700 38.04300
H  -6.53800 35.16400 37.55400
H  -5.64900 36.12400 38.58600
H  -10.51500 44.74000 41.30400
H  -10.87400 44.12000 39.72900
H  -9.31800 43.63100 40.54800
H  -15.45500 43.21500 42.36800
H  -14.95200 44.78800 42.89700
H  -14.44600 43.40100 43.87900
H  -16.00800 39.20300 42.86700
H  -15.16600 37.12600 44.82100
H  -16.73800 40.23100 44.80400
H  -15.09300 40.27800 45.45200
H  -16.18500 38.88500 45.78200
H  -16.00300 35.99300 42.51800
H  -17.16500 37.39300 42.78900
H  -17.78300 36.56600 45.05600
H  -16.67900 35.22900 44.90100
H  -18.05500 35.25300 43.86000
H  -12.46100 32.66800 43.76900
H  -11.78600 31.78600 42.26300
H  -13.32700 32.45200 42.24600
H  -8.28600 34.39700 39.27700
H  -4.37100 33.33900 40.38600
H  -5.40200 32.32400 41.41900
H  -5.10000 33.96700 41.92400

