158

Mg 0.29200 7.99700 25.46300
C  0.86800 9.76100 28.45000
C  0.13500 5.11800 27.42200
C  -0.12100 6.22500 22.68200
C  0.82800 10.87100 23.60100
N  0.39200 7.51300 27.68000
C  0.48500 8.43700 28.67800
C  0.43900 7.83100 30.03200
C  0.36600 6.26200 29.75200
C  0.27100 6.26500 28.24500
C  1.46900 5.28800 30.37400
C  -0.70300 8.41500 30.86300
C  -0.53500 8.17400 32.40700
H  -0.53400 6.66100 32.80400
N  0.04200 5.97500 25.07600
C  0.07400 4.94800 25.99100
C  0.03600 3.61900 25.25400
C  -0.02800 3.97300 23.84000
C  -0.00600 5.48300 23.84300
C  0.27300 2.24000 25.90100
C  -0.10400 3.03000 22.61600
O  -0.05400 3.45800 21.44900
C  -0.12900 1.55300 22.82900
N  0.34300 8.49700 23.40200
C  0.06600 7.57200 22.45700
C  -0.10200 8.22700 21.06600
C  0.03500 9.79400 21.45700
C  0.46700 9.71600 22.88500
C  0.93300 7.75100 19.95100
C  -1.24100 10.67500 21.23400
C  -2.18500 10.98800 22.41200
N  0.81100 9.86300 25.86600
C  1.00000 10.94800 25.01700
C  1.42800 12.02200 25.75800
C  1.43200 11.66900 27.13900
C  0.99700 10.27000 27.12800
C  1.64300 13.51800 25.23600
C  1.64200 12.14100 28.54000
O  2.14600 13.16500 28.92600
C  1.14100 10.88400 29.42200
C  2.22400 10.46800 30.32400
O  3.24600 9.89600 30.03500
O  1.89200 10.89900 31.59500
C  2.86600 10.49400 32.64500
H  0.25000 4.26300 28.09200
H  -0.19600 5.71000 21.72100
H  0.97600 11.74500 22.96300
H  1.41000 7.98500 30.50200
H  -0.59700 5.82400 30.01300
H  1.01400 4.52900 31.01000
H  2.14100 5.87700 30.99900
H  2.04900 4.87400 29.54900
H  -1.60000 7.84600 30.62100
H  -0.75200 9.50000 30.77100
H  -1.26400 8.73500 32.99200
H  0.32100 8.68200 32.85200
H  -0.69200 1.78900 25.66800
H  0.36700 2.27000 26.98700
H  1.14700 1.70200 25.53300
H  -1.09400 1.43500 23.32200
H  0.74000 1.25800 23.41600
H  -0.04900 1.07800 21.85200
H  -1.09100 7.94600 20.70400
H  0.87600 10.25000 20.93500
H  1.21900 8.57900 19.30200
H  0.56700 6.93600 19.32600
H  1.79100 7.28300 20.43400
H  -1.81800 10.18300 20.45100
H  -0.89200 11.62500 20.83000
H  -1.72600 10.58900 23.31700
H  -3.06200 10.37800 22.19600
H  -2.42700 12.03500 22.59800
H  1.13500 13.64900 24.28100
H  2.68100 13.81400 25.38700
H  1.18900 14.21700 25.93800
H  0.24500 11.17100 29.97300
H  3.50100 11.25500 33.10000
H  3.50700 9.63700 32.43500
H  2.23900 10.23200 33.49700
Mg 2.22200 41.77100 24.65900
C  3.94000 41.75400 27.64900
C  -0.43800 40.19700 26.16800
C  0.70600 41.58300 21.56400
C  5.07900 42.88100 23.07800
N  1.89500 41.04300 26.63600
C  2.62700 41.32100 27.77700
C  1.83100 41.11800 29.06100
C  0.45300 40.55300 28.55200
C  0.63200 40.59500 26.96000
C  -0.06100 39.20200 29.11500
C  1.63500 42.37300 30.03400
C  1.60100 41.97700 31.57300
H  0.17000 42.05700 32.14200
N  0.38500 41.09300 23.97100
C  -0.56300 40.43300 24.73900
C  -1.66700 40.01900 23.86700
C  -1.51200 40.54700 22.60600
C  -0.09500 41.02500 22.65100
C  -2.81800 39.18700 24.39200
C  -2.44100 40.45100 21.30000
O  -2.06100 40.72800 20.15200
C  -3.80000 40.01200 21.40600
N  2.80900 42.21700 22.59400
C  1.98600 42.10200 21.52200
C  2.61900 42.71600 20.24700
C  3.91200 43.37200 20.87800
C  3.98900 42.80700 22.20800
C  2.87400 41.78500 19.06500
C  3.94400 44.95400 20.83100
C  5.13700 45.54100 20.02900
N  4.20600 42.18100 25.17700
C  5.21000 42.54000 24.45100
C  6.46100 42.61700 25.27300
C  5.94500 42.26100 26.55100
C  4.58600 42.01300 26.42800
C  7.80100 43.21600 25.03000
C  6.32800 42.13900 28.00200
O  7.38200 42.29200 28.53100
C  4.99300 41.87800 28.76200
C  5.14800 40.72800 29.72900
O  5.28300 39.58100 29.41000
O  5.44100 41.18700 30.95700
C  6.08800 40.31400 31.92000
H  -1.38000 39.86800 26.61200
H  0.22100 41.58800 20.58600
H  5.95300 43.33700 22.60800
H  2.31600 40.33000 29.63700
H  -0.24100 41.35700 28.79500
H  0.49900 38.86700 29.98800
H  0.00400 38.61000 28.20200
H  -1.04700 39.38000 29.54200
H  0.69100 42.85900 29.78600
H  2.52900 42.98700 29.93300
H  2.07900 42.71300 32.21800
H  1.95900 40.98300 31.84200
H  -3.17400 38.60400 23.54200
H  -3.60100 39.89400 24.66600
H  -2.54400 38.50500 25.19700
H  -4.27000 40.74900 20.75500
H  -4.28500 40.20800 22.36200
H  -3.94200 38.99300 21.04500
H  1.79900 43.37700 19.96600
H  4.75700 43.06500 20.26300
H  3.60900 42.16400 18.35500
H  1.93800 41.52900 18.56900
H  3.22600 40.86800 19.53800
H  4.00000 45.41700 21.81600
H  3.06800 45.41100 20.37100
H  5.83700 45.84700 20.80600
H  4.80000 46.38300 19.42500
H  5.70400 44.82300 19.43600
H  7.90200 43.97700 24.25600
H  8.54400 42.49700 24.68600
H  8.24000 43.73200 25.88400
H  4.71400 42.77300 29.32000
H  5.42700 39.48400 32.17100
H  6.43000 40.92000 32.76000
H  7.00100 39.91100 31.48200

