158

Mg 46.94600 24.97500 29.18300
C  47.72100 27.39000 31.65800
C  46.03400 22.80000 31.58900
C  46.81100 22.65300 26.79000
C  48.22200 27.27700 26.93700
N  46.83600 25.10000 31.38300
C  47.23200 26.18200 32.21400
C  46.80600 25.88200 33.69500
C  46.36900 24.37600 33.67300
C  46.34800 24.03800 32.12300
C  47.09800 23.29900 34.46100
C  45.67900 26.88600 34.22400
C  46.10100 27.74400 35.38900
H  45.06400 27.87200 36.53300
N  46.35700 23.01400 29.19300
C  46.00900 22.25500 30.26900
C  45.56000 20.96600 29.89900
C  45.79800 20.90900 28.49900
C  46.27900 22.21800 28.04400
C  44.93600 19.93900 30.94300
C  45.48000 19.79700 27.49300
O  45.69400 19.94700 26.28600
C  44.91300 18.53300 27.88500
N  47.46300 24.99400 27.11800
C  47.32600 23.90400 26.40600
C  47.72500 24.13600 24.85600
C  47.81800 25.74300 24.96800
C  47.83500 26.04800 26.40200
C  49.09600 23.39000 24.49100
C  46.61400 26.41400 24.27100
C  45.27500 26.17800 24.92900
N  47.75300 26.97900 29.23100
C  48.32400 27.71400 28.23900
C  48.86700 28.96800 28.74400
C  48.59100 28.86900 30.12400
C  47.94200 27.68600 30.33900
C  49.64600 30.05900 27.96500
C  48.70400 29.54200 31.43000
O  49.13600 30.63900 31.74700
C  48.18400 28.59500 32.49300
C  49.31900 28.30100 33.39200
O  50.23900 27.52600 33.13400
O  49.02100 28.90100 34.63400
C  50.05500 28.62200 35.68300
H  45.49600 22.22500 32.34600
H  46.89000 21.83200 26.07300
H  48.73400 27.88700 26.19000
H  47.69700 25.84600 34.32300
H  45.33500 24.23100 33.98700
H  46.56500 23.17500 35.40400
H  48.09400 23.67900 34.69100
H  47.00800 22.33100 33.96900
H  44.77900 26.32700 34.48500
H  45.41900 27.65500 33.49700
H  46.19000 28.77300 35.04100
H  47.06100 27.42000 35.79100
H  45.13000 18.90100 30.67400
H  43.87300 20.06900 31.14500
H  45.29600 20.12800 31.95500
H  45.74700 17.88600 28.15700
H  44.43500 17.98800 27.07100
H  44.15600 18.59000 28.66700
H  46.97800 23.84900 24.11500
H  48.77100 26.07400 24.55600
H  49.55400 23.05000 25.42000
H  49.86700 24.04500 24.08700
H  48.87500 22.56800 23.81000
H  46.59000 26.00100 23.26300
H  46.74200 27.49300 24.18800
H  44.47600 26.10900 24.19100
H  45.11000 27.03400 25.58400
H  45.26500 25.18800 25.38600
H  50.52000 30.35400 28.54600
H  48.93200 30.87800 27.88400
H  50.00400 29.79800 26.96900
H  47.39800 29.14900 33.00700
H  50.01700 29.43700 36.40700
H  51.07900 28.58800 35.31100
H  49.79500 27.73200 36.25600
Mg 25.25000 51.00400 26.94800
C  22.94300 51.93800 29.33900
C  27.51500 50.17100 29.45600
C  27.83200 50.57400 24.59400
C  23.21200 52.14500 24.43800
N  25.22900 51.18100 29.10400
C  24.13100 51.46800 29.93000
C  24.42000 51.33300 31.45900
C  25.94100 50.69400 31.37200
C  26.26700 50.70700 29.89500
C  26.98200 51.56500 32.17200
C  23.44000 50.43400 32.33800
C  23.96900 50.03700 33.68300
H  23.37700 50.71800 34.95600
N  27.30000 50.31800 27.00100
C  27.98500 49.95100 28.15200
C  29.27000 49.41200 27.78700
C  29.31100 49.39100 26.40500
C  28.09700 50.11600 25.90500
C  30.29800 48.91300 28.76300
C  30.41500 48.89600 25.50300
O  30.43000 49.12300 24.31800
C  31.63500 48.07100 26.04200
N  25.58000 51.41600 24.84700
C  26.65500 51.11600 24.10100
C  26.47200 51.60300 22.63900
C  24.95300 51.91200 22.61300
C  24.54700 51.79200 24.00400
C  27.31200 52.83800 22.18400
C  24.13000 51.06900 21.72300
C  24.19300 51.42200 20.25300
N  23.50000 51.90800 26.86200
C  22.74800 52.21100 25.76300
C  21.37600 52.49600 26.23100
C  21.46500 52.57200 27.58400
C  22.74600 52.09900 27.93800
C  20.21800 52.94100 25.39200
C  20.70000 52.81100 28.78800
O  19.58800 53.24600 28.96700
C  21.68300 52.50900 29.97100
C  21.92400 53.79100 30.70000
O  22.28400 54.80900 30.16500
O  21.45000 53.64500 31.99200
C  21.44700 54.93900 32.71300
H  28.10100 49.79400 30.29700
H  28.57900 50.44900 23.80700
H  22.49700 52.42000 23.66000
H  24.24800 52.36200 31.77300
H  25.97300 49.69600 31.80900
H  27.89800 51.63400 31.58500
H  27.23900 51.15800 33.15000
H  26.60100 52.57800 32.30200
H  23.31500 49.46600 31.85300
H  22.47400 50.93800 32.35200
H  24.96000 50.46900 33.81800
H  23.99300 48.95300 33.79400
H  30.10900 49.17500 29.80400
H  31.25600 49.39300 28.55900
H  30.35500 47.82500 28.74800
H  31.20200 47.32700 26.71100
H  32.27400 48.75600 26.59800
H  32.22700 47.43200 25.38600
H  26.72500 50.87100 21.87200
H  24.76000 52.93800 22.29900
H  27.76000 53.38900 23.01000
H  26.80100 53.48100 21.46700
H  28.25200 52.57100 21.70200
H  23.05900 51.04300 21.92400
H  24.60400 50.08700 21.72000
H  24.01200 50.47600 19.74200
H  25.05100 52.05400 20.02500
H  23.29200 51.98300 20.00400
H  20.31300 52.60900 24.35800
H  20.19200 54.02500 25.50100
H  19.31600 52.57600 25.88300
H  21.18800 51.84400 30.67900
H  22.13300 55.69800 32.33600
H  21.55700 54.80200 33.78800
H  20.43800 55.33800 32.61200

