158

Mg 48.58100 46.15300 43.40000
C  45.38300 46.80600 41.92400
C  48.43800 43.02900 41.76100
C  51.76800 45.88100 43.98700
C  48.71700 49.57000 44.29000
N  47.11000 45.09300 41.89900
C  45.90400 45.60700 41.47200
C  45.22300 44.59000 40.53000
C  46.11900 43.33800 40.69500
C  47.25400 43.80000 41.52800
C  45.42400 42.07700 41.24400
C  45.04300 45.11500 39.10400
C  43.73400 44.63000 38.42500
H  43.88300 43.67200 37.16000
N  49.84300 44.58000 43.16200
C  49.62200 43.39100 42.43200
C  50.85200 42.64900 42.41300
C  51.89000 43.38400 43.10800
C  51.16500 44.70100 43.49000
C  50.92300 41.28400 41.67800
C  53.38800 42.97200 43.24700
O  53.80000 41.86100 42.83100
C  54.34400 43.98000 43.81900
N  50.05400 47.54300 44.05700
C  51.32600 47.13300 44.31500
C  52.22500 48.33100 44.70800
C  51.20100 49.39600 45.14500
C  49.91000 48.85600 44.46200
C  53.28100 47.92700 45.81500
C  51.55800 50.80700 44.64200
C  51.62300 51.84700 45.67800
N  47.36300 47.91300 43.18900
C  47.45200 49.15500 43.76000
C  46.21700 49.86800 43.62400
C  45.35200 48.98800 42.87200
C  46.12200 47.80900 42.65600
C  45.89000 51.32100 44.13000
C  44.04300 48.88400 42.28200
O  43.12400 49.64300 42.18000
C  44.08800 47.48400 41.48000
C  42.88300 46.67100 41.80700
O  41.90300 46.28000 41.08900
O  43.00400 46.42700 43.10300
C  42.11600 45.36900 43.52000
H  48.44600 42.07600 41.22800
H  52.83900 45.79500 44.18200
H  48.71600 50.62500 44.57500
H  44.24500 44.33200 40.93700
H  46.59800 43.07900 39.75100
H  45.32800 42.10200 42.33000
H  45.96100 41.15900 41.00400
H  44.47900 42.02200 40.70500
H  45.87300 44.92900 38.42300
H  45.11400 46.19300 38.95800
H  43.29300 45.60400 38.21400
H  42.94600 44.09100 38.95100
H  51.75300 40.61300 41.90200
H  50.90800 41.40600 40.59500
H  50.03800 40.67500 41.86200
H  53.90400 44.14600 44.80300
H  54.52700 44.78900 43.11200
H  55.31100 43.53100 44.04700
H  52.81700 48.56800 43.82400
H  51.14900 49.44100 46.23300
H  53.19900 48.68300 46.59600
H  54.25200 48.07000 45.34200
H  53.29300 46.93200 46.26100
H  50.96700 51.13200 43.78600
H  52.59600 50.66400 44.34100
H  51.41500 51.53800 46.70200
H  50.98400 52.69700 45.44000
H  52.65400 52.19500 45.74400
H  46.62900 52.01000 43.72100
H  45.85300 51.40100 45.21700
H  44.97500 51.70900 43.68200
H  44.00300 47.66900 40.40900
H  42.41900 45.14100 44.54200
H  42.23700 44.47400 42.90900
H  41.04000 45.51700 43.42600
Mg 31.10300 59.44000 39.08000
C  28.40100 57.09500 38.08300
C  33.22200 56.94600 38.48600
C  33.43400 61.72900 39.61100
C  28.48600 61.87700 39.32900
N  30.78500 57.27700 38.36700
C  29.62900 56.44100 38.21600
C  30.02200 54.97700 38.09700
C  31.61900 55.03000 38.26000
C  31.90400 56.53700 38.41400
C  32.25200 54.00300 39.29400
C  29.44100 54.24300 36.83100
C  30.00500 54.70000 35.46000
H  29.08800 54.86500 34.21200
N  33.00400 59.35300 39.12400
C  33.74600 58.23900 38.85000
C  35.16700 58.53800 39.03800
C  35.28100 59.87700 39.43600
C  33.88300 60.43900 39.44600
C  36.26900 57.55800 38.68500
C  36.54800 60.69900 39.73100
O  37.64800 60.15700 39.54400
C  36.57100 62.09700 40.19700
N  30.96100 61.57700 39.36400
C  32.12800 62.27100 39.65600
C  31.80600 63.70600 40.08000
C  30.20500 63.71600 39.95000
C  29.85000 62.27700 39.61600
C  32.24200 64.11600 41.42400
C  29.71000 64.80100 38.89000
C  28.81000 65.91400 39.51600
N  28.94100 59.57100 38.73100
C  28.04800 60.59800 38.92600
C  26.70700 60.24200 38.46900
C  26.82200 58.85000 38.23200
C  28.18400 58.49600 38.40400
C  25.46800 61.24400 38.33300
C  26.00200 57.69500 37.96200
O  24.78100 57.59400 37.89800
C  26.95100 56.50000 37.79300
C  26.54100 55.54800 38.83900
O  26.54700 55.76800 40.01500
O  25.91500 54.47300 38.28800
C  25.53300 53.44200 39.30300
H  33.93000 56.12200 38.59500
H  34.13500 62.55600 39.74400
H  27.68700 62.61900 39.38500
H  29.54100 54.57400 38.98900
H  32.02400 54.76800 37.28300
H  32.82600 54.63200 39.97500
H  33.01200 53.37500 38.82900
H  31.65300 53.36800 39.94700
H  28.35300 54.21500 36.88700
H  29.81200 53.22900 36.97900
H  30.86100 54.09900 35.15400
H  30.35300 55.72100 35.61800
H  36.04200 56.57800 38.26400
H  36.74400 57.39100 39.65200
H  37.04000 58.00000 38.05400
H  35.95100 62.23200 41.08300
H  36.26000 62.69300 39.33900
H  37.58800 62.27300 40.54900
H  32.22800 64.35400 39.31100
H  29.77900 63.89700 40.93700
H  31.50300 63.82500 42.17100
H  32.57300 65.15400 41.41800
H  33.14500 63.60100 41.75100
H  29.13600 64.38300 38.06400
H  30.56200 65.38200 38.53500
H  29.24600 66.90900 39.43500
H  28.56300 65.82300 40.57400
H  27.82200 65.87800 39.05500
H  25.26700 61.45700 39.38300
H  24.66400 60.80800 37.74000
H  25.72900 62.22600 37.93900
H  26.77900 56.07300 36.80500
H  26.29300 53.31500 40.07400
H  25.32700 52.52500 38.75000
H  24.59100 53.76700 39.74500

