158

Mg 24.62900 -4.64100 46.26400
C  26.61800 -1.99000 44.76700
C  22.11400 -3.65100 44.13900
C  22.93900 -7.43600 47.06400
C  27.52700 -5.67700 47.79700
N  24.41100 -2.97100 44.67200
C  25.28100 -1.99000 44.28500
C  24.92200 -1.39100 43.00300
C  23.42200 -1.64900 42.98100
C  23.29900 -2.85000 43.97200
C  22.51900 -0.42300 43.36400
C  25.70400 -1.84900 41.80600
C  26.21700 -0.78600 40.82300
H  25.37700 -0.57900 39.53300
N  22.69700 -5.52500 45.69900
C  21.85300 -4.91400 44.80900
C  20.72300 -5.75400 44.58200
C  20.93800 -6.88900 45.35800
C  22.17900 -6.66500 46.14000
C  19.62800 -5.48400 43.51400
C  19.96400 -8.13700 45.40000
O  18.98500 -8.15900 44.65500
C  20.10100 -9.19100 46.39800
N  25.18300 -6.44800 47.04500
C  24.31000 -7.39400 47.51000
C  25.05900 -8.47400 48.25600
C  26.39600 -7.76900 48.71600
C  26.39800 -6.56600 47.77700
C  24.22800 -9.05000 49.42600
C  27.73300 -8.57400 48.52400
C  28.64900 -8.60800 49.73600
N  26.60300 -3.95500 46.42700
C  27.64300 -4.48700 47.15100
C  28.74200 -3.51000 47.09400
C  28.38600 -2.64000 46.10500
C  27.11300 -2.97000 45.68100
C  29.99800 -3.48700 47.89300
C  28.93600 -1.51600 45.39900
O  30.04400 -0.97500 45.44500
C  27.81800 -1.18900 44.35400
C  27.56800 0.27700 44.45500
O  27.05500 0.80100 45.39300
O  27.97800 0.89100 43.33600
C  27.72300 2.34700 43.22400
H  21.25900 -3.22500 43.61100
H  22.37900 -8.24300 47.54100
H  28.38200 -5.95400 48.41700
H  25.09500 -0.33800 43.22200
H  23.16600 -2.11700 42.03000
H  23.05100 0.35200 43.91500
H  21.60900 -0.78100 43.84600
H  22.21400 -0.03700 42.39100
H  25.08300 -2.50800 41.19900
H  26.48300 -2.57200 42.04900
H  27.24700 -0.90300 40.48800
H  26.25700 0.13200 41.40900
H  19.62400 -6.34800 42.84900
H  19.91800 -4.60600 42.93700
H  18.57500 -5.41600 43.78700
H  19.45500 -10.04800 46.20700
H  19.79500 -8.78900 47.36400
H  21.12300 -9.53900 46.54200
H  25.31400 -9.20200 47.48600
H  26.27200 -7.40400 49.73500
H  23.27700 -8.51800 49.44600
H  24.87100 -8.93000 50.29800
H  24.09600 -10.10900 49.20200
H  28.26400 -8.06300 47.72000
H  27.49100 -9.59400 48.22600
H  28.77400 -9.63600 50.07500
H  28.21900 -7.93500 50.47800
H  29.60900 -8.26400 49.35100
H  30.02800 -4.41200 48.46900
H  30.04300 -2.66600 48.60800
H  30.86300 -3.51300 47.23000
H  28.13800 -1.24200 43.31400
H  28.56200 2.77300 43.77500
H  26.83300 2.70100 43.74400
H  27.70300 2.60600 42.16600
Mg 29.22500 57.92700 41.02600
C  26.67800 55.78000 39.65400
C  31.52800 55.65800 39.92500
C  31.41500 60.13600 41.66100
C  26.64700 60.21200 41.96600
N  28.98900 55.99600 39.89100
C  27.95300 55.35100 39.38700
C  28.45400 54.13300 38.61700
C  29.86800 53.85300 39.22600
C  30.15500 55.25600 39.76000
C  29.96500 52.82600 40.33500
C  28.54200 54.38700 37.11400
C  27.59900 53.47300 36.25600
H  26.78000 54.13100 35.16400
N  31.22700 57.90800 40.75300
C  32.00900 56.89800 40.31200
C  33.38300 57.28400 40.36400
C  33.36000 58.59900 40.98500
C  31.98700 58.92300 41.22300
C  34.52400 56.39400 39.93300
C  34.63600 59.31700 41.48900
O  35.70300 58.91000 41.12000
C  34.55400 60.64200 42.24700
N  29.06400 60.05700 41.59800
C  30.11700 60.66900 41.92700
C  29.83300 62.08300 42.34100
C  28.39600 61.94400 42.85200
C  27.97900 60.70200 42.01800
C  30.85300 62.68900 43.38800
C  27.47900 63.19000 42.55000
C  26.71900 63.75300 43.70200
N  27.12900 58.00800 40.88100
C  26.22200 59.03000 41.39100
C  24.88100 58.60000 41.08200
C  25.03400 57.34400 40.49900
C  26.38800 57.02600 40.34300
C  23.56000 59.38900 41.31800
C  24.25300 56.30000 39.90600
O  23.02100 56.23100 39.80800
C  25.27200 55.24300 39.26100
C  25.07500 53.97000 39.91300
O  25.51100 53.62900 41.00400
O  24.23800 53.23200 39.16600
C  23.61100 52.12200 39.81700
H  32.22600 54.82500 39.81800
H  32.17500 60.91500 41.75100
H  25.89800 60.88900 42.38200
H  27.76600 53.29300 38.70900
H  30.58400 53.56700 38.45600
H  29.94200 53.34000 41.29600
H  30.92500 52.30900 40.33600
H  29.13400 52.12500 40.26400
H  29.49800 54.13100 36.65900
H  28.37900 55.43700 36.87000
H  26.87400 53.03400 36.94200
H  28.15800 52.60800 35.90000
H  35.28200 56.96100 39.39200
H  34.23900 55.52300 39.34200
H  34.95700 55.95500 40.83200
H  35.51900 60.94400 42.65300
H  33.87000 60.62400 43.09500
H  34.29300 61.28900 41.41000
H  29.84200 62.71000 41.45000
H  28.42400 61.68400 43.91000
H  30.34800 63.26700 44.16200
H  31.49400 63.37000 42.82700
H  31.49200 61.91500 43.81300
H  26.60700 62.99100 41.92600
H  28.07800 63.89400 41.97300
H  26.78300 63.12400 44.58900
H  25.65600 63.80700 43.46600
H  27.14500 64.68300 44.07800
H  23.62100 60.39900 40.91300
H  23.34600 59.40600 42.38700
H  22.71200 58.91800 40.82000
H  25.15400 55.09400 38.18800
H  23.82500 51.15500 39.36200
H  22.54500 52.33000 39.90600
H  23.87900 52.04000 40.87100

