158

Mg 1.54500 7.71400 25.00900
C  2.00700 9.56900 27.83400
C  1.57200 4.81100 26.89100
C  1.30100 5.92900 22.14600
C  1.49100 10.63700 23.05300
N  1.72200 7.22900 27.13700
C  1.89500 8.19500 28.13100
C  1.93600 7.45000 29.49900
C  1.99000 5.96900 29.15000
C  1.64000 5.96100 27.68300
C  3.27600 5.09100 29.49000
C  0.82400 7.84100 30.50100
C  1.18100 7.60600 31.99600
H  2.39600 6.70500 32.38600
N  1.53100 5.56900 24.57200
C  1.44200 4.56200 25.44600
C  1.32400 3.26600 24.73400
C  1.27300 3.61500 23.36300
C  1.42700 5.12900 23.25600
C  1.28400 1.95900 25.43400
C  1.25500 2.61800 22.20400
O  1.09300 2.90700 20.97700
C  1.29100 1.11200 22.39900
N  1.20600 8.24600 22.91500
C  1.28500 7.31800 21.95700
C  1.00900 7.98600 20.58300
C  0.76200 9.46500 20.95000
C  1.18200 9.43500 22.34500
C  2.12000 7.80200 19.48300
C  -0.69400 10.06400 20.80100
C  -0.82000 11.57500 20.76200
N  1.68800 9.66400 25.29700
C  1.68100 10.75400 24.40400
C  1.85700 11.98600 25.19500
C  2.03000 11.52400 26.50800
C  1.93300 10.13500 26.53100
C  1.84700 13.38200 24.67700
C  2.24500 12.07100 27.86200
O  2.50700 13.21000 28.23400
C  2.16100 10.77000 28.78300
C  3.26600 10.67600 29.80300
O  4.31500 10.02500 29.61800
O  2.94200 11.39300 30.94500
C  3.94300 11.13400 32.01300
H  1.55700 3.85600 27.42000
H  1.18200 5.43400 21.18000
H  1.64000 11.50000 22.40100
H  2.85900 7.70800 30.01800
H  1.07900 5.58000 29.60500
H  2.90500 4.14800 29.89200
H  3.99800 5.58400 30.14100
H  3.94500 4.85300 28.66300
H  -0.09700 7.32800 30.22400
H  0.69800 8.89500 30.25000
H  0.42300 6.95000 32.42400
H  1.25400 8.56200 32.51400
H  1.94000 1.26400 24.91000
H  0.23700 1.65600 25.45600
H  1.63000 2.05200 26.46400
H  2.32700 0.90100 22.66400
H  1.22700 0.64800 21.41500
H  0.65800 0.70700 23.18900
H  0.05500 7.56400 20.26800
H  1.44900 10.08000 20.36900
H  1.53000 7.62600 18.58400
H  2.71400 6.92600 19.74300
H  2.78900 8.64800 19.32700
H  -1.30500 9.74700 21.64500
H  -1.17100 9.59700 19.94000
H  -0.96300 11.93000 19.74100
H  0.11300 11.95900 21.17400
H  -1.53000 11.88600 21.52800
H  2.80400 13.87300 24.85200
H  1.11300 13.94800 25.25100
H  1.50200 13.47500 23.64700
H  1.23400 10.92700 29.33500
H  4.93900 11.37300 31.64000
H  3.81100 10.22500 32.60000
H  3.88100 11.94800 32.73500
Mg 45.75300 24.09500 28.37800
C  46.61300 26.30200 30.88200
C  44.62100 21.84800 30.71000
C  45.76000 21.66300 26.01000
C  47.80400 25.93800 26.07800
N  45.55400 24.12500 30.45100
C  45.97000 25.17200 31.28300
C  45.60200 24.87500 32.80100
C  45.05000 23.44300 32.64800
C  45.06800 23.08500 31.19000
C  45.73800 22.43400 33.56300
C  44.47100 25.82700 33.31500
C  43.98000 25.56100 34.74800
H  44.58800 26.43400 35.90100
N  45.10600 22.14200 28.30600
C  44.66500 21.34000 29.37600
C  44.26400 20.04700 28.85900
C  44.39400 20.09800 27.42200
C  45.07900 21.35400 27.19200
C  43.93100 18.88500 29.74200
C  43.80000 19.15200 26.32200
O  43.99300 19.27500 25.11300
C  42.90500 18.10900 26.76100
N  46.63100 23.87300 26.21700
C  46.33200 22.81800 25.48600
C  47.03800 22.83600 24.10800
C  47.69600 24.26000 24.13100
C  47.39800 24.75200 25.57800
C  47.96700 21.67900 23.70500
C  47.35100 25.26700 23.03300
C  46.09800 26.09900 23.20200
N  46.87800 25.87100 28.44400
C  47.58100 26.49500 27.43400
C  48.09600 27.69800 27.94200
C  47.75500 27.71200 29.28400
C  47.06100 26.49600 29.56900
C  48.86900 28.73600 27.18900
C  47.80800 28.48000 30.52200
O  48.28300 29.57000 30.85800
C  47.02400 27.55200 31.60100
C  48.09500 27.20100 32.65300
O  49.08700 26.55500 32.34600
O  47.77700 27.54100 33.97300
C  48.88300 27.47800 34.95600
H  44.20900 21.13400 31.42700
H  45.78500 20.85100 25.28000
H  48.53000 26.49400 25.48000
H  46.55100 25.01200 33.31900
H  43.97600 23.48600 32.82400
H  46.36600 21.69100 33.07100
H  45.03200 22.06200 34.30500
H  46.39200 22.97000 34.25100
H  43.70100 25.78300 32.54400
H  44.94000 26.81000 33.28500
H  44.22700 24.52800 34.99500
H  42.89400 25.64800 34.73900
H  44.74800 18.16600 29.68500
H  43.00700 18.40200 29.42400
H  43.87300 19.25300 30.76700
H  42.41400 17.46100 26.03500
H  42.10400 18.50300 27.38700
H  43.42500 17.46000 27.46400
H  46.23900 22.86800 23.36800
H  48.78000 24.21700 24.02700
H  48.97300 22.04500 23.49900
H  47.64800 21.23900 22.76000
H  47.95700 20.85000 24.41300
H  47.40200 24.71600 22.09400
H  48.24300 25.89200 22.98500
H  45.71700 25.99300 24.21800
H  45.34300 25.81400 22.47000
H  46.32700 27.15900 23.08900
H  49.05300 28.56700 26.12800
H  49.88500 28.67300 27.57800
H  48.39800 29.71200 27.30400
H  46.15200 28.03300 32.04400
H  49.01500 26.46800 35.34600
H  48.75300 28.18300 35.77700
H  49.78500 27.72000 34.39500

