158

Mg 46.86400 16.46200 28.73900
C  44.81500 16.04900 31.54900
C  49.32600 17.72500 30.69900
C  48.51800 17.34300 25.90600
C  44.24600 15.17500 26.79300
N  47.01000 16.97600 30.92300
C  46.07800 16.69000 31.92300
C  46.55900 17.09600 33.29000
C  47.90700 17.86000 32.96700
C  48.07600 17.55400 31.44700
C  47.87600 19.36600 33.40200
C  46.66800 15.85300 34.20900
C  46.15700 15.95700 35.66500
H  45.90600 17.34000 36.27100
N  48.63800 17.46900 28.34500
C  49.56000 17.77100 29.29500
C  50.78000 18.11000 28.64600
C  50.47700 18.12800 27.22300
C  49.18400 17.59200 27.08200
C  52.07600 18.40800 29.45600
C  51.34600 18.60400 26.05200
O  50.96100 18.82300 24.86300
C  52.79200 18.97600 26.31100
N  46.48100 16.18700 26.74400
C  47.33300 16.56900 25.74300
C  46.85100 16.21100 24.33900
C  45.65800 15.29000 24.68100
C  45.43300 15.55600 26.16000
C  46.40600 17.52300 23.68600
C  45.93200 13.78800 24.26600
C  45.61400 13.33600 22.84600
N  44.98500 15.57200 29.08400
C  43.98600 15.20600 28.20100
C  42.81500 14.75200 28.90600
C  43.08000 15.11200 30.23200
C  44.39900 15.62900 30.31200
C  41.57600 14.04000 28.35100
C  42.57200 15.14200 31.54700
O  41.45900 14.79500 31.97300
C  43.69000 15.71600 32.52500
C  43.01000 16.80500 33.36300
O  42.82900 18.00400 32.99900
O  42.53200 16.38300 34.48600
C  41.85700 17.29600 35.48000
H  50.20200 17.79700 31.34700
H  48.93800 17.77200 24.99400
H  43.39400 14.61100 26.40800
H  45.72000 17.72400 33.59200
H  48.68700 17.47500 33.62300
H  48.89500 19.60200 33.70600
H  47.14200 19.57800 34.18000
H  47.66300 19.92500 32.49100
H  47.72300 15.63000 34.37200
H  46.18400 14.94300 33.85500
H  46.83400 15.46300 36.36100
H  45.23400 15.38100 35.73800
H  52.91900 17.97200 28.92000
H  52.04800 18.02000 30.47400
H  52.28900 19.46900 29.32500
H  53.33200 18.21100 26.86900
H  52.67300 19.92600 26.83300
H  53.37600 19.13800 25.40500
H  47.61400 15.68500 23.76500
H  44.76900 15.57200 24.11700
H  45.38400 17.64600 23.32800
H  47.05300 17.59200 22.81200
H  46.62500 18.41600 24.27200
H  45.21700 13.28700 24.92000
H  46.92000 13.65800 24.70600
H  45.42500 14.20900 22.22100
H  44.75100 12.67500 22.77200
H  46.41000 12.76300 22.37100
H  41.77600 13.52000 27.41400
H  40.65700 14.62400 28.33700
H  41.39700 13.22700 29.05600
H  43.89000 15.07900 33.38600
H  40.78100 17.20100 35.62700
H  42.05300 18.36200 35.36400
H  42.35400 17.08200 36.42600
Mg 47.74700 35.04200 27.12800
C  46.15100 33.26800 29.81600
C  48.08600 37.68500 29.19900
C  48.80200 36.76800 24.52600
C  47.42200 32.11900 25.18600
N  47.37900 35.28800 29.31000
C  46.78300 34.44700 30.21900
C  46.97100 35.00500 31.64700
C  47.28500 36.51300 31.30200
C  47.63800 36.49700 29.81700
C  46.15900 37.47500 31.71400
C  48.18100 34.24300 32.30600
C  48.66300 34.75000 33.71700
H  47.83700 35.70500 34.50700
N  48.35500 36.93300 26.90000
C  48.43500 37.87000 27.85000
C  48.86400 39.10600 27.29500
C  49.12100 38.89500 25.86200
C  48.83700 37.42600 25.71600
C  49.10500 40.30200 28.07300
C  49.70000 39.86800 24.80000
O  50.06600 39.47400 23.68800
C  49.98600 41.31200 25.13900
N  48.17800 34.48700 25.16500
C  48.45700 35.45000 24.24800
C  48.51100 34.82800 22.81700
C  48.48100 33.33000 23.17100
C  47.96700 33.32700 24.62100
C  47.47400 35.28500 21.80200
C  49.72100 32.46100 22.86800
C  49.83400 32.08400 21.38900
N  46.87700 33.17000 27.36300
C  46.82100 32.06500 26.46300
C  46.14300 30.94000 27.12300
C  45.81100 31.47000 28.34600
C  46.28800 32.78400 28.51300
C  45.86700 29.56600 26.63400
C  44.99300 31.12000 29.51900
O  44.31900 30.08800 29.68800
C  45.16200 32.31900 30.52400
C  45.42000 31.81100 31.92900
O  46.37000 31.23500 32.36100
O  44.36600 32.36000 32.67400
C  44.43000 32.18900 34.09900
H  48.26500 38.51300 29.88800
H  48.99900 37.44200 23.68900
H  47.45200 31.28200 24.48400
H  46.05300 34.81200 32.20200
H  48.19500 36.78300 31.83700
H  45.56200 36.82200 32.35200
H  45.53600 37.91000 30.93300
H  46.65200 38.18500 32.37700
H  49.07400 34.27100 31.68100
H  47.91600 33.19400 32.43600
H  49.62700 35.25800 33.72400
H  48.75500 33.87000 34.35300
H  49.70400 41.06900 27.58400
H  49.52000 39.95400 29.02000
H  48.12000 40.70500 28.30900
H  50.33600 41.92100 24.30600
H  50.77100 41.40700 25.89000
H  49.06800 41.65300 25.61800
H  49.51000 35.04100 22.43800
H  47.70800 32.92700 22.51600
H  47.67200 36.35600 21.74200
H  46.45900 35.07200 22.13600
H  47.78100 34.75300 20.90200
H  49.70500 31.59000 23.52400
H  50.64500 33.00700 23.05900
H  49.05200 32.63700 20.86900
H  49.63700 31.01700 21.29300
H  50.84000 32.30800 21.03300
H  45.86900 28.81600 27.42600
H  46.70700 29.27800 26.00200
H  44.98100 29.55200 25.99900
H  44.27500 32.93600 30.66800
H  43.85200 33.02700 34.48900
H  45.46100 32.28800 34.44000
H  44.05900 31.21500 34.41700

