158

Mg 1.77800 -2.20400 43.12600
C  5.15100 -1.50000 42.35000
C  0.98000 0.69200 41.45000
C  -1.40100 -3.11600 43.23200
C  2.77500 -5.48900 43.90700
N  3.00700 -0.66800 41.95100
C  4.31300 -0.53700 41.88800
C  4.71900 0.84000 41.20500
C  3.35200 1.57100 41.11300
C  2.38000 0.46400 41.50800
C  3.19100 2.88900 42.00500
C  5.48700 0.68500 39.86300
C  6.49100 1.76400 39.59900
H  6.62300 2.41900 38.18400
N  -0.00200 -1.23900 42.53300
C  -0.11500 -0.01700 41.93800
C  -1.51100 0.33800 41.86700
C  -2.21400 -0.81800 42.31900
C  -1.23100 -1.79700 42.77200
C  -1.92100 1.63800 41.20800
C  -3.75800 -0.96000 42.36200
O  -4.55500 -0.08300 42.00800
C  -4.42800 -2.12200 43.08000
N  0.81000 -4.06200 43.45300
C  -0.49800 -4.15400 43.53100
C  -0.94600 -5.49700 44.17600
C  0.41100 -6.32300 44.18600
C  1.37100 -5.28200 43.69600
C  -1.73400 -5.48300 45.44400
C  0.33200 -7.63300 43.35900
C  1.28700 -8.78200 43.73200
N  3.56300 -3.29400 43.24600
C  3.84100 -4.57100 43.63700
C  5.28400 -4.75600 43.81200
C  5.79900 -3.62800 43.27700
C  4.72200 -2.76100 42.87800
C  5.90200 -6.04200 44.40700
C  7.04400 -2.89200 42.97800
O  8.21900 -3.11900 43.13000
C  6.59500 -1.49300 42.39600
C  7.02400 -0.39200 43.30500
O  6.67800 -0.16800 44.43800
O  7.97600 0.35000 42.71800
C  8.60100 1.40500 43.56700
H  0.73800 1.65700 40.99900
H  -2.41600 -3.50300 43.34600
H  3.11700 -6.46200 44.26600
H  5.39600 1.38900 41.86000
H  3.00700 1.87500 40.12500
H  3.86800 2.85000 42.85800
H  2.19900 2.99600 42.44300
H  3.44800 3.75300 41.39200
H  4.80300 0.74900 39.01600
H  5.99100 -0.28000 39.82100
H  7.44900 1.28400 39.79800
H  6.34100 2.67500 40.18000
H  -1.77100 1.53700 40.13300
H  -1.24900 2.44500 41.49900
H  -2.94600 1.95600 41.39900
H  -5.47900 -1.86900 43.21400
H  -3.91200 -2.24800 44.03200
H  -4.35400 -3.04900 42.51100
H  -1.55000 -6.00800 43.42600
H  0.60400 -6.49100 45.24500
H  -1.60800 -4.52600 45.95100
H  -1.47800 -6.26400 46.15900
H  -2.80000 -5.59200 45.24200
H  0.57700 -7.51400 42.30400
H  -0.67400 -8.05200 43.33600
H  1.83600 -8.65500 44.66500
H  1.96400 -9.05400 42.92200
H  0.59300 -9.62100 43.78800
H  6.95300 -5.96600 44.68600
H  5.78900 -6.93900 43.79800
H  5.36600 -6.18100 45.34600
H  7.05500 -1.41400 41.41100
H  9.59100 1.49100 43.12100
H  8.55000 1.43700 44.65500
H  8.06800 2.32300 43.31800
Mg 16.86600 52.69500 26.51800
C  18.83900 51.33700 29.04300
C  14.57400 53.65400 28.93900
C  14.82600 53.76800 24.06000
C  18.92100 51.28200 24.09900
N  16.79500 52.59000 28.72500
C  17.71900 52.05700 29.53900
C  17.37400 52.25500 30.98800
C  15.81300 52.48400 30.88800
C  15.73100 52.99900 29.41800
C  14.91600 51.22700 31.13100
C  18.20800 53.44300 31.54500
C  18.75800 53.31400 32.92100
H  17.81700 52.55700 33.86300
N  14.95100 53.56300 26.48500
C  14.28100 54.00400 27.59800
C  13.20600 54.92900 27.22400
C  13.26600 54.92800 25.80500
C  14.36000 54.05600 25.37100
C  12.35300 55.68600 28.20900
C  12.31700 55.67900 24.89700
O  12.43600 55.68500 23.69900
C  11.07000 56.38000 25.31900
N  16.77600 52.44800 24.29300
C  15.86200 53.03500 23.52000
C  16.15100 52.92300 22.05900
C  17.45900 52.10000 22.02100
C  17.76800 51.93900 23.53800
C  14.98300 52.37100 21.12000
C  18.50800 52.85700 21.20000
C  19.41600 53.99900 21.79600
N  18.52700 51.59600 26.48000
C  19.26600 51.09700 25.41800
C  20.46600 50.39600 25.92200
C  20.25700 50.43600 27.33500
C  19.13700 51.18100 27.61900
C  21.61300 49.76800 25.19000
C  20.84900 50.02100 28.55300
O  21.90600 49.43600 28.76400
C  19.92900 50.64600 29.74000
C  19.48000 49.64000 30.64600
O  18.51500 48.94100 30.38400
O  20.18700 49.65200 31.84200
C  19.66600 48.64400 32.81800
H  13.89600 53.90500 29.75700
H  14.25300 54.23700 23.25800
H  19.59700 50.87000 23.34600
H  17.55100 51.33900 31.55200
H  15.56300 53.25300 31.61900
H  14.21300 51.55800 31.89500
H  15.41000 50.33100 31.50700
H  14.43500 50.82300 30.24000
H  17.72000 54.40500 31.39000
H  19.13300 53.44600 30.96900
H  18.90800 54.30100 33.36000
H  19.70700 52.78600 33.01300
H  12.79800 55.69700 29.20400
H  11.31600 55.35300 28.24500
H  12.35000 56.73500 27.91400
H  11.41500 57.16600 25.99100
H  10.41400 55.69900 25.86000
H  10.42200 56.76600 24.53200
H  16.48900 53.90700 21.73400
H  17.21400 51.13200 21.58500
H  15.29600 51.55800 20.46500
H  14.58100 53.17400 20.50300
H  14.22100 51.98800 21.79900
H  17.96500 53.30100 20.36500
H  19.25400 52.19400 20.76400
H  19.07200 54.12400 22.82300
H  19.13100 54.94200 21.32900
H  20.49200 53.87500 21.67500
H  21.32300 49.66300 24.14400
H  21.81900 48.78600 25.61700
H  22.49200 50.37900 25.39300
H  20.49500 51.38700 30.30500
H  18.60300 48.44600 32.68200
H  19.74700 49.03800 33.83100
H  20.28900 47.74900 32.84600

