158

Mg 1.56500 -1.78000 43.43600
C  4.75100 -0.55900 42.91700
C  0.28500 1.04700 41.69100
C  -1.51900 -3.27200 43.36000
C  2.97700 -4.83300 44.48700
N  2.44900 0.08400 42.55800
C  3.78100 0.32100 42.41200
C  4.02600 1.65800 41.64100
C  2.57700 2.26300 41.51000
C  1.68000 1.01000 41.85400
C  2.25700 3.46900 42.49300
C  4.80800 1.52800 40.36200
C  5.89300 2.61000 40.11000
H  5.67100 3.51000 38.88200
N  -0.30000 -1.21500 42.65900
C  -0.61000 -0.01300 41.99300
C  -2.00400 -0.02700 41.62600
C  -2.54800 -1.22300 42.10800
C  -1.45000 -1.99800 42.71000
C  -2.78400 0.99700 40.84900
C  -4.05200 -1.50000 41.92400
O  -4.88600 -0.79600 41.37400
C  -4.66100 -2.81300 42.41300
N  0.87800 -3.79400 43.81500
C  -0.47400 -4.05600 43.88500
C  -0.80800 -5.34600 44.62600
C  0.63500 -5.94000 44.86400
C  1.55400 -4.82700 44.31500
C  -1.61200 -5.20900 45.94700
C  0.83300 -7.40000 44.27100
C  0.61100 -8.52100 45.34000
N  3.46600 -2.56300 43.79700
C  3.93200 -3.76700 44.27200
C  5.33500 -3.71700 44.45900
C  5.72900 -2.49400 43.94000
C  4.52900 -1.85000 43.54600
C  6.24500 -4.79600 44.99400
C  6.84900 -1.65000 43.56600
O  8.01800 -1.85000 43.65900
C  6.25100 -0.39600 42.89100
C  6.63300 0.78800 43.70700
O  6.20800 1.01100 44.84100
O  7.61000 1.52600 43.05300
C  8.22800 2.62800 43.70600
H  -0.10800 1.94600 41.21200
H  -2.56800 -3.50500 43.55200
H  3.43600 -5.69600 44.97300
H  4.64700 2.28600 42.28000
H  2.34200 2.67600 40.52900
H  3.20700 3.63500 43.00200
H  1.51100 3.17800 43.23200
H  1.95000 4.33600 41.90600
H  4.06500 1.80400 39.61400
H  5.08500 0.47700 40.27600
H  6.77200 2.00300 39.89200
H  5.99600 3.26300 40.97700
H  -3.17800 0.36900 40.05000
H  -2.18500 1.81900 40.45800
H  -3.63300 1.36900 41.42300
H  -4.12300 -3.66300 41.99300
H  -5.55100 -2.94900 41.79800
H  -4.75600 -2.85700 43.49800
H  -1.38500 -5.90800 43.89100
H  0.79600 -5.95000 45.94200
H  -0.88300 -4.89000 46.69200
H  -2.00600 -6.14400 46.34400
H  -2.38500 -4.44700 45.84100
H  1.78600 -7.70900 43.84300
H  0.02100 -7.56100 43.56200
H  -0.30600 -8.29200 45.88300
H  1.50300 -8.50200 45.96600
H  0.64400 -9.50100 44.86300
H  5.96700 -5.81200 44.71300
H  6.24300 -4.53800 46.05300
H  7.29500 -4.63300 44.74800
H  6.70500 -0.33300 41.90200
H  8.60400 2.00900 44.52000
H  7.45900 3.29900 44.08800
H  8.98900 3.21900 43.19800
Mg 54.44600 24.52200 45.00200
C  51.85600 26.94300 44.09000
C  52.36500 22.01400 43.79500
C  57.07300 22.44900 44.93500
C  56.50400 27.23000 45.51100
N  52.40500 24.54600 43.92400
C  51.48900 25.60600 43.83400
C  50.08200 25.03900 43.33600
C  50.27300 23.44900 43.63000
C  51.77700 23.29300 43.82700
C  49.46500 22.85000 44.88100
C  49.78800 25.34400 41.83700
C  48.26800 25.15200 41.49900
H  47.97200 24.89900 40.03000
N  54.65800 22.48300 44.61400
C  53.72300 21.66200 44.04700
C  54.32100 20.37300 43.84000
C  55.67800 20.45800 44.34800
C  55.86200 21.86200 44.59700
C  53.56700 19.15400 43.45600
C  56.67100 19.22000 44.46800
O  56.31100 18.03300 44.28200
C  57.99900 19.35400 44.88100
N  56.54800 24.83300 45.01900
C  57.40900 23.74400 45.16100
C  58.79900 24.33700 45.43500
C  58.65200 25.88500 45.60300
C  57.13100 26.00500 45.40400
C  59.59300 23.64000 46.65000
C  59.48500 26.72900 44.59700
C  58.88000 27.11700 43.23100
N  54.18900 26.56700 45.08300
C  55.13200 27.52500 45.36100
C  54.53900 28.77100 45.45200
C  53.25700 28.63300 44.86200
C  53.13400 27.26500 44.58900
C  55.23800 30.06600 45.71600
C  52.14900 29.40900 44.38500
O  52.01100 30.64800 44.46100
C  51.12200 28.31700 43.85000
C  50.85000 28.64000 42.40900
O  51.67500 28.60900 41.45500
O  49.53300 28.84200 42.26000
C  48.86000 29.17900 40.96800
H  51.62600 21.22300 43.65500
H  57.97100 21.82800 44.93600
H  57.23300 27.98900 45.80200
H  49.39900 25.49700 44.05200
H  50.14200 22.94600 42.67200
H  50.05500 22.06600 45.35500
H  48.54100 22.33900 44.61000
H  49.35700 23.68300 45.57600
H  50.40700 24.69000 41.22300
H  50.10200 26.37300 41.66500
H  47.84100 26.09600 41.83800
H  48.02400 24.28300 42.11000
H  54.06300 18.72300 42.58600
H  52.55300 19.38000 43.12500
H  53.50300 18.32600 44.16300
H  58.42700 18.37500 45.09500
H  58.01300 19.77900 45.88500
H  58.63300 19.93600 44.21100
H  59.30000 24.09800 44.49800
H  58.96100 26.07200 46.63100
H  59.21800 24.08400 47.57200
H  60.68100 23.64300 46.59100
H  59.17600 22.63300 46.62900
H  60.13200 25.97000 44.15600
H  60.05900 27.45400 45.17400
H  58.38400 26.19800 42.92000
H  59.73000 27.39600 42.60900
H  58.17000 27.90700 43.47800
H  55.51000 30.68200 44.85900
H  56.10100 29.88600 46.35600
H  54.59100 30.69300 46.33000
H  50.17100 28.33800 44.38100
H  49.65300 29.80400 40.55800
H  47.99200 29.82600 41.09100
H  48.61900 28.41200 40.23100

