158

Mg 16.76800 -1.37000 27.97900
C  15.80800 0.78600 30.64400
C  18.84800 -3.00600 29.97100
C  18.10100 -2.91000 25.20100
C  14.88300 0.82400 25.72100
N  17.24100 -1.04000 30.00300
C  16.75600 -0.19800 30.94900
C  17.38500 -0.54900 32.32600
C  18.43000 -1.61300 32.02000
C  18.15700 -1.90700 30.56400
C  19.93700 -1.20000 32.21100
C  16.21900 -1.04600 33.22400
C  16.05700 -0.33200 34.60900
H  17.21900 0.45000 35.29000
N  18.18300 -2.92700 27.68600
C  18.94700 -3.44600 28.64600
C  19.80700 -4.44900 28.10600
C  19.45300 -4.52700 26.72700
C  18.58400 -3.37600 26.47300
C  20.79700 -5.17700 28.82700
C  20.09400 -5.45700 25.68300
O  19.75100 -5.42000 24.50600
C  20.89300 -6.62500 26.13300
N  16.53000 -1.13900 25.76100
C  17.21800 -1.89400 24.86800
C  17.02100 -1.36700 23.45600
C  15.70500 -0.57600 23.61200
C  15.67200 -0.22100 25.13300
C  18.28800 -0.53700 22.92500
C  14.43400 -1.40800 23.27500
C  13.81700 -1.06600 21.95900
N  15.60200 0.39900 28.13000
C  14.92700 1.10200 27.11400
C  14.24600 2.25900 27.79600
C  14.47500 2.07300 29.17500
C  15.29400 0.95400 29.29400
C  13.38000 3.35300 27.22300
C  14.21600 2.71600 30.42200
O  13.58400 3.71900 30.70100
C  15.06500 1.86400 31.45000
C  15.97900 2.83500 32.03700
O  17.08600 3.10700 31.58000
O  15.43800 3.35500 33.14800
C  16.30800 4.39400 33.75400
H  19.46000 -3.46300 30.75100
H  18.52500 -3.38900 24.31600
H  14.34100 1.48000 25.03800
H  17.80900 0.37100 32.72800
H  18.24000 -2.58000 32.48500
H  20.38700 -0.86500 31.27600
H  20.47200 -2.03600 32.66100
H  20.07800 -0.33400 32.85900
H  16.29600 -2.10900 33.45200
H  15.28400 -1.00300 32.66600
H  15.81500 -1.10600 35.33700
H  15.16600 0.29300 34.55000
H  20.60300 -6.24000 28.68800
H  20.81900 -4.98700 29.90000
H  21.81400 -4.92400 28.52900
H  20.35400 -7.13700 26.93000
H  21.88500 -6.29800 26.44700
H  20.95500 -7.17000 25.19100
H  16.88100 -2.24700 22.82900
H  15.66200 0.36000 23.05400
H  18.03700 0.33600 22.32200
H  18.95300 -1.16600 22.33200
H  18.88400 -0.18700 23.76800
H  13.61200 -1.23000 23.96800
H  14.66700 -2.46500 23.14700
H  12.74700 -1.17200 22.13500
H  14.05500 -1.63700 21.06200
H  13.90700 -0.02400 21.65400
H  12.63400 3.60700 27.97600
H  12.77500 3.03400 26.37400
H  13.97900 4.20300 26.89500
H  14.45300 1.44900 32.25100
H  16.33800 5.22100 33.04500
H  17.23600 3.87300 33.99100
H  15.84000 4.69200 34.69300
Mg 30.28100 57.51800 40.15000
C  27.33900 55.73100 39.28100
C  32.09900 55.18000 38.46200
C  32.82700 59.65500 40.18700
C  28.13800 60.16100 41.13500
N  29.77100 55.73900 38.89000
C  28.52200 55.16500 38.78400
C  28.61000 53.76100 38.23100
C  30.11900 53.56100 38.21500
C  30.74500 54.91400 38.58800
C  30.73800 52.42800 39.07800
C  27.80800 53.53300 36.90400
C  27.33500 54.68000 35.95700
H  27.76700 54.59700 34.52700
N  32.25000 57.35900 39.52400
C  32.83700 56.33900 38.83100
C  34.22900 56.59700 38.58200
C  34.43700 57.90600 39.13900
C  33.14900 58.37700 39.68800
C  35.11900 55.54100 38.03800
C  35.77500 58.68800 39.04300
O  36.76300 58.22300 38.53100
C  35.83800 60.13200 39.48500
N  30.50300 59.59000 40.49200
C  31.63600 60.26300 40.49400
C  31.55200 61.66800 41.14300
C  30.15200 61.70600 41.65100
C  29.52400 60.45000 41.00900
C  32.64600 62.13700 42.14700
C  29.30500 63.05200 41.53600
C  29.10500 63.92000 42.77600
N  28.16900 57.91400 40.16800
C  27.44000 59.07000 40.52700
C  26.04000 58.84600 40.49500
C  25.96900 57.50500 39.97200
C  27.30700 57.01600 39.82100
C  24.92700 59.73000 41.03200
C  25.03900 56.50000 39.69500
O  23.78700 56.42900 39.74700
C  25.87000 55.32200 39.15400
C  25.54100 54.00600 39.91500
O  26.17700 53.69400 40.88900
O  24.58500 53.31100 39.27800
C  24.49200 51.91200 39.79400
H  32.73100 54.43800 37.97000
H  33.65200 60.35800 40.32400
H  27.50400 60.92900 41.58500
H  28.20100 53.16300 39.04500
H  30.51200 53.36200 37.21800
H  30.01200 51.80400 39.60000
H  31.54000 52.71800 39.75700
H  31.20800 51.63900 38.49200
H  26.85500 53.03900 37.09500
H  28.32700 52.78100 36.31000
H  27.56700 55.59400 36.50400
H  26.24600 54.72000 35.98700
H  36.15900 55.86200 37.97600
H  34.59200 55.02500 37.23500
H  35.06600 54.83800 38.87000
H  36.82700 60.57700 39.37100
H  35.56400 60.09700 40.53900
H  35.16800 60.68300 38.82500
H  31.66700 62.39200 40.33700
H  30.08300 61.55900 42.72900
H  33.29400 62.98300 41.92000
H  33.22900 61.22100 42.24100
H  32.23400 62.30300 43.14200
H  28.34200 62.93600 41.03900
H  29.94500 63.59300 40.83800
H  28.05900 64.14300 42.98800
H  29.69700 64.83000 42.68000
H  29.43000 63.42000 43.68800
H  25.22600 60.73500 40.73500
H  24.79900 59.78500 42.11300
H  24.00600 59.53900 40.48100
H  25.55600 55.30700 38.11000
H  23.83500 52.02500 40.65700
H  25.41300 51.41200 40.09400
H  23.97400 51.26900 39.08300

