158

Mg 48.60400 35.51500 27.90500
C  46.58200 34.29200 30.49500
C  49.33000 38.19600 30.05700
C  50.11800 37.00000 25.36300
C  47.49800 33.02300 25.82500
N  48.15800 36.03400 30.06600
C  47.39200 35.31400 30.93200
C  47.40900 35.88000 32.41600
C  48.05500 37.30900 32.15600
C  48.58400 37.14900 30.73000
C  47.12100 38.61300 32.23300
C  48.14100 35.01600 33.55300
C  49.52800 35.37600 34.15400
H  49.60600 36.16300 35.49300
N  49.70700 37.30600 27.69400
C  49.77200 38.28000 28.70800
C  50.34400 39.52800 28.08000
C  50.46500 39.28200 26.71500
C  50.04400 37.82400 26.52500
C  50.55100 40.89000 28.84500
C  50.99700 40.14300 25.59200
O  50.97900 39.74200 24.40700
C  51.55200 41.47900 25.92400
N  48.90500 35.02400 25.98500
C  49.63600 35.70400 25.10300
C  49.78300 35.07400 23.72100
C  48.83100 33.85600 23.82100
C  48.28700 33.97500 25.28700
C  49.34300 35.93400 22.64400
C  49.41800 32.42700 23.51200
C  49.16400 32.05200 22.06300
N  47.36900 33.93500 28.06700
C  47.05600 33.00700 27.16000
C  46.05600 32.10700 27.69800
C  45.74300 32.68600 28.99400
C  46.63000 33.70300 29.20900
C  45.37000 31.03500 27.02300
C  44.98400 32.53800 30.19700
O  44.18200 31.71200 30.49500
C  45.48300 33.59900 31.25100
C  45.82600 32.87400 32.47300
O  46.66400 32.05000 32.52300
O  44.93400 33.21300 33.51300
C  45.47000 32.54100 34.77800
H  49.64700 39.06400 30.64000
H  50.53900 37.47200 24.47300
H  47.06100 32.33200 25.10100
H  46.37900 35.94200 32.76800
H  48.98200 37.42400 32.71800
H  47.22500 39.18200 31.30900
H  47.34400 39.17300 33.14100
H  46.06100 38.36100 32.25700
H  48.46800 34.02700 33.23100
H  47.40700 34.75300 34.31400
H  50.18100 35.88300 33.44400
H  50.10500 34.45700 34.26400
H  50.32800 41.68900 28.13800
H  51.62200 40.72700 28.96100
H  49.93700 40.95900 29.74300
H  50.74700 42.14100 26.24400
H  51.88500 41.90000 24.97600
H  52.28500 41.32600 26.71600
H  50.80300 34.73700 23.53900
H  47.91800 33.97800 23.23800
H  48.89900 36.81600 23.10500
H  48.72600 35.47200 21.87300
H  50.23200 36.38000 22.19800
H  48.98600 31.70200 24.20100
H  50.50500 32.44800 23.44000
H  49.03400 32.86900 21.35400
H  48.36700 31.32000 21.93100
H  50.03100 31.58800 21.59200
H  45.16500 30.20900 27.70500
H  45.90500 30.71800 26.12800
H  44.34800 31.31400 26.76400
H  44.68700 34.28900 31.53100
H  45.56600 31.45500 34.77600
H  44.83200 32.90100 35.58500
H  46.47300 32.89700 35.01500
Mg 1.26700 42.09100 24.52800
C  3.03300 42.12100 27.62400
C  -1.40800 40.87200 26.33900
C  -0.11700 41.46200 21.71100
C  4.49600 42.23100 22.89200
N  0.80500 41.63600 26.75600
C  1.67000 41.92000 27.81700
C  0.94900 41.77600 29.19900
C  -0.49100 41.40500 28.71500
C  -0.38000 41.25500 27.18200
C  -1.11500 40.24400 29.53900
C  1.06500 43.02700 30.03600
C  1.47300 42.79000 31.45900
H  1.18900 41.36200 32.19200
N  -0.59500 41.52400 24.06400
C  -1.52200 40.91200 24.96600
C  -2.64600 40.41000 24.19400
C  -2.37700 40.68800 22.83500
C  -1.00700 41.26100 22.80400
C  -3.91900 39.81600 24.80200
C  -3.21400 40.41800 21.59100
O  -2.78400 40.59600 20.45400
C  -4.58100 39.75300 21.64600
N  2.11100 41.82200 22.59000
C  1.19600 41.78100 21.61200
C  1.83300 41.97100 20.24000
C  3.30800 42.29200 20.60000
C  3.30900 42.10500 22.07700
C  1.64400 40.75100 19.33900
C  3.83500 43.58200 20.16000
C  3.14900 44.82700 20.69300
N  3.35500 42.29000 25.10100
C  4.52000 42.39400 24.33200
C  5.67900 42.47700 25.26600
C  5.14600 42.35700 26.51800
C  3.75000 42.29000 26.38000
C  7.08300 42.79200 24.85800
C  5.41800 42.35300 27.97000
O  6.51500 42.31000 28.50000
C  4.06400 42.23100 28.71400
C  4.32200 40.98500 29.55800
O  4.65400 39.88200 29.15300
O  4.39900 41.26300 30.87300
C  4.96500 40.28200 31.85400
H  -2.24200 40.43600 26.89300
H  -0.59200 41.31400 20.73900
H  5.40500 42.18100 22.28800
H  1.53400 41.01000 29.71000
H  -0.98500 42.37300 28.79600
H  -1.94300 40.56500 30.17100
H  -0.47400 39.83900 30.32300
H  -1.34700 39.42500 28.85900
H  0.15200 43.61600 30.11800
H  1.75700 43.70200 29.53300
H  1.12700 43.62900 32.06300
H  2.55100 42.92100 31.55200
H  -4.16300 38.82100 24.42900
H  -4.74700 40.43800 24.46200
H  -3.93700 39.69800 25.88500
H  -4.64800 38.80500 22.18000
H  -4.87200 39.51400 20.62300
H  -5.36500 40.38200 22.06700
H  1.24900 42.80300 19.84700
H  4.03100 41.57400 20.21100
H  0.71700 40.74900 18.76400
H  1.83200 39.91100 20.00800
H  2.44600 41.06300 18.67100
H  3.70000 43.58800 19.07800
H  4.88700 43.65000 20.43800
H  3.96200 45.50800 20.94400
H  2.30500 44.78100 21.38200
H  2.74000 45.30400 19.80300
H  7.18100 43.64900 24.19100
H  7.52400 41.89100 24.43300
H  7.61800 42.93200 25.79800
H  3.83800 43.10300 29.32800
H  5.04700 40.86900 32.76900
H  6.02200 40.08500 31.67300
H  4.43100 39.34300 32.00300

