158

Mg 23.34700 -5.34700 44.61000
C  24.92100 -2.66100 43.25000
C  20.37900 -4.56800 43.09100
C  22.07200 -8.46300 45.38000
C  26.52300 -6.64500 45.69200
N  22.75100 -3.70900 43.41000
C  23.56500 -2.74500 42.85700
C  22.78300 -1.70900 41.97600
C  21.31700 -2.16600 42.27200
C  21.43500 -3.58100 43.00700
C  20.56800 -1.17200 43.18600
C  23.18000 -1.82500 40.46900
C  23.86100 -0.59300 39.85200
H  25.07900 -0.74100 38.97200
N  21.48400 -6.30900 44.35300
C  20.36000 -5.83100 43.67800
C  19.22700 -6.76100 43.79100
C  19.72200 -7.89900 44.48400
C  21.13700 -7.58600 44.79100
C  17.95100 -6.48200 43.11800
C  18.92300 -9.10300 44.74300
O  17.69900 -9.07900 44.55200
C  19.43600 -10.43100 45.23000
N  24.23300 -7.36000 45.30900
C  23.47000 -8.38200 45.69900
C  24.25600 -9.47700 46.53300
C  25.67900 -8.77500 46.66200
C  25.44500 -7.43600 45.94400
C  23.70200 -10.00400 47.89800
C  26.85300 -9.71300 46.23100
C  28.15500 -9.77400 47.08100
N  25.36200 -4.79500 44.54800
C  26.51300 -5.42400 44.96200
C  27.66500 -4.59400 44.66300
C  27.07100 -3.45400 43.98100
C  25.64400 -3.66800 43.94300
C  29.12300 -4.93200 44.88900
C  27.30300 -2.20600 43.29100
O  28.36200 -1.57100 43.21400
C  25.88400 -1.67300 42.75600
C  25.59300 -0.36200 43.38600
O  24.74000 -0.09900 44.20700
O  26.50300 0.54900 42.84900
C  26.34200 1.90900 43.28100
H  19.41600 -4.26200 42.67500
H  21.66800 -9.43500 45.67100
H  27.54600 -6.98200 45.87300
H  22.97500 -0.72500 42.40500
H  20.67800 -2.19200 41.38900
H  20.95400 -0.15300 43.15400
H  20.47400 -1.50200 44.22100
H  19.56700 -1.03800 42.77800
H  22.36400 -2.20200 39.85300
H  23.75100 -2.74200 40.31800
H  23.97100 0.13300 40.65700
H  23.14300 -0.21800 39.12300
H  17.97000 -6.84100 42.08900
H  17.66600 -5.43500 43.01100
H  17.16000 -6.92300 43.72400
H  18.74300 -11.24800 45.03100
H  19.67100 -10.36300 46.29300
H  20.19800 -10.66400 44.48600
H  24.28900 -10.35400 45.88600
H  25.86400 -8.45500 47.68800
H  22.66000 -9.68600 47.94200
H  24.15900 -9.48000 48.73800
H  23.71400 -11.08200 48.05600
H  27.12600 -9.41600 45.21900
H  26.48600 -10.72200 46.04500
H  28.85600 -9.21600 46.46000
H  28.56700 -10.78100 47.15400
H  27.95300 -9.38300 48.07800
H  29.31500 -5.55500 45.76300
H  29.53800 -3.94700 45.10200
H  29.52800 -5.36700 43.97600
H  25.98300 -1.45300 41.69300
H  25.50100 2.40100 42.79200
H  27.18200 2.47500 42.87500
H  26.27700 2.01100 44.36400
Mg 25.05800 1.24200 30.13800
C  27.46900 1.14300 32.79200
C  22.63400 1.00000 32.49000
C  22.93600 1.15000 27.49500
C  27.78400 0.73100 27.91000
N  25.07100 1.10000 32.41300
C  26.19800 1.21300 33.29300
C  25.69000 1.40800 34.74700
C  24.12900 1.32900 34.66500
C  23.91500 1.09700 33.11100
C  23.40000 0.34100 35.59100
C  26.22000 2.64800 35.55700
C  26.39100 2.53200 37.11500
H  25.69000 3.62800 37.91300
N  23.13800 1.05500 30.03200
C  22.24500 1.01700 31.12300
C  20.85100 0.92600 30.61400
C  20.91300 0.98200 29.15800
C  22.37700 1.05500 28.82900
C  19.76100 0.80800 31.56500
C  19.78300 0.79900 28.26200
O  19.93600 0.68800 27.06900
C  18.35600 0.56000 28.77100
N  25.31200 0.75100 27.99300
C  24.27600 1.13100 27.11100
C  24.83600 1.36700 25.69900
C  26.34400 0.92800 25.85600
C  26.51300 0.84000 27.36800
C  24.12400 0.63000 24.57500
C  27.21400 2.06500 25.21400
C  27.38400 3.32900 26.06900
N  27.15700 1.08400 30.26600
C  28.10000 0.75300 29.29300
C  29.39200 0.50600 29.89200
C  29.20200 0.67400 31.26200
C  27.80500 0.94800 31.43200
C  30.63300 0.06900 29.19500
C  29.83900 0.56300 32.52700
O  30.90800 0.11200 32.84400
C  28.76900 0.95200 33.57600
C  28.77700 -0.00200 34.66100
O  28.55300 -1.18900 34.56400
O  29.06200 0.62100 35.86400
C  29.08700 -0.24300 37.03400
H  21.92000 1.05400 33.31400
H  22.29700 1.40500 26.64700
H  28.66100 0.74600 27.25900
H  26.06800 0.55800 35.31500
H  23.76500 2.34400 34.82900
H  23.01600 -0.57700 35.14600
H  22.58700 0.81900 36.13700
H  24.18500 0.08500 36.30300
H  25.45000 3.39600 35.37000
H  27.20900 3.03200 35.30600
H  27.38800 2.54700 37.55500
H  25.83000 1.63200 37.36800
H  19.92400 -0.15400 32.05000
H  18.72500 0.89300 31.23600
H  19.91900 1.65100 32.23800
H  17.65300 0.50100 27.93900
H  17.91200 1.32900 29.40300
H  18.25800 -0.29600 29.43800
H  24.76000 2.42800 25.45800
H  26.58300 -0.09200 25.55500
H  23.58000 -0.20000 25.02600
H  24.81700 0.10400 23.91900
H  23.50200 1.22400 23.90500
H  26.83100 2.35300 24.23500
H  28.16100 1.57700 24.98400
H  28.46900 3.39100 26.15300
H  26.89400 3.41100 27.03900
H  26.99300 4.12900 25.44100
H  31.32300 0.90100 29.05500
H  30.33800 -0.40700 28.25900
H  31.04400 -0.73500 29.80500
H  29.08800 1.88600 34.04000
H  29.10900 -1.31900 36.86600
H  28.21700 -0.07300 37.66900
H  29.92000 0.06500 37.66600

