158

Mg 40.01200 9.71700 30.22200
C  41.69100 11.16000 33.04300
C  37.62600 8.50500 32.27900
C  38.47900 8.50300 27.53700
C  42.75900 10.63600 28.28400
N  39.73800 9.85300 32.44400
C  40.36000 10.61900 33.34000
C  39.89500 10.40100 34.81000
C  38.72200 9.36300 34.53300
C  38.65300 9.15600 33.02500
C  38.77600 8.03000 35.35200
C  39.53000 11.75300 35.63400
C  40.51100 12.19100 36.68800
H  40.02500 12.58500 38.07500
N  38.26900 8.68400 29.93100
C  37.43400 8.25600 30.93700
C  36.26300 7.63800 30.36700
C  36.48500 7.60000 28.98300
C  37.79300 8.22200 28.72700
C  35.20100 7.00200 31.26600
C  35.65500 7.07300 27.86700
O  36.03700 7.20300 26.67600
C  34.34700 6.33500 28.11200
N  40.57200 9.50700 28.21200
C  39.66400 9.09900 27.29500
C  40.10200 9.39000 25.89500
C  41.55400 10.01200 26.12200
C  41.68800 10.05500 27.64800
C  40.11100 8.07700 25.02500
C  41.90900 11.41800 25.47400
C  41.25300 12.69200 26.07900
N  41.88700 10.64200 30.50900
C  42.87900 10.90600 29.66700
C  43.97400 11.54800 30.32600
C  43.53100 11.64600 31.66200
C  42.26800 11.07700 31.71900
C  45.16800 12.30000 29.62000
C  43.93000 12.19200 32.94600
O  44.91000 12.82500 33.27200
C  42.80000 11.70800 33.93400
C  43.39600 10.69300 34.80000
O  43.75800 9.57900 34.47900
O  43.86000 11.47700 35.92000
C  44.96800 10.92200 36.63100
H  36.94600 8.01500 32.97900
H  38.01600 8.22400 26.58800
H  43.52000 10.98800 27.58500
H  40.66400 9.88000 35.38200
H  37.77000 9.80800 34.82400
H  39.75800 7.95500 35.81800
H  38.73300 7.17100 34.68200
H  38.04600 7.77500 36.12000
H  38.52600 11.69800 36.05500
H  39.38000 12.39600 34.76700
H  41.02900 13.04200 36.24600
H  41.24200 11.39500 36.83500
H  35.05100 5.97600 30.93200
H  34.29800 7.60500 31.16200
H  35.42500 6.74200 32.30000
H  34.08200 5.83800 27.17800
H  33.58100 7.05800 28.38900
H  34.71900 5.57400 28.79800
H  39.37800 10.06300 25.43600
H  42.31400 9.34600 25.71400
H  39.91300 7.30200 25.76600
H  41.09300 7.90500 24.58400
H  39.25300 7.95300 24.36500
H  41.52300 11.21100 24.47600
H  42.98400 11.57200 25.38800
H  40.47600 13.13400 25.45500
H  42.04000 13.43500 26.21800
H  40.83400 12.37900 27.03500
H  44.94200 12.88600 28.72900
H  45.95300 11.72500 29.12900
H  45.61400 12.98800 30.33900
H  42.50000 12.66600 34.35600
H  45.54600 10.20200 36.05200
H  44.54300 10.46300 37.52300
H  45.59700 11.70200 37.05900
Mg -6.46000 25.06500 25.93300
C  -4.66400 26.37300 28.62800
C  -8.09400 22.85300 28.09000
C  -7.60000 23.33800 23.28800
C  -4.12600 26.73100 23.77900
N  -6.43800 24.75600 28.03700
C  -5.61600 25.40200 28.96100
C  -6.06500 25.00400 30.37900
C  -7.05100 23.81600 30.22300
C  -7.29200 23.87800 28.67200
C  -6.52400 22.40300 30.81000
C  -6.78600 26.21300 31.09000
C  -6.51900 26.44400 32.56800
H  -6.11500 25.17800 33.50200
N  -7.82700 23.50900 25.72800
C  -8.41000 22.76900 26.73000
C  -9.37500 21.83400 26.16800
C  -9.23000 22.02900 24.74800
C  -8.16100 22.99300 24.54200
C  -10.36100 20.95200 26.96300
C  -9.98500 21.32700 23.68500
O  -9.87800 21.64600 22.49200
C  -11.03500 20.25700 23.97500
N  -6.00200 25.11500 23.84400
C  -6.63200 24.30500 22.92900
C  -6.03300 24.52000 21.44200
C  -5.16200 25.77200 21.67700
C  -5.07700 25.90400 23.18400
C  -5.25700 23.31300 20.92900
C  -5.53200 27.10400 20.93000
C  -4.51600 27.57100 19.92900
N  -4.87200 26.46300 26.11900
C  -4.00500 27.01200 25.17300
C  -2.95600 27.71900 25.83400
C  -3.25200 27.63400 27.22600
C  -4.43700 26.80900 27.32600
C  -1.79400 28.50300 25.33100
C  -2.82500 27.91600 28.61200
O  -1.78800 28.38500 29.02600
C  -3.82700 27.25800 29.55000
C  -3.11100 26.53200 30.51100
O  -2.70500 25.42600 30.33600
O  -2.80200 27.30200 31.60300
C  -2.08100 26.58100 32.66600
H  -8.52500 22.23200 28.87800
H  -7.94500 22.79300 22.40700
H  -3.26900 27.05500 23.18600
H  -5.23700 24.67600 31.00800
H  -7.98900 24.05400 30.72400
H  -5.52800 22.60600 31.20400
H  -6.40100 21.63500 30.04700
H  -7.26700 21.92900 31.45200
H  -7.86900 26.12500 31.00200
H  -6.46100 27.08700 30.52500
H  -7.42000 26.80900 33.06000
H  -5.67200 27.12700 32.64800
H  -10.27800 19.88900 26.73700
H  -11.27300 21.43700 26.61400
H  -10.13000 21.13200 28.01300
H  -10.46600 19.50900 24.52600
H  -11.37700 19.76200 23.06600
H  -11.77000 20.78100 24.58600
H  -6.82200 24.76000 20.73000
H  -4.12200 25.52000 21.46800
H  -4.54200 23.27600 21.75100
H  -4.74200 23.45600 19.97900
H  -5.81300 22.37600 20.91700
H  -5.76400 27.91100 21.62600
H  -6.50100 26.87600 20.48500
H  -4.91500 27.52800 18.91500
H  -3.49400 27.19500 19.89100
H  -4.37700 28.62500 20.17300
H  -1.10400 27.90600 24.73500
H  -1.22400 28.86200 26.18900
H  -2.23700 29.27200 24.69800
H  -4.27000 28.06600 30.13300
H  -1.95900 27.30600 33.47000
H  -1.10400 26.27200 32.29600
H  -2.61400 25.73700 33.10300

