158

Mg 43.99100 3.42300 47.47700
C  41.62900 5.93300 46.83200
C  41.53200 1.08200 47.16200
C  46.32600 1.04100 47.17300
C  46.51700 5.87200 47.10500
N  41.85600 3.54900 47.08200
C  41.08000 4.66900 46.91000
C  39.56500 4.25400 46.84500
C  39.58900 2.75100 47.24400
C  41.07700 2.42700 47.07600
C  39.08300 2.43100 48.66000
C  38.96900 4.35800 45.35600
C  37.83100 5.37200 45.22400
H  38.15500 6.59900 44.37100
N  43.96500 1.26200 47.30300
C  42.84300 0.48900 47.25800
C  43.23300 -0.94200 47.23900
C  44.65800 -0.95500 47.37400
C  45.02800 0.47800 47.18700
C  42.25900 -2.11300 47.30200
C  45.58000 -2.18800 47.62600
O  45.05000 -3.29600 47.75800
C  47.04800 -2.05000 47.87400
N  46.08300 3.44200 47.29900
C  46.80800 2.30000 47.11100
C  48.31900 2.55500 47.00400
C  48.39400 4.10000 47.12700
C  46.92100 4.53800 47.25100
C  49.19400 1.60400 47.94500
C  49.30800 4.87000 46.20500
C  50.66700 5.34900 46.82400
N  44.14000 5.54700 47.18200
C  45.20200 6.36000 47.13900
C  44.77600 7.72600 47.09300
C  43.35200 7.58200 46.90900
C  43.02500 6.24100 47.01600
C  45.53400 9.09900 47.11000
C  42.17400 8.35900 46.80400
O  42.01800 9.56500 46.78600
C  40.99100 7.31000 46.69500
C  40.05100 7.58100 47.84600
O  40.23900 7.25000 49.01100
O  38.97800 8.20500 47.41200
C  37.86400 8.40100 48.44300
H  40.72900 0.34200 47.14600
H  47.14600 0.32500 47.09000
H  47.23300 6.69500 47.05500
H  38.87900 4.75000 47.53100
H  39.07400 2.11600 46.52200
H  38.65200 3.31500 49.13000
H  39.97900 2.31200 49.26900
H  38.49900 1.52000 48.52500
H  38.54200 3.46100 44.91000
H  39.75000 4.56200 44.62300
H  37.59300 5.75900 46.21500
H  36.88300 4.88600 44.99400
H  42.58400 -2.84800 46.56600
H  41.28600 -1.76700 46.95200
H  42.22700 -2.62100 48.26600
H  47.50700 -1.77700 46.92400
H  47.44100 -2.98200 48.27900
H  47.19000 -1.30300 48.65500
H  48.66000 2.26100 46.01200
H  48.82200 4.18300 48.12600
H  48.58200 1.09100 48.68700
H  50.02600 2.16900 48.36600
H  49.72000 0.93400 47.26400
H  48.79200 5.66800 45.67100
H  49.59700 4.10600 45.48300
H  51.58600 4.92400 46.41900
H  50.58200 5.05400 47.87000
H  50.72800 6.43100 46.70900
H  46.55800 9.05200 46.73900
H  45.67400 9.47500 48.12300
H  44.90400 9.68800 46.44300
H  40.51200 7.35900 45.71700
H  36.99400 8.98500 48.14500
H  38.31200 8.85500 49.32700
H  37.51900 7.38200 48.61900
Mg 46.99300 15.33500 27.84000
C  45.01300 15.47100 30.68900
C  49.12900 17.61400 29.35900
C  48.93200 15.17800 25.14800
C  44.48000 13.60900 26.12000
N  47.05100 16.37600 29.81500
C  46.16200 16.22800 30.75000
C  46.61000 16.95300 32.01000
C  47.82800 17.81700 31.55400
C  48.01800 17.21100 30.19300
C  47.76800 19.35700 31.46400
C  47.00300 16.06800 33.18000
C  46.50500 16.46600 34.66300
H  47.35600 16.27800 35.93800
N  48.74900 16.36500 27.30000
C  49.49800 17.24800 28.04700
C  50.72200 17.53800 27.31600
C  50.65100 16.86200 26.10100
C  49.40800 16.11200 26.13600
C  51.70600 18.57000 27.75600
C  51.64400 16.94500 24.99400
O  51.49000 16.25700 23.97400
C  52.90200 17.62000 25.08000
N  46.66600 14.66700 25.90600
C  47.69000 14.65800 24.99800
C  47.22800 14.01400 23.72200
C  45.87200 13.34300 24.08900
C  45.62400 13.94000 25.44600
C  46.90000 15.05500 22.57400
C  45.94700 11.78200 23.99500
C  46.84200 11.03200 25.08500
N  45.17700 14.54900 28.28500
C  44.28300 13.88100 27.49300
C  43.20600 13.43900 28.37800
C  43.45500 14.11200 29.58600
C  44.63500 14.76200 29.49800
C  41.97800 12.66500 27.96500
C  42.87300 14.34400 30.87700
O  41.77700 13.86700 31.28200
C  43.84400 15.22700 31.69900
C  43.16300 16.53300 31.93900
O  42.43500 17.11900 31.15800
O  43.35200 16.94900 33.20200
C  42.89500 18.26800 33.55500
H  49.71600 18.30500 29.96800
H  49.58700 14.89000 24.32300
H  43.84000 12.91100 25.57700
H  45.92400 17.76700 32.24400
H  48.76800 17.64800 32.08000
H  46.86700 19.64000 32.00900
H  47.60800 19.62000 30.41800
H  48.66600 19.82800 31.86400
H  48.07900 15.91800 33.27000
H  46.59300 15.07000 33.02500
H  45.61200 15.85100 34.77800
H  46.13600 17.49200 34.65900
H  51.51500 18.96200 28.75500
H  51.84900 19.43800 27.11300
H  52.65200 18.06000 27.93600
H  53.56400 17.48300 25.93500
H  52.72300 18.68100 24.90500
H  53.52200 17.27700 24.25200
H  47.87900 13.21900 23.35900
H  45.08200 13.60300 23.38400
H  47.26800 15.96700 23.04600
H  45.84100 15.13000 22.32900
H  47.61100 14.69100 21.83300
H  46.32500 11.41300 23.04200
H  44.90900 11.45200 23.93900
H  47.77100 10.68000 24.63600
H  46.32500 10.08900 25.26000
H  47.04800 11.67700 25.93900
H  41.19400 13.39900 27.77900
H  41.72700 12.09300 28.85900
H  42.23400 12.02400 27.12200
H  44.14200 14.81800 32.66400
H  42.79000 18.25700 34.64000
H  41.90000 18.52000 33.18700
H  43.62100 19.00900 33.21900

