158

Mg 6.75300 53.70000 41.61300
C  6.25600 50.35200 41.25200
C  10.05000 53.38900 40.41300
C  6.93700 57.11400 41.42400
C  3.25700 54.05000 42.12600
N  7.88700 52.06700 40.78500
C  7.53000 50.72600 40.84400
C  8.66500 49.87800 40.25400
C  9.89100 50.87000 40.48300
C  9.23300 52.20900 40.47700
C  10.62600 50.72900 41.85300
C  8.42900 49.38900 38.77600
C  8.15000 50.52700 37.69800
H  6.94600 50.24500 36.78800
N  8.27300 55.06300 41.07200
C  9.56100 54.75800 40.62700
C  10.36100 56.00500 40.59500
C  9.48900 57.05800 41.04900
C  8.13500 56.43800 41.17200
C  11.86000 55.92900 40.47100
C  10.01000 58.53800 41.26500
O  11.19000 58.88300 41.03100
C  9.16400 59.58700 41.71400
N  5.26800 55.37500 41.84700
C  5.65300 56.69600 41.70000
C  4.45300 57.62500 41.92900
C  3.25600 56.59600 42.07700
C  3.93000 55.25200 41.97700
C  4.58400 58.64900 43.08600
C  2.22000 56.71300 40.85200
C  0.77800 56.40200 41.15400
N  5.06700 52.48600 41.80800
C  3.71300 52.75300 42.11600
C  2.97100 51.55200 42.19100
C  3.99700 50.54200 41.94200
C  5.16300 51.20100 41.62700
C  1.49100 51.25900 42.33800
C  4.21000 49.12700 41.86200
O  3.37900 48.24000 41.97700
C  5.66400 48.96800 41.36700
C  5.39700 48.18100 40.13100
O  4.94600 48.66600 39.11900
O  6.04100 47.04600 40.13900
C  5.92900 46.17000 39.03700
H  11.11700 53.36500 40.18600
H  7.04900 58.20000 41.38800
H  2.22300 54.25400 42.41300
H  8.84600 48.97400 40.83600
H  10.61200 50.72800 39.67800
H  11.68800 50.80100 41.62000
H  10.28300 49.74500 42.17300
H  10.30600 51.52400 42.52800
H  7.66200 48.61500 38.77100
H  9.36500 48.88000 38.54600
H  8.94600 50.59300 36.95600
H  8.01800 51.44200 38.27600
H  12.05700 55.27300 39.62300
H  12.33300 55.51700 41.36300
H  12.31200 56.90900 40.31200
H  8.48600 59.69900 40.86700
H  9.65300 60.51000 42.02500
H  8.57300 59.30000 42.58400
H  4.39700 58.16100 40.98200
H  2.78500 56.71000 43.05300
H  3.74200 58.65600 43.77800
H  4.62900 59.66300 42.68800
H  5.46400 58.41600 43.68600
H  2.59500 56.04600 40.07500
H  2.13800 57.73200 40.47500
H  0.22400 57.33800 41.22900
H  0.63800 55.93900 42.13100
H  0.32200 55.72200 40.43500
H  1.13200 50.65900 41.50100
H  1.04900 52.25500 42.32800
H  1.26900 50.76300 43.28200
H  6.09000 48.34800 42.15600
H  4.96100 45.70100 39.21300
H  6.71000 45.41300 39.10200
H  6.04500 46.57600 38.03300
Mg -6.50800 25.53600 26.22900
C  -5.26900 27.06100 29.01900
C  -7.91900 23.17000 28.18500
C  -7.70800 24.09000 23.43400
C  -4.96400 28.09300 24.16600
N  -6.46600 25.13000 28.29700
C  -6.12600 26.00700 29.27600
C  -6.69600 25.67300 30.59200
C  -7.40400 24.29600 30.31900
C  -7.26100 24.15400 28.81700
C  -7.10000 23.13700 31.26800
C  -7.59100 26.83700 31.11800
C  -7.59800 27.03900 32.67300
H  -7.23200 25.79700 33.67300
N  -7.54100 23.77800 25.86500
C  -8.10800 22.99800 26.81500
C  -9.02800 22.06200 26.16000
C  -8.90300 22.25800 24.78700
C  -8.04000 23.42600 24.65400
C  -10.07000 21.07300 26.80800
C  -9.53900 21.46600 23.60900
O  -9.42300 21.70600 22.40900
C  -10.37100 20.20400 23.90100
N  -6.32000 26.04000 24.16700
C  -6.99300 25.26900 23.20800
C  -6.83500 25.79000 21.78500
C  -6.31200 27.28600 22.18000
C  -5.85200 27.12600 23.63200
C  -5.64800 25.02400 21.01700
C  -7.47300 28.31800 21.98000
C  -7.32900 29.05100 20.64700
N  -5.32500 27.33800 26.50700
C  -4.75200 28.17900 25.61200
C  -3.96800 29.12600 26.35900
C  -4.03500 28.79300 27.77800
C  -4.95600 27.69900 27.76200
C  -3.39800 30.30900 25.70400
C  -3.69500 29.03300 29.17100
O  -2.93700 29.81500 29.69700
C  -4.52300 27.94100 30.02800
C  -3.54100 27.19000 30.91600
O  -2.65600 26.48300 30.49600
O  -3.77300 27.37900 32.26100
C  -2.85900 26.73200 33.24100
H  -8.51900 22.46900 28.76900
H  -8.11900 23.67200 22.51200
H  -4.56800 28.86600 23.50400
H  -5.81300 25.39200 31.16600
H  -8.47400 24.47100 30.42800
H  -6.53500 22.29800 30.86200
H  -7.95300 22.55100 31.61200
H  -6.42500 23.54200 32.02200
H  -8.63400 26.81900 30.80200
H  -7.38500 27.82300 30.70000
H  -8.56600 27.36300 33.05600
H  -6.88600 27.84200 32.86600
H  -11.05300 21.09900 26.33900
H  -10.34400 21.51500 27.76600
H  -9.68000 20.05700 26.86800
H  -11.41200 20.28600 24.21300
H  -9.81900 19.47300 24.49300
H  -10.53700 19.88100 22.87300
H  -7.79200 25.61900 21.29200
H  -5.53400 27.62400 21.49600
H  -5.04600 25.71700 20.42900
H  -6.15700 24.34500 20.33300
H  -4.95300 24.55800 21.71600
H  -7.33200 29.13200 22.69200
H  -8.51300 28.02100 22.11600
H  -8.30500 29.18100 20.18000
H  -6.80300 28.46300 19.89500
H  -6.81700 30.01000 20.72600
H  -2.76900 30.04000 24.85500
H  -2.84700 30.89500 26.43900
H  -4.18000 30.95600 25.30900
H  -5.22000 28.43700 30.70400
H  -3.45600 26.64800 34.14800
H  -2.04700 27.43300 33.44000
H  -2.66100 25.73900 32.83900

