158

Mg 43.51100 3.79700 48.59500
C  41.28000 6.27500 47.67700
C  41.06300 1.47100 48.13100
C  45.93200 1.34800 48.28300
C  46.17600 6.24100 48.41500
N  41.45400 3.91800 47.81200
C  40.71900 5.06600 47.59200
C  39.22100 4.69100 47.31000
C  39.16100 3.20400 47.84800
C  40.67400 2.83100 47.93300
C  38.55400 3.01400 49.28600
C  38.93400 4.69500 45.76000
C  37.75300 5.47600 45.19800
H  37.91500 6.46200 44.07200
N  43.49400 1.69200 48.50200
C  42.33300 0.95400 48.23700
C  42.66500 -0.42900 48.28800
C  44.09200 -0.55700 48.37700
C  44.60200 0.83400 48.40300
C  41.59000 -1.53800 48.27400
C  44.85000 -1.83000 48.45000
O  44.31900 -2.89800 48.32300
C  46.33900 -1.87500 48.71700
N  45.69500 3.79500 48.36600
C  46.45200 2.67100 48.29100
C  47.95300 2.93200 48.21700
C  48.03500 4.47100 48.41800
C  46.53600 4.89300 48.46400
C  48.77900 2.10500 49.23400
C  48.85500 5.27700 47.32800
C  49.88300 6.22900 47.93700
N  43.70700 5.81200 48.21300
C  44.86000 6.61300 48.17500
C  44.43100 7.94900 48.03400
C  43.02800 7.88300 47.82000
C  42.65900 6.53400 47.90700
C  45.28600 9.22400 48.00300
C  41.76000 8.67600 47.53900
O  41.54800 9.90600 47.45700
C  40.56600 7.59700 47.44200
C  39.60400 7.93700 48.46200
O  39.54700 7.56100 49.64700
O  38.60800 8.59500 47.85500
C  37.40400 8.81100 48.55900
H  40.27900 0.73400 48.31700
H  46.66300 0.55200 48.13000
H  46.95900 6.99700 48.50400
H  38.61400 5.36600 47.91400
H  38.67900 2.48300 47.18800
H  39.30400 3.23500 50.04600
H  38.12400 2.01200 49.29000
H  37.77200 3.73800 49.51800
H  38.80200 3.63100 45.56100
H  39.78700 5.05500 45.18500
H  37.38100 6.05000 46.04600
H  37.02000 4.76400 44.81800
H  41.84100 -2.13100 47.39500
H  40.55100 -1.25200 48.43900
H  41.81900 -2.11800 49.16800
H  46.75200 -1.55400 47.76100
H  46.64000 -2.92100 48.77800
H  46.44700 -1.35800 49.67100
H  48.23400 2.62800 47.20900
H  48.30700 4.82100 49.41300
H  48.10700 1.71400 49.99800
H  49.45100 2.71900 49.83400
H  49.35700 1.30400 48.77300
H  48.18300 5.93900 46.78000
H  49.40700 4.50100 46.79700
H  49.53500 7.25300 47.80900
H  50.78000 6.14700 47.32200
H  50.09300 6.14600 49.00300
H  45.61800 9.42400 46.98400
H  46.18300 9.24300 48.62200
H  44.60300 9.99900 48.35000
H  40.16000 7.64200 46.43100
H  36.66800 9.14300 47.82700
H  37.41200 9.56400 49.34700
H  36.87200 7.92600 48.90800
Mg 47.27000 24.23300 28.34100
C  48.23200 26.53200 30.69400
C  46.34200 22.08400 30.99000
C  47.11500 21.68900 26.20100
C  48.51600 26.31000 25.83900
N  47.46200 24.18700 30.53500
C  47.67900 25.35100 31.24100
C  47.37800 25.24900 32.71200
C  46.96100 23.70000 32.88100
C  46.81700 23.34900 31.41300
C  47.99700 22.75800 33.59600
C  46.20700 26.20900 33.12500
C  46.36500 26.71600 34.68700
H  45.23200 26.52000 35.66500
N  46.65600 22.25500 28.54500
C  46.26300 21.62400 29.67100
C  45.89300 20.26700 29.29500
C  46.05200 20.12900 27.84200
C  46.63000 21.40500 27.48300
C  45.47300 19.12200 30.38300
C  45.82500 18.85100 27.05100
O  46.00200 18.81500 25.84000
C  45.21000 17.60000 27.77900
N  48.02700 23.96500 26.36200
C  47.77800 22.81300 25.65000
C  47.89400 23.06300 24.13200
C  48.15900 24.59100 23.97400
C  48.34100 25.00000 25.45700
C  48.89900 22.07400 23.51200
C  47.17100 25.32400 23.15100
C  45.88100 25.72200 23.78100
N  48.23400 26.06200 28.24900
C  48.65300 26.81800 27.17600
C  49.04200 28.16000 27.63000
C  48.85300 28.13000 29.04400
C  48.44200 26.81600 29.32800
C  49.67800 29.26400 26.85200
C  48.92600 28.93500 30.27400
O  49.12800 30.17000 30.45800
C  48.64100 27.82700 31.38600
C  49.82700 27.69100 32.23500
O  50.91300 27.29100 31.88100
O  49.45700 27.99500 33.50900
C  50.46000 27.68100 34.53100
H  45.91000 21.53100 31.82700
H  46.93600 20.97200 25.39700
H  48.65400 27.09900 25.09700
H  48.28200 25.49700 33.26800
H  45.94000 23.51600 33.21400
H  48.60200 23.38600 34.25000
H  48.71400 22.23500 32.96400
H  47.49500 21.95600 34.13700
H  45.22500 25.75700 32.99000
H  46.04200 27.10400 32.52500
H  46.45200 27.80200 34.65600
H  47.32000 26.28600 34.99100
H  44.53100 18.81400 29.92900
H  45.16500 19.58100 31.32300
H  46.23300 18.36200 30.56500
H  45.07600 16.79700 27.05500
H  44.23500 17.84200 28.20400
H  45.76800 17.06400 28.54600
H  46.87300 22.87000 23.80300
H  49.20100 24.71500 23.68000
H  49.33500 21.41300 24.26100
H  49.60300 22.64700 22.91000
H  48.51100 21.41300 22.73700
H  46.93900 24.71400 22.27800
H  47.72900 26.23300 22.92500
H  45.22700 25.28600 23.02600
H  45.80500 26.80400 23.89500
H  45.72900 25.33200 24.78800
H  50.18500 28.76700 26.02400
H  50.35300 29.72000 27.57600
H  48.99000 30.02700 26.48800
H  47.79600 28.32700 31.85900
H  49.87600 27.34200 35.38600
H  50.92600 28.62200 34.82200
H  51.19700 26.95800 34.17800

