158

Mg 44.25600 5.49500 47.89700
C  41.90100 8.11000 47.44800
C  41.79100 3.21300 47.67300
C  46.62500 3.12000 47.93500
C  46.80700 7.85000 47.29300
N  42.05600 5.68700 47.57300
C  41.29000 6.81800 47.53800
C  39.79100 6.43400 47.44300
C  39.75200 4.84100 47.57400
C  41.34400 4.51000 47.62400
C  39.00900 4.35000 48.83600
C  38.90600 7.03400 46.30200
C  39.18900 6.66000 44.86100
H  39.39600 7.82700 43.95700
N  44.27300 3.40000 47.82400
C  43.12100 2.63900 47.69500
C  43.50800 1.24900 47.67400
C  44.93200 1.17000 47.74200
C  45.35000 2.58700 47.82400
C  42.46200 0.09400 47.59300
C  45.75100 -0.14600 47.85700
O  45.12700 -1.19300 48.00800
C  47.26100 -0.12900 47.78000
N  46.36100 5.51100 47.61900
C  47.15800 4.41800 47.86200
C  48.63900 4.57700 47.55800
C  48.60900 6.12500 47.10100
C  47.18900 6.53200 47.32800
C  49.57500 4.23400 48.76500
C  49.17000 6.46300 45.62900
C  48.77200 5.52900 44.51900
N  44.38500 7.55700 47.63900
C  45.48600 8.42300 47.40600
C  45.06800 9.79000 47.35500
C  43.64300 9.61700 47.36100
C  43.28900 8.27600 47.47600
C  45.87500 11.10900 47.13600
C  42.40500 10.40300 47.26800
O  42.30600 11.61100 47.11500
C  41.18800 9.41700 47.39100
C  40.39900 9.71500 48.59100
O  40.46200 9.13200 49.66600
O  39.44000 10.65100 48.27100
C  38.57900 11.18100 49.28600
H  40.98200 2.48300 47.61100
H  47.33000 2.30300 48.10300
H  47.67700 8.50100 47.18400
H  39.46600 6.97800 48.33000
H  39.36800 4.30200 46.70800
H  38.70600 5.27400 49.33000
H  39.79100 3.99100 49.50600
H  38.15100 3.73600 48.56300
H  38.94300 8.10100 46.52300
H  37.92300 6.77000 46.69300
H  38.31700 6.13200 44.47500
H  40.06600 6.02200 44.75900
H  42.81400 -0.69800 46.93300
H  41.51600 0.38000 47.13300
H  42.27500 -0.25200 48.61000
H  47.58900 0.54800 46.99100
H  47.50900 -1.17500 47.59600
H  47.73700 0.10900 48.73100
H  48.97300 3.83800 46.83000
H  49.19300 6.68900 47.82900
H  50.37800 4.96000 48.89100
H  50.07600 3.27900 48.61100
H  49.08800 4.10600 49.73200
H  50.22500 6.69600 45.76700
H  48.84800 7.44800 45.29000
H  48.57800 6.12500 43.62800
H  47.87000 4.96400 44.75600
H  49.59900 4.89100 44.20900
H  45.22100 11.98100 47.15700
H  46.62300 11.16600 46.34500
H  46.35600 11.10700 48.11400
H  40.55700 9.38300 46.50300
H  38.23800 12.20000 49.10500
H  39.12500 11.16100 50.22900
H  37.69500 10.57000 49.46600
Mg 47.77400 25.76300 28.06700
C  48.53800 28.07200 30.65600
C  46.29800 23.69800 30.54600
C  47.20400 23.50300 25.63200
C  49.33500 27.87000 25.77200
N  47.52500 25.94000 30.33300
C  47.79600 26.97400 31.11500
C  47.37100 26.69900 32.49200
C  46.66300 25.27800 32.52300
C  46.82300 24.94100 31.04300
C  47.30300 24.23600 33.48300
C  46.42400 27.81800 33.02100
C  45.71200 27.45400 34.34200
H  45.53300 28.46000 35.45500
N  46.84400 23.92700 28.07800
C  46.29900 23.24800 29.16600
C  45.84500 21.89800 28.71000
C  46.09500 21.89400 27.31200
C  46.78100 23.18300 26.93900
C  45.26200 20.84200 29.62100
C  45.84700 20.71900 26.24700
O  46.22800 20.78900 25.06800
C  44.96000 19.58800 26.59000
N  48.16900 25.70200 25.95100
C  47.80100 24.63100 25.22400
C  48.10800 24.92800 23.71400
C  48.67600 26.41100 23.74100
C  48.84400 26.68300 25.24900
C  49.18200 23.85800 23.20800
C  47.65800 27.41300 23.08300
C  48.03900 27.56900 21.52900
N  48.72600 27.51100 28.16900
C  49.32100 28.27300 27.13000
C  49.88900 29.53000 27.69900
C  49.59800 29.45900 29.09200
C  48.95600 28.21200 29.27500
C  50.71400 30.49000 26.93900
C  49.81300 30.13400 30.31900
O  50.49200 31.11100 30.57700
C  49.05800 29.27600 31.41900
C  49.87300 28.96000 32.63200
O  50.75500 28.10200 32.67400
O  49.42900 29.73200 33.74500
C  50.13500 29.41000 34.93000
H  45.84300 22.98600 31.23700
H  47.03700 22.79600 24.81700
H  49.67600 28.65200 25.09000
H  48.30000 26.80700 33.05200
H  45.59000 25.41300 32.66400
H  48.13300 24.58700 34.09700
H  47.64400 23.46000 32.79800
H  46.50500 23.76700 34.05800
H  45.72900 28.18900 32.26800
H  47.04100 28.66900 33.30900
H  46.19800 26.53900 34.67900
H  44.70300 27.16300 34.05100
H  45.27600 19.81300 29.26200
H  44.17800 20.93300 29.70200
H  45.65300 20.84400 30.63900
H  45.56900 18.84100 27.09900
H  44.62700 19.10400 25.67200
H  44.19700 20.02900 27.23300
H  47.20900 24.75700 23.12300
H  49.72900 26.47500 23.46700
H  50.16800 24.24000 22.94500
H  48.75600 23.34200 22.34800
H  49.36000 23.13700 24.00600
H  47.73900 28.35400 23.62700
H  46.64500 27.03300 23.21800
H  47.40300 26.94300 20.90300
H  49.03600 27.20000 21.28900
H  48.03700 28.58600 21.13500
H  51.61900 29.92400 26.71400
H  50.94100 31.22000 27.71600
H  50.40700 30.78600 25.93600
H  48.15800 29.77300 31.77900
H  51.12200 29.82700 34.72600
H  50.34400 28.38500 35.23400
H  49.79000 30.00000 35.77900

