158

Mg 16.14000 51.36900 24.82300
C  18.23100 50.60500 27.54100
C  13.54300 51.44000 26.86600
C  14.32700 51.68800 22.17900
C  19.11900 50.88100 22.74700
N  15.95600 51.08700 26.98200
C  16.92900 50.91100 27.92700
C  16.40600 51.18700 29.33400
C  14.82100 51.42100 29.14700
C  14.73300 51.33200 27.56600
C  13.91300 50.37500 29.90900
C  17.09600 52.39600 30.07800
C  16.99400 52.43700 31.63500
H  16.17100 51.42000 32.37600
N  14.18400 51.33000 24.51400
C  13.26600 51.40800 25.46700
C  11.99700 51.25900 24.85600
C  12.14900 51.45200 23.44400
C  13.56800 51.47200 23.29300
C  10.76500 51.28200 25.62200
C  11.02700 51.56900 22.37300
O  11.38300 51.70400 21.19100
C  9.56600 51.49300 22.72800
N  16.66900 51.23300 22.74400
C  15.67300 51.66500 21.90400
C  16.28300 52.09600 20.62200
C  17.83600 51.99300 20.83600
C  17.93000 51.33400 22.15700
C  15.71800 51.32900 19.38200
C  18.64400 53.29300 20.87100
C  18.93600 53.84800 19.47400
N  18.20800 50.84500 25.03200
C  19.26100 50.60300 24.12500
C  20.43600 50.12900 24.80200
C  20.07000 50.06000 26.09900
C  18.75300 50.55200 26.22200
C  21.69300 49.80400 24.19800
C  20.60700 49.79200 27.52000
O  21.64500 49.34200 27.98500
C  19.38200 50.19200 28.43000
C  19.00200 49.10300 29.37000
O  18.64600 48.00200 28.96900
O  19.38700 49.35300 30.69000
C  19.26000 48.29100 31.72300
H  12.70300 51.41100 27.56200
H  13.72300 51.90400 21.29600
H  19.96900 50.81400 22.06400
H  16.48800 50.25100 29.88700
H  14.42300 52.40000 29.41500
H  13.42000 50.92900 30.70800
H  14.48600 49.55400 30.34000
H  13.07200 49.95800 29.35400
H  16.80700 53.35200 29.64100
H  18.16600 52.34400 29.87500
H  16.58900 53.38400 31.99200
H  17.97900 52.25400 32.06300
H  10.11800 50.59000 25.08300
H  10.34200 52.27500 25.46300
H  10.86500 51.00300 26.67100
H  9.29600 50.57400 23.24800
H  9.03800 51.58000 21.77800
H  9.29100 52.32500 23.37600
H  16.07000 53.15600 20.48600
H  18.28200 51.26400 20.15800
H  15.28300 50.41500 19.78700
H  16.44400 51.08400 18.60700
H  14.96700 52.05900 19.08100
H  19.57600 53.14200 21.41500
H  18.09400 54.06400 21.40900
H  18.45300 54.82500 19.46300
H  18.47700 53.25500 18.68400
H  20.01900 53.87700 19.35200
H  22.56900 49.89400 24.84100
H  21.94400 50.40300 23.32200
H  21.60500 48.75900 23.89800
H  19.78300 51.00500 29.03500
H  18.34900 48.50500 32.28100
H  20.08000 48.45600 32.42200
H  19.32000 47.22300 31.51200
Mg -1.32600 34.20900 27.67000
C  -2.94400 32.66100 30.47200
C  0.18700 36.30900 29.65900
C  -0.57700 36.01300 24.87200
C  -3.31700 32.02900 25.68700
N  -1.61000 34.53800 29.81500
C  -2.13600 33.70800 30.73200
C  -1.53900 34.02700 32.19400
C  -0.55400 35.23700 31.88700
C  -0.62400 35.35000 30.29600
C  -0.64800 36.57900 32.68500
C  -0.92000 32.84300 33.00100
C  -1.55800 32.25800 34.24700
H  -0.67400 32.13100 35.46500
N  -0.20700 35.87700 27.28300
C  0.37700 36.60600 28.28200
C  1.23400 37.56200 27.65000
C  1.08900 37.38300 26.27400
C  0.04800 36.39700 26.03500
C  2.15900 38.44600 28.41000
C  1.83300 37.98400 25.17400
O  1.80600 37.60800 24.02800
C  2.59900 39.24800 25.53800
N  -1.83900 34.10000 25.59300
C  -1.55200 35.03700 24.70900
C  -2.15200 34.71800 23.30100
C  -2.70100 33.24100 23.54200
C  -2.62000 33.07300 24.99200
C  -3.16900 35.70900 22.73000
C  -2.03300 32.03200 22.82800
C  -0.53600 31.87500 22.58800
N  -2.58400 32.53700 27.96200
C  -3.31900 31.81100 27.04800
C  -4.18700 30.88200 27.70800
C  -4.01500 31.18200 29.04200
C  -3.15300 32.20700 29.14300
C  -5.05500 29.85800 27.16500
C  -4.43800 30.85000 30.37100
O  -5.21900 30.00000 30.74600
C  -3.70200 31.77700 31.39600
C  -4.64700 32.61400 32.20700
O  -5.27100 33.54500 31.76500
O  -4.53800 32.24500 33.48100
C  -5.38100 33.06200 34.48000
H  0.83300 36.75100 30.42000
H  -0.27200 36.48200 23.93400
H  -3.89800 31.31800 25.09600
H  -2.29500 34.51200 32.81300
H  0.46200 34.87000 32.03000
H  -1.29700 36.42800 33.54800
H  -1.22600 37.20900 32.00900
H  0.26500 37.07800 33.00800
H  0.07300 33.20200 33.27000
H  -0.67700 32.08300 32.25900
H  -2.00700 31.29500 34.00400
H  -2.35800 32.92400 34.57000
H  3.16100 38.07600 28.19100
H  2.05100 38.47400 29.49400
H  2.07700 39.51800 28.23400
H  1.87500 39.91100 26.01200
H  3.10600 39.76800 24.72500
H  3.38000 38.83300 26.17500
H  -1.37300 34.71700 22.53800
H  -3.75000 33.25000 23.24800
H  -3.81600 36.04300 23.54100
H  -3.85000 35.30700 21.98000
H  -2.69300 36.53900 22.20900
H  -2.52700 31.96700 21.85800
H  -2.35900 31.03300 23.11600
H  0.02400 32.62100 23.15200
H  -0.34800 32.06400 21.53100
H  -0.29600 30.85400 22.88400
H  -4.87200 29.66400 26.10800
H  -6.06100 30.24300 27.33300
H  -4.94900 28.92200 27.71300
H  -2.99000 31.20000 31.98500
H  -4.84500 33.20800 35.41700
H  -6.32500 32.57200 34.71700
H  -5.59000 34.06400 34.10400

