158

Mg 9.54000 47.77800 26.73900
C  7.70200 47.72200 29.67800
C  12.30500 48.90200 28.45300
C  11.21600 47.60300 23.93700
C  6.54900 47.10200 24.91600
N  9.94900 48.13400 28.93100
C  9.01700 48.15300 29.89100
C  9.61200 48.70100 31.22100
C  10.92800 49.39100 30.62200
C  11.09500 48.85100 29.19500
C  10.85200 50.96400 30.56900
C  9.96200 47.65100 32.27700
C  9.42900 47.80000 33.73100
H  9.47400 46.51200 34.65400
N  11.49500 48.07400 26.35500
C  12.49600 48.55400 27.16300
C  13.74800 48.34500 26.49300
C  13.48000 47.97600 25.11900
C  11.96700 47.83800 25.07200
C  15.05400 48.65900 27.20600
C  14.50100 47.74800 24.05600
O  14.15800 47.29400 22.97600
C  15.91400 47.80400 24.34900
N  8.92900 47.73300 24.69500
C  9.80700 47.46200 23.72900
C  9.20800 47.13800 22.38100
C  7.69800 47.09700 22.67200
C  7.70500 47.27100 24.18500
C  9.62900 48.09700 21.19500
C  7.06600 45.81300 22.12500
C  5.53000 45.98800 21.73900
N  7.43200 47.59300 27.18400
C  6.39100 47.19600 26.38800
C  5.23100 46.98800 27.16700
C  5.67700 47.16900 28.48600
C  7.06400 47.54500 28.43900
C  3.82400 46.60700 26.74800
C  5.31700 47.18000 29.82100
O  4.20500 46.95400 30.28000
C  6.59600 47.62300 30.65000
C  6.82600 46.56100 31.57400
O  7.09500 45.41900 31.23400
O  6.39500 46.92100 32.80500
C  6.29700 45.83300 33.72500
H  13.12000 49.38600 28.99600
H  11.67900 47.52300 22.95100
H  5.66000 46.87000 24.32600
H  8.93800 49.42400 31.68200
H  11.82500 49.17700 31.20400
H  11.70700 51.42400 31.06500
H  10.02000 51.42000 31.10600
H  10.79900 51.43500 29.58700
H  11.04000 47.49400 32.30000
H  9.60500 46.65400 32.02300
H  8.38200 48.09900 33.68400
H  10.02900 48.58700 34.18800
H  14.81300 48.66900 28.26900
H  15.30600 49.66600 26.87400
H  15.88500 47.97000 27.05400
H  16.59800 47.77100 23.50200
H  16.18100 46.88500 24.87000
H  16.16900 48.70200 24.91300
H  9.68900 46.18500 22.16000
H  7.26600 47.99300 22.22600
H  9.94100 47.56500 20.29600
H  10.31100 48.81800 21.64500
H  8.77800 48.74800 20.99300
H  7.17200 44.98500 22.82600
H  7.64900 45.46600 21.27200
H  5.39200 45.66700 20.70700
H  5.29100 47.04800 21.82300
H  4.91100 45.43400 22.44400
H  3.88900 46.01500 25.83600
H  3.20700 47.50300 26.67500
H  3.36800 46.01900 27.54500
H  6.39600 48.53200 31.21700
H  7.09400 45.13700 33.46200
H  5.25400 45.52200 33.67700
H  6.50600 46.24500 34.71200
Mg -11.72600 15.98000 41.64900
C  -8.56900 14.88600 40.89200
C  -11.15700 18.99900 40.15500
C  -15.01700 16.65200 41.83600
C  -12.41200 12.63600 42.67100
N  -10.04100 16.68300 40.37100
C  -8.79100 16.19300 40.50400
C  -7.78100 17.21800 39.94200
C  -8.62500 18.48900 39.68100
C  -10.07300 18.08400 40.25700
C  -8.05800 19.80200 40.38200
C  -7.01100 16.70500 38.68000
C  -5.62000 17.23500 38.69200
H  -5.34000 18.33600 37.70700
N  -12.91100 17.64700 41.00700
C  -12.48600 18.81500 40.57200
C  -13.59600 19.66300 40.31200
C  -14.77800 19.00000 40.76900
C  -14.24600 17.71300 41.27800
C  -13.44600 20.99600 39.57700
C  -16.24600 19.53800 40.57800
O  -16.43000 20.68500 40.15800
C  -17.44000 18.66800 40.88900
N  -13.44200 14.74400 42.24600
C  -14.69600 15.37900 42.26600
C  -15.78200 14.34400 42.62100
C  -14.98000 13.00400 42.70500
C  -13.50400 13.47700 42.64100
C  -16.50800 14.71400 43.93800
C  -15.17200 11.98400 41.45400
C  -15.45600 10.55000 41.95500
N  -10.73600 14.14300 41.82600
C  -11.05500 12.90800 42.26400
C  -9.93700 11.99900 42.23900
C  -8.80400 12.75500 41.79900
C  -9.43000 14.01200 41.45100
C  -9.90900 10.55200 42.57400
C  -7.44600 12.79500 41.63400
O  -6.53300 11.97900 41.92100
C  -7.17100 14.11700 40.88500
C  -6.16000 14.85100 41.70100
O  -6.22400 15.22600 42.84400
O  -4.98600 14.93200 40.90200
C  -3.79500 15.17900 41.77800
H  -10.92700 19.97500 39.72400
H  -16.10500 16.73500 41.86600
H  -12.67400 11.64200 43.04200
H  -7.14300 17.37000 40.81300
H  -8.66600 18.73100 38.61900
H  -8.10800 20.64700 39.69500
H  -7.07800 19.67200 40.84300
H  -8.83600 20.07400 41.09500
H  -7.48600 17.04400 37.75900
H  -7.10300 15.62000 38.64000
H  -5.05200 16.32700 38.48800
H  -5.37200 17.55900 39.70300
H  -12.57000 21.04900 38.93100
H  -13.24100 21.73800 40.34900
H  -14.34400 21.28500 39.03000
H  -18.30100 19.15800 40.43300
H  -17.46800 18.46600 41.96000
H  -17.33100 17.68300 40.43600
H  -16.48900 14.33300 41.79200
H  -15.37400 12.59300 43.63500
H  -16.90500 15.72700 43.87300
H  -15.91200 14.59800 44.84400
H  -17.24600 13.91600 44.00600
H  -14.25500 11.96000 40.86500
H  -15.94200 12.45700 40.84500
H  -16.28000 10.24300 41.31200
H  -15.56600 10.49800 43.03900
H  -14.52800 10.05300 41.67300
H  -10.71000 10.34900 43.28500
H  -8.94800 10.38500 43.06000
H  -10.13500 9.98000 41.67400
H  -6.84100 14.07900 39.84600
H  -2.90500 15.31000 41.16200
H  -3.63200 14.42400 42.54600
H  -3.98900 16.06300 42.38600

