158

Mg 1.64400 -0.98300 43.23800
C  5.16000 -0.54400 42.69000
C  1.20900 2.01200 41.65200
C  -1.62600 -1.75800 43.15500
C  2.39300 -4.34500 44.28000
N  2.99500 0.43300 42.20600
C  4.39300 0.44200 42.15000
C  4.85600 1.46400 41.18200
C  3.68500 2.49600 41.21400
C  2.56100 1.57400 41.70000
C  3.87200 3.71500 42.21200
C  5.12100 0.90000 39.73600
C  6.50300 1.24200 39.17200
H  6.55000 1.71200 37.71000
N  -0.06600 0.00800 42.56800
C  0.01600 1.31200 42.03200
C  -1.28700 1.76400 41.79300
C  -2.13500 0.70700 42.37100
C  -1.33900 -0.41400 42.72400
C  -1.64900 3.12600 41.16100
C  -3.66300 0.83900 42.44100
O  -4.18800 1.93900 42.26700
C  -4.57900 -0.24800 42.81700
N  0.52800 -2.79100 43.75600
C  -0.78000 -2.82900 43.56800
C  -1.30300 -4.21400 43.82300
C  -0.07000 -5.04300 44.25300
C  1.06000 -4.02900 44.10600
C  -2.34700 -4.26900 44.94600
C  0.30300 -6.20900 43.35900
C  0.73600 -7.45700 44.09300
N  3.40400 -2.21200 43.61000
C  3.52400 -3.52300 44.03700
C  4.93600 -3.84000 44.20700
C  5.60300 -2.67400 43.68900
C  4.65900 -1.74400 43.32300
C  5.42500 -5.13400 44.75500
C  6.91500 -2.09700 43.44700
O  7.99800 -2.52600 43.73400
C  6.71400 -0.67000 42.69300
C  7.49200 0.36300 43.37900
O  7.63300 0.42800 44.59200
O  7.93500 1.21900 42.41200
C  8.53400 2.41400 42.97000
H  1.09700 2.99600 41.19200
H  -2.70300 -1.93100 43.19600
H  2.72100 -5.28400 44.73000
H  5.74300 2.00000 41.52000
H  3.43000 2.92900 40.24700
H  4.33900 3.40000 43.14600
H  2.87400 4.07300 42.46700
H  4.44100 4.53700 41.77800
H  4.31600 1.26100 39.09500
H  4.99300 -0.17900 39.82000
H  7.12600 0.34800 39.15300
H  6.98600 1.99500 39.79500
H  -0.83000 3.61700 40.63600
H  -2.03200 3.81500 41.91400
H  -2.53900 3.01800 40.54100
H  -5.58600 0.11900 42.61800
H  -4.51400 -0.49100 43.87800
H  -4.53400 -1.08200 42.11800
H  -1.63100 -4.52600 42.83100
H  -0.04600 -5.35300 45.29700
H  -2.08800 -3.67600 45.82400
H  -2.34400 -5.31000 45.27100
H  -3.32200 -4.12600 44.48200
H  1.05100 -5.88400 42.63600
H  -0.61700 -6.48600 42.84300
H  0.42600 -8.43500 43.72500
H  0.40400 -7.34500 45.12400
H  1.82600 -7.45400 44.07600
H  5.12600 -6.04100 44.23000
H  5.08100 -5.18100 45.78900
H  6.51400 -5.09400 44.76900
H  7.08500 -0.74400 41.67100
H  9.40300 2.14300 43.57000
H  7.86900 3.02900 43.57600
H  8.79100 3.00300 42.09000
Mg 48.67400 44.41600 42.90600
C  45.26100 44.22200 42.72200
C  48.69600 40.95200 42.42900
C  52.12100 44.43700 42.97500
C  48.59600 47.87900 42.43500
N  47.14900 42.74200 42.72700
C  45.77300 42.94400 42.61800
C  44.95600 41.62500 42.65800
C  46.14700 40.62000 42.84500
C  47.42200 41.48100 42.62200
C  46.07700 39.96400 44.25500
C  44.04800 41.41600 41.40300
C  44.26000 42.25200 40.10000
H  44.73600 41.52300 38.85000
N  50.16700 42.94500 42.84100
C  49.99100 41.54400 42.55200
C  51.35200 40.91800 42.52400
C  52.28300 41.85700 42.91400
C  51.53500 43.14000 42.97500
C  51.63600 39.43200 42.19800
C  53.74500 41.49700 43.13200
O  54.17200 40.34400 42.96500
C  54.74800 42.47800 43.63100
N  50.17500 45.96700 42.67400
C  51.50700 45.71000 42.81900
C  52.25500 47.06600 42.88500
C  51.13600 48.17800 42.86800
C  49.87400 47.28800 42.61900
C  53.23100 47.12500 44.18300
C  51.31500 49.50000 42.00100
C  51.29900 50.86400 42.72800
N  47.30000 45.84000 42.56100
C  47.32700 47.19800 42.43100
C  46.03400 47.79300 42.41400
C  45.16700 46.63900 42.49500
C  45.96500 45.44100 42.58500
C  45.68100 49.25300 42.46900
C  43.75900 46.27400 42.57300
O  42.73800 46.97400 42.62300
C  43.79600 44.63000 42.75400
C  43.08800 44.35700 43.95500
O  42.07100 43.72700 43.97700
O  43.83800 44.75000 45.03300
C  43.41400 44.09500 46.29400
H  48.73500 39.88700 42.19100
H  53.20800 44.54000 42.95000
H  48.43900 48.95900 42.44600
H  44.32700 41.63600 43.54700
H  46.02300 39.84900 42.08500
H  47.06200 40.08000 44.70800
H  45.83600 38.91500 44.08100
H  45.28000 40.44900 44.81900
H  43.02200 41.30300 41.75300
H  44.32300 40.39900 41.12300
H  44.93200 43.08100 40.32200
H  43.33700 42.74800 39.80100
H  52.31800 39.32500 41.35400
H  50.69000 38.92400 42.01000
H  52.16300 38.98100 43.03900
H  55.17300 43.14300 42.87900
H  55.63400 41.97200 44.01200
H  54.27800 42.88600 44.52600
H  52.79000 47.21200 41.94700
H  51.00400 48.36300 43.93400
H  53.18500 46.17400 44.71400
H  52.78800 47.88500 44.82700
H  54.22300 47.43700 43.85700
H  50.55800 49.51800 41.21700
H  52.26400 49.52600 41.46500
H  52.26400 51.35300 42.60000
H  51.09100 50.67800 43.78200
H  50.56200 51.47200 42.20300
H  45.60900 49.67300 41.46600
H  46.42200 49.79600 43.05600
H  44.74600 49.44900 42.99400
H  43.32500 44.12100 41.91300
H  44.03000 43.19600 46.33300
H  42.35600 43.86400 46.41400
H  43.63800 44.67000 47.19300

