158

Mg 7.57800 2.31000 27.50300
C  9.15900 1.28100 30.49800
C  5.66900 4.50900 29.28000
C  6.00800 3.17100 24.64600
C  9.15000 -0.32700 25.88500
N  7.46700 2.89700 29.65600
C  8.18300 2.29800 30.71400
C  7.73900 2.92300 32.06200
C  6.53600 3.88300 31.66800
C  6.50900 3.69800 30.11400
C  5.13100 3.58600 32.20300
C  8.96100 3.55600 32.87500
C  9.29900 2.92800 34.19800
H  9.85100 3.85700 35.27000
N  6.14100 3.71200 26.99000
C  5.57700 4.58300 27.88300
C  4.71400 5.53000 27.16900
C  4.82200 5.13000 25.79600
C  5.66400 3.98100 25.74300
C  4.07200 6.74700 27.76700
C  4.23400 5.76600 24.58700
O  4.48100 5.31600 23.47400
C  3.45200 7.05200 24.70000
N  7.59200 1.50200 25.59400
C  6.80600 2.01400 24.63100
C  6.88600 1.13200 23.35700
C  7.87400 0.03600 23.81000
C  8.25200 0.45800 25.17300
C  5.49400 0.65200 22.81800
C  9.14200 0.03900 22.77500
C  9.28000 -1.35300 22.17400
N  8.93300 0.80900 28.05100
C  9.45100 -0.22200 27.25200
C  10.43800 -0.99300 28.04600
C  10.37800 -0.41000 29.29100
C  9.38100 0.59700 29.30500
C  11.33000 -2.06700 27.55000
C  10.91200 -0.52100 30.62200
O  11.75300 -1.25700 31.10700
C  10.19100 0.65400 31.48600
C  9.62000 0.05000 32.72100
O  8.44800 -0.29200 32.82900
O  10.54900 -0.14000 33.78000
C  10.05600 -0.62800 35.07600
H  4.99900 5.21200 29.77900
H  5.58300 3.25100 23.64300
H  9.57800 -1.11000 25.25500
H  7.33000 2.03500 32.54300
H  6.62500 4.95400 31.85000
H  4.36000 3.93900 31.51800
H  4.99200 4.19300 33.09800
H  5.00700 2.51500 32.36200
H  8.75500 4.61700 33.01800
H  9.76900 3.58200 32.14400
H  10.12400 2.26300 33.94300
H  8.41200 2.40600 34.55900
H  2.99200 6.61100 27.73600
H  4.40500 7.70900 27.37700
H  4.23100 6.80200 28.84500
H  3.05500 7.31100 23.71800
H  4.16900 7.74400 25.14100
H  2.56900 6.98100 25.33500
H  7.30900 1.79900 22.60600
H  7.29200 -0.88600 23.82600
H  4.70500 0.94800 23.51000
H  5.43500 -0.43500 22.77100
H  5.34300 1.07400 21.82500
H  10.01300 0.46900 23.26800
H  8.95600 0.69200 21.92300
H  10.29700 -1.52500 21.82100
H  8.53700 -1.34300 21.37700
H  8.93500 -2.00900 22.97400
H  10.83400 -2.88100 28.07800
H  12.34000 -1.97000 27.94800
H  11.19900 -2.34800 26.50500
H  10.81700 1.44300 31.90200
H  9.42000 0.10300 35.57500
H  10.81700 -1.05500 35.73000
H  9.33600 -1.43900 34.96500
Mg 29.43600 58.03400 41.09400
C  26.51300 56.50200 39.71400
C  31.29100 55.36800 39.84600
C  32.18100 59.90900 41.46100
C  27.37000 60.79400 41.88600
N  28.97300 56.27100 39.95500
C  27.74100 55.91000 39.42200
C  27.98600 54.67400 38.61800
C  29.19400 54.03900 39.19300
C  29.87500 55.25800 39.72800
C  28.85100 53.05700 40.38600
C  28.00700 55.03600 37.09400
C  27.03000 54.34200 36.12600
H  26.40300 55.17600 35.06600
N  31.50100 57.70200 40.79100
C  32.04400 56.54500 40.24400
C  33.45900 56.64900 40.22200
C  33.81500 57.94800 40.70400
C  32.50900 58.58800 41.02600
C  34.33700 55.54500 39.62400
C  35.10000 58.51600 40.75600
O  35.99800 57.89800 40.27400
C  35.39700 59.89200 41.17400
N  29.66900 60.12400 41.37600
C  30.95100 60.59900 41.61200
C  30.94700 62.04400 42.14900
C  29.43300 62.34700 42.24100
C  28.74100 61.02800 41.85400
C  31.75800 62.18000 43.46800
C  28.92600 63.45800 41.33100
C  28.00100 64.50500 41.96300
N  27.37200 58.52700 41.02900
C  26.68000 59.64000 41.48600
C  25.24700 59.47100 41.24600
C  25.19900 58.22100 40.55300
C  26.43400 57.66600 40.48200
C  24.27600 60.55900 41.53500
C  24.27500 57.24800 39.91600
O  23.09000 57.28400 39.97200
C  25.14600 56.06300 39.29900
C  24.69600 54.74200 39.73700
O  24.70600 54.29500 40.86900
O  24.32800 53.99000 38.56800
C  23.87200 52.59800 38.83300
H  31.72800 54.48600 39.37400
H  33.07300 60.48100 41.72600
H  26.82400 61.66500 42.25300
H  27.09800 54.05700 38.75300
H  29.85700 53.63800 38.42700
H  29.55500 53.25600 41.19400
H  28.83300 52.02700 40.03000
H  27.94900 53.24400 40.96900
H  28.97900 54.67500 36.75700
H  28.06600 56.11100 36.92700
H  26.23100 53.92300 36.73700
H  27.56500 53.52300 35.64600
H  33.76800 54.61900 39.53600
H  35.12700 55.41600 40.36400
H  34.74100 55.96800 38.70400
H  34.90800 60.67000 40.58800
H  36.47600 60.03000 41.23700
H  35.02600 60.06800 42.18400
H  31.42700 62.72500 41.44600
H  29.18800 62.56700 43.28000
H  32.44900 63.01800 43.38200
H  32.43900 61.34300 43.62900
H  31.08200 62.30400 44.31400
H  28.36800 63.06300 40.48200
H  29.73700 64.05600 40.91600
H  28.50200 65.43200 41.68500
H  27.86800 64.42500 43.04100
H  27.03900 64.54400 41.45100
H  23.99200 61.03100 40.59500
H  24.63700 61.36700 42.17300
H  23.38600 60.20300 42.05400
H  25.13900 56.15300 38.21300
H  24.63700 52.02500 39.35600
H  23.47100 52.08300 37.96000
H  23.03900 52.68000 39.53100

