158

Mg 50.00400 46.79100 42.22000
C  46.57800 47.13500 41.63600
C  49.88100 43.91500 40.27400
C  53.27200 46.82400 42.14200
C  49.91100 50.15200 43.26100
N  48.37500 45.73000 41.00100
C  47.10100 46.02500 40.99100
C  46.35800 45.20900 39.87900
C  47.44900 44.10800 39.47600
C  48.65000 44.64900 40.27700
C  47.05400 42.67000 39.85200
C  45.96000 46.21700 38.65700
C  44.53600 45.90600 38.16300
H  44.32500 45.70800 36.71500
N  51.40900 45.37900 41.38900
C  51.13500 44.25000 40.77400
C  52.40300 43.59400 40.63400
C  53.44200 44.46600 40.96400
C  52.71500 45.59200 41.58000
C  52.54700 42.23600 40.05100
C  54.89500 44.29200 40.70200
O  55.36200 43.34700 40.07400
C  55.90500 45.36000 41.00300
N  51.43900 48.38300 42.57900
C  52.75900 48.03400 42.55000
C  53.60000 49.17800 43.09000
C  52.45900 50.32100 43.38600
C  51.17900 49.55700 43.13500
C  54.43000 48.84600 44.41600
C  52.68400 51.62400 42.53500
C  52.20200 52.85500 43.33400
N  48.54700 48.27700 42.56800
C  48.68800 49.51400 43.05000
C  47.40100 50.17200 43.23800
C  46.48900 49.23500 42.67900
C  47.26700 48.09900 42.31500
C  47.11900 51.54700 43.76900
C  45.08200 48.91700 42.32300
O  44.05900 49.56900 42.38700
C  45.08100 47.46900 41.70900
C  44.46700 46.57200 42.62800
O  44.89400 46.25600 43.72400
O  43.32500 46.09300 42.06300
C  42.94000 44.82800 42.64500
H  49.71600 43.01500 39.67800
H  54.35100 46.85000 42.30700
H  49.94600 51.20400 43.55300
H  45.54100 44.63600 40.31700
H  47.74900 44.18900 38.43100
H  45.96800 42.57900 39.85000
H  47.40000 42.37600 40.84300
H  47.45000 42.11200 39.00300
H  46.70400 46.04700 37.87900
H  45.95400 47.26900 38.94400
H  43.84100 46.72000 38.37100
H  44.10000 45.06000 38.69300
H  53.27000 42.33400 39.24100
H  51.55300 41.88000 39.78400
H  53.03200 41.68600 40.85700
H  55.59600 46.34100 40.64300
H  56.84600 45.11800 40.50900
H  56.04400 45.42400 42.08200
H  54.29500 49.43100 42.29000
H  52.41700 50.62700 44.43100
H  55.48200 49.11200 44.30800
H  54.30400 47.87300 44.88900
H  54.11400 49.51600 45.21500
H  52.12600 51.34200 41.64200
H  53.74600 51.83400 42.41200
H  51.38300 53.32500 42.79000
H  52.99500 53.59200 43.46400
H  51.83200 52.65300 44.33900
H  46.07000 51.72100 44.00900
H  47.42600 52.24200 42.98800
H  47.80900 51.71800 44.59500
H  44.57500 47.51900 40.74500
H  41.91300 44.82200 43.01200
H  43.63200 44.32700 43.32200
H  43.03600 44.13500 41.80900
Mg 27.67100 49.95400 26.08600
C  25.51300 51.06300 28.76200
C  29.90500 48.89800 28.43100
C  29.49800 49.16600 23.54000
C  25.42700 51.58900 23.99000
N  27.74200 50.07000 28.34800
C  26.75600 50.49800 29.21000
C  27.11500 50.16700 30.70900
C  28.53800 49.58100 30.52700
C  28.69800 49.41200 28.96200
C  29.76300 50.46600 31.04200
C  25.99900 49.23400 31.43100
C  25.34100 49.92400 32.61900
H  26.35300 50.34000 33.76200
N  29.47400 49.09400 25.99800
C  30.29200 48.70700 27.02900
C  31.49700 48.08300 26.51800
C  31.39100 48.25700 25.12800
C  30.08300 48.81500 24.79300
C  32.55300 47.39000 27.40200
C  32.50700 47.87300 24.14300
O  32.34700 47.98800 22.97400
C  33.90100 47.38500 24.56800
N  27.52400 50.37300 24.05300
C  28.37400 49.85700 23.20100
C  28.08100 50.25800 21.75100
C  26.60500 50.73900 21.81900
C  26.40600 50.79400 23.42100
C  29.19800 51.13000 21.08200
C  25.56100 49.85500 21.11800
C  24.34000 50.67400 20.62600
N  25.95600 51.22200 26.29600
C  25.14800 51.78800 25.33200
C  23.96700 52.28700 25.95200
C  24.04500 52.08000 27.28900
C  25.25900 51.40100 27.44800
C  22.71300 52.84300 25.21800
C  23.37900 52.28500 28.57100
O  22.30400 52.78100 28.89800
C  24.42000 51.78300 29.60000
C  24.76300 52.93800 30.48500
O  25.67200 53.73100 30.32400
O  23.95200 52.87600 31.53000
C  24.29200 53.83300 32.64300
H  30.59200 48.63600 29.23800
H  30.12000 48.86200 22.69500
H  24.66800 51.98600 23.31300
H  27.15800 51.09800 31.27300
H  28.61900 48.60700 31.00900
H  30.44800 50.85700 30.28900
H  30.31200 49.82500 31.73100
H  29.39500 51.35300 31.55800
H  26.51000 48.32600 31.75300
H  25.25300 48.95300 30.68800
H  24.56100 49.21300 32.89400
H  24.74000 50.78800 32.33300
H  32.19400 47.37300 28.43100
H  33.57300 47.77500 27.38100
H  32.55400 46.37800 26.99800
H  34.37700 48.17900 25.14300
H  34.43900 47.04900 23.68200
H  33.75800 46.43500 25.08300
H  28.07700 49.36900 21.12100
H  26.68100 51.72800 21.36700
H  29.76900 50.58200 20.33200
H  29.85900 51.53200 21.85000
H  28.73200 51.98900 20.59900
H  25.07600 49.12700 21.77000
H  26.06700 49.33500 20.30500
H  23.45700 50.27700 21.12600
H  24.36400 50.56000 19.54200
H  24.35200 51.71300 20.95500
H  21.87100 53.02500 25.88600
H  22.41200 52.01200 24.58000
H  22.92700 53.62300 24.48800
H  23.87300 51.02700 30.16300
H  25.26900 53.47600 32.96800
H  23.55700 53.75400 33.44400
H  24.47200 54.84600 32.28300

