158

Mg 49.95500 44.76000 42.97000
C  46.66800 45.43800 41.94500
C  49.36200 41.38000 42.39500
C  53.38100 44.17400 42.56500
C  50.60300 48.15000 42.49900
N  48.18600 43.48900 42.53000
C  47.02100 44.07400 42.01000
C  46.04700 42.93700 41.63800
C  46.73800 41.65600 42.29400
C  48.17400 42.13300 42.47100
C  46.22000 41.24300 43.68200
C  45.90300 42.87300 40.12100
C  44.45900 43.00700 39.67500
H  44.11600 43.97200 38.54300
N  51.25100 43.04000 42.64700
C  50.77200 41.77200 42.38400
C  51.92800 40.93000 42.16200
C  53.12300 41.69700 42.23900
C  52.63300 43.03000 42.50400
C  51.79800 39.40000 41.82700
C  54.58100 41.25100 42.02000
O  54.71000 40.05900 41.79900
C  55.85700 41.99600 42.31400
N  51.74700 46.03500 42.61500
C  53.02300 45.55500 42.62100
C  54.08100 46.67100 42.67100
C  53.20600 47.96700 42.18800
C  51.76200 47.39000 42.49000
C  54.60500 46.62800 44.09300
C  53.17200 48.43300 40.64500
C  53.15400 49.96200 40.34200
N  48.84200 46.52000 42.66100
C  49.24200 47.82200 42.53000
C  48.09200 48.65700 42.24400
C  47.07100 47.75500 42.03000
C  47.56300 46.44700 42.29500
C  48.10200 50.05900 41.79700
C  45.69700 47.70200 41.60800
O  44.82400 48.55300 41.38700
C  45.35400 46.14900 41.54100
C  44.18800 45.79000 42.41000
O  44.32200 45.73400 43.64100
O  43.05500 45.45200 41.69400
C  41.78800 45.32100 42.39600
H  49.29500 40.29500 42.28700
H  54.45200 44.03800 42.39700
H  50.77200 49.22100 42.37100
H  45.07500 43.12600 42.09400
H  46.95100 40.81900 41.62800
H  47.00400 41.48700 44.39800
H  46.19100 40.15300 43.71100
H  45.41000 41.87500 44.04700
H  46.41200 42.01100 39.69100
H  46.34800 43.74500 39.64100
H  43.83400 43.25300 40.53400
H  44.20300 42.00100 39.34200
H  52.47000 39.09200 41.02600
H  50.81500 39.30500 41.36600
H  51.78400 38.88500 42.78800
H  56.12900 42.59300 41.44400
H  56.67100 41.27300 42.35600
H  55.89000 42.48400 43.28800
H  54.86600 46.39600 41.96600
H  53.60200 48.81100 42.75300
H  55.68600 46.49200 44.10600
H  54.10100 45.88100 44.70700
H  54.48300 47.52200 44.70400
H  52.22600 48.09100 40.22700
H  53.88000 47.86400 40.04100
H  52.86100 50.16800 39.31200
H  54.14800 50.39800 40.45000
H  52.42300 50.50700 40.93800
H  48.37900 50.66400 42.65900
H  47.19800 50.42800 41.31100
H  48.94700 50.14800 41.11400
H  45.14600 45.99900 40.48100
H  41.72800 46.01300 43.23700
H  41.84000 44.26400 42.65700
H  40.94800 45.36500 41.70300
Mg 30.75500 58.55900 40.33800
C  27.85700 56.49900 39.48100
C  32.69200 55.91300 39.49600
C  33.31100 60.63100 40.43500
C  28.55000 61.26800 40.58900
N  30.28300 56.48100 39.49500
C  29.11600 55.80600 39.29500
C  29.37100 54.40900 38.68900
C  30.83600 54.17600 39.21000
C  31.30200 55.61900 39.45000
C  30.89600 53.36000 40.53600
C  29.27500 54.41000 37.15000
C  28.02800 53.52000 36.53300
H  27.15700 54.18800 35.53600
N  32.73600 58.37000 40.01700
C  33.30100 57.15900 39.65200
C  34.69100 57.32800 39.42400
C  35.04300 58.65700 39.86500
C  33.69900 59.31200 40.24600
C  35.69800 56.28000 38.82000
C  36.40800 59.28100 39.93800
O  37.35600 58.65900 39.38400
C  36.70000 60.72000 40.45200
N  30.94800 60.64500 40.71900
C  32.11200 61.31700 40.68800
C  31.96300 62.78100 40.52500
C  30.38400 63.03200 40.71500
C  29.87800 61.57500 40.70600
C  32.74700 63.73200 41.55100
C  29.73100 63.92200 39.61100
C  30.30500 65.28700 39.19700
N  28.59400 58.81900 40.20800
C  27.93000 60.02500 40.29600
C  26.54700 59.81400 40.02600
C  26.41700 58.44600 39.74900
C  27.72700 57.84900 39.83600
C  25.48000 60.89300 40.01600
C  25.55100 57.36900 39.29000
O  24.35600 57.41600 39.05500
C  26.44200 56.14800 39.11500
C  26.06300 55.09300 40.00500
O  26.58400 54.84000 41.08700
O  25.05600 54.27800 39.50700
C  24.46500 53.18300 40.23100
H  33.31100 55.04200 39.26900
H  34.08600 61.36900 40.21700
H  27.86100 62.11600 40.60100
H  28.69800 53.78800 39.28100
H  31.58100 53.78400 38.51800
H  30.00300 52.74100 40.62500
H  30.97400 54.04600 41.38000
H  31.69500 52.62100 40.48400
H  30.13600 53.99200 36.62900
H  29.14600 55.43100 36.79200
H  27.35700 53.02800 37.23800
H  28.54400 52.69400 36.04300
H  36.15400 56.45100 37.84500
H  35.41900 55.22700 38.81500
H  36.53900 56.23700 39.51200
H  36.38600 61.49400 39.75200
H  37.78500 60.71500 40.55700
H  36.13200 60.95500 41.35200
H  32.36200 63.07400 39.55400
H  30.17000 63.46900 41.69000
H  32.11500 63.97800 42.40400
H  32.90500 64.60000 40.91100
H  33.69300 63.28700 41.85900
H  28.71600 64.10600 39.96500
H  29.57000 63.34400 38.70100
H  29.68200 66.17600 39.28800
H  30.74200 65.30000 38.19900
H  31.17400 65.42100 39.84100
H  25.61400 61.55400 39.15900
H  25.45800 61.28600 41.03200
H  24.58300 60.34200 39.73200
H  26.58300 55.79900 38.09200
H  25.16800 52.58600 40.81200
H  24.04700 52.50200 39.48900
H  23.60800 53.48000 40.83500

