158

Mg 7.03500 53.09100 41.00700
C  6.50100 49.58100 40.99500
C  10.22600 52.66600 40.03000
C  7.05100 56.37600 40.27600
C  3.51600 53.37200 41.72600
N  8.12100 51.33600 40.24100
C  7.80300 49.98600 40.49500
C  9.09100 49.14300 40.37900
C  10.21900 50.23600 40.33300
C  9.48000 51.52800 40.14800
C  11.06000 50.17700 41.63500
C  9.12900 48.00200 39.27700
C  9.26300 48.57600 37.83200
H  8.22100 47.97900 36.77900
N  8.45700 54.39700 40.23700
C  9.75800 54.06800 39.93200
C  10.47000 55.22100 39.46800
C  9.57900 56.32600 39.57200
C  8.28000 55.77700 40.03100
C  11.92100 55.13700 39.08000
C  9.92600 57.73800 39.22900
O  11.07300 58.03400 38.96900
C  8.94500 58.84100 39.13300
N  5.51400 54.52600 40.87400
C  5.80000 55.82400 40.70900
C  4.57400 56.78100 41.01200
C  3.46500 55.72900 41.34600
C  4.23600 54.42200 41.38600
C  4.93400 57.75800 42.17100
C  2.34200 55.74700 40.29200
C  0.99600 56.20900 40.79200
N  5.25100 51.79800 41.31800
C  3.96900 52.04600 41.67900
C  3.25700 50.84900 41.92300
C  4.20100 49.80500 41.79000
C  5.40100 50.42700 41.31600
C  1.80500 50.68500 42.22400
C  4.45200 48.36500 41.83900
O  3.61700 47.51800 42.08100
C  5.96500 48.20400 41.27800
C  5.85500 47.37900 39.99600
O  5.71900 47.80000 38.85000
O  6.08900 46.06600 40.27000
C  6.09400 45.06200 39.13700
H  11.29200 52.46200 39.90800
H  7.01700 57.46500 40.20400
H  2.49000 53.59200 42.02800
H  9.14100 48.58800 41.31600
H  10.80800 49.96200 39.45700
H  10.72500 49.37500 42.29300
H  10.92300 51.09800 42.20100
H  12.12900 50.13000 41.42900
H  8.20600 47.42200 39.30100
H  10.06400 47.44300 39.31900
H  10.20800 48.39800 37.31900
H  9.27100 49.65700 37.97700
H  12.24600 54.10900 38.92100
H  12.52900 55.48200 39.91600
H  12.23900 55.74300 38.23100
H  8.87200 59.42000 40.05300
H  7.96500 58.58100 38.73400
H  9.35100 59.61500 38.48200
H  4.21400 57.37900 40.17500
H  2.93400 55.81500 42.29400
H  5.90500 57.70500 42.66300
H  4.02200 57.72900 42.76700
H  5.01500 58.78000 41.80000
H  2.08700 54.74500 39.94800
H  2.49900 56.42800 39.45600
H  1.04500 56.59000 41.81200
H  0.34600 55.33400 40.78800
H  0.42000 56.93200 40.21500
H  1.40900 51.59700 42.67100
H  1.77800 49.83700 42.90900
H  1.13400 50.37800 41.42300
H  6.47000 47.52700 41.96700
H  7.14000 44.76400 39.06300
H  6.01800 45.56300 38.17200
H  5.53600 44.12800 39.07800
Mg 10.57500 47.40900 26.41800
C  8.62000 47.28800 29.20300
C  13.10100 48.79900 28.42000
C  12.55000 47.45000 23.75600
C  7.76500 46.91800 24.39900
N  10.87500 47.70600 28.65200
C  9.93100 47.61700 29.54400
C  10.54400 48.02600 30.92800
C  11.78900 48.85700 30.58200
C  11.94500 48.41800 29.12100
C  11.63500 50.43900 30.58600
C  10.87800 46.88900 31.90400
C  10.12500 46.80800 33.28600
H  10.45800 45.68300 34.30800
N  12.52200 48.09600 26.14700
C  13.39500 48.53400 27.05400
C  14.70700 48.68400 26.50900
C  14.60500 48.25200 25.13900
C  13.17500 47.91100 24.96200
C  15.90900 49.18400 27.33100
C  15.75300 48.06000 24.17400
O  15.57200 47.50500 23.10600
C  17.12000 48.39900 24.47500
N  10.28000 47.21400 24.38800
C  11.24000 47.14800 23.48600
C  10.60400 46.77000 22.06500
C  9.11600 46.45700 22.27700
C  9.06000 46.87100 23.80500
C  10.87800 47.64700 20.78500
C  8.69800 44.99400 21.79700
C  9.31100 43.82800 22.51400
N  8.61500 46.99800 26.73700
C  7.56600 46.92600 25.79900
C  6.33900 46.78100 26.53000
C  6.67300 46.88900 27.90600
C  8.10000 47.03300 27.95500
C  4.94900 46.59100 26.08700
C  6.15200 47.00300 29.27800
O  5.05600 47.09800 29.72300
C  7.44000 47.09400 30.14900
C  7.51400 45.93800 31.07700
O  8.27600 44.99200 31.02000
O  6.56100 46.01300 32.02300
C  6.19600 44.83100 32.79700
H  13.83800 49.34000 29.01700
H  13.16900 47.51300 22.85900
H  6.92800 46.72600 23.72400
H  9.79300 48.60700 31.46400
H  12.64800 48.51500 31.15900
H  10.89200 50.65800 31.35300
H  11.54400 50.83100 29.57300
H  12.58900 50.74300 31.01500
H  11.88400 47.03500 32.29700
H  10.89300 45.95600 31.34000
H  9.11300 46.56500 32.96400
H  10.07700 47.78700 33.76400
H  15.73300 49.22500 28.40600
H  16.45700 50.04600 26.95100
H  16.64500 48.39400 27.18500
H  17.06800 49.33900 25.02500
H  17.72000 48.57200 23.58200
H  17.57400 47.62300 25.09100
H  11.04800 45.79700 21.85900
H  8.47400 47.15300 21.73800
H  11.24400 48.63800 21.05400
H  10.01700 47.78700 20.13100
H  11.71900 47.11700 20.33700
H  8.90300 45.00200 20.72600
H  7.63800 44.81000 21.97600
H  9.78300 44.08400 23.46200
H  10.09700 43.49800 21.83400
H  8.56100 43.03900 22.57100
H  4.79700 46.66200 25.00900
H  4.36100 47.34600 26.60800
H  4.55100 45.66900 26.51100
H  7.38400 48.02300 30.71600
H  6.69300 44.74100 33.76200
H  6.47100 43.88500 32.33100
H  5.11900 44.76900 32.95300

