158

Mg -2.12200 17.30700 25.83800
C  -1.92500 15.12100 28.67500
C  -2.61500 19.90800 27.94300
C  -2.18800 19.17200 23.21500
C  -1.85000 14.41900 23.85600
N  -2.25300 17.44300 28.04900
C  -2.19100 16.47500 29.03800
C  -2.53100 17.08500 30.45500
C  -2.95300 18.56500 30.07200
C  -2.55300 18.65200 28.59200
C  -4.49800 18.80200 30.26400
C  -1.29300 17.04000 31.40100
C  -1.73900 16.46700 32.80000
H  -0.61100 16.68000 33.85100
N  -2.40200 19.25100 25.62900
C  -2.55400 20.18500 26.56400
C  -2.48800 21.54500 25.94400
C  -2.30200 21.36600 24.50600
C  -2.31700 19.87300 24.38200
C  -2.84900 22.82100 26.60900
C  -2.05900 22.43200 23.42400
O  -2.02700 22.16400 22.25000
C  -1.69600 23.89400 23.68800
N  -2.14700 16.82300 23.84700
C  -2.22400 17.84300 22.94900
C  -2.27000 17.21100 21.52200
C  -1.99400 15.73000 21.74700
C  -2.04300 15.66400 23.24300
C  -3.63000 17.57300 20.87300
C  -0.56100 15.37200 21.08700
C  0.81100 15.62200 21.74900
N  -1.92800 15.22900 26.11000
C  -1.83300 14.10200 25.22400
C  -1.75400 12.87300 25.92400
C  -1.75400 13.29400 27.23700
C  -1.84900 14.68100 27.34400
C  -1.98800 11.42500 25.38000
C  -1.80600 12.63200 28.59000
O  -1.67700 11.47300 28.89100
C  -1.99900 13.86000 29.59600
C  -0.88000 13.65700 30.59500
O  0.26700 14.13700 30.53200
O  -1.36100 12.85700 31.56700
C  -0.45400 12.73200 32.68500
H  -2.73500 20.79500 28.56900
H  -2.33800 19.81200 22.34300
H  -1.85200 13.51900 23.23800
H  -3.26700 16.47100 30.97400
H  -2.55700 19.34200 30.72600
H  -4.76300 19.50100 29.47000
H  -4.59500 19.20200 31.27300
H  -5.10600 17.91600 30.07900
H  -0.79500 18.00500 31.49200
H  -0.43900 16.43400 31.10100
H  -1.98100 15.40400 32.80400
H  -2.57400 17.07400 33.14900
H  -2.92700 22.69100 27.68800
H  -3.79700 23.18200 26.21000
H  -2.03500 23.52600 26.44200
H  -1.04000 23.66400 24.52700
H  -2.54700 24.51500 23.96600
H  -1.11100 24.36500 22.89800
H  -1.49500 17.70900 20.94000
H  -2.66400 14.94200 21.40400
H  -3.42400 17.99700 19.89000
H  -4.24700 18.28600 21.41900
H  -4.21700 16.69800 20.59200
H  -0.45600 15.97000 20.18200
H  -0.64500 14.30600 20.88000
H  1.12700 14.93500 22.53300
H  0.83500 16.60100 22.22800
H  1.51300 15.61300 20.91400
H  -1.94500 11.50000 24.29300
H  -3.00100 11.14400 25.66800
H  -1.18100 10.81100 25.77900
H  -2.93800 13.83300 30.15000
H  -0.41900 13.63900 33.28800
H  0.54400 12.49800 32.31400
H  -0.80700 11.92300 33.32500
Mg 9.39900 3.93000 28.08700
C  10.87700 2.31100 30.94800
C  7.70200 5.93500 30.17200
C  7.63900 4.92200 25.44000
C  10.77300 1.37700 26.14400
N  9.48400 4.14400 30.27600
C  10.10400 3.42000 31.24100
C  9.85700 3.94100 32.61400
C  8.64100 4.90500 32.40000
C  8.60300 5.04600 30.83400
C  7.27900 4.25200 32.92400
C  11.13700 4.50800 33.29800
C  11.37200 3.83500 34.67000
H  10.18000 3.74600 35.73300
N  8.09900 5.33600 27.86100
C  7.47100 6.04400 28.81000
C  6.66600 7.12900 28.13400
C  6.71700 6.90900 26.76300
C  7.49100 5.68300 26.63800
C  5.97500 8.25700 28.88000
C  6.14800 7.66300 25.65600
O  6.43200 7.42400 24.49900
C  5.25800 8.86100 25.91800
N  8.96600 3.02100 26.12900
C  8.31000 3.74600 25.20000
C  8.35200 3.10600 23.82900
C  9.50800 2.08500 23.98700
C  9.82700 2.21200 25.55100
C  6.98700 2.59500 23.40700
C  10.81400 2.53200 23.24900
C  11.58300 1.34000 22.52500
N  10.62800 2.21000 28.35800
C  11.11100 1.29800 27.50000
C  11.97400 0.40100 28.15800
C  11.89000 0.77400 29.53000
C  11.06500 1.87600 29.61900
C  12.39100 -0.86500 27.63700
C  12.37200 0.48800 30.80400
O  13.16400 -0.41000 31.14100
C  11.77400 1.46600 31.78700
C  10.91900 0.71400 32.75600
O  9.72800 0.69500 32.73100
O  11.67600 0.10500 33.73400
C  10.92500 -0.30900 34.97600
H  7.18100 6.63100 30.83400
H  7.25900 5.31800 24.49600
H  11.23500 0.61400 25.51500
H  9.51600 3.11200 33.23500
H  8.82100 5.88600 32.84000
H  7.32600 3.41300 33.61800
H  6.77600 3.88600 32.02800
H  6.80600 5.08500 33.44200
H  11.02400 5.57500 33.49400
H  11.95700 4.45900 32.58200
H  12.16700 4.35100 35.20700
H  11.63200 2.80500 34.42500
H  6.55300 9.15100 28.64400
H  5.91900 8.13300 29.96100
H  4.95200 8.42500 28.54300
H  5.89700 9.55100 26.47000
H  4.34900 8.54300 26.42900
H  5.03300 9.29200 24.94300
H  8.53700 3.89200 23.09700
H  9.16000 1.10200 23.67000
H  6.57000 2.91900 22.45400
H  6.21500 2.78100 24.15300
H  7.08500 1.52300 23.23600
H  11.40100 3.13400 23.94300
H  10.49600 3.17100 22.42600
H  11.44700 1.29400 21.44400
H  11.32000 0.36900 22.94400
H  12.65000 1.49800 22.68300
H  13.25800 -0.76700 26.98300
H  11.52400 -1.28100 27.12300
H  12.72800 -1.57900 28.38800
H  12.57600 1.99100 32.30700
H  10.23000 -1.13900 34.85400
H  10.34800 0.45400 35.49800
H  11.72400 -0.60300 35.65700

