158

Mg -1.82200 16.92200 25.85600
C  -2.31600 14.59600 28.54700
C  -2.43600 19.41100 28.19300
C  -1.57400 19.02100 23.40300
C  -1.67200 14.09700 23.72800
N  -2.54400 17.01000 28.10100
C  -2.41100 15.95800 28.94500
C  -2.55800 16.40700 30.43300
C  -2.69000 17.98500 30.20500
C  -2.64900 18.14200 28.76300
C  -3.87900 18.66000 30.89300
C  -1.56200 16.06600 31.51700
C  -1.34300 16.91000 32.77700
H  -1.89800 16.36100 34.15900
N  -1.94300 18.95300 25.83100
C  -2.18000 19.81400 26.88700
C  -2.00000 21.14200 26.39000
C  -1.71000 21.01800 24.99300
C  -1.62300 19.59900 24.68600
C  -2.19800 22.39500 27.23600
C  -1.55700 22.16900 23.98100
O  -1.35400 21.90400 22.83600
C  -1.60200 23.57200 24.35300
N  -1.74000 16.59700 23.87800
C  -1.55500 17.68100 23.00500
C  -1.51200 17.23900 21.59000
C  -1.14300 15.73200 21.78800
C  -1.58900 15.42900 23.20700
C  -2.81900 17.63700 20.82400
C  0.30800 15.26300 21.41700
C  1.50200 15.43800 22.49000
N  -2.13800 14.79200 26.00700
C  -1.94900 13.77100 25.09600
C  -2.10300 12.49500 25.69000
C  -2.27900 12.76500 27.09400
C  -2.27200 14.17700 27.16100
C  -2.11900 11.16400 25.06700
C  -2.30900 12.13900 28.35000
O  -2.30200 10.97200 28.72100
C  -2.37700 13.29900 29.36500
C  -1.20300 13.09600 30.26400
O  -0.05900 13.52200 30.04500
O  -1.68800 12.46300 31.43400
C  -0.79800 12.31800 32.50600
H  -2.58000 20.21600 28.91600
H  -1.47200 19.73800 22.58600
H  -1.60500 13.30500 22.97800
H  -3.54600 16.04500 30.71900
H  -1.77800 18.49100 30.52200
H  -4.50100 19.13900 30.13800
H  -3.61200 19.43400 31.61300
H  -4.53300 17.90800 31.33400
H  -0.61000 15.89100 31.01500
H  -1.88200 15.13100 31.97800
H  -1.89500 17.83000 32.58500
H  -0.28500 17.12200 32.93300
H  -2.50600 22.38200 28.28100
H  -2.91200 23.07000 26.76100
H  -1.21400 22.85600 27.15200
H  -2.60100 23.82200 24.71000
H  -1.34000 24.18300 23.49000
H  -0.80100 23.65900 25.08700
H  -0.66400 17.75800 21.14500
H  -1.79000 15.14200 21.13800
H  -3.43000 16.74300 20.69500
H  -2.72700 17.97400 19.79100
H  -3.41900 18.32300 21.42300
H  0.66400 15.65700 20.46500
H  0.11700 14.20900 21.21900
H  2.33700 15.96300 22.02500
H  1.84400 14.46500 22.84300
H  1.20000 16.03100 23.35300
H  -2.80200 10.57400 25.67800
H  -1.11300 10.74400 25.06900
H  -2.54200 11.31200 24.07400
H  -3.32100 13.26500 29.90900
H  0.01500 13.03300 32.63300
H  -0.25000 11.37600 32.53800
H  -1.45300 12.37700 33.37500
Mg 30.75700 59.28800 38.83100
C  27.83200 57.37600 38.10700
C  32.59600 56.52000 38.17600
C  33.37700 61.18900 38.79700
C  28.62600 62.03200 39.26200
N  30.21800 57.26800 37.91700
C  28.94700 56.66700 37.92200
C  29.09500 55.21200 37.43400
C  30.55000 54.86800 37.99900
C  31.20900 56.31700 38.04800
C  30.54700 54.41400 39.48400
C  28.77300 55.14400 35.85600
C  27.55500 54.34100 35.46500
H  26.71100 55.03300 34.33600
N  32.65200 58.98300 38.28100
C  33.23500 57.71900 38.10500
C  34.64400 57.84200 37.82200
C  34.94800 59.26500 38.03000
C  33.62900 59.90500 38.40000
C  35.57900 56.71500 37.53200
C  36.34400 59.90800 37.93600
O  37.23200 59.11700 37.63500
C  36.69800 61.37000 38.26600
N  31.00300 61.32900 38.98300
C  32.19300 61.87000 39.11300
C  32.11000 63.35200 39.43500
C  30.58700 63.60100 39.67700
C  30.02300 62.23600 39.27400
C  33.06200 63.73600 40.64100
C  29.98000 64.73600 38.80900
C  28.87600 65.62400 39.43000
N  28.66200 59.66400 38.83500
C  27.97200 60.80900 39.06200
C  26.58300 60.56300 38.87200
C  26.40400 59.25600 38.51500
C  27.73300 58.72300 38.52300
C  25.43000 61.48900 39.06200
C  25.42800 58.26200 38.09700
O  24.17200 58.28000 38.12100
C  26.37600 56.97300 37.81100
C  26.02000 55.82900 38.67100
O  26.29000 55.71500 39.84800
O  25.23400 54.90400 38.02200
C  24.37200 54.13900 38.90400
H  33.16600 55.58900 38.19700
H  34.20400 61.90000 38.83900
H  27.99900 62.89300 39.50300
H  28.41100 54.60700 38.02900
H  31.11700 54.24200 37.31000
H  29.61900 53.91800 39.76700
H  30.64400 55.30500 40.10400
H  31.39800 53.73800 39.56900
H  29.73200 54.79700 35.47200
H  28.61200 56.11400 35.38600
H  27.00800 54.18900 36.39500
H  27.97500 53.43200 35.03500
H  35.13000 55.80300 37.14000
H  36.19900 56.39100 38.36800
H  36.24500 57.01300 36.72200
H  37.75000 61.47600 37.99900
H  36.51400 61.74600 39.27200
H  36.07800 61.92400 37.56100
H  32.44200 63.94600 38.58400
H  30.32000 63.75500 40.72300
H  34.02600 64.04300 40.23500
H  33.25800 62.89700 41.30900
H  32.59400 64.50200 41.25800
H  29.58700 64.30100 37.89000
H  30.74800 65.44700 38.50500
H  29.16900 66.59100 39.84000
H  28.34400 65.09800 40.22200
H  28.27700 65.83100 38.54300
H  24.87900 61.72700 38.15200
H  25.64700 62.24200 39.81900
H  24.72500 60.83600 39.57500
H  26.27500 56.68900 36.76300
H  23.99900 53.29600 38.32300
H  23.44800 54.70700 39.01400
H  24.72800 53.73100 39.84900

