158

Mg 36.44300 2.56500 30.27700
C  33.91300 3.36800 32.52400
C  38.72100 2.68300 32.81800
C  38.88800 2.05700 27.92700
C  34.04900 2.89800 27.59900
N  36.30900 2.93700 32.39700
C  35.18600 3.24200 33.11300
C  35.53900 3.27600 34.62900
C  37.14100 3.32500 34.61900
C  37.42200 2.95400 33.18500
C  37.68600 4.68100 35.00700
C  34.87900 2.11100 35.45300
C  34.40200 2.48100 36.85100
H  34.81100 3.76300 37.60100
N  38.49900 2.21700 30.41400
C  39.30500 2.41900 31.55200
C  40.60400 2.07700 31.26100
C  40.68600 1.99800 29.81900
C  39.33100 2.07900 29.31000
C  41.56200 1.75000 32.36800
C  41.90400 1.67800 28.95900
O  41.73000 1.65200 27.73300
C  43.20100 1.43800 29.58400
N  36.53700 2.71700 28.13500
C  37.62500 2.25200 27.39700
C  37.35800 2.35000 25.89900
C  35.81300 2.28500 25.92400
C  35.38200 2.67900 27.32700
C  37.94500 3.62900 25.32300
C  35.20200 0.94100 25.39100
C  35.41500 -0.36500 26.29700
N  34.43200 3.00200 30.07900
C  33.60700 3.04900 28.94700
C  32.21200 3.30600 29.40300
C  32.30100 3.46300 30.77300
C  33.66100 3.20400 31.14200
C  31.07200 3.22500 28.48100
C  31.57000 3.75700 32.03000
O  30.37600 4.05000 32.16600
C  32.57200 3.67900 33.18700
C  32.48700 5.04400 33.77500
O  32.97000 5.99100 33.24800
O  31.96400 5.00600 35.02500
C  32.16400 6.14400 35.85100
H  39.49600 2.83100 33.57400
H  39.62100 2.05900 27.11700
H  33.23000 2.94300 26.87900
H  35.11900 4.18400 35.06100
H  37.61000 2.54100 35.21300
H  38.39100 5.00400 34.24100
H  38.17100 4.45200 35.95500
H  36.98500 5.48200 35.24300
H  35.62700 1.32000 35.39500
H  33.98800 1.72500 34.95800
H  34.63900 1.55700 37.37900
H  33.32400 2.63700 36.79900
H  41.77100 2.58800 33.03400
H  42.56800 1.37100 32.18700
H  41.19500 0.99500 33.06300
H  44.03500 1.48600 28.88500
H  43.04900 0.49600 30.11100
H  43.33200 2.23400 30.31700
H  37.83700 1.49100 25.43000
H  35.52300 3.09000 25.24900
H  38.04100 3.46800 24.25000
H  38.79600 3.97800 25.90700
H  37.24700 4.46100 25.41500
H  35.67400 0.65100 24.45200
H  34.13600 1.08300 25.21000
H  36.21500 -0.21300 27.02200
H  35.53500 -1.31500 25.77700
H  34.44900 -0.46100 26.79300
H  31.17000 2.31400 27.89100
H  30.95500 4.03900 27.76600
H  30.13200 3.26300 29.03000
H  32.29000 2.95600 33.95300
H  31.27000 6.76400 35.78600
H  32.96900 6.76000 35.45000
H  32.32100 5.78700 36.86900
Mg -10.56500 40.04800 39.96900
C  -9.00800 36.94500 39.16200
C  -7.78600 41.66100 38.93700
C  -12.32100 42.97100 39.65500
C  -13.68800 38.21800 40.30200
N  -8.67000 39.39100 39.16100
C  -8.23100 38.08300 38.81600
C  -6.92200 38.11200 38.08400
C  -6.45200 39.58700 38.38100
C  -7.75200 40.27600 38.81000
C  -5.34500 39.78200 39.46600
C  -7.04000 37.71900 36.55600
C  -6.22000 36.53500 35.94100
H  -6.87700 35.93000 34.65500
N  -10.02900 42.06100 39.69600
C  -8.80400 42.53800 39.31400
C  -8.74000 44.01300 39.42600
C  -10.11000 44.40200 39.70700
C  -10.89000 43.13600 39.74800
C  -7.48200 44.85700 39.23100
C  -10.57600 45.80600 39.91800
O  -9.77900 46.73600 39.80500
C  -12.00900 46.07700 40.34100
N  -12.68900 40.56800 39.98200
C  -13.10500 41.82300 39.69900
C  -14.64500 41.98000 39.68100
C  -15.10000 40.46600 39.98900
C  -13.75100 39.63900 40.12300
C  -15.07600 43.05600 40.65600
C  -16.01500 39.75100 38.83800
C  -17.29300 38.98500 39.16700
N  -11.25700 38.08000 39.89200
C  -12.48600 37.48000 40.16400
C  -12.34000 36.00100 40.25400
C  -11.02800 35.79000 39.93200
C  -10.40600 37.03600 39.68100
C  -13.46900 35.06900 40.55100
C  -10.04000 34.80100 39.57100
O  -10.12200 33.59000 39.49200
C  -8.74900 35.49900 39.11200
C  -7.62200 35.02200 39.98200
O  -7.63000 35.03800 41.19000
O  -6.57200 34.62500 39.17500
C  -5.60300 33.81800 39.80500
H  -6.88700 42.21900 38.66700
H  -12.97400 43.83900 39.54000
H  -14.64800 37.73100 40.48700
H  -6.18200 37.53600 38.63900
H  -6.10300 40.10300 37.48700
H  -5.71800 40.18800 40.40600
H  -4.66200 40.54000 39.08100
H  -4.69900 38.95300 39.75500
H  -6.73400 38.60800 36.00300
H  -8.09500 37.60700 36.30400
H  -6.34300 35.77600 36.71400
H  -5.17900 36.84200 35.84000
H  -7.31600 45.13800 38.19100
H  -6.59000 44.31100 39.53700
H  -7.63600 45.76000 39.82200
H  -12.07100 47.11400 40.66900
H  -12.18100 45.34400 41.13000
H  -12.66500 46.01800 39.47300
H  -14.98900 42.21500 38.67400
H  -15.56600 40.38200 40.97100
H  -14.78900 44.07600 40.40000
H  -14.50500 42.90200 41.57100
H  -16.16100 43.07300 40.76400
H  -15.45600 39.06000 38.20600
H  -16.26300 40.50700 38.09300
H  -18.18700 39.35600 38.66400
H  -17.50000 39.01600 40.23700
H  -17.17700 37.95400 38.83100
H  -14.02100 35.36500 41.44300
H  -13.03600 34.09700 40.79000
H  -14.21100 35.04500 39.75400
H  -8.59600 35.11500 38.10400
H  -5.53100 33.77000 40.89200
H  -4.60900 34.20700 39.58300
H  -5.47700 32.80600 39.41900

