158

Mg 40.56700 9.37500 29.40100
C  42.53800 10.78600 31.90700
C  38.64700 7.99700 31.99000
C  38.78600 7.53300 27.08600
C  42.75500 10.40800 27.02100
N  40.62300 9.44600 31.65500
C  41.50100 10.18400 32.42700
C  40.97900 10.23600 33.95900
C  39.65200 9.37400 33.85600
C  39.60000 8.94300 32.40700
C  39.63700 8.18100 34.87500
C  40.59500 11.57900 34.64700
C  39.75400 11.59700 35.99200
H  40.19900 12.60300 37.11500
N  38.90000 7.92800 29.57300
C  38.25100 7.48400 30.70300
C  37.13500 6.56100 30.36200
C  37.22400 6.39200 28.95400
C  38.34300 7.30800 28.48100
C  36.09100 6.00800 31.35500
C  36.38100 5.48100 28.06900
O  36.33500 5.60000 26.85900
C  35.55500 4.40000 28.65800
N  40.78400 8.96900 27.33400
C  39.85400 8.27900 26.59300
C  40.18200 8.36900 25.08100
C  41.42700 9.39200 25.09300
C  41.68300 9.61200 26.57000
C  40.33900 7.05200 24.33100
C  41.21200 10.72800 24.31400
C  40.34400 11.80300 25.03300
N  42.28000 10.33600 29.42800
C  43.13300 10.63700 28.33700
C  44.32300 11.35100 28.92500
C  44.09000 11.37000 30.33400
C  42.83500 10.84300 30.56500
C  45.52300 11.79000 28.06400
C  44.69000 11.81100 31.62600
O  45.73800 12.29800 31.87500
C  43.55200 11.55700 32.67300
C  44.17700 10.77700 33.74800
O  44.64000 9.61300 33.59400
O  44.22700 11.48200 34.94400
C  44.68800 10.67100 36.04200
H  37.87600 7.75400 32.72500
H  38.21900 7.05000 26.28800
H  43.42600 10.65600 26.19500
H  41.66300 9.78300 34.67600
H  38.76400 9.98900 34.00500
H  40.64200 7.78400 35.01700
H  39.03500 7.32300 34.57600
H  39.16300 8.44800 35.82000
H  39.92400 12.05800 33.93400
H  41.47100 12.18000 34.89000
H  39.58100 10.60600 36.41200
H  38.77400 12.02800 35.78800
H  36.10200 4.91800 31.37900
H  35.04200 6.21500 31.14800
H  36.39600 6.36900 32.33700
H  35.02500 3.83500 27.89100
H  34.90700 4.98000 29.31500
H  36.28300 3.82100 29.22500
H  39.23200 8.84200 24.83000
H  42.30400 8.86800 24.71400
H  41.34900 6.64100 24.34200
H  40.11200 7.29900 23.29400
H  39.65300 6.24800 24.59900
H  40.67300 10.38900 23.42900
H  42.12500 11.24200 24.01300
H  39.33000 11.79200 24.63300
H  40.61400 12.82900 24.78300
H  40.29100 11.70000 26.11700
H  46.24900 10.97700 28.04900
H  45.95200 12.59100 28.66600
H  45.20500 12.11200 27.07200
H  43.25900 12.50200 33.12900
H  45.76200 10.79100 36.18500
H  44.30400 9.65600 35.94200
H  44.22000 11.20200 36.87100
Mg -11.18300 16.38400 41.24400
C  -8.15200 14.69000 40.97400
C  -9.62500 19.21400 40.09300
C  -14.19300 17.62700 40.42700
C  -12.70600 13.45300 42.16700
N  -9.16100 16.80000 40.38100
C  -8.10400 15.97200 40.46000
C  -6.79500 16.70100 39.96600
C  -7.20100 18.12900 40.02400
C  -8.75100 18.09700 40.14100
C  -6.50000 18.99900 41.13900
C  -6.36400 16.09400 38.60900
C  -5.02200 16.55700 38.07700
H  -5.01100 17.17300 36.71100
N  -11.80900 18.26800 40.52800
C  -11.04400 19.37600 40.25900
C  -11.84200 20.51300 40.07100
C  -13.17500 20.04900 40.05600
C  -13.12600 18.59300 40.32700
C  -11.23700 21.91700 39.96500
C  -14.41100 20.90700 39.83400
O  -14.21000 22.11700 39.67400
C  -15.89600 20.39000 39.82900
N  -13.09300 15.56700 41.09600
C  -14.17300 16.33100 40.84400
C  -15.49600 15.49700 40.89800
C  -15.02600 14.31200 41.79200
C  -13.52200 14.45000 41.75100
C  -16.77500 16.29700 41.33700
C  -15.54800 12.89800 41.40400
C  -15.98200 12.07000 42.60900
N  -10.53900 14.45700 41.66000
C  -11.25700 13.38200 42.05600
C  -10.33700 12.30700 42.33700
C  -9.05700 12.82100 41.97200
C  -9.25700 14.09400 41.42400
C  -10.59400 10.92600 42.84800
C  -7.64600 12.47700 41.95200
O  -7.03900 11.51800 42.27600
C  -7.04900 13.70600 41.18800
C  -6.04800 14.27800 42.12800
O  -6.35100 14.79500 43.17700
O  -4.78400 14.23400 41.60700
C  -3.76600 14.37100 42.63700
H  -9.02600 20.09400 39.85000
H  -15.16100 17.99400 40.08000
H  -13.29000 12.64700 42.61500
H  -6.04700 16.51000 40.73500
H  -6.92300 18.47000 39.02700
H  -5.95400 18.31300 41.78700
H  -7.32300 19.52600 41.62100
H  -5.72600 19.68000 40.78700
H  -7.18800 16.28800 37.92200
H  -6.30000 15.01400 38.73900
H  -4.43900 15.63700 38.03800
H  -4.55200 17.25500 38.77100
H  -11.26900 22.32400 38.95500
H  -10.21800 22.02800 40.33500
H  -11.69700 22.76400 40.47600
H  -16.54500 21.22300 39.56100
H  -16.13200 19.89800 40.77200
H  -15.96900 19.64800 39.03400
H  -15.75900 15.07600 39.92700
H  -15.35900 14.62200 42.78200
H  -17.45000 16.60700 40.53900
H  -16.51800 17.20700 41.88000
H  -17.36800 15.63100 41.96500
H  -14.81200 12.35400 40.81200
H  -16.47800 12.99400 40.84400
H  -15.53000 11.10700 42.37300
H  -16.99300 11.67100 42.68600
H  -15.69800 12.47900 43.57900
H  -11.52500 10.88800 43.41400
H  -9.74600 10.52600 43.40400
H  -10.80800 10.22800 42.03800
H  -6.56900 13.40600 40.25600
H  -2.89900 13.80300 42.30000
H  -3.92400 13.91900 43.61600
H  -3.47200 15.37900 42.92900

