158

Mg 6.29700 54.53800 40.50300
C  5.55700 51.10000 40.48200
C  9.46200 53.96700 39.43900
C  6.50800 57.77900 39.99400
C  2.59000 55.06200 40.73500
N  7.34000 52.76600 39.95500
C  6.80800 51.48600 40.02800
C  7.89700 50.51900 39.61100
C  9.24700 51.34800 39.62200
C  8.70300 52.77400 39.73300
C  10.30300 51.15000 40.69900
C  7.64700 49.84200 38.24100
C  6.91200 50.61400 37.05500
H  5.99100 49.90200 36.07600
N  7.77500 55.75200 39.76900
C  9.03300 55.33500 39.39700
C  9.86000 56.51500 39.13100
C  9.01500 57.62800 39.18300
C  7.70300 57.09200 39.70300
C  11.35800 56.38400 38.83100
C  9.45000 59.01700 38.92700
O  10.61000 59.26800 38.51800
C  8.53800 60.09300 39.16900
N  4.74400 56.11100 40.13400
C  5.18400 57.35400 40.21500
C  4.00200 58.41100 40.40300
C  2.74800 57.57700 40.25400
C  3.40600 56.17600 40.36000
C  4.08900 59.42000 41.60000
C  1.88400 57.73800 38.94900
C  2.20000 56.82700 37.73800
N  4.45800 53.36700 40.72000
C  3.16200 53.76400 40.86600
C  2.45000 52.53600 41.15700
C  3.30800 51.46300 41.13900
C  4.52300 52.02000 40.80300
C  0.92200 52.40100 41.36300
C  3.47300 50.04200 41.28300
O  2.65400 49.17800 41.55600
C  4.91500 49.74400 40.79100
C  4.83900 48.89100 39.63600
O  4.42900 49.14700 38.50900
O  5.16000 47.53900 40.03800
C  5.10500 46.49300 38.99800
H  10.48500 53.74800 39.12700
H  6.60200 58.86600 40.04700
H  1.54400 55.28600 40.95700
H  8.01600 49.69900 40.32000
H  9.71700 51.22900 38.64600
H  10.44500 52.06100 41.28000
H  11.27300 50.82700 40.32100
H  9.86400 50.44800 41.40700
H  7.13500 48.89300 38.39700
H  8.61000 49.47800 37.88300
H  7.61800 50.80600 36.24700
H  6.40600 51.52800 37.36400
H  11.63100 55.42200 38.39900
H  11.89500 56.44800 39.77800
H  11.67200 57.19500 38.17400
H  7.70000 59.84700 38.51600
H  8.96100 60.96600 38.67100
H  8.52100 60.16600 40.25600
H  4.00300 59.07300 39.53800
H  2.06100 57.49800 41.09700
H  3.18900 59.42600 42.21600
H  4.31700 60.39500 41.16800
H  4.83200 59.07600 42.32000
H  1.96100 58.76900 38.60400
H  0.83600 57.81900 39.23900
H  2.52500 57.42200 36.88500
H  1.36700 56.22800 37.36900
H  3.11200 56.24300 37.86500
H  0.40600 53.36000 41.33200
H  0.74300 51.90500 42.31700
H  0.36500 51.80800 40.63700
H  5.55800 49.29600 41.54900
H  5.43900 46.88700 38.03800
H  4.12000 46.04100 38.88100
H  5.80900 45.72700 39.32400
Mg 10.01800 48.94900 26.04800
C  7.90000 49.02700 28.81500
C  12.54200 49.97000 28.04900
C  11.97800 49.02700 23.24600
C  7.23400 48.47800 24.00500
N  10.12600 49.52600 28.13800
C  9.24300 49.24200 29.16700
C  9.77900 49.51800 30.59900
C  11.27200 49.98700 30.30500
C  11.30700 49.82900 28.75900
C  11.61500 51.43000 30.81300
C  9.83400 48.25600 31.56600
C  9.17100 48.44100 32.97600
H  9.44000 47.43900 34.08000
N  11.98300 49.46400 25.68700
C  12.87700 49.87400 26.66100
C  14.24700 49.99700 26.10800
C  14.04300 49.67800 24.75200
C  12.62700 49.32900 24.49200
C  15.43000 50.34000 26.99000
C  15.10900 49.67700 23.64000
O  14.90300 49.45600 22.46500
C  16.50600 50.17200 24.00300
N  9.60700 48.90200 23.87800
C  10.61500 48.79500 22.96700
C  10.09200 48.59400 21.59800
C  8.62800 48.12200 21.90700
C  8.46500 48.50800 23.36700
C  10.25500 49.78400 20.60000
C  8.24300 46.64300 21.50300
C  8.62000 45.53600 22.58400
N  7.96900 48.72500 26.30100
C  6.98700 48.62100 25.37600
C  5.71800 48.49100 26.05700
C  5.99200 48.68600 27.39500
C  7.39600 48.87700 27.47700
C  4.32600 48.12200 25.41000
C  5.40800 48.70000 28.64300
O  4.24000 48.61700 29.08600
C  6.64200 48.75900 29.62800
C  6.65400 47.44200 30.29000
O  7.24600 46.47800 29.95100
O  6.00600 47.53900 31.50500
C  6.04200 46.39700 32.41200
H  13.37500 50.14400 28.73300
H  12.52200 49.09000 22.30100
H  6.37300 48.13000 23.43000
H  9.12900 50.21900 31.12200
H  12.14000 49.48100 30.72900
H  12.39100 51.30100 31.56700
H  10.84600 51.87700 31.44400
H  11.94400 52.09800 30.01800
H  10.87700 48.01900 31.77700
H  9.40600 47.34700 31.14200
H  8.09300 48.56300 32.87600
H  9.51200 49.41000 33.34000
H  16.19100 49.56900 26.86200
H  15.31700 50.60800 28.04100
H  15.84800 51.31100 26.72500
H  17.16800 50.27700 23.14300
H  16.98700 49.33400 24.50800
H  16.54700 51.11800 24.54200
H  10.64000 47.68200 21.36200
H  7.93000 48.78600 21.39700
H  9.21500 50.11100 20.61700
H  10.46000 49.32000 19.63500
H  11.03500 50.48900 20.88400
H  8.85400 46.37500 20.64100
H  7.19700 46.48500 21.24500
H  8.53100 45.83200 23.62900
H  9.63800 45.18000 22.42600
H  7.96400 44.70400 22.33000
H  3.45400 47.99100 26.05000
H  4.50300 47.09200 25.09800
H  4.25000 48.72100 24.50300
H  6.64000 49.61200 30.30600
H  6.04200 46.84200 33.40700
H  6.87500 45.69300 32.43100
H  5.17400 45.75100 32.28100

