158

Mg 1.93900 -2.20900 44.56200
C  5.41900 -1.49000 44.28700
C  1.35800 0.93400 43.02100
C  -1.28300 -3.01200 44.37400
C  2.73100 -5.33400 45.77500
N  3.29200 -0.52900 43.60400
C  4.69400 -0.48400 43.68900
C  5.21500 0.86500 43.25900
C  3.87500 1.66900 43.00600
C  2.75900 0.64500 43.19400
C  3.68000 2.88800 43.93500
C  6.14400 0.77100 41.93200
C  5.77100 -0.33400 40.86300
H  5.41300 0.05800 39.40600
N  0.37900 -1.23100 43.67700
C  0.28200 0.01600 43.05600
C  -1.02800 0.21900 42.56300
C  -1.76200 -0.94200 42.91800
C  -0.88400 -1.80000 43.71400
C  -1.38200 1.52000 41.80100
C  -3.12900 -1.22500 42.44100
O  -3.71000 -0.36000 41.79100
C  -3.87700 -2.44600 42.64900
N  0.87400 -3.98300 44.94400
C  -0.48600 -3.99300 44.95400
C  -1.04000 -5.36900 45.29400
C  0.21800 -6.17400 45.64900
C  1.35800 -5.19400 45.42000
C  -2.31300 -5.31700 46.21700
C  0.48300 -7.51200 44.98300
C  0.39300 -8.76300 45.84400
N  3.63600 -3.25800 45.09000
C  3.82000 -4.47200 45.63900
C  5.16500 -4.71700 45.91100
C  5.88400 -3.57100 45.43900
C  4.89900 -2.67600 44.88900
C  5.76100 -5.94200 46.51400
C  7.15400 -2.93300 45.24500
O  8.30200 -3.32100 45.39100
C  6.93300 -1.58500 44.50800
C  7.32700 -0.49200 45.47100
O  6.76200 -0.36700 46.54800
O  8.29600 0.28700 44.91700
C  8.62000 1.43000 45.75900
H  1.23800 1.95800 42.66100
H  -2.32200 -3.32500 44.25000
H  2.84300 -6.35600 46.14300
H  5.81900 1.34900 44.02700
H  3.85500 1.94300 41.95100
H  3.47400 3.79200 43.36200
H  4.59700 3.03900 44.50300
H  2.91200 2.64000 44.66800
H  7.17200 0.47300 42.13700
H  6.20200 1.75000 41.45600
H  4.93400 -0.87900 41.30100
H  6.65300 -0.97500 40.85600
H  -1.36100 1.44400 40.71400
H  -0.76900 2.39300 42.02500
H  -2.37200 1.91400 42.02800
H  -4.80600 -2.63500 42.11100
H  -4.05900 -2.56900 43.71600
H  -3.21800 -3.25300 42.32700
H  -1.40700 -5.86800 44.39700
H  0.09300 -6.27900 46.72600
H  -3.10700 -5.73600 45.59900
H  -2.60800 -4.31800 46.53700
H  -2.28200 -5.93800 47.11200
H  1.51200 -7.60000 44.63300
H  -0.01900 -7.61000 44.02000
H  -0.62200 -9.14500 45.72600
H  0.47100 -8.58900 46.91700
H  1.11900 -9.49800 45.49800
H  5.78300 -6.79300 45.83400
H  5.14100 -6.04700 47.40400
H  6.79000 -5.68100 46.76200
H  7.43000 -1.57400 43.53800
H  8.42100 1.26600 46.81800
H  8.06100 2.32100 45.47500
H  9.69800 1.58900 45.72800
Mg 27.04100 51.22100 26.14000
C  25.12700 52.14200 29.03100
C  29.39700 50.04900 28.38500
C  28.98900 50.72800 23.54200
C  24.65200 52.81200 24.11600
N  27.24200 51.16800 28.44300
C  26.31100 51.40100 29.39900
C  26.73900 50.97600 30.72400
C  28.24500 50.47400 30.57300
C  28.32500 50.58500 29.04000
C  29.28600 51.45200 31.17500
C  25.67500 49.91500 31.30200
C  24.91800 50.32200 32.60600
H  24.63300 49.22300 33.71700
N  28.86300 50.48200 25.97300
C  29.69400 49.99700 26.97300
C  30.90800 49.54600 26.39600
C  30.87900 49.75700 24.98100
C  29.55100 50.35300 24.80700
C  31.97700 48.72100 27.15200
C  31.93900 49.50400 24.01100
O  31.84800 49.86700 22.84800
C  33.25400 48.87700 24.45000
N  26.79400 51.56800 24.09600
C  27.76500 51.28800 23.18600
C  27.26800 51.58100 21.67500
C  25.79200 52.15100 21.93400
C  25.75500 52.25200 23.43100
C  28.22400 52.47800 20.78800
C  24.65600 51.21100 21.34300
C  23.55300 52.04700 20.71800
N  25.28700 52.24800 26.41200
C  24.44800 52.81900 25.50900
C  23.38200 53.43500 26.17700
C  23.57500 53.20400 27.51100
C  24.78800 52.49500 27.65500
C  22.23900 54.08700 25.60600
C  22.97300 53.34400 28.84900
O  21.93100 53.81200 29.25700
C  23.98300 52.71200 29.80500
C  24.47200 53.87100 30.70200
O  25.04100 54.87200 30.34100
O  24.23200 53.47300 32.02400
C  24.82100 54.48600 32.96500
H  30.04400 49.71600 29.20000
H  29.60900 50.52100 22.66800
H  24.04900 53.47000 23.48700
H  26.82400 51.81700 31.41200
H  28.33300 49.44700 30.92800
H  28.76900 52.29700 31.63000
H  29.99000 51.84600 30.44200
H  29.88300 50.87800 31.88300
H  26.20600 49.03300 31.66000
H  24.95400 49.50500 30.59500
H  23.92900 50.71800 32.37500
H  25.38800 51.20500 33.03800
H  32.87700 49.33500 27.12800
H  32.20600 47.75900 26.69500
H  31.74400 48.67700 28.21600
H  33.93200 48.71800 23.61000
H  33.00900 47.87800 24.81000
H  33.72800 49.54500 25.16800
H  27.24200 50.60100 21.19900
H  25.72700 53.18900 21.60800
H  28.86100 51.92400 20.09900
H  28.92200 53.08600 21.36300
H  27.57500 53.18100 20.26700
H  24.26100 50.45800 22.02500
H  25.02900 50.65200 20.48400
H  22.62400 51.71700 21.18300
H  23.43600 52.01100 19.63500
H  23.70700 53.09100 20.99400
H  21.50400 54.11600 26.41100
H  21.90300 53.42000 24.81300
H  22.43300 55.08800 25.22000
H  23.50100 51.85000 30.26700
H  23.98700 55.16900 33.12500
H  25.77900 54.92900 32.69200
H  24.98800 54.03900 33.94500

