158

Mg 41.64800 8.43600 28.84300
C  43.01100 9.91400 31.62400
C  39.26200 6.95300 31.00900
C  40.20400 6.92000 26.26100
C  44.20100 9.62000 26.79400
N  41.13800 8.46700 30.99500
C  41.86200 9.11500 31.92600
C  41.27200 8.84900 33.35100
C  40.33700 7.65300 33.14300
C  40.23100 7.68200 31.67400
C  40.77800 6.21400 33.70000
C  40.63700 10.11500 34.00600
C  40.84700 10.17600 35.49400
H  40.68900 11.52500 36.27200
N  39.94700 7.13000 28.62800
C  39.11900 6.63600 29.61500
C  38.10800 5.74300 28.98000
C  38.32200 5.72500 27.54500
C  39.50200 6.63900 27.39900
C  36.96400 4.97900 29.91400
C  37.50700 5.05600 26.43500
O  37.73000 5.25900 25.22100
C  36.32900 4.17300 26.86500
N  42.23900 8.13500 26.83800
C  41.42000 7.58500 25.92800
C  42.01800 7.54500 24.54400
C  43.13400 8.62700 24.69100
C  43.25200 8.82600 26.16500
C  42.40700 6.12600 24.02100
C  42.86100 10.02900 24.01600
C  42.10100 11.14800 24.77000
N  43.21100 9.62900 29.16000
C  44.20200 9.98000 28.21100
C  45.17000 10.80100 28.95300
C  44.63500 10.90900 30.26500
C  43.58100 9.98700 30.36000
C  46.32700 11.54000 28.35200
C  44.85800 11.42500 31.60300
O  45.72400 12.12900 32.10500
C  43.83100 10.67800 32.55400
C  44.42700 9.86400 33.65300
O  44.95400 8.79600 33.47200
O  44.26800 10.51100 34.89100
C  44.75500 9.80400 36.11700
H  38.52000 6.44900 31.63100
H  39.71600 6.47600 25.39100
H  44.95900 10.07400 26.15200
H  42.04500 8.50800 34.03900
H  39.40100 7.93300 33.62700
H  41.30700 5.56300 33.00500
H  39.98500 5.66200 34.20500
H  41.53300 6.47700 34.44100
H  39.55600 10.11900 33.86600
H  41.15000 11.01600 33.66900
H  41.82900 9.80300 35.78700
H  40.12600 9.43000 35.82800
H  36.06900 5.60000 29.91700
H  37.19900 4.82300 30.96700
H  36.71100 4.01500 29.47400
H  36.75300 3.46900 27.58100
H  35.94800 3.73600 25.94200
H  35.62300 4.88300 27.29600
H  41.25700 7.90900 23.85300
H  44.00600 8.10600 24.29600
H  41.75700 5.42800 24.54800
H  43.42800 5.90400 24.33300
H  42.27900 6.08000 22.93900
H  42.37500 9.74800 23.08100
H  43.81100 10.39800 23.62700
H  41.72800 10.84400 25.74800
H  41.20600 11.30900 24.17000
H  42.64700 12.09000 24.82200
H  47.24400 11.04500 28.67000
H  46.12300 12.54100 28.73100
H  46.28400 11.55400 27.26300
H  43.42200 11.58600 32.99900
H  44.18000 10.10200 36.99400
H  45.82700 9.85200 36.30900
H  44.43200 8.76700 36.02300
Mg 9.12700 47.55600 25.50800
C  6.88700 47.87600 28.26500
C  11.57000 48.68200 27.62300
C  11.00500 48.00300 22.83900
C  6.36900 47.43300 23.40900
N  9.27400 48.15900 27.75400
C  8.21100 48.05500 28.68200
C  8.78100 48.31000 30.12300
C  10.19600 48.90100 29.84400
C  10.40000 48.57200 28.35900
C  10.28400 50.40800 29.92000
C  8.74300 47.07900 31.14800
C  8.46100 47.54500 32.55300
H  8.08100 46.42300 33.55000
N  11.00300 48.16100 25.26400
C  11.89600 48.50300 26.28500
C  13.22100 48.65800 25.74800
C  13.07100 48.37200 24.33400
C  11.64600 48.13600 24.09000
C  14.43900 49.02100 26.61000
C  14.10900 48.26500 23.28300
O  13.90300 47.86200 22.16100
C  15.52900 48.51600 23.67800
N  8.73700 47.65000 23.40000
C  9.66500 47.92000 22.52100
C  9.17000 47.86600 20.97000
C  7.74200 47.32000 21.21400
C  7.57100 47.48700 22.74200
C  9.22600 49.35800 20.38600
C  7.40800 45.91400 20.63600
C  6.25100 45.88900 19.68900
N  7.09200 47.59000 25.72000
C  6.07500 47.59300 24.75500
C  4.75700 47.66400 25.39400
C  5.07100 47.65300 26.71000
C  6.43200 47.70100 26.90700
C  3.42100 47.63200 24.76900
C  4.52300 47.69200 28.06400
O  3.33400 47.75500 28.30700
C  5.62600 47.74900 29.12100
C  5.53600 46.52500 29.89100
O  5.74100 45.43500 29.39900
O  5.17800 46.80200 31.19800
C  4.80800 45.66000 31.99300
H  12.39800 48.95800 28.27800
H  11.63800 48.01300 21.95000
H  5.48500 47.37600 22.77100
H  8.21600 49.15300 30.52100
H  10.89700 48.49200 30.57100
H  11.18300 50.81600 29.45800
H  10.38200 50.74000 30.95300
H  9.50700 50.93700 29.36900
H  9.73000 46.61900 31.09800
H  8.08000 46.25500 30.88500
H  7.73700 48.35900 32.53600
H  9.41200 47.88000 32.96600
H  15.18600 48.23300 26.52100
H  14.30000 49.20500 27.67600
H  14.92800 49.96100 26.35500
H  16.05300 48.61400 22.72700
H  15.81300 47.60600 24.20500
H  15.81600 49.34800 24.32100
H  9.87400 47.19700 20.47500
H  7.09500 48.02900 20.69700
H  8.29500 49.90700 20.52600
H  9.49200 49.29200 19.33100
H  10.10400 49.76000 20.89300
H  7.07000 45.28600 21.46000
H  8.19500 45.34400 20.14300
H  6.55800 45.39100 18.76900
H  5.86000 46.86100 19.38900
H  5.33200 45.37800 19.97800
H  2.85400 46.88700 25.32800
H  3.58300 47.46300 23.70500
H  3.04600 48.63200 24.98700
H  5.51400 48.64500 29.73100
H  3.73000 45.58200 31.85200
H  5.05800 45.72800 33.05200
H  5.18000 44.66100 31.76300

