158

Mg 49.31600 46.85600 43.61100
C  45.79200 46.75400 42.77800
C  49.44600 43.39900 43.05600
C  52.50200 47.10500 43.91700
C  48.91100 50.43300 43.70900
N  47.76800 45.32900 42.81500
C  46.43900 45.52600 42.58400
C  45.84900 44.13600 42.17600
C  46.98200 43.15700 42.40400
C  48.15600 44.02200 42.77200
C  46.63600 42.04600 43.51100
C  45.20200 44.01700 40.70800
C  46.17800 44.47900 39.55900
H  45.67200 44.25200 38.08500
N  50.74500 45.41000 43.62900
C  50.67600 44.05900 43.36800
C  51.93500 43.42800 43.62000
C  52.92100 44.52900 43.79600
C  52.08300 45.74800 43.79700
C  52.19200 41.98200 43.61600
C  54.41000 44.32800 44.03600
O  54.97700 43.25400 44.02900
C  55.26100 45.50200 44.45600
N  50.50200 48.53000 43.70300
C  51.85900 48.34900 43.88700
C  52.56600 49.65700 44.13400
C  51.43400 50.80900 44.14300
C  50.19400 49.87900 43.77600
C  53.58400 49.75200 45.31500
C  51.70200 51.98000 43.15500
C  51.45400 53.39800 43.76900
N  47.70600 48.35000 43.45500
C  47.71000 49.71200 43.52400
C  46.40200 50.22700 43.29400
C  45.59800 49.11800 43.00200
C  46.42400 48.02000 43.07900
C  45.93800 51.67800 43.54400
C  44.25500 48.65300 42.64000
O  43.26100 49.36400 42.33900
C  44.33200 47.03500 42.54900
C  43.42900 46.37400 43.54800
O  43.65200 46.43200 44.72500
O  42.34200 45.77700 43.00200
C  41.28100 45.32400 43.94100
H  49.49700 42.32300 42.87400
H  53.55800 47.28800 44.12700
H  48.75000 51.51200 43.74700
H  44.96500 43.97900 42.79500
H  47.22900 42.59300 41.50500
H  47.10600 42.34200 44.44900
H  46.93800 41.04700 43.19600
H  45.56400 41.97800 43.69600
H  44.30400 44.59800 40.49600
H  44.96300 42.98800 40.44200
H  47.07100 43.85400 39.59100
H  46.43200 45.52700 39.71900
H  53.01900 41.66600 44.25200
H  52.40700 41.63900 42.60400
H  51.34200 41.37900 43.93900
H  54.87200 45.97500 45.35800
H  55.37400 46.14900 43.58600
H  56.25100 45.10500 44.68200
H  53.11900 49.83000 43.21100
H  51.24500 51.15200 45.16000
H  53.54800 48.87300 45.96000
H  53.39500 50.62400 45.94100
H  54.59900 49.67300 44.92400
H  50.98300 51.79400 42.35800
H  52.71600 51.98900 42.75400
H  50.59000 53.84100 43.27300
H  52.34100 54.00000 43.56900
H  51.25300 53.38300 44.84000
H  46.08800 52.30300 42.66300
H  46.65800 52.06900 44.26300
H  44.88900 51.72300 43.83600
H  43.96900 46.78700 41.55200
H  40.43500 45.11200 43.28700
H  40.87700 45.98100 44.71100
H  41.31400 44.38700 44.49700
Mg 6.65200 53.06500 41.60500
C  5.74100 49.77400 41.15700
C  9.73400 52.41000 40.16900
C  7.23700 56.44800 41.27800
C  3.32200 53.78100 42.72400
N  7.60200 51.33000 40.83400
C  7.08600 50.02100 40.78200
C  8.01100 49.06600 40.21000
C  9.40400 49.88400 40.23300
C  8.88700 51.31200 40.47300
C  10.47600 49.44100 41.40400
C  7.67700 48.48200 38.82900
C  7.28400 49.38000 37.67000
H  6.64300 48.81500 36.36000
N  8.32400 54.22600 41.02700
C  9.48500 53.76500 40.41300
C  10.41000 54.89200 40.24700
C  9.71600 56.16100 40.61800
C  8.38700 55.60200 40.99100
C  11.80400 54.70900 39.70400
C  10.27500 57.58100 40.48400
O  11.39300 57.68600 40.07400
C  9.54100 58.78800 40.95000
N  5.44100 54.89900 41.97100
C  5.94700 56.12200 41.76100
C  4.92700 57.24900 42.02300
C  3.59300 56.40400 42.51500
C  4.10000 54.95900 42.47400
C  5.33000 58.28100 43.10500
C  2.34300 56.61400 41.54500
C  1.10600 57.28200 42.06500
N  4.99600 52.02400 41.98500
C  3.73200 52.43700 42.49200
C  2.94700 51.34200 42.61000
C  3.67300 50.21500 42.10800
C  4.90400 50.67700 41.70100
C  1.48500 51.36300 43.10900
C  3.53600 48.81900 41.84800
O  2.62400 48.03100 41.98400
C  4.96500 48.49500 41.21100
C  4.59000 47.82400 39.97500
O  4.14700 48.36400 38.98200
O  4.82200 46.48400 40.06900
C  4.75200 45.62200 38.92000
H  10.66100 52.03400 39.73200
H  7.42300 57.51600 41.14400
H  2.27200 53.79000 43.02600
H  8.06300 48.20900 40.88200
H  9.93400 49.66700 39.30500
H  10.50200 50.15600 42.22600
H  11.47400 49.44600 40.96600
H  10.22600 48.45800 41.80400
H  6.93800 47.69300 38.96800
H  8.63700 48.03400 38.57200
H  8.19600 49.90800 37.39200
H  6.51900 50.03400 38.08700
H  12.47500 55.13100 40.45300
H  11.94500 55.15000 38.71700
H  12.10100 53.66700 39.81800
H  10.26900 59.59800 41.00100
H  9.29900 58.56900 41.99000
H  8.61000 59.01600 40.43100
H  4.71000 57.74500 41.07600
H  3.29000 56.58600 43.54600
H  6.21700 57.89400 43.60700
H  4.57800 58.40600 43.88400
H  5.55700 59.21800 42.59500
H  2.15000 55.63400 41.10800
H  2.72300 57.34200 40.82800
H  0.85200 58.19000 41.51900
H  1.13000 57.60500 43.10500
H  0.35600 56.49200 42.02400
H  1.57400 51.55500 44.17900
H  1.02000 50.39100 42.94300
H  0.89900 52.14300 42.62300
H  5.57400 47.84900 41.84400
H  3.90900 44.94900 39.07800
H  5.67400 45.03900 38.91400
H  4.70900 46.12900 37.95600

