158

Mg 36.38300 49.05400 24.12700
C  36.71000 47.49100 27.20700
C  35.25400 51.87500 25.57200
C  35.69600 50.33900 21.01600
C  37.59400 46.21200 22.63300
N  35.83800 49.49400 26.12500
C  36.17900 48.80600 27.29600
C  35.70000 49.54800 28.53700
C  35.10100 50.92100 27.94600
C  35.32100 50.71200 26.41400
C  33.64000 51.23700 28.29900
C  36.89400 49.88500 29.52000
C  36.57300 49.65800 31.07300
H  35.16700 49.60000 31.57500
N  35.61300 50.84300 23.45900
C  35.26700 51.90600 24.21900
C  34.81600 53.02000 23.37300
C  34.88800 52.56100 22.04500
C  35.39400 51.20000 22.14200
C  34.63600 54.38100 23.90400
C  34.60900 53.33200 20.72100
O  34.74500 52.93000 19.55900
C  34.15000 54.74900 20.87500
N  36.49400 48.38400 22.10000
C  36.16800 49.06200 21.01200
C  36.56300 48.25800 19.65900
C  37.54700 47.16000 20.24700
C  37.27000 47.27800 21.75000
C  35.31800 47.75500 18.80400
C  39.02200 47.10300 19.68800
C  39.94200 48.11800 20.28800
N  37.03400 47.19700 24.74500
C  37.40400 46.08600 24.02300
C  37.57800 44.95800 24.92600
C  37.36200 45.50000 26.18900
C  37.10300 46.87900 26.02900
C  37.97000 43.54200 24.46400
C  37.42200 45.16600 27.61200
O  37.81300 44.17900 28.27900
C  36.91100 46.50400 28.30600
C  35.61300 46.10900 28.95000
O  34.50300 46.11700 28.44000
O  35.90700 45.75700 30.29200
C  34.79800 45.08400 30.93900
H  34.91100 52.81500 26.00900
H  35.56600 50.82000 20.04400
H  38.12100 45.38300 22.15500
H  34.93300 49.00400 29.08800
H  35.73400 51.72200 28.32700
H  33.50100 52.31800 28.30900
H  33.37500 50.89900 29.30100
H  33.01400 50.71500 27.57500
H  37.33200 50.86900 29.34800
H  37.66600 49.14900 29.29400
H  36.99200 50.53500 31.56500
H  37.15400 48.83000 31.48100
H  35.16300 55.14000 23.32600
H  35.16500 54.43400 24.85500
H  33.55900 54.54700 23.89700
H  33.31800 54.92800 21.55600
H  33.91700 55.03200 19.84900
H  35.03500 55.35700 21.06300
H  37.19600 48.90800 19.05500
H  37.19300 46.18300 19.91900
H  34.31000 48.11900 19.00500
H  35.38100 46.67500 18.67100
H  35.41400 48.15200 17.79400
H  39.07400 47.23900 18.60800
H  39.50100 46.18000 20.01300
H  39.33400 48.83900 20.83500
H  40.39800 48.66100 19.46000
H  40.66800 47.74300 21.00800
H  37.44500 43.48000 23.51100
H  37.55700 42.77200 25.11500
H  39.03900 43.34900 24.37200
H  37.56300 46.83500 29.11400
H  34.23800 44.54200 30.17700
H  34.13700 45.74200 31.50300
H  35.28300 44.39700 31.63200
Mg 26.71400 50.36600 26.19500
C  24.81100 51.51800 28.88500
C  29.10100 49.38800 28.56700
C  28.62100 49.48200 23.76200
C  24.36300 51.76400 24.03800
N  27.01300 50.63600 28.54200
C  25.94400 50.95400 29.29200
C  26.40500 50.66800 30.76100
C  27.81300 50.09800 30.74000
C  28.05900 50.02200 29.21700
C  29.02600 50.95300 31.31700
C  25.36200 49.89400 31.61800
C  24.81000 50.69600 32.86900
H  24.62500 49.89500 34.14100
N  28.58700 49.54300 26.19700
C  29.35800 49.11200 27.20700
C  30.51100 48.35400 26.71100
C  30.44200 48.40700 25.31500
C  29.20300 49.24300 25.05100
C  31.55200 47.78200 27.49200
C  31.46900 47.92600 24.24900
O  31.35800 48.12200 23.09700
C  32.71900 47.13700 24.66500
N  26.64300 50.84800 24.17400
C  27.44000 50.15600 23.38100
C  27.07000 50.21600 21.87900
C  25.66600 50.93200 22.01500
C  25.49700 51.13000 23.51000
C  27.98200 50.82900 20.91700
C  24.42800 50.18900 21.39700
C  23.75600 51.01800 20.31800
N  24.92700 51.39800 26.40400
C  24.07100 51.92700 25.39700
C  23.05600 52.70100 26.04200
C  23.34300 52.46400 27.41000
C  24.42800 51.75300 27.56900
C  21.99300 53.54000 25.40700
C  22.79000 52.78300 28.75000
O  21.78000 53.44900 29.03600
C  23.73600 52.16300 29.75700
C  24.23400 53.29600 30.56100
O  25.15400 54.01700 30.18200
O  23.45000 53.57500 31.65900
C  24.11300 54.48700 32.63400
H  29.73500 48.81900 29.25100
H  29.21300 49.00200 22.98000
H  23.62000 52.03400 23.28400
H  26.61400 51.65700 31.16800
H  27.74300 49.13500 31.24500
H  28.65100 51.92900 31.62500
H  29.70600 51.36900 30.57400
H  29.60300 50.39600 32.05500
H  25.78400 48.95400 31.97300
H  24.45900 49.59200 31.08700
H  23.84500 51.11400 32.58400
H  25.57200 51.44400 33.08600
H  31.46000 47.93300 28.56700
H  32.52300 48.20700 27.23700
H  31.54200 46.71500 27.27000
H  33.62400 47.68300 24.93300
H  32.93600 46.55900 23.76600
H  32.63600 46.42300 25.48400
H  26.91100 49.16800 21.62700
H  25.81500 51.91200 21.56000
H  28.78600 51.36800 21.41800
H  27.49500 51.48500 20.19600
H  28.34000 49.98700 20.32500
H  23.75700 49.86000 22.19000
H  24.78100 49.30100 20.87200
H  23.69800 50.47800 19.37300
H  24.30200 51.89100 19.96100
H  22.73600 51.27300 20.60700
H  21.99400 53.59800 24.31900
H  21.97200 54.54800 25.82300
H  21.07700 53.00400 25.65900
H  23.21400 51.38100 30.30800
H  23.99800 55.55900 32.47400
H  25.17800 54.27100 32.71600
H  23.74500 54.35300 33.65200

