158

Mg 25.30800 1.30200 29.92600
C  27.29600 0.90500 32.87500
C  22.62400 1.54400 31.79900
C  23.54900 1.46100 27.01200
C  28.15200 0.68900 28.05400
N  25.04300 1.16000 32.04300
C  25.94600 1.09800 33.09600
C  25.29800 1.34000 34.49900
C  23.75100 1.40500 34.07100
C  23.79500 1.31500 32.51700
C  22.85700 0.33900 34.70500
C  25.88200 2.60500 35.22300
C  26.31200 2.41700 36.73600
H  25.61700 3.25700 37.82300
N  23.29800 1.41700 29.48000
C  22.35100 1.59200 30.42600
C  21.07700 1.90600 29.73900
C  21.36200 1.71300 28.34800
C  22.80300 1.58100 28.26200
C  19.78200 2.30300 30.52400
C  20.36500 1.61800 27.18900
O  20.78800 1.50500 26.01400
C  18.88400 1.72100 27.44100
N  25.77200 1.01100 27.81400
C  24.90900 1.23100 26.85900
C  25.59500 1.28900 25.43800
C  27.03100 1.33000 25.78600
C  27.03000 0.93300 27.27500
C  25.12400 0.21400 24.35400
C  27.74600 2.60600 25.30700
C  27.58300 3.89500 26.17200
N  27.29900 0.77000 30.31500
C  28.29800 0.54700 29.42800
C  29.52300 0.23000 30.18100
C  29.19800 0.36500 31.53200
C  27.82300 0.67400 31.57200
C  30.84000 -0.25800 29.62100
C  29.63200 0.32500 32.92300
O  30.76100 0.08900 33.33800
C  28.44100 0.75600 33.85100
C  28.09600 -0.30500 34.82400
O  27.31700 -1.16900 34.67700
O  28.88900 -0.11700 35.92800
C  28.62800 -1.05200 36.99500
H  21.72400 1.58300 32.41700
H  23.13300 1.57300 26.00800
H  29.09400 0.62800 27.50400
H  25.52900 0.48600 35.13500
H  23.28300 2.35100 34.34100
H  23.51100 -0.52200 34.84500
H  22.05900 0.02600 34.03200
H  22.52000 0.66300 35.69000
H  25.07300 3.33300 35.27300
H  26.73800 3.12400 34.79100
H  27.36200 2.70300 36.80000
H  26.22300 1.37600 37.04800
H  19.38300 3.21800 30.08700
H  19.96700 2.46000 31.58700
H  19.09900 1.47100 30.35700
H  18.54200 1.37400 28.41600
H  18.44200 1.12100 26.64600
H  18.58700 2.76000 27.29800
H  25.43100 2.19800 24.86000
H  27.47800 0.43900 25.34400
H  24.46700 -0.46500 24.89800
H  25.91300 -0.37100 23.88200
H  24.48500 0.72600 23.63400
H  27.47000 2.80100 24.27100
H  28.78400 2.27300 25.34500
H  28.53600 4.19100 26.61200
H  26.99700 3.68000 27.06600
H  27.18500 4.70500 25.56200
H  31.52700 -0.19000 30.46400
H  30.98400 0.37500 28.74500
H  30.80100 -1.26900 29.21500
H  28.68900 1.60200 34.49100
H  29.06100 -0.80600 37.96500
H  28.90900 -2.06200 36.69800
H  27.57200 -1.11900 37.25900
Mg 54.36900 24.02300 44.74500
C  51.80500 26.13800 43.77100
C  52.49200 21.37000 43.88700
C  57.12200 22.18200 45.03000
C  56.28300 26.89800 45.46900
N  52.48900 23.83600 43.61800
C  51.58500 24.82600 43.29600
C  50.29000 24.18400 42.66600
C  50.37200 22.71800 43.26500
C  51.85800 22.59900 43.54800
C  49.50400 22.51200 44.62900
C  50.39900 24.14600 41.13500
C  51.76200 24.35700 40.41600
H  52.97700 23.39000 40.57800
N  54.76900 22.07700 44.30800
C  53.83500 21.05400 44.14500
C  54.49600 19.78000 44.18600
C  55.81800 19.98500 44.52900
C  55.96800 21.49100 44.63600
C  53.70500 18.49700 43.85500
C  56.83500 18.79500 44.74400
O  56.54000 17.62800 44.71200
C  58.20500 19.06200 45.11600
N  56.44100 24.49300 44.91900
C  57.34800 23.54200 45.27300
C  58.68100 24.04100 45.81300
C  58.38400 25.49400 46.06900
C  56.97800 25.68700 45.36600
C  59.37000 23.26500 46.97500
C  59.43800 26.51600 45.60000
C  60.04400 27.47000 46.68400
N  54.10100 26.14200 44.90200
C  54.93300 27.20000 45.16200
C  54.14500 28.42200 45.20100
C  52.91300 28.02000 44.65300
C  52.94200 26.67900 44.46200
C  54.59400 29.71100 45.85500
C  51.57200 28.50100 44.40100
O  51.05900 29.59200 44.52800
C  50.85500 27.34000 43.54300
C  50.80800 27.88700 42.21600
O  51.77100 27.94500 41.47000
O  49.47200 27.93700 41.84300
C  49.15400 27.94800 40.43100
H  51.92300 20.45300 43.72100
H  58.09200 21.68100 45.03800
H  56.62000 27.82900 45.93000
H  49.38900 24.75700 42.88300
H  50.18300 21.91300 42.55400
H  49.00200 21.55100 44.51500
H  48.79800 23.34100 44.67400
H  50.09600 22.38100 45.53500
H  49.67500 24.85800 40.73800
H  50.01800 23.22200 40.70000
H  52.17200 25.25100 40.88700
H  51.61900 24.68200 39.38500
H  53.53600 18.21400 42.81600
H  52.68200 18.35300 44.20300
H  54.16100 17.70900 44.45500
H  58.66900 18.08300 45.23200
H  58.24900 19.67300 46.01800
H  58.66400 19.53400 44.24700
H  59.41100 24.01000 45.00400
H  58.15700 25.56400 47.13300
H  59.39000 23.81900 47.91300
H  60.42100 23.11100 46.73000
H  58.97700 22.25900 47.12200
H  58.90100 27.06400 44.82600
H  60.24500 26.08000 45.01200
H  61.11700 27.55400 46.50800
H  59.89600 27.09900 47.69800
H  59.66600 28.49100 46.73900
H  55.54000 30.06100 45.44100
H  54.78400 29.52400 46.91200
H  53.80500 30.46200 45.82000
H  49.92900 27.21500 44.10300
H  48.58200 28.86300 40.27900
H  48.58500 27.03800 40.24000
H  49.99900 27.79700 39.75900

