158

Mg 35.12100 2.23400 29.72900
C  32.97000 3.34000 32.07800
C  37.66900 2.32800 31.97200
C  37.60100 1.86900 27.15900
C  32.65000 2.54700 27.39200
N  35.28200 2.79500 31.72700
C  34.28600 3.12500 32.58000
C  34.82700 3.51800 33.93300
C  36.30400 3.40000 33.79000
C  36.42600 2.74200 32.43500
C  37.17000 4.61600 33.90900
C  34.21200 2.58600 35.10900
C  34.03000 3.20400 36.43400
H  35.14200 4.23300 36.97100
N  37.28200 1.95300 29.65200
C  38.07100 1.91600 30.69300
C  39.40200 1.49500 30.28500
C  39.39500 1.37900 28.85400
C  38.04500 1.70900 28.47600
C  40.53100 1.38100 31.31500
C  40.45100 1.05600 27.91800
O  40.31000 0.85400 26.68900
C  41.89200 0.92800 28.50400
N  35.18100 2.60500 27.59900
C  36.24600 2.24000 26.79500
C  35.81000 1.98500 25.35600
C  34.24900 1.84500 25.42800
C  34.00600 2.51000 26.82300
C  36.30700 3.13300 24.37300
C  33.67500 0.44300 25.30800
C  32.19000 0.22200 24.84700
N  33.15500 2.75100 29.67100
C  32.31700 2.80600 28.64100
C  30.99900 3.19100 29.10100
C  31.16600 3.37100 30.48600
C  32.48900 3.17500 30.79900
C  29.76600 3.25700 28.27500
C  30.54500 3.74000 31.75200
O  29.35900 3.92500 32.00600
C  31.69100 3.75700 32.86500
C  31.74200 5.07800 33.39500
O  31.86000 6.11100 32.76000
O  31.54300 5.02600 34.74500
C  31.13700 6.23200 35.48300
H  38.46700 2.22000 32.71000
H  38.13300 1.65600 26.22900
H  31.92500 2.42700 26.58500
H  34.57700 4.55400 34.15900
H  36.75400 2.76200 34.55000
H  36.63800 5.39800 34.45100
H  37.32000 5.12000 32.95400
H  38.06900 4.21600 34.37600
H  34.76500 1.64900 35.17500
H  33.20400 2.32800 34.78700
H  34.13800 2.31600 37.05700
H  33.06600 3.69100 36.29000
H  40.75300 0.31400 31.33300
H  40.14000 1.74200 32.26600
H  41.47000 1.79700 30.94900
H  42.00900 0.01000 29.07900
H  42.23100 1.88600 28.89900
H  42.51400 0.84600 27.61200
H  36.23900 1.02000 25.08500
H  33.73600 2.53500 24.75700
H  36.57600 4.03200 24.92700
H  35.46200 3.37700 23.72900
H  37.16200 2.72900 23.83100
H  33.80900 -0.09400 26.24700
H  34.30400 -0.09500 24.59800
H  32.24900 -0.26200 23.87200
H  31.62200 1.15200 24.81200
H  31.63000 -0.37500 25.56800
H  29.40500 4.27000 28.10000
H  28.97500 2.75500 28.83200
H  29.88800 2.78600 27.29900
H  31.59500 2.91300 33.54900
H  30.87200 7.06400 34.83100
H  32.04500 6.53700 36.00300
H  30.33400 5.97500 36.17400
Mg -12.23000 15.92600 41.77700
C  -9.22200 14.05200 41.27600
C  -10.81200 18.44800 39.89900
C  -15.22100 17.34200 41.59500
C  -13.69900 12.94800 43.10400
N  -10.27200 16.09300 40.44000
C  -9.19500 15.27900 40.54700
C  -7.93900 15.94900 39.95400
C  -8.47900 17.35700 39.59900
C  -9.93200 17.34200 40.08000
C  -7.67200 18.58900 40.23400
C  -7.44100 15.12600 38.71000
C  -5.97200 15.09100 38.49800
H  -5.61000 15.66800 37.18400
N  -12.94700 17.69300 40.98100
C  -12.19500 18.61200 40.22600
C  -13.05600 19.74400 39.80200
C  -14.31000 19.47200 40.31100
C  -14.21500 18.17600 41.05100
C  -12.52000 20.85500 38.93200
C  -15.55500 20.33400 40.04200
O  -15.53500 21.28200 39.24400
C  -16.78000 20.12300 40.84900
N  -14.14600 15.23400 42.29400
C  -15.19700 16.09000 42.16200
C  -16.48700 15.23500 42.39600
C  -16.01200 13.96800 43.06900
C  -14.53000 14.04200 42.85200
C  -17.49900 15.97300 43.37400
C  -16.74900 12.60300 42.74500
C  -16.96900 11.67600 43.89000
N  -11.60600 14.00600 42.28100
C  -12.29300 12.90500 42.80000
C  -11.43700 11.80900 42.97900
C  -10.22400 12.21600 42.43500
C  -10.36300 13.54200 41.97400
C  -11.77100 10.50800 43.60100
C  -8.85900 11.78600 42.20500
O  -8.31000 10.71300 42.49100
C  -8.11800 12.95500 41.50100
C  -7.14300 13.45600 42.47800
O  -7.34000 13.68900 43.66000
O  -5.94200 13.76100 41.86500
C  -5.00000 14.53600 42.75100
H  -10.25600 19.18900 39.32100
H  -16.17700 17.63000 41.15300
H  -14.28000 12.11400 43.50500
H  -7.15200 16.00600 40.70500
H  -8.59400 17.51400 38.52700
H  -6.64100 18.24700 40.13600
H  -7.88300 18.75800 41.29000
H  -7.81700 19.59200 39.83400
H  -7.87000 15.62400 37.84000
H  -7.85500 14.11800 38.70800
H  -5.66700 14.05300 38.62900
H  -5.39900 15.71800 39.18100
H  -13.28200 21.49200 38.48300
H  -11.88000 20.35800 38.20300
H  -11.84700 21.52000 39.47400
H  -16.54000 19.80400 41.86300
H  -17.30800 19.35900 40.27900
H  -17.42500 20.99800 40.93100
H  -16.91500 14.93700 41.43900
H  -16.17400 14.13300 44.13400
H  -17.91300 15.21000 44.03200
H  -18.31200 16.47200 42.84600
H  -16.95700 16.72900 43.94300
H  -16.17000 12.08000 41.98300
H  -17.78600 12.66900 42.41500
H  -16.58000 10.70300 43.58900
H  -18.04500 11.52900 43.98900
H  -16.44300 11.94800 44.80500
H  -11.93300 10.73600 44.65400
H  -10.92400 9.83500 43.47400
H  -12.71900 10.13800 43.20800
H  -7.62100 12.63100 40.58700
H  -5.16800 14.43500 43.82300
H  -5.09700 15.60600 42.56900
H  -4.01900 14.10000 42.56000

