158

Mg 25.66000 1.51000 29.56000
C  27.53000 1.12000 32.39300
C  22.91000 1.79000 31.43300
C  23.82600 1.32500 26.56700
C  28.50100 0.82100 27.67500
N  25.28500 1.59700 31.65400
C  26.20600 1.42200 32.64200
C  25.63400 1.82400 34.06400
C  24.10200 1.89600 33.73900
C  24.05700 1.72700 32.19900
C  23.29800 0.83500 34.52300
C  26.27500 3.14900 34.58400
C  25.92300 3.50700 36.10300
H  27.02500 3.58200 37.12600
N  23.65800 1.66000 29.01500
C  22.72200 1.90500 29.97600
C  21.46500 2.03900 29.27700
C  21.73100 1.89300 27.87000
C  23.13900 1.70300 27.74400
C  20.18300 2.29900 29.93700
C  20.79700 2.07700 26.69800
O  21.10500 1.99300 25.51100
C  19.33000 2.20200 26.91400
N  26.03900 0.87400 27.41000
C  25.18800 1.09600 26.35400
C  25.88000 0.97000 24.96400
C  27.35900 0.98000 25.39700
C  27.30100 0.93200 26.94300
C  25.48200 -0.30200 24.07800
C  28.15200 2.15800 24.78900
C  28.11400 3.40700 25.72000
N  27.62300 0.99900 29.87400
C  28.65000 0.64400 29.02800
C  29.84500 0.57400 29.77300
C  29.40900 0.64600 31.12900
C  28.04900 0.90700 31.12600
C  31.27300 0.19500 29.24900
C  29.90200 0.66100 32.46600
O  31.04200 0.36100 32.85200
C  28.68000 0.99900 33.37600
C  28.48800 0.04800 34.46600
O  27.92500 -1.00400 34.36200
O  29.05500 0.44800 35.68000
C  28.97700 -0.52200 36.74600
H  22.02400 1.89900 32.06100
H  23.14700 1.25700 25.71500
H  29.48100 0.82100 27.19400
H  25.84800 0.99700 34.74100
H  23.80400 2.87600 34.11400
H  23.13200 1.19800 35.53800
H  23.95500 -0.03500 34.52300
H  22.32000 0.72700 34.05500
H  25.93700 3.98700 33.97400
H  27.35900 3.23100 34.51700
H  25.15300 2.81200 36.43900
H  25.38500 4.45400 36.07400
H  19.51200 1.48200 29.67300
H  19.72800 3.21900 29.57200
H  20.23000 2.35600 31.02500
H  19.40000 3.18800 27.37200
H  18.91200 1.42500 27.55400
H  18.83900 2.31000 25.94600
H  25.63800 1.81800 24.32300
H  27.81100 0.03200 25.10500
H  25.20800 -1.07200 24.80000
H  26.25400 -0.59200 23.36500
H  24.52400 -0.04500 23.62600
H  27.68600 2.59200 23.90300
H  29.21600 1.95900 24.66300
H  27.40900 3.40500 26.55100
H  27.96800 4.26100 25.05900
H  29.10600 3.58300 26.13500
H  32.04000 0.54300 29.94100
H  31.55200 0.59500 28.27300
H  31.31900 -0.88300 29.40100
H  28.85700 1.99200 33.78900
H  28.66100 -1.53800 36.51200
H  28.41700 -0.09900 37.58000
H  29.99300 -0.66500 37.11400
Mg 26.92400 49.92300 26.23100
C  25.02500 51.08200 29.04900
C  29.43400 49.07900 28.41000
C  28.57800 48.82800 23.69400
C  24.40500 51.19700 24.17300
N  27.28100 50.38500 28.55100
C  26.23600 50.48700 29.46000
C  26.57500 49.88200 30.81400
C  28.02200 49.44800 30.66700
C  28.31100 49.62900 29.12000
C  29.13100 50.06500 31.50300
C  25.54500 48.79600 31.25300
C  25.02500 48.96000 32.66900
H  25.79200 49.83700 33.65600
N  28.79900 49.23700 26.02500
C  29.68900 48.91000 27.02600
C  30.85800 48.32000 26.43500
C  30.67700 48.34800 25.01400
C  29.28500 48.84100 24.88300
C  32.13100 47.79700 27.24200
C  31.69300 47.97400 23.94200
O  31.46400 48.14600 22.74900
C  33.03000 47.39600 24.30400
N  26.68900 50.26400 24.13600
C  27.43700 49.45800 23.26800
C  26.70200 49.36000 21.94500
C  25.44800 50.14500 22.03800
C  25.49000 50.50600 23.52400
C  27.65100 49.61500 20.68800
C  24.11400 49.51500 21.51200
C  23.36900 50.39000 20.43500
N  25.14700 50.97400 26.45400
C  24.18500 51.38900 25.58200
C  23.12500 52.11800 26.28900
C  23.42900 51.99700 27.64100
C  24.65100 51.29900 27.71100
C  22.02700 52.81500 25.65500
C  22.86400 52.30000 28.87600
O  21.90500 52.95400 29.18300
C  23.88100 51.70800 29.91100
C  24.40300 52.86300 30.72000
O  25.13800 53.74600 30.31800
O  23.69300 52.87500 31.92000
C  24.12200 54.03000 32.75000
H  30.20700 48.68600 29.07400
H  28.91600 48.11800 22.93700
H  23.52100 51.46000 23.58800
H  26.46400 50.66500 31.56500
H  28.06200 48.37000 30.82600
H  30.11200 50.08800 31.03100
H  29.30000 49.64700 32.49600
H  28.86900 51.10700 31.68600
H  25.93500 47.77900 31.20900
H  24.71800 48.80600 30.54300
H  25.03000 48.01400 33.21000
H  23.98300 49.26000 32.55800
H  33.00700 48.32600 26.86500
H  32.31100 46.72900 27.11900
H  32.18400 48.05200 28.30000
H  33.58700 48.15300 24.85600
H  33.52300 47.10400 23.37700
H  32.66800 46.57600 24.92500
H  26.35900 48.32700 21.87500
H  25.49700 51.18000 21.70100
H  28.63500 49.69600 21.15000
H  27.27400 50.45600 20.10500
H  27.61500 48.86300 19.89900
H  23.49700 49.30700 22.38600
H  24.40600 48.63800 20.93400
H  23.75500 51.38200 20.20000
H  22.29200 50.41500 20.60600
H  23.44100 49.82700 19.50500
H  21.78600 52.37600 24.68700
H  22.20900 53.85100 25.37100
H  21.17200 52.72600 26.32500
H  23.37700 50.92600 30.47900
H  24.00900 55.01100 32.28800
H  25.17200 53.96000 33.03500
H  23.53200 53.97900 33.66500

