158

Mg -0.70100 7.15700 26.72200
C  0.39100 9.23700 29.36100
C  -1.06700 4.66800 29.12500
C  -1.24300 5.07000 24.19900
C  0.22100 9.73700 24.39800
N  -0.36100 7.02500 28.98700
C  -0.03600 8.04700 29.87000
C  -0.30400 7.68900 31.29700
C  -0.37200 6.07800 31.16700
C  -0.60400 5.89300 29.72200
C  1.00400 5.50900 31.79800
C  -1.54900 8.45200 31.91100
C  -1.72200 8.66700 33.48500
H  -0.73400 8.25300 34.48900
N  -1.15300 5.15200 26.71500
C  -1.32400 4.30500 27.73600
C  -1.75900 3.04000 27.26200
C  -1.77300 3.07700 25.85800
C  -1.39000 4.45900 25.50500
C  -1.96900 1.81200 28.12600
C  -2.19400 2.01900 24.79300
O  -2.05300 2.14500 23.58100
C  -2.82000 0.73100 25.26000
N  -0.59600 7.37900 24.56700
C  -0.93800 6.37900 23.75600
C  -0.95200 6.84100 22.30800
C  -0.63900 8.38900 22.45100
C  -0.32000 8.55300 23.90500
C  0.05900 6.03600 21.36400
C  -1.68600 9.41500 21.98800
C  -1.24700 10.50600 20.95400
N  0.27300 9.05200 26.76900
C  0.59700 9.90800 25.74800
C  1.18600 11.12700 26.30100
C  1.05800 10.94100 27.71200
C  0.55900 9.58500 27.96800
C  1.63400 12.35600 25.61700
C  1.28700 11.53800 29.03100
O  1.72200 12.64200 29.25700
C  0.78900 10.50200 30.11800
C  1.80900 10.44900 31.21400
O  2.57600 9.50200 31.31700
O  1.77500 11.52000 31.99200
C  2.46900 11.40200 33.29200
H  -1.28400 3.86700 29.83500
H  -1.31600 4.35800 23.37500
H  0.49500 10.39800 23.57300
H  0.47600 8.07600 31.95200
H  -1.12100 5.53600 31.74300
H  0.68400 4.84700 32.60200
H  1.63500 6.29200 32.21900
H  1.55700 5.04300 30.98300
H  -2.40600 7.84200 31.62600
H  -1.73700 9.44100 31.49400
H  -2.62300 8.14500 33.80700
H  -1.99500 9.70500 33.67700
H  -1.92300 2.10300 29.17500
H  -1.23900 1.01400 27.98900
H  -2.97200 1.47200 27.87000
H  -3.14000 0.11700 24.41900
H  -3.75300 0.98600 25.76200
H  -2.13100 0.17600 25.89700
H  -1.98300 6.74300 21.96800
H  0.29100 8.48600 21.89000
H  0.62300 5.39000 22.03800
H  0.78000 6.64200 20.81600
H  -0.55900 5.46500 20.67100
H  -2.18700 9.91000 22.82000
H  -2.48800 8.82900 21.54000
H  -1.74600 10.47500 19.98600
H  -0.16100 10.55200 20.87700
H  -1.58800 11.43400 21.41300
H  0.99100 12.70700 24.80900
H  2.60700 12.05600 25.22900
H  1.75400 13.05800 26.44100
H  0.00600 10.88700 30.77100
H  2.38800 10.41500 33.74900
H  1.96200 12.01200 34.03900
H  3.48100 11.78100 33.15000
Mg 43.45900 5.73300 47.17300
C  41.59800 8.78500 46.60500
C  40.60700 4.02000 46.43400
C  45.36800 2.95400 46.84200
C  46.36200 7.69800 46.78300
N  41.38600 6.35400 46.68600
C  40.88000 7.59200 46.43400
C  39.36300 7.49300 46.14100
C  39.03600 5.96100 46.20500
C  40.39700 5.38700 46.46900
C  37.91800 5.49100 47.22000
C  38.85000 8.34000 44.86400
C  39.73300 8.14100 43.56800
H  39.04100 8.47000 42.28300
N  43.04700 3.72500 46.80300
C  41.76600 3.21800 46.52500
C  41.87400 1.75100 46.35800
C  43.24400 1.37600 46.61500
C  43.95300 2.65800 46.82300
C  40.66900 0.86600 46.20400
C  43.71300 -0.00000 46.50700
O  42.97900 -0.90600 46.25200
C  45.16900 -0.34000 46.71800
N  45.54500 5.40800 46.76700
C  46.09400 4.16600 46.73100
C  47.61600 4.17800 46.68500
C  47.97800 5.64400 46.94400
C  46.54600 6.31900 46.76200
C  48.29400 3.12800 47.67700
C  49.10400 6.34500 46.09400
C  50.34600 5.46800 45.70700
N  43.90000 7.80800 47.04200
C  45.12800 8.43600 46.91500
C  44.90500 9.88600 46.97500
C  43.51700 10.00400 46.91700
C  42.96900 8.74200 46.86400
C  46.00200 10.97300 46.84000
C  42.46600 11.02600 46.83400
O  42.47400 12.23100 46.86000
C  41.14300 10.19500 46.58200
C  40.26400 10.54100 47.71400
O  40.29500 9.96600 48.79300
O  39.43800 11.68100 47.43000
C  38.46900 11.93000 48.53100
H  39.77600 3.35600 46.18500
H  46.02800 2.08800 46.75700
H  47.25500 8.32200 46.70700
H  38.86800 7.99700 46.97100
H  38.70900 5.64400 45.21500
H  37.57800 6.36000 47.78300
H  38.31200 4.76000 47.92600
H  37.07900 5.03800 46.69100
H  38.84600 9.34700 45.28200
H  37.79800 8.15400 44.64600
H  40.04200 7.09900 43.49000
H  40.62800 8.76200 43.55700
H  40.87800 0.24300 45.33400
H  39.80400 1.44900 45.89000
H  40.47400 0.14700 47.00000
H  45.87200 0.06100 45.98700
H  45.31800 -1.41900 46.77000
H  45.38400 0.07300 47.70400
H  47.89400 3.84900 45.68400
H  48.14800 5.73100 48.01700
H  49.23800 3.49000 48.08400
H  48.48500 2.17000 47.19400
H  47.69000 2.92500 48.56100
H  49.40700 7.22900 46.65600
H  48.64800 6.61700 45.14200
H  50.45800 5.57700 44.62800
H  50.21900 4.39900 45.87700
H  51.23300 5.83100 46.22700
H  46.70100 10.71800 46.04300
H  46.56800 11.03100 47.77000
H  45.57300 11.93900 46.57500
H  40.59600 10.51300 45.69400
H  37.70700 11.15300 48.59400
H  37.84400 12.82300 48.50800
H  39.01000 11.98700 49.47500

