158

Mg 2.01400 -1.35300 45.51000
C  5.37000 -0.34700 44.65100
C  0.87000 1.42400 43.67600
C  -0.93900 -2.78200 45.31300
C  3.42700 -4.36600 46.71100
N  2.98000 0.36000 44.28300
C  4.36800 0.59100 44.22700
C  4.66600 1.92200 43.52900
C  3.26100 2.50800 43.42000
C  2.31800 1.38500 43.83800
C  3.07400 3.76800 44.36300
C  5.34300 1.77900 42.06200
C  6.77700 2.18400 41.68800
H  7.06000 2.65800 40.21900
N  0.22800 -0.75000 44.54500
C  -0.09400 0.48200 43.95700
C  -1.51900 0.61700 43.81500
C  -2.11700 -0.56000 44.36500
C  -0.96900 -1.49100 44.74300
C  -2.19700 1.79000 43.21700
C  -3.64600 -0.96400 44.49200
O  -4.50300 -0.19600 44.13500
C  -4.18700 -2.24400 44.90900
N  1.40900 -3.37000 45.67600
C  0.12000 -3.58000 45.82100
C  -0.18900 -4.87800 46.61700
C  1.19800 -5.47200 46.87500
C  2.08000 -4.38900 46.31700
C  -1.05100 -4.65700 47.87300
C  1.48500 -6.83600 46.09200
C  0.52400 -8.07500 46.42500
N  3.90900 -2.22200 45.72500
C  4.30500 -3.42000 46.28900
C  5.80200 -3.39600 46.37600
C  6.21900 -2.20200 45.76700
C  5.05800 -1.54200 45.33000
C  6.84500 -4.46700 46.92600
C  7.42900 -1.48300 45.29400
O  8.67700 -1.63100 45.42000
C  6.89600 -0.20400 44.69200
C  7.33700 1.00300 45.51300
O  7.07700 1.25100 46.68700
O  8.17100 1.82700 44.72200
C  8.61000 3.11200 45.35000
H  0.60800 2.43100 43.34300
H  -1.84200 -3.38500 45.42600
H  3.91200 -5.13800 47.31200
H  5.40200 2.40900 44.16700
H  3.00200 2.85400 42.41900
H  2.72400 4.58800 43.73600
H  3.98600 4.08500 44.86900
H  2.25900 3.67600 45.08100
H  4.74900 2.23700 41.27100
H  5.39500 0.72300 41.79800
H  7.40100 1.30900 41.87200
H  7.02200 3.01900 42.34400
H  -3.18300 1.63300 42.78200
H  -1.59000 2.23900 42.43100
H  -2.31100 2.57800 43.96100
H  -4.08500 -2.56200 45.94700
H  -3.73400 -2.93000 44.19400
H  -5.24000 -2.16600 44.63600
H  -0.63100 -5.61100 45.94200
H  1.44600 -5.61300 47.92700
H  -0.56800 -4.76200 48.84400
H  -1.93900 -5.29000 47.87100
H  -1.41300 -3.63200 47.94900
H  2.51500 -7.11400 46.31400
H  1.54500 -6.57400 45.03600
H  0.33500 -8.45600 45.42100
H  -0.40800 -7.71800 46.86400
H  1.05000 -8.87800 46.94200
H  7.81300 -3.97200 47.00600
H  6.85400 -5.27100 46.19100
H  6.39000 -4.90900 47.81200
H  7.28900 -0.13000 43.67800
H  8.45800 3.89300 44.60500
H  9.69600 3.05300 45.41600
H  8.15500 3.40000 46.29800
Mg 6.40000 54.79600 40.20700
C  5.21400 51.47100 39.61300
C  9.53100 53.66700 39.61500
C  7.36000 58.06200 39.80100
C  3.11300 55.75700 40.57100
N  7.25100 52.85400 39.50000
C  6.59400 51.60900 39.34400
C  7.62900 50.53200 39.03500
C  8.91600 51.22400 39.55200
C  8.59000 52.64600 39.53300
C  9.54000 50.83200 40.87700
C  7.75800 50.24700 37.45800
C  6.85100 51.07000 36.53400
H  6.28200 50.48800 35.30800
N  8.24100 55.72600 39.90500
C  9.43900 55.07900 39.68300
C  10.48300 56.00900 39.50900
C  9.89100 57.33800 39.46600
C  8.40000 57.08400 39.69600
C  11.94300 55.71100 39.39900
C  10.60500 58.63700 39.20700
O  11.77300 58.56800 38.88800
C  10.07900 59.93700 39.46600
N  5.37200 56.68800 40.13900
C  6.01400 57.88400 40.18000
C  5.01700 59.04500 40.29700
C  3.71400 58.28000 40.59000
C  4.03500 56.82200 40.31100
C  5.48100 60.18500 41.30000
C  2.53200 58.67500 39.67200
C  1.13200 58.60300 40.36000
N  4.59600 53.86400 40.05600
C  3.34600 54.40300 40.37300
C  2.39800 53.40300 40.33700
C  3.08100 52.12800 40.14200
C  4.39800 52.51500 39.93500
C  0.88400 53.58200 40.29100
C  2.92000 50.73000 39.89700
O  1.91900 50.06100 39.74700
C  4.34400 50.24600 39.65600
C  4.46100 49.32600 38.52600
O  4.04900 49.59100 37.41400
O  4.95700 48.12900 38.94000
C  5.16400 47.04800 37.94500
H  10.55100 53.27600 39.59600
H  7.66800 59.08500 39.57700
H  2.12900 56.00400 40.97600
H  7.29700 49.70200 39.66000
H  9.74200 51.02900 38.86800
H  9.54300 51.69300 41.54500
H  10.59000 50.58500 40.72500
H  8.95700 50.03800 41.34400
H  7.45300 49.21400 37.29300
H  8.75700 50.39200 37.04700
H  7.55500 51.89500 36.42700
H  5.94100 51.52200 36.92800
H  12.20200 55.70700 38.34100
H  12.18700 54.73500 39.81900
H  12.59400 56.38500 39.95600
H  10.87900 60.67600 39.49400
H  9.71700 60.05600 40.48800
H  9.25900 60.15700 38.78200
H  4.94800 59.57500 39.34700
H  3.42300 58.37500 41.63600
H  4.59000 60.34100 41.90900
H  5.86100 61.03300 40.73200
H  6.27800 59.84200 41.95900
H  2.51100 57.98200 38.83100
H  2.70600 59.68100 39.29000
H  0.51100 59.42400 40.00100
H  1.15200 58.67600 41.44700
H  0.62000 57.68700 40.06800
H  0.61700 53.75000 39.24800
H  0.64500 54.44100 40.91700
H  0.40600 52.66900 40.64800
H  4.64800 49.70600 40.55200
H  4.42000 46.25400 38.00700
H  6.17700 46.68600 38.11800
H  5.11200 47.52300 36.96500

