158

Mg 9.38800 3.85900 27.38100
C  10.57000 2.17200 30.08900
C  7.67700 5.98800 29.53800
C  7.73400 5.14600 24.69400
C  10.33700 1.12900 25.26500
N  9.06200 3.95800 29.53800
C  9.78300 3.28700 30.43700
C  9.56400 3.88400 31.85300
C  8.48200 4.97700 31.68400
C  8.35900 4.96600 30.15400
C  7.14700 4.70000 32.42000
C  10.84200 4.39300 32.61100
C  10.67400 5.13300 33.97100
H  11.22400 4.53600 35.28500
N  8.01100 5.47400 27.16000
C  7.48700 6.23200 28.15100
C  6.63900 7.20700 27.53800
C  6.75000 7.08200 26.11000
C  7.55800 5.88100 25.91400
C  5.90600 8.27200 28.31800
C  6.13000 7.87100 24.94800
O  6.37000 7.61400 23.79000
C  5.14400 9.00400 25.30900
N  9.27500 3.31100 25.17800
C  8.46900 4.00100 24.39800
C  8.47900 3.40400 22.98600
C  9.43800 2.23500 23.10900
C  9.63200 2.13300 24.58500
C  7.14000 3.05100 22.29700
C  10.84900 2.51200 22.47300
C  11.76600 1.34800 22.08500
N  10.33700 2.03000 27.56400
C  10.75300 1.14000 26.58800
C  11.60300 0.11700 27.34300
C  11.52100 0.46300 28.68000
C  10.73600 1.59900 28.78500
C  12.48200 -0.93800 26.75800
C  11.92100 0.16800 30.02600
O  12.51500 -0.79600 30.43900
C  11.34700 1.23200 31.01300
C  10.61300 0.59000 32.13500
O  9.78700 -0.30400 32.04300
O  11.09300 1.14200 33.28900
C  10.75900 0.31900 34.48300
H  7.34400 6.68400 30.31100
H  7.10900 5.38900 23.83300
H  10.77200 0.39000 24.59000
H  9.16900 3.13600 32.54000
H  8.92000 5.93800 31.95400
H  6.34400 4.72900 31.68300
H  6.94000 5.39500 33.23300
H  7.07600 3.84300 33.09000
H  11.29300 5.22900 32.07500
H  11.70000 3.72300 32.56000
H  9.59200 5.24800 34.03900
H  10.89300 6.19600 33.87200
H  4.85100 8.36200 28.06100
H  6.42400 9.20000 28.07600
H  5.86200 8.12900 29.39800
H  5.52100 9.66300 26.09000
H  4.26200 8.44700 25.62700
H  4.92300 9.57700 24.40800
H  9.07600 4.13900 22.44500
H  9.08300 1.23700 22.85100
H  6.84400 3.51900 21.35800
H  6.24000 3.22100 22.88700
H  7.11100 1.96900 22.17000
H  11.55300 3.14100 23.01800
H  10.58100 2.97100 21.52200
H  12.15100 1.46800 21.07300
H  11.29600 0.38000 21.90800
H  12.62100 1.24700 22.75400
H  12.86200 -0.62600 25.78600
H  11.96400 -1.88700 26.62100
H  13.36800 -0.95700 27.39300
H  12.14700 1.77600 31.51600
H  11.23800 0.69900 35.38600
H  11.22500 -0.66600 34.46200
H  9.68400 0.29100 34.66000
Mg 40.97200 7.99500 29.35600
C  42.68500 9.41900 32.12700
C  38.51600 6.87200 31.60100
C  39.60500 6.25300 26.83000
C  43.77300 8.72400 27.33600
N  40.63000 8.23300 31.61400
C  41.46800 8.77300 32.49500
C  40.94500 8.70800 33.97000
C  39.71200 7.70100 33.72400
C  39.60900 7.55200 32.25000
C  39.81400 6.35200 34.56600
C  40.60700 10.11300 34.54300
C  39.62100 10.17400 35.72400
H  40.18700 10.91800 36.90000
N  39.28100 6.68600 29.26100
C  38.41200 6.42100 30.27200
C  37.37200 5.64000 29.75500
C  37.63300 5.49100 28.39700
C  38.94500 6.11200 28.08600
C  36.26800 5.24400 30.57700
C  36.84000 4.83700 27.35600
O  37.21800 4.71900 26.19100
C  35.44900 4.30200 27.72800
N  41.67800 7.49800 27.37600
C  40.84900 6.77000 26.52800
C  41.50900 6.58600 25.16400
C  42.81600 7.49000 25.31500
C  42.75800 7.92600 26.77100
C  41.77800 5.08600 24.71300
C  42.80100 8.61600 24.30900
C  42.01000 9.84800 24.83200
N  42.79800 8.87800 29.60600
C  43.82500 9.12100 28.70300
C  44.81600 9.99000 29.33700
C  44.48800 10.04800 30.70500
C  43.20900 9.43800 30.78500
C  46.07200 10.53600 28.76300
C  44.94100 10.51100 32.04600
O  45.89900 11.14200 32.48500
C  43.74100 10.15900 32.98000
C  44.21100 9.29000 34.17500
O  44.72600 8.15900 34.10100
O  44.11100 10.00600 35.32000
C  44.49400 9.22300 36.41500
H  37.68800 6.61800 32.26600
H  39.26600 5.77100 25.91100
H  44.60900 9.00900 26.69500
H  41.70800 8.23400 34.58700
H  38.80300 8.22100 34.02800
H  40.39000 5.60300 34.02100
H  38.76500 6.06200 34.50800
H  40.11000 6.40000 35.61400
H  40.24500 10.60800 33.64300
H  41.51900 10.59000 34.90200
H  39.45400 9.13900 36.02400
H  38.71800 10.70000 35.41500
H  36.37500 4.18800 30.82700
H  35.32400 5.40100 30.05600
H  35.95600 5.86300 31.41900
H  35.47300 3.65700 28.60700
H  35.04000 3.68600 26.92800
H  34.69600 5.08700 27.78700
H  40.71600 6.82500 24.45400
H  43.73800 6.92000 25.20200
H  42.71400 4.70900 25.12500
H  41.89100 5.12100 23.63000
H  40.98600 4.38300 24.97000
H  42.27500 8.29000 23.41200
H  43.86200 8.81200 24.15000
H  41.46500 9.66900 25.75800
H  41.26600 10.18400 24.11100
H  42.73400 10.66300 24.84000
H  46.38000 11.48600 29.20000
H  45.82900 10.64800 27.70600
H  46.88800 9.82400 28.88300
H  43.44700 11.11800 33.40700
H  45.55900 9.00400 36.33500
H  43.75300 8.43000 36.51400
H  44.43900 9.70600 37.39000

