158

Mg 47.03400 24.99800 28.47200
C  48.02700 27.35700 30.82100
C  46.56900 22.71600 31.07600
C  46.15000 22.61100 26.16100
C  48.37500 27.02200 25.96500
N  47.28200 25.10600 30.69900
C  47.48700 26.22900 31.39300
C  47.40900 25.98800 32.90800
C  47.18100 24.41800 32.94300
C  46.94700 24.00400 31.47900
C  48.25200 23.63900 33.71000
C  46.22400 26.75200 33.56900
C  45.56800 26.25800 34.84800
H  45.34100 27.17800 36.03600
N  46.32500 23.00000 28.61500
C  46.15600 22.21400 29.80700
C  45.68500 20.89900 29.48300
C  45.55600 20.83800 28.04200
C  45.97200 22.17600 27.56400
C  45.62800 19.67600 30.48100
C  45.18800 19.60000 27.14600
O  45.26200 19.74600 25.97100
C  44.78200 18.29500 27.72900
N  47.29500 24.84500 26.41000
C  46.74600 23.77800 25.68700
C  46.90200 24.07400 24.19700
C  47.29600 25.55000 24.15900
C  47.73700 25.82100 25.62300
C  47.75900 23.02400 23.53300
C  46.29300 26.65400 23.58400
C  46.77400 27.50900 22.38700
N  47.96300 26.76500 28.33100
C  48.54900 27.44900 27.27200
C  49.13000 28.66600 27.72100
C  48.93000 28.65300 29.07700
C  48.21000 27.53400 29.42400
C  49.77900 29.68500 26.94000
C  49.17500 29.38600 30.21700
O  49.75800 30.39300 30.37700
C  48.48800 28.62400 31.43600
C  49.48900 28.40200 32.52200
O  50.52000 27.77200 32.42800
O  49.18900 29.24800 33.59300
C  50.11800 29.21900 34.75900
H  46.46600 21.98900 31.88500
H  45.84500 21.97500 25.32700
H  48.60800 27.73900 25.17500
H  48.36100 26.17600 33.40600
H  46.26000 24.22100 33.49300
H  49.15100 24.25500 33.73300
H  48.49000 22.75600 33.11800
H  47.97900 23.31300 34.71400
H  45.40900 26.87500 32.85600
H  46.43500 27.81000 33.72800
H  46.16500 25.44900 35.26800
H  44.61300 25.77700 34.63300
H  44.67400 19.15200 30.55200
H  46.00500 20.03000 31.44000
H  46.34600 19.01900 29.99000
H  43.93000 18.38600 28.40300
H  45.62500 17.89000 28.28900
H  44.62900 17.54500 26.95300
H  45.92100 24.01100 23.72700
H  48.19100 25.78100 23.58200
H  48.57000 23.55700 23.03600
H  47.21800 22.42900 22.79800
H  48.16700 22.34100 24.27800
H  45.93200 27.35200 24.34000
H  45.47000 26.10900 23.12100
H  46.08400 27.34500 21.55900
H  47.76000 27.21300 22.02700
H  46.68700 28.53100 22.75500
H  50.50600 29.30400 26.22300
H  50.22900 30.46900 27.54800
H  49.03800 30.22700 26.35100
H  47.64400 29.15500 31.87700
H  49.78400 28.58100 35.57700
H  50.01000 30.18300 35.25400
H  51.14400 29.06800 34.42100
Mg -9.85500 39.51000 39.60200
C  -9.23700 36.13300 39.09400
C  -6.73700 40.31900 38.88800
C  -10.74200 42.80400 39.75900
C  -13.33000 38.70200 39.22400
N  -8.31500 38.40600 38.72200
C  -8.17200 37.03500 38.70800
C  -6.74400 36.64000 38.43900
C  -6.01100 37.88100 38.92100
C  -7.05200 38.95700 38.78700
C  -5.34200 37.78500 40.36400
C  -6.45200 36.24300 36.87200
C  -6.90000 37.22300 35.63700
H  -7.99500 36.68800 34.75500
N  -8.84400 41.33700 39.42400
C  -7.54000 41.42400 39.15800
C  -7.19200 42.81600 39.10400
C  -8.31100 43.62600 39.34500
C  -9.38500 42.64300 39.53400
C  -5.78600 43.40300 38.67600
C  -8.48600 45.13100 39.44100
O  -7.47200 45.79200 39.25500
C  -9.75900 45.82100 39.79200
N  -11.75400 40.64200 39.41800
C  -11.85300 41.96600 39.70500
C  -13.22600 42.51400 39.51200
C  -14.08100 41.19700 39.14000
C  -12.97100 40.10500 39.17100
C  -13.89200 43.20400 40.78000
C  -14.84300 41.31700 37.79700
C  -16.25600 40.82200 37.97700
N  -11.10000 37.74900 39.49600
C  -12.47300 37.60600 39.43100
C  -12.78800 36.18400 39.25000
C  -11.50100 35.54400 39.08000
C  -10.57300 36.54400 39.28200
C  -14.15700 35.56700 39.22000
C  -10.73000 34.35100 38.65300
O  -11.20900 33.30200 38.26300
C  -9.24700 34.65300 38.75900
C  -8.64400 33.67900 39.70900
O  -8.89200 33.53600 40.92300
O  -7.45000 33.32600 39.16400
C  -6.37500 32.83500 40.12700
H  -5.68000 40.55300 38.74200
H  -11.10700 43.80600 39.99500
H  -14.37700 38.47100 39.01800
H  -6.59100 35.71200 38.99100
H  -5.13700 38.02300 38.28500
H  -5.61600 36.78200 40.69000
H  -5.80600 38.50800 41.03500
H  -4.25400 37.84800 40.34800
H  -6.77000 35.21200 36.71500
H  -5.37200 36.21200 37.01800
H  -6.00000 37.41500 35.05200
H  -7.28400 38.15000 36.06200
H  -5.16200 42.61200 38.26100
H  -5.19800 43.73400 39.53200
H  -5.83000 44.23100 37.96800
H  -10.02000 45.47700 40.79300
H  -10.40300 45.52200 38.96500
H  -9.66200 46.90300 39.70000
H  -13.08400 43.23500 38.70700
H  -14.77000 41.02200 39.96600
H  -14.76100 42.80200 41.30300
H  -14.09400 44.24400 40.52700
H  -13.11400 43.34200 41.53000
H  -14.36700 40.61400 37.11400
H  -14.78200 42.36400 37.50100
H  -17.03600 41.58000 38.03300
H  -16.47700 40.15100 38.80700
H  -16.34000 40.21100 37.07700
H  -14.98300 36.22700 39.48800
H  -14.08800 34.59500 39.70800
H  -14.35800 35.48400 38.15200
H  -8.74800 34.50100 37.80200
H  -6.56900 32.72700 41.19400
H  -5.52800 33.52100 40.11400
H  -5.96800 31.87900 39.79600

