158

Mg 8.60900 3.11500 28.07800
C  10.12600 1.76700 30.88200
C  7.16300 5.49200 30.13800
C  7.22100 4.49900 25.34000
C  10.00600 0.56900 26.23800
N  8.30000 3.28300 30.41100
C  9.18200 2.76500 31.27000
C  9.00100 3.47900 32.65600
C  7.90600 4.54600 32.39200
C  7.77400 4.46500 30.81300
C  6.59000 4.31700 33.11800
C  10.38300 4.19700 32.96200
C  10.90900 4.03200 34.33800
H  10.02100 3.66800 35.47500
N  7.26400 4.73600 27.83700
C  6.84200 5.65100 28.77200
C  6.13300 6.75600 28.14400
C  6.18400 6.57400 26.67300
C  6.84300 5.20000 26.57500
C  5.44300 7.81400 28.92800
C  5.72100 7.46200 25.60200
O  5.68400 7.06500 24.44700
C  5.19600 8.89100 25.92400
N  8.38800 2.48700 26.13800
C  7.83400 3.22600 25.16300
C  8.24900 2.77200 23.81000
C  9.07500 1.41200 24.07200
C  9.16800 1.50800 25.59700
C  7.10800 2.52800 22.82200
C  10.41400 1.19000 23.26700
C  10.34300 0.93600 21.74200
N  9.68200 1.43000 28.43200
C  10.38800 0.55800 27.52800
C  11.26200 -0.33900 28.21300
C  11.29100 0.16800 29.51800
C  10.31500 1.18100 29.56500
C  12.09800 -1.44400 27.59300
C  11.95500 0.09800 30.83700
O  12.89600 -0.56500 31.23200
C  11.15700 1.00800 31.77000
C  10.37700 0.15300 32.83000
O  9.22400 -0.27400 32.74400
O  11.17600 -0.02300 33.91300
C  10.61300 -0.85600 35.03900
H  6.98200 6.37300 30.75800
H  7.06400 5.00700 24.38600
H  10.40900 -0.28000 25.68400
H  8.67700 2.72500 33.37300
H  8.28900 5.54500 32.60000
H  5.81300 4.79800 32.52400
H  6.71600 4.92800 34.01200
H  6.33100 3.28400 33.35300
H  10.34600 5.28500 32.90100
H  11.11600 3.89600 32.21300
H  11.50400 4.93500 34.47300
H  11.75700 3.34800 34.33200
H  5.86200 8.80300 28.74300
H  5.35500 7.70100 30.00800
H  4.46500 7.95400 28.46700
H  4.21000 8.70200 26.34800
H  5.19700 9.41400 24.96800
H  5.77800 9.53800 26.58000
H  8.86700 3.50400 23.29000
H  8.51500 0.48900 23.91800
H  7.38800 1.68000 22.19800
H  6.80500 3.39300 22.23200
H  6.25200 2.10500 23.34800
H  10.84500 0.33300 23.78500
H  11.07100 2.03300 23.48300
H  11.12800 1.52000 21.26200
H  9.40100 1.35700 21.39000
H  10.30300 -0.10500 21.42100
H  13.02200 -1.51100 28.16800
H  12.18400 -1.21700 26.53000
H  11.58700 -2.40100 27.69900
H  11.75700 1.70600 32.35400
H  11.50500 -1.39700 35.35600
H  9.85000 -1.57300 34.73600
H  10.17800 -0.20500 35.79700
Mg 25.34000 51.52600 26.19600
C  23.16400 52.35900 28.74000
C  27.73000 50.83200 28.54600
C  27.57400 51.18400 23.56100
C  23.07500 52.87000 23.90900
N  25.45300 51.84700 28.43400
C  24.36400 52.03600 29.23400
C  24.64700 51.79300 30.77400
C  26.21100 51.39400 30.58700
C  26.54800 51.30200 29.08400
C  27.21300 52.32200 31.43900
C  23.79800 50.64000 31.44700
C  23.23700 50.89500 32.87900
H  24.11800 51.49100 33.90300
N  27.26400 50.93500 26.11800
C  28.08400 50.69500 27.20100
C  29.38500 50.34500 26.73800
C  29.40400 50.54100 25.31300
C  28.01100 50.91800 24.92600
C  30.53600 49.98200 27.68600
C  30.57600 50.34100 24.40000
O  30.59400 50.63400 23.22900
C  31.82800 49.69700 24.91500
N  25.28200 51.89300 23.95700
C  26.37000 51.70900 23.16500
C  26.03000 52.08900 21.71200
C  24.45800 52.40300 21.82700
C  24.25200 52.38400 23.30500
C  26.86300 53.29200 21.12700
C  23.68500 51.25800 21.09900
C  23.67300 51.42100 19.52800
N  23.55700 52.41200 26.23300
C  22.75400 52.91100 25.27400
C  21.50500 53.43800 25.70900
C  21.65300 53.26000 27.11600
C  22.90700 52.66600 27.42200
C  20.36100 54.00000 24.91700
C  20.95400 53.40800 28.37500
O  19.80800 53.75700 28.64900
C  21.91600 52.86600 29.50500
C  22.10500 53.97800 30.49000
O  22.83100 54.95200 30.30500
O  21.31100 53.83400 31.58100
C  21.44300 54.89300 32.58600
H  28.44600 50.45000 29.27700
H  28.19800 51.07700 22.67100
H  22.35300 53.17000 23.14700
H  24.49300 52.75900 31.25500
H  26.53000 50.42600 30.97400
H  27.66100 51.71800 32.22800
H  26.69500 53.07300 32.03600
H  28.01400 52.78200 30.86100
H  24.45900 49.77600 31.38800
H  22.85000 50.50700 30.92500
H  23.05000 49.89300 33.26500
H  22.33500 51.50700 32.87700
H  31.47200 50.51600 27.52400
H  30.80700 48.98500 27.33900
H  30.28900 50.07100 28.74400
H  32.56300 49.48200 24.14000
H  31.83700 48.87400 25.63000
H  32.24600 50.55000 25.44900
H  26.21600 51.15600 21.18000
H  24.36500 53.39000 21.37300
H  27.72400 53.37900 21.78900
H  26.34700 54.24400 21.00000
H  27.24600 53.06600 20.13200
H  22.64600 51.22400 21.42600
H  24.13500 50.28700 21.30700
H  22.64600 51.52100 19.17600
H  24.25200 50.62200 19.06700
H  24.27700 52.28100 19.23800
H  20.50100 53.89000 23.84200
H  20.28500 55.04200 25.22800
H  19.46000 53.49100 25.26100
H  21.42300 52.02900 29.99900
H  22.33200 54.61400 33.15400
H  20.58700 54.97400 33.25500
H  21.62900 55.90600 32.22900

