158

Mg -2.30200 17.74000 27.74000
C  -2.40400 15.73700 30.56100
C  -2.93100 20.48600 29.73700
C  -2.25400 19.49300 24.98100
C  -2.48300 14.74000 25.77500
N  -2.67200 18.04000 29.94200
C  -2.48700 17.09700 30.95900
C  -2.68500 17.76700 32.36200
C  -3.05000 19.23300 32.02000
C  -2.86700 19.28800 30.48600
C  -4.33900 19.87200 32.54900
C  -1.73000 17.39100 33.47600
C  -1.55500 18.36300 34.68600
H  -1.18700 17.74600 36.06000
N  -2.32500 19.69400 27.39000
C  -2.58100 20.67300 28.33900
C  -2.51600 21.91900 27.67800
C  -2.30500 21.73500 26.28400
C  -2.31700 20.25100 26.16700
C  -2.83100 23.25700 28.37900
C  -2.10800 22.69200 25.14400
O  -1.88000 22.26300 23.97100
C  -2.06400 24.12500 25.40500
N  -2.30200 17.17100 25.66000
C  -2.26100 18.09700 24.70500
C  -2.39800 17.49900 23.30700
C  -2.22100 15.99600 23.67100
C  -2.44500 15.94600 25.13600
C  -3.70600 17.75200 22.56500
C  -0.88800 15.38900 23.10900
C  0.39400 15.92600 23.85900
N  -2.40900 15.65000 28.01000
C  -2.47300 14.58300 27.15700
C  -2.55400 13.36700 27.83300
C  -2.50000 13.73100 29.17600
C  -2.41700 15.18000 29.26100
C  -2.83100 12.03700 27.30100
C  -2.45300 13.27000 30.58900
O  -2.43900 12.13900 31.02900
C  -2.33500 14.57700 31.51100
C  -1.04000 14.51900 32.30000
O  -0.02700 15.07900 31.94000
O  -1.23500 14.00800 33.54300
C  -0.06900 14.00300 34.38800
H  -3.20800 21.36700 30.32000
H  -2.04400 20.06200 24.07300
H  -2.51100 13.83100 25.17000
H  -3.65800 17.33600 32.60000
H  -2.23700 19.85100 32.40100
H  -5.11700 20.07100 31.81200
H  -4.03300 20.86200 32.88800
H  -4.67800 19.11300 33.25400
H  -0.80600 17.54900 32.92000
H  -1.85600 16.35100 33.78000
H  -2.44600 18.99100 34.68900
H  -0.73700 19.04700 34.46100
H  -1.87400 23.60500 28.76900
H  -3.46600 23.11600 29.25400
H  -3.31400 23.95200 27.69200
H  -3.07100 24.51300 25.56500
H  -1.64000 24.60500 24.52400
H  -1.38400 24.36500 26.22200
H  -1.58600 17.83600 22.66200
H  -3.03700 15.36300 23.32200
H  -3.49800 18.57500 21.88100
H  -4.53100 18.11500 23.17900
H  -4.05900 16.89900 21.98500
H  -0.73800 15.73400 22.08600
H  -0.94500 14.30200 23.16000
H  1.07400 15.07400 23.86700
H  0.22600 16.21500 24.89600
H  0.78900 16.71200 23.21500
H  -3.59400 12.10100 26.52500
H  -3.27200 11.44500 28.10200
H  -1.96000 11.62600 26.78900
H  -3.20100 14.63600 32.16900
H  0.44500 14.95600 34.51100
H  0.68800 13.32900 33.98800
H  -0.48900 13.46300 35.23600
Mg 24.28000 -5.18200 46.52000
C  26.20200 -2.83100 44.71500
C  21.67600 -4.67700 44.33800
C  22.73700 -7.96000 47.79200
C  27.07400 -5.95600 48.48400
N  24.11800 -4.00100 44.64600
C  24.93100 -2.96400 44.23400
C  24.29900 -2.15000 43.07600
C  22.83100 -2.60400 43.20200
C  22.84600 -3.86400 44.08900
C  21.87900 -1.40900 43.76200
C  25.00600 -2.38700 41.71400
C  25.49600 -1.09500 41.11700
H  24.98700 -0.94200 39.66100
N  22.45800 -6.14600 46.20600
C  21.48100 -5.75600 45.26500
C  20.26300 -6.55800 45.37100
C  20.54800 -7.49100 46.39700
C  22.01700 -7.27300 46.83300
C  19.07100 -6.43700 44.48400
C  19.59400 -8.58900 46.86600
O  18.45600 -8.77900 46.41200
C  19.94600 -9.45500 47.98700
N  24.77800 -6.73900 47.95200
C  23.93200 -7.78300 48.29400
C  24.72300 -8.84700 49.07000
C  26.12800 -8.13900 49.42700
C  26.01800 -6.90100 48.53400
C  24.05200 -9.54300 50.27800
C  27.37300 -9.00800 49.28100
C  28.50500 -8.88200 50.25900
N  26.24500 -4.53600 46.71300
C  27.27400 -4.86100 47.57800
C  28.37100 -4.04300 47.36800
C  28.02500 -3.28600 46.21000
C  26.71000 -3.61000 45.82900
C  29.58400 -3.80600 48.23400
C  28.53400 -2.24100 45.33900
O  29.63700 -1.66800 45.39200
C  27.44300 -2.02600 44.21000
C  27.08700 -0.58100 44.33500
O  26.45100 -0.03300 45.24700
O  27.68500 0.07400 43.30400
C  27.80200 1.52900 43.40400
H  20.85100 -4.28200 43.74300
H  22.23200 -8.91000 47.98200
H  27.93800 -6.22100 49.09800
H  24.21900 -1.09300 43.33100
H  22.55100 -2.94300 42.20500
H  20.92200 -1.31500 43.24800
H  22.26600 -0.39100 43.77600
H  21.57100 -1.60600 44.78900
H  24.31100 -2.95300 41.09300
H  25.83200 -3.08000 41.87400
H  26.58600 -1.09200 41.09900
H  25.20200 -0.19800 41.66200
H  19.17500 -7.28500 43.80700
H  19.08100 -5.48800 43.94700
H  18.16500 -6.55400 45.07900
H  20.42200 -8.89400 48.79100
H  20.67800 -10.17100 47.61200
H  19.18400 -10.13900 48.36000
H  24.87800 -9.60500 48.30200
H  26.07600 -7.78600 50.45700
H  23.72900 -10.50900 49.89100
H  23.26300 -8.90500 50.67600
H  24.80600 -9.64800 51.05800
H  27.75500 -8.86800 48.26900
H  27.03600 -10.04500 49.29100
H  28.78900 -9.74600 50.86000
H  28.21600 -8.03000 50.87400
H  29.46000 -8.67300 49.77700
H  29.96200 -4.81000 48.42800
H  29.31000 -3.34300 49.18200
H  30.52100 -3.50500 47.76600
H  27.83500 -2.25100 43.21800
H  28.76700 1.71900 43.87500
H  26.95400 1.95500 43.94000
H  27.85800 1.87500 42.37100

