158

Mg 8.63000 4.39700 27.40500
C  9.88000 2.97800 30.33300
C  6.71800 6.51700 29.46200
C  7.14200 5.76400 24.65700
C  10.40900 2.26200 25.41100
N  8.25000 4.64300 29.66300
C  8.99700 4.02700 30.62400
C  8.61800 4.63000 31.98200
C  7.62000 5.80200 31.70100
C  7.43700 5.63500 30.15600
C  6.39900 5.77200 32.57900
C  9.82300 4.97700 32.84800
C  9.56300 5.81100 34.10100
H  10.22500 5.22300 35.37700
N  7.12000 5.83000 27.11800
C  6.49300 6.61100 28.05900
C  5.64400 7.58900 27.42700
C  5.70100 7.43200 26.05300
C  6.67700 6.32200 25.84800
C  4.86300 8.62400 28.19400
C  5.06400 8.11400 24.93200
O  5.08100 7.76600 23.78500
C  4.27500 9.32200 25.10300
N  8.64700 3.97200 25.33400
C  7.97900 4.67400 24.38300
C  8.32000 4.25400 22.98800
C  9.41200 3.10900 23.25100
C  9.58200 3.11400 24.76500
C  7.09900 3.85400 22.22600
C  10.78200 3.41700 22.49800
C  11.46900 2.18500 21.86900
N  9.86500 2.89000 27.70200
C  10.55300 2.10700 26.79900
C  11.26100 1.10800 27.54500
C  11.00300 1.35700 28.94100
C  10.22700 2.49400 28.99700
C  12.15800 0.02600 27.13300
C  11.32900 0.99300 30.30300
O  12.05800 0.08500 30.67700
C  10.50000 2.00700 31.31300
C  9.59100 1.20300 32.25200
O  8.91000 0.21700 31.98800
O  9.94100 1.63500 33.53400
C  9.49000 0.64000 34.61700
H  6.24500 7.34700 29.99100
H  6.85400 6.30500 23.75300
H  10.91300 1.49000 24.82600
H  8.02200 3.84000 32.44000
H  8.12600 6.75700 31.84300
H  5.64000 5.27500 31.97500
H  6.06800 6.80000 32.72600
H  6.46800 5.39500 33.59900
H  10.24100 5.66700 32.11500
H  10.47800 4.14500 33.10800
H  8.50800 5.75300 34.37000
H  9.88200 6.82900 33.87400
H  5.31100 9.58800 27.95400
H  4.73300 8.54300 29.27300
H  3.86700 8.71900 27.76300
H  3.20400 9.19500 25.25800
H  4.43400 9.77700 24.12500
H  4.67600 10.01900 25.83800
H  8.93900 5.06800 22.61100
H  9.08000 2.09700 23.01700
H  7.07100 2.81100 21.91000
H  6.91600 4.56400 21.42000
H  6.20600 3.96400 22.84200
H  11.47200 3.91000 23.18300
H  10.54700 4.09900 21.68100
H  11.73000 2.43800 20.84200
H  10.84400 1.29200 21.89800
H  12.49700 2.08900 22.21900
H  11.49500 -0.80700 26.90100
H  12.90600 -0.22000 27.88700
H  12.63100 0.39400 26.22300
H  11.27700 2.43900 31.94500
H  8.48800 0.22900 34.50000
H  9.39900 1.19400 35.55100
H  10.18000 -0.19100 34.76700
Mg 45.70400 3.50500 48.53600
C  43.76700 6.24300 47.39500
C  42.85600 1.55700 47.85200
C  47.54800 0.74200 48.88400
C  48.42700 5.53500 48.80600
N  43.47200 3.89500 47.66600
C  42.97200 5.06600 47.35100
C  41.53100 4.92800 46.84800
C  41.31800 3.43100 46.98400
C  42.62700 2.88700 47.59100
C  40.07300 3.03800 47.84600
C  41.17900 5.53100 45.43400
C  39.85100 6.26000 45.29600
H  39.07400 6.01300 43.98700
N  45.29000 1.37900 48.34400
C  44.04900 0.83000 48.12200
C  44.21000 -0.64100 48.13000
C  45.59600 -0.89800 48.43700
C  46.23200 0.42200 48.62600
C  43.06500 -1.64600 47.89100
C  46.18100 -2.28800 48.57000
O  45.54300 -3.33800 48.32100
C  47.54300 -2.55300 49.00700
N  47.75300 3.16200 48.65000
C  48.26000 1.92700 48.87100
C  49.74400 2.04900 49.24400
C  50.03800 3.65400 49.26400
C  48.72700 4.16100 48.88600
C  50.21700 1.28500 50.53400
C  51.04600 4.17400 48.22700
C  52.31200 4.96200 48.68900
N  46.11800 5.46300 48.22500
C  47.28500 6.22600 48.41500
C  47.07500 7.54800 48.27000
C  45.67900 7.58200 47.89300
C  45.10600 6.31000 47.88600
C  47.96500 8.68500 48.26300
C  44.59600 8.55400 47.53700
O  44.60900 9.79000 47.42100
C  43.36200 7.68500 47.31800
C  42.22500 8.01300 48.23000
O  41.79900 7.34700 49.17600
O  41.57600 9.23300 47.86500
C  40.44100 9.82900 48.59100
H  42.01500 0.93200 47.54500
H  48.21200 -0.12000 48.96700
H  49.22500 6.25200 49.00600
H  40.97000 5.50000 47.58600
H  41.28200 2.83700 46.07000
H  39.41400 3.90200 47.76100
H  40.45700 2.86200 48.85000
H  39.57900 2.18300 47.38300
H  41.14600 4.75000 44.67400
H  41.98800 6.16200 45.06500
H  40.08100 7.30400 45.50600
H  39.27500 6.09700 46.20700
H  42.50000 -1.36900 47.00100
H  42.34900 -1.63700 48.71300
H  43.40400 -2.67800 47.80000
H  48.27100 -2.19100 48.28100
H  47.59800 -3.63700 49.10400
H  47.76900 -2.04500 49.94500
H  50.30300 1.67200 48.38700
H  50.16300 3.98300 50.29600
H  50.67200 2.01200 51.20700
H  50.96500 0.51100 50.36200
H  49.28200 0.99800 51.01700
H  50.53700 4.73700 47.44500
H  51.60300 3.40100 47.69700
H  52.45200 5.03600 49.76800
H  52.15400 5.96000 48.28000
H  53.25200 4.58000 48.29000
H  47.56300 9.41200 47.55800
H  48.96700 8.38300 47.95800
H  47.97000 9.12400 49.26100
H  43.07300 7.78900 46.27200
H  40.28600 9.21700 49.48100
H  39.49700 9.79100 48.04600
H  40.69900 10.85100 48.86700

