158

Mg 17.26900 -2.44200 27.37700
C  15.93200 -0.33200 29.84900
C  18.84100 -4.17900 29.83400
C  18.72400 -4.10700 24.98400
C  15.62900 -0.45200 24.95700
N  17.42500 -2.19200 29.56000
C  16.70400 -1.37100 30.36600
C  16.96200 -1.61500 31.78400
C  17.88400 -2.86000 31.78400
C  18.08500 -3.10300 30.28500
C  19.24400 -2.79400 32.56600
C  15.61200 -1.71400 32.57800
C  15.74100 -1.15700 34.01000
H  16.99400 -0.62600 34.66200
N  18.54200 -4.05400 27.39000
C  19.07200 -4.59300 28.53000
C  19.90500 -5.71000 28.11900
C  19.88800 -5.72200 26.70800
C  19.07600 -4.59500 26.27400
C  20.46000 -6.77200 29.00700
C  20.50700 -6.71400 25.74900
O  20.17700 -6.67000 24.59400
C  21.34100 -7.85900 26.20100
N  17.01200 -2.52800 25.28200
C  17.85900 -3.20100 24.53400
C  17.87600 -2.80500 23.03100
C  16.70200 -1.71100 23.00900
C  16.32700 -1.58600 24.49200
C  19.25400 -2.26600 22.48300
C  15.51900 -1.94200 21.97600
C  15.10300 -0.74500 21.08900
N  16.03900 -0.70300 27.33000
C  15.35100 -0.14400 26.28500
C  14.54300 0.94600 26.77800
C  14.80500 0.98800 28.13300
C  15.71700 -0.05800 28.42600
C  13.72800 1.82500 25.88100
C  14.44200 1.68900 29.37700
O  13.74800 2.62400 29.63400
C  15.17500 0.84700 30.49400
C  16.08500 1.81800 31.32000
O  17.26000 2.01400 30.96100
O  15.46500 2.45000 32.33900
C  16.10600 3.60300 32.99900
H  19.32700 -4.69700 30.66300
H  19.31500 -4.56600 24.18900
H  15.22300 0.26500 24.24000
H  17.53700 -0.77700 32.17900
H  17.26800 -3.67700 32.16100
H  19.20400 -2.10800 33.41200
H  20.12700 -2.51400 31.99200
H  19.32800 -3.79300 32.99200
H  15.38500 -2.75900 32.79000
H  14.73200 -1.34600 32.05100
H  15.29600 -1.92300 34.64400
H  15.11000 -0.27400 34.11000
H  21.47100 -7.10400 28.77100
H  19.82800 -7.65800 28.95500
H  20.38300 -6.51600 30.06400
H  20.77000 -8.45900 26.91000
H  22.22000 -7.41300 26.66600
H  21.62900 -8.50700 25.37400
H  17.57100 -3.69300 22.47700
H  17.19000 -0.75100 22.84100
H  20.01000 -2.18000 23.26300
H  19.12600 -1.31200 21.97100
H  19.51700 -3.00900 21.73100
H  14.60000 -2.09000 22.54300
H  15.78000 -2.78900 21.34200
H  14.42700 -1.26400 20.40900
H  15.89400 -0.40300 20.42100
H  14.73200 0.08700 21.68800
H  14.30900 2.11500 25.00500
H  13.38900 2.66400 26.48900
H  12.92200 1.22700 25.45600
H  14.33000 0.56900 31.12300
H  16.71500 3.15400 33.78300
H  15.33800 4.18000 33.51500
H  16.68900 4.30900 32.40800
Mg 35.49200 1.17100 29.04100
C  33.44300 2.49300 31.60000
C  38.09000 0.97200 31.45400
C  37.52300 0.44000 26.56000
C  32.84700 1.77700 26.77700
N  35.75500 1.72200 31.30500
C  34.72500 2.17000 32.07800
C  35.14100 2.24800 33.55900
C  36.63600 1.78800 33.53800
C  36.88200 1.50400 32.05100
C  37.67300 2.65400 34.25500
C  34.38000 1.55100 34.67700
C  34.18300 2.15000 36.11200
H  35.07700 3.29500 36.62300
N  37.47600 0.58600 29.00400
C  38.37000 0.56900 30.11100
C  39.66600 0.13200 29.57600
C  39.53100 0.07500 28.13100
C  38.14600 0.39200 27.82400
C  40.89700 -0.10900 30.45900
C  40.67200 -0.17000 27.05900
O  40.39900 -0.34400 25.84900
C  42.06100 -0.44900 27.42800
N  35.29600 1.06300 26.97700
C  36.29000 0.84300 26.15700
C  35.82100 0.71500 24.72400
C  34.30200 0.91700 24.73300
C  34.07100 1.28800 26.24500
C  36.50600 1.71200 23.73000
C  33.44800 -0.30600 24.27900
C  32.51600 -0.17100 23.07100
N  33.55700 1.84900 29.12800
C  32.62200 2.13600 28.10400
C  31.45000 2.78900 28.62300
C  31.76400 2.89700 29.99900
C  33.03200 2.39000 30.26200
C  30.34300 3.27700 27.87900
C  31.19700 3.32700 31.20800
O  30.10400 3.88000 31.44000
C  32.22200 3.00600 32.31800
C  32.55600 4.25300 33.02900
O  33.24300 5.19500 32.60700
O  31.82300 4.33100 34.17000
C  31.91600 5.54600 35.00700
H  38.90900 0.97800 32.17700
H  38.17400 0.06700 25.76600
H  32.00500 1.91500 26.09500
H  35.12200 3.31200 33.79600
H  36.75100 0.83000 34.04500
H  37.21900 3.59300 34.57200
H  38.49000 2.90500 33.57900
H  38.24300 2.23800 35.08600
H  34.71400 0.53300 34.87800
H  33.40500 1.24300 34.29900
H  34.36900 1.25100 36.70100
H  33.16000 2.46600 36.31500
H  41.43800 -0.92500 29.98000
H  40.58400 -0.39200 31.46400
H  41.45300 0.81300 30.63300
H  42.20900 -1.42600 27.88600
H  42.32400 0.34600 28.12500
H  42.65400 -0.33900 26.52000
H  36.14600 -0.26800 24.38400
H  34.01900 1.70200 24.03200
H  37.01900 2.52200 24.25000
H  35.77900 2.31500 23.18500
H  37.00800 1.13500 22.95400
H  32.83800 -0.56100 25.14600
H  34.02600 -1.21400 24.10800
H  31.51200 -0.46700 23.37600
H  32.81200 -0.80900 22.23800
H  32.48000 0.87900 22.78100
H  29.48700 2.62100 28.03300
H  30.53300 3.29300 26.80500
H  30.07100 4.30600 28.11300
H  31.66300 2.34500 32.98000
H  30.91800 5.94400 35.19500
H  32.55100 6.32800 34.59100
H  32.31800 5.04200 35.88600

