158

Mg 47.07400 25.63400 28.90400
C  47.84400 27.80400 31.44300
C  46.37500 23.22500 31.34700
C  46.59600 23.41600 26.43900
C  48.44700 27.82000 26.64600
N  47.20500 25.53100 31.16700
C  47.33800 26.64400 31.99300
C  47.06300 26.24900 33.51500
C  46.77700 24.69200 33.36100
C  46.77900 24.48000 31.85300
C  47.82800 23.74300 34.04900
C  45.94300 27.13200 34.14900
C  46.24000 27.56300 35.59900
H  45.14000 27.64100 36.67900
N  46.44300 23.67300 28.87900
C  46.22400 22.84600 29.92200
C  45.71500 21.56800 29.41100
C  45.94000 21.62300 28.02400
C  46.34100 22.95600 27.72400
C  45.17700 20.42700 30.26700
C  45.66300 20.51200 26.96700
O  45.93200 20.61400 25.79500
C  45.19300 19.17500 27.49100
N  47.39900 25.63800 26.75000
C  47.07400 24.60200 25.89300
C  47.27300 24.85400 24.42400
C  47.81000 26.35300 24.48000
C  47.83300 26.69100 26.01500
C  48.28100 23.84300 23.73200
C  46.97800 27.51600 23.76600
C  47.85700 28.20600 22.62100
N  47.98100 27.40900 28.99300
C  48.60300 28.12500 27.98900
C  49.24100 29.29600 28.48400
C  48.96100 29.22100 29.84600
C  48.21800 28.02600 30.12100
C  49.92000 30.42200 27.71800
C  48.94600 30.00700 31.07900
O  49.20600 31.20200 31.33300
C  48.34300 29.01000 32.18000
C  49.34600 28.70300 33.24000
O  50.25100 27.88400 33.07700
O  49.14800 29.49800 34.35300
C  49.90300 29.25600 35.59700
H  45.99100 22.48600 32.05300
H  46.37100 22.71400 25.63400
H  48.96000 28.49400 25.95700
H  48.01200 26.31000 34.04700
H  45.79800 24.42600 33.75900
H  48.46700 23.23600 33.32600
H  47.25200 22.91200 34.45500
H  48.36500 24.19800 34.88200
H  45.02500 26.55100 34.05800
H  45.79500 28.03900 33.56200
H  46.62600 28.58300 35.58500
H  47.05800 26.88600 35.84400
H  44.08900 20.40700 30.32700
H  45.47800 20.59800 31.30000
H  45.73700 19.50000 30.14000
H  46.01000 18.81100 28.11400
H  44.95900 18.51200 26.65800
H  44.35100 19.39500 28.14700
H  46.30100 24.83400 23.93100
H  48.83500 26.46500 24.12500
H  48.44700 22.94500 24.32800
H  49.26700 24.26400 23.53300
H  47.89800 23.50600 22.76900
H  46.38200 28.24400 24.31800
H  46.23200 26.96700 23.19200
H  47.51700 29.22800 22.44800
H  47.88800 27.53600 21.76300
H  48.93500 28.15700 22.77300
H  49.19700 31.22500 27.57700
H  50.38500 30.05700 26.80200
H  50.65900 30.74400 28.45200
H  47.51600 29.47000 32.72200
H  49.23600 29.04100 36.43100
H  50.55600 30.09500 35.83400
H  50.38000 28.28600 35.45300
Mg 10.38700 47.55400 25.96700
C  8.54300 47.07700 28.96600
C  12.89300 48.99100 27.74400
C  11.99100 48.20600 23.05900
C  7.63300 46.62700 24.27000
N  10.62800 48.05100 28.16900
C  9.79000 47.68400 29.20800
C  10.54400 47.93500 30.58700
C  11.88000 48.66800 30.05300
C  11.80100 48.58600 28.51600
C  12.01700 50.15100 30.62000
C  10.89000 46.65700 31.49300
C  10.15300 46.91700 32.88500
H  10.40900 45.86800 33.94000
N  12.23200 48.43300 25.50400
C  13.16000 48.85600 26.36000
C  14.37200 49.25600 25.63900
C  14.21400 48.82100 24.28000
C  12.80200 48.45400 24.22900
C  15.60800 49.82300 26.43300
C  15.15000 48.81700 23.20200
O  14.92000 48.49000 22.05900
C  16.55200 49.40200 23.42500
N  9.93400 47.46500 23.90900
C  10.73300 47.79700 22.89400
C  9.90600 47.90500 21.59300
C  8.74500 46.92200 21.99300
C  8.75900 46.94500 23.50300
C  9.57700 49.34400 21.11200
C  8.84000 45.54600 21.37700
C  9.88100 44.67100 21.92400
N  8.40600 46.99800 26.49100
C  7.38400 46.70900 25.66400
C  6.16400 46.37700 26.37500
C  6.59800 46.44900 27.72300
C  7.94100 46.87700 27.70300
C  4.79500 45.96800 25.92200
C  6.20300 46.22200 29.00000
O  5.11500 45.83800 29.37700
C  7.51900 46.56300 29.98400
C  7.84500 45.31400 30.61000
O  8.49400 44.42200 30.09300
O  7.16500 45.14800 31.75400
C  6.95500 43.82900 32.43300
H  13.70800 49.23500 28.42900
H  12.38400 48.59300 22.11600
H  6.80900 46.15200 23.73400
H  9.82600 48.59600 31.07300
H  12.78800 48.18600 30.41500
H  12.88400 50.24200 31.27400
H  11.16800 50.19500 31.30200
H  11.89000 50.92300 29.86100
H  11.95200 46.65500 31.73600
H  10.53200 45.69400 31.12800
H  9.07800 47.08600 32.82000
H  10.70200 47.78600 33.24800
H  15.94400 50.61400 25.76300
H  16.33700 49.01400 26.47000
H  15.34100 50.25500 27.39800
H  17.03800 49.59900 22.46900
H  17.20300 48.92400 24.15600
H  16.31800 50.42100 23.73100
H  10.48900 47.41700 20.81200
H  7.78900 47.33900 21.67600
H  10.02600 49.62400 20.15900
H  9.93100 50.10800 21.80400
H  8.49700 49.49300 21.09400
H  8.86400 45.54200 20.28700
H  7.82800 45.19200 21.57300
H  10.42400 45.21700 22.69600
H  10.60400 44.33200 21.18300
H  9.39500 43.80500 22.37300
H  4.66900 45.83100 24.84800
H  4.06600 46.73200 26.19300
H  4.49100 45.01900 26.36300
H  7.47600 47.39300 30.68900
H  5.90400 43.55500 32.34100
H  7.35400 43.71700 33.44100
H  7.41000 42.98300 31.91700

