158

Mg 35.69300 0.47200 29.61100
C  33.60300 1.57000 32.20600
C  38.33400 0.45700 31.93400
C  37.89200 -0.26500 27.09100
C  33.31700 1.34300 27.35300
N  35.93700 1.01900 31.81500
C  34.88300 1.34300 32.63500
C  35.29000 1.18400 34.12400
C  36.88900 1.08900 33.99500
C  37.10900 0.82700 32.45800
C  37.54500 2.39600 34.58900
C  34.64100 0.01500 34.93300
C  34.03000 0.38000 36.32900
H  34.84000 1.38000 37.16400
N  37.76800 0.04900 29.56400
C  38.65300 0.14200 30.64600
C  39.91200 -0.35500 30.19200
C  39.80900 -0.69300 28.86700
C  38.44500 -0.36000 28.38500
C  41.18400 -0.53500 31.09800
C  40.81200 -1.24500 27.90200
O  40.65000 -1.51400 26.73300
C  42.17900 -1.59900 28.36400
N  35.66400 0.55400 27.44800
C  36.66500 0.15700 26.65600
C  36.21600 0.47300 25.19500
C  34.83300 1.21200 25.27100
C  34.52100 0.97100 26.77700
C  37.34700 1.37600 24.51300
C  33.80600 0.71300 24.30700
C  33.06500 1.82200 23.45300
N  33.78200 1.09300 29.67700
C  32.92500 1.38400 28.68300
C  31.66500 1.76100 29.26700
C  31.85100 1.86700 30.65300
C  33.19500 1.45000 30.87200
C  30.54300 2.01800 28.21700
C  31.22200 2.20900 31.88500
O  30.05200 2.55500 32.11400
C  32.35300 1.96400 32.97000
C  32.54000 3.25500 33.63600
O  33.39800 4.06400 33.37200
O  31.69300 3.36200 34.75200
C  31.93500 4.41000 35.74200
H  39.05700 0.36700 32.74800
H  38.59600 -0.62100 26.33600
H  32.69200 1.95900 26.70300
H  34.89600 2.06000 34.64000
H  37.36600 0.31300 34.59400
H  37.73400 3.13500 33.81100
H  38.47600 2.15500 35.10000
H  36.78200 3.02000 35.05400
H  35.51000 -0.60600 35.15200
H  33.93600 -0.53900 34.31200
H  34.03900 -0.61900 36.76600
H  32.95200 0.53000 36.27000
H  41.58900 -1.53500 30.94000
H  40.99400 -0.47100 32.17000
H  41.94200 0.18100 30.78500
H  41.98300 -2.38800 29.09000
H  42.59300 -0.66300 28.73800
H  42.84600 -1.98600 27.59400
H  36.14800 -0.39400 24.53800
H  34.77500 2.29200 25.13600
H  36.91300 2.24400 24.01500
H  37.89700 0.77500 23.78900
H  38.01100 1.73200 25.30000
H  33.03200 0.21100 24.88800
H  34.11800 -0.06800 23.61300
H  32.11100 2.00300 23.94800
H  32.89600 1.51200 22.42100
H  33.53500 2.80100 23.54600
H  30.56500 1.02200 27.77600
H  30.81400 2.75300 27.45800
H  29.52000 2.15300 28.56700
H  31.98900 1.25400 33.71200
H  31.54500 5.24400 35.15800
H  32.98500 4.59300 35.97400
H  31.32400 4.41400 36.64500
Mg -0.25000 43.36200 25.98200
C  2.01800 42.67700 28.73200
C  -2.73100 41.88600 27.90200
C  -2.18700 43.11300 23.30800
C  2.55800 43.81100 23.92400
N  -0.32100 42.28900 28.06100
C  0.64300 42.46000 29.06600
C  0.03900 42.08100 30.39400
C  -1.44800 41.67200 30.04200
C  -1.54900 41.98100 28.59200
C  -1.90500 40.19700 30.46200
C  0.20400 43.22900 31.42500
C  0.44200 43.03400 32.93600
H  0.40800 41.54800 33.45000
N  -2.35300 42.86600 25.70100
C  -3.13500 42.24900 26.59000
C  -4.51100 42.11900 26.05200
C  -4.33200 42.35500 24.63700
C  -2.95900 42.79100 24.49100
C  -5.56600 41.55000 26.86400
C  -5.28900 42.24500 23.41500
O  -4.92400 42.58300 22.32100
C  -6.64400 41.67500 23.65300
N  0.15800 43.46500 23.90500
C  -0.85100 43.41100 23.00300
C  -0.36300 43.89200 21.61000
C  1.14000 43.93800 21.76800
C  1.32900 43.80600 23.29400
C  -0.90500 43.00200 20.46900
C  1.75500 45.16300 21.03200
C  2.10900 46.43200 21.91900
N  1.85000 43.25300 26.21700
C  2.83400 43.51700 25.24400
C  4.16300 43.47400 25.90600
C  3.84800 43.06700 27.21200
C  2.46500 42.92800 27.36900
C  5.50500 43.76500 25.33200
C  4.49900 42.72600 28.52300
O  5.66300 42.53900 28.85900
C  3.29100 42.60400 29.58300
C  3.55600 41.42500 30.33900
O  3.38800 40.23900 30.04000
O  4.10600 41.87300 31.48700
C  4.60600 40.78400 32.30600
H  -3.49200 41.46800 28.56400
H  -2.85400 43.28900 22.46200
H  3.41500 44.05800 23.29400
H  0.55600 41.19100 30.75200
H  -2.27200 42.26100 30.44500
H  -2.34100 40.28700 31.45700
H  -1.03500 39.54000 30.46800
H  -2.58900 39.88600 29.67300
H  -0.71100 43.82200 31.41100
H  0.98400 43.91600 31.09600
H  -0.35300 43.52100 33.50200
H  1.42800 43.35100 33.27600
H  -6.39900 42.24500 26.75500
H  -5.30500 41.67900 27.91500
H  -5.92700 40.56100 26.58400
H  -6.54000 40.77900 24.26500
H  -7.00900 41.49400 22.64200
H  -7.33200 42.43400 24.02500
H  -0.79200 44.88800 21.49500
H  1.47500 42.99100 21.34500
H  -1.48300 42.24000 20.99100
H  -0.08500 42.53100 19.92700
H  -1.50400 43.39000 19.64500
H  1.10600 45.50300 20.22500
H  2.68700 44.75200 20.64600
H  1.84100 46.34000 22.97100
H  1.93300 47.42200 21.49700
H  3.19900 46.40900 21.94100
H  5.58200 44.83900 25.16300
H  5.53000 43.26100 24.36600
H  6.26500 43.50400 26.06900
H  3.14800 43.50800 30.17600
H  4.21200 40.99600 33.29900
H  5.68900 40.81700 32.42300
H  4.31200 39.77100 32.02900

