158

Mg 34.87200 3.01000 29.09500
C  32.55100 3.82000 31.57100
C  37.44200 3.48300 31.28600
C  37.12900 2.61100 26.49200
C  32.32300 3.20900 26.69500
N  34.95400 3.56300 31.15300
C  33.90900 3.70300 32.01100
C  34.42900 3.91400 33.45100
C  35.97500 4.10600 33.24800
C  36.12400 3.65400 31.82200
C  36.57800 5.49600 33.61500
C  33.92100 2.74600 34.38400
C  33.67300 3.11700 35.76300
H  34.50800 4.23700 36.38300
N  36.95800 3.02500 28.96900
C  37.79300 3.07100 29.99600
C  39.16900 2.66200 29.65300
C  39.11100 2.49000 28.25100
C  37.68000 2.77900 27.81700
C  40.19500 2.58100 30.73800
C  40.23800 1.97500 27.30400
O  40.04900 1.71700 26.12500
C  41.57800 1.67400 27.92600
N  34.71100 3.02200 26.91400
C  35.78900 2.70200 26.10300
C  35.30300 2.43300 24.58100
C  33.78600 2.49900 24.79400
C  33.62100 3.06600 26.18600
C  35.87000 3.42600 23.51300
C  33.07400 1.13700 24.52200
C  31.78100 1.18900 23.87000
N  32.89500 3.42700 29.05300
C  31.93600 3.44400 28.01400
C  30.59300 3.73500 28.53700
C  30.81800 3.82300 29.95200
C  32.20900 3.68500 30.19600
C  29.39600 3.88300 27.75100
C  30.12300 4.08300 31.15200
O  28.97400 4.42600 31.39900
C  31.24200 4.11000 32.33000
C  31.17400 5.36400 33.04900
O  31.58000 6.44300 32.56600
O  30.58500 5.33800 34.31100
C  30.64200 6.60700 35.05700
H  38.17600 3.57400 32.08900
H  37.83800 2.35400 25.70200
H  31.52300 3.26300 25.95400
H  34.04400 4.82300 33.91500
H  36.47700 3.41400 33.92400
H  37.37300 5.34700 34.34500
H  35.84800 6.22200 33.97500
H  36.91200 5.91600 32.66600
H  34.74700 2.03600 34.40800
H  33.06200 2.28500 33.89600
H  33.64600 2.21900 36.38000
H  32.70400 3.61500 35.72600
H  39.85200 1.79200 31.40700
H  40.08800 3.51300 31.29300
H  41.22600 2.47300 30.40200
H  41.80700 2.64600 28.36400
H  42.26900 1.36400 27.14300
H  41.44500 0.87700 28.65800
H  35.53000 1.37600 24.44200
H  33.38700 3.20700 24.06700
H  36.41400 2.83700 22.77400
H  36.54900 4.13900 23.97900
H  34.97600 3.90400 23.11200
H  33.01200 0.57100 25.45200
H  33.69800 0.41900 23.99000
H  31.91400 0.73300 22.88900
H  31.47900 2.23600 23.84400
H  30.98000 0.62800 24.35400
H  29.22400 2.93200 27.24700
H  29.37900 4.76200 27.10700
H  28.65400 4.01200 28.53900
H  30.94500 3.37000 33.07200
H  30.31100 7.49000 34.50900
H  31.66700 6.80000 35.37500
H  30.01100 6.53300 35.94300
Mg -12.11500 16.08900 42.28100
C  -9.29300 14.18100 41.64100
C  -10.78400 18.75000 40.38600
C  -15.21600 17.59500 42.13200
C  -13.73100 13.09100 43.26600
N  -10.25000 16.30600 41.07400
C  -9.24300 15.38900 40.90500
C  -8.09400 15.94000 40.19500
C  -8.47500 17.40200 39.80300
C  -9.96000 17.55300 40.42300
C  -7.48300 18.34000 40.41200
C  -7.69100 15.01300 39.03700
C  -6.19600 14.59500 38.85000
H  -5.47400 15.28000 37.63000
N  -12.82200 18.01700 41.63400
C  -12.10800 19.00100 40.97400
C  -12.92900 20.15600 40.79200
C  -14.23800 19.85800 41.30600
C  -14.16700 18.42200 41.72700
C  -12.40100 21.52300 40.11400
C  -15.36200 20.81700 41.45800
O  -15.14000 21.95000 41.16600
C  -16.69500 20.46900 41.84000
N  -14.22100 15.52100 42.75300
C  -15.30800 16.26200 42.55800
C  -16.67500 15.49300 42.71800
C  -16.12600 14.12100 43.17600
C  -14.55100 14.25200 43.08900
C  -17.86700 16.09200 43.55800
C  -16.59600 12.89900 42.28900
C  -16.90400 11.56100 43.01200
N  -11.58900 14.08600 42.62900
C  -12.30800 13.02700 43.07200
C  -11.43200 11.91600 43.37200
C  -10.13900 12.35200 42.85400
C  -10.35800 13.64000 42.35700
C  -11.89700 10.56700 43.72500
C  -8.83400 11.95600 42.63400
O  -8.18300 10.94800 42.90100
C  -8.23500 13.14800 41.82000
C  -7.00800 13.59100 42.49900
O  -6.94600 14.18300 43.52700
O  -5.85600 13.17800 41.79700
C  -4.63200 13.73300 42.34800
H  -10.35700 19.55000 39.77800
H  -16.20100 18.02200 41.93000
H  -14.23400 12.15400 43.51100
H  -7.23700 15.96000 40.86800
H  -8.66000 17.67600 38.76400
H  -6.97200 17.93800 41.28700
H  -8.04600 19.17500 40.82900
H  -6.76500 18.56800 39.62500
H  -7.92900 15.43500 38.06100
H  -8.23600 14.07600 39.14800
H  -6.05300 13.51600 38.79200
H  -5.72000 14.96900 39.75700
H  -12.75800 22.43100 40.59900
H  -12.56000 21.49100 39.03600
H  -11.33700 21.56000 40.34800
H  -17.40700 21.29400 41.80000
H  -16.68700 19.95100 42.79900
H  -17.14600 19.81200 41.09700
H  -17.02000 15.40700 41.68700
H  -16.44000 13.90400 44.19700
H  -18.35400 15.27000 44.08300
H  -18.46800 16.61200 42.81300
H  -17.64600 16.96100 44.17900
H  -15.85500 12.69800 41.51500
H  -17.48300 13.18300 41.72300
H  -17.98200 11.40400 43.03100
H  -16.60600 11.67600 44.05500
H  -16.50100 10.63500 42.60100
H  -11.06100 9.91000 43.48800
H  -12.80200 10.32000 43.17000
H  -12.36200 10.55900 44.71000
H  -7.97900 12.74200 40.84200
H  -4.68500 14.81300 42.20900
H  -3.70500 13.39700 41.88500
H  -4.46100 13.50300 43.39900

