158

Mg 36.13300 1.90600 29.94300
C  33.77500 2.91400 32.39700
C  38.28200 1.25600 32.41600
C  38.14500 0.90300 27.63400
C  33.57800 2.24500 27.56000
N  36.08400 2.33800 32.18000
C  35.01900 2.69100 33.00400
C  35.37900 2.47700 34.48200
C  36.95000 2.29300 34.43500
C  37.07800 1.88400 32.90700
C  37.76600 3.58500 34.64800
C  34.59000 1.43300 35.24600
C  33.95800 1.81700 36.63800
H  34.57100 2.99500 37.42100
N  38.08300 1.30700 30.01300
C  38.78000 1.12700 31.08500
C  40.13300 0.68400 30.66400
C  40.11600 0.52700 29.26700
C  38.78500 0.93200 28.90200
C  41.30500 0.53700 31.67300
C  41.29000 0.06200 28.38000
O  41.14700 0.03800 27.15200
C  42.64000 -0.41400 28.83200
N  35.84200 1.51400 27.93100
C  36.88500 1.14400 27.16600
C  36.53100 1.31000 25.70300
C  35.04400 1.25200 25.70400
C  34.79200 1.75300 27.12300
C  37.22300 2.50000 24.95600
C  34.42500 -0.17100 25.47700
C  33.22000 -0.23200 24.54800
N  33.99000 2.55000 29.88100
C  33.13500 2.69800 28.82300
C  31.81400 3.09800 29.37200
C  32.01500 3.16600 30.73000
C  33.34200 2.84400 31.03200
C  30.57600 3.24400 28.46100
C  31.39700 3.48000 32.04400
O  30.24900 3.78200 32.30800
C  32.50200 3.32300 33.11900
C  32.57200 4.61600 33.76700
O  33.17600 5.60200 33.35600
O  31.73800 4.68500 34.83000
C  31.76600 5.84500 35.78000
H  39.04100 1.04100 33.17200
H  38.77600 0.45200 26.86500
H  32.74300 2.34200 26.86300
H  35.22100 3.43700 34.97300
H  37.14000 1.46000 35.11200
H  37.25700 4.53000 34.45900
H  38.66300 3.51900 34.03200
H  38.02900 3.50700 35.70300
H  35.24200 0.57100 35.38900
H  33.72500 1.13600 34.65200
H  33.99800 0.89200 37.21400
H  32.88500 1.89800 36.46500
H  41.00500 0.97500 32.62500
H  42.25500 1.01000 31.42400
H  41.39800 -0.54700 31.74000
H  43.41100 -0.60400 28.08600
H  42.55700 -1.32200 29.42900
H  43.02800 0.39200 29.45600
H  36.91400 0.40900 25.22300
H  34.65900 2.07300 25.10000
H  36.40800 3.13600 24.61100
H  37.97700 2.25300 24.20900
H  37.70400 3.20200 25.63700
H  34.18700 -0.65700 26.42300
H  35.20900 -0.79400 25.04700
H  33.52700 -0.85500 23.70800
H  32.85500 0.72200 24.16700
H  32.38300 -0.78000 24.98200
H  29.76000 2.69200 28.92800
H  30.77300 2.71000 27.53100
H  30.41200 4.27300 28.14100
H  32.14700 2.60800 33.86100
H  32.68700 6.40000 35.60000
H  31.84900 5.43500 36.78600
H  30.93500 6.54900 35.74200
Mg 15.92800 51.88800 25.96500
C  17.68300 50.68800 28.84800
C  13.55000 53.09500 28.12500
C  14.39400 53.26000 23.37700
C  18.46600 50.58100 24.11000
N  15.55600 51.68200 28.18200
C  16.39600 51.22600 29.09300
C  15.89500 51.60100 30.58800
C  14.43300 51.99800 30.24900
C  14.49100 52.27400 28.76200
C  13.27600 51.00200 30.55700
C  16.70600 52.61100 31.36600
C  16.78800 52.23500 32.88200
H  15.62400 52.82000 33.79100
N  14.14300 53.04000 25.78200
C  13.32500 53.44000 26.84000
C  12.34300 54.37000 26.22600
C  12.50800 54.32600 24.78600
C  13.72700 53.51600 24.56500
C  11.18000 54.96000 27.06800
C  11.64900 54.96700 23.64900
O  11.89900 54.80400 22.44000
C  10.44100 55.81900 23.98900
N  16.24700 51.74000 24.02100
C  15.55700 52.48100 23.13700
C  16.31600 52.60400 21.79400
C  17.64000 51.79400 22.07300
C  17.43100 51.29000 23.49600
C  15.49000 52.19600 20.54600
C  18.97800 52.55100 21.90500
C  20.22800 51.91300 21.28600
N  17.63300 50.55800 26.37800
C  18.60800 50.18700 25.50300
C  19.67900 49.51700 26.26800
C  19.36900 49.76400 27.57500
C  18.11100 50.37500 27.56600
C  20.95500 48.90100 25.77500
C  19.76900 49.42700 28.87800
O  20.74100 48.77100 29.24000
C  18.69200 50.15400 29.77000
C  18.14000 49.23000 30.78400
O  17.35200 48.31200 30.56900
O  18.68500 49.43100 32.05500
C  18.24500 48.45100 33.08500
H  12.77400 53.34400 28.85200
H  14.07200 53.77700 22.47100
H  19.23200 50.30000 23.38400
H  15.80400 50.72800 31.23500
H  14.03800 52.90200 30.71200
H  12.44900 51.11500 29.85700
H  12.98800 50.89700 31.60300
H  13.60900 49.97500 30.41000
H  16.03800 53.47000 31.42500
H  17.67600 52.84700 30.92800
H  17.71400 52.64200 33.28700
H  16.85300 51.17800 33.14100
H  11.22800 54.55600 28.08000
H  10.18800 54.72000 26.68500
H  11.25700 56.04700 27.09100
H  9.99900 56.31000 23.12200
H  10.70700 56.49900 24.79900
H  9.74500 55.06300 24.35300
H  16.55800 53.66300 21.70800
H  17.66200 50.89000 21.46600
H  16.08500 51.48100 19.97700
H  15.21100 53.06200 19.94600
H  14.59400 51.65200 20.84200
H  19.29000 52.83600 22.91000
H  18.73500 53.53700 21.50900
H  20.50700 52.60800 20.49400
H  20.05400 50.90700 20.90300
H  21.11600 51.73700 21.89200
H  21.16500 49.37900 24.81800
H  20.81100 47.83100 25.62900
H  21.79200 49.13300 26.43400
H  19.12100 50.97600 30.34300
H  17.22300 48.12600 32.89000
H  18.24300 49.01100 34.02000
H  18.93800 47.61500 33.18000

