158

Mg 44.23400 4.53600 48.70800
C  41.96800 7.05300 47.82200
C  41.48300 2.24500 48.23400
C  46.35100 2.01600 48.76800
C  46.81800 6.83700 48.41500
N  41.92500 4.63400 48.00600
C  41.31400 5.80100 47.81500
C  39.84100 5.56700 47.40800
C  39.64200 4.07900 47.92400
C  41.12200 3.58900 48.12200
C  38.81800 3.89500 49.27000
C  39.65900 5.69200 45.87400
C  38.52500 6.58700 45.36300
H  37.80200 6.14900 44.14700
N  43.98800 2.41400 48.60100
C  42.78200 1.69600 48.44700
C  43.08600 0.26500 48.43900
C  44.52200 0.19000 48.63600
C  45.02600 1.55600 48.67400
C  41.93400 -0.71300 48.30400
C  45.22200 -1.11400 48.73400
O  44.69400 -2.22800 48.57200
C  46.67600 -1.09200 49.27200
N  46.29800 4.49800 48.59900
C  46.94900 3.25300 48.79900
C  48.43700 3.46300 49.07800
C  48.60900 5.01500 49.17000
C  47.21800 5.50200 48.70400
C  48.98400 2.76800 50.32400
C  49.82700 5.58100 48.41500
C  50.61000 6.68800 49.16600
N  44.40000 6.56400 48.27400
C  45.53000 7.41700 48.13800
C  45.20400 8.76200 47.88200
C  43.77800 8.69300 47.81500
C  43.39700 7.30800 47.93100
C  46.24000 9.88500 47.74600
C  42.53500 9.49800 47.68300
O  42.37800 10.71000 47.59800
C  41.38500 8.38300 47.55800
C  40.35100 8.70400 48.64000
O  40.34100 8.21500 49.77200
O  39.47600 9.63100 48.14800
C  38.58200 10.06500 49.17100
H  40.56700 1.65100 48.23800
H  47.07200 1.19700 48.79900
H  47.45400 7.72300 48.46300
H  39.12100 6.23300 47.88200
H  39.06600 3.43600 47.25800
H  39.48900 3.60300 50.07800
H  38.05400 3.12400 49.16400
H  38.31800 4.83300 49.51300
H  39.45200 4.70100 45.47000
H  40.56600 6.01800 45.36600
H  39.02700 7.54500 45.23100
H  37.67900 6.74800 46.03100
H  41.40200 -0.82900 49.24800
H  42.28500 -1.64700 47.86500
H  41.16100 -0.31100 47.64900
H  47.45100 -0.74200 48.59100
H  46.95600 -2.04700 49.71700
H  46.63500 -0.37700 50.09400
H  48.94900 3.18500 48.15600
H  48.71600 5.32000 50.21100
H  48.12500 2.26100 50.76300
H  49.48400 3.44500 51.01700
H  49.68100 2.00100 49.98600
H  49.36800 6.10800 47.57800
H  50.49000 4.82100 48.00000
H  49.99900 6.93000 50.03600
H  50.56200 7.59800 48.56900
H  51.64400 6.45500 49.41900
H  45.64400 10.79700 47.74500
H  46.74600 9.75300 46.79000
H  46.98800 9.87000 48.53900
H  40.95200 8.43500 46.55900
H  38.84600 9.83300 50.20300
H  37.54200 9.79400 48.98600
H  38.69500 11.13900 49.03000
Mg 29.38800 57.77700 40.68500
C  26.38100 56.14800 39.75300
C  31.01000 55.12000 39.28300
C  32.16700 59.59400 40.90600
C  27.46500 60.67300 41.10600
N  28.75400 55.78000 39.84500
C  27.52200 55.46000 39.38300
C  27.48700 54.41600 38.24600
C  28.87600 53.84400 38.65800
C  29.65400 54.97000 39.30000
C  28.82400 52.63200 39.66500
C  27.36200 55.00100 36.75700
C  26.04100 54.69900 36.00700
H  26.06900 54.40800 34.49900
N  31.34500 57.25300 40.38300
C  31.79200 56.15700 39.77500
C  33.27400 56.22800 39.78900
C  33.69100 57.47100 40.18200
C  32.38700 58.14000 40.51900
C  34.14500 55.11100 39.23100
C  35.08600 58.04800 40.22700
O  36.02200 57.34100 39.93000
C  35.44500 59.58000 40.50100
N  29.73300 59.83500 40.84700
C  30.97100 60.36900 41.05300
C  30.96200 61.91000 41.22100
C  29.46800 62.12900 41.44700
C  28.81600 60.79900 41.11700
C  32.06600 62.49500 42.23500
C  28.76500 63.24300 40.60500
C  28.54200 62.87300 39.12100
N  27.32200 58.26500 40.69400
C  26.69300 59.46500 40.87900
C  25.25300 59.18700 40.91300
C  25.10000 57.91800 40.43600
C  26.43500 57.41900 40.34100
C  24.23200 60.30200 41.15300
C  24.07800 57.00800 40.10100
O  22.82900 57.15800 40.13300
C  24.82800 55.77100 39.51100
C  24.40600 54.48800 40.19200
O  24.41000 54.23700 41.44800
O  23.69600 53.63400 39.34000
C  22.77000 52.85800 40.13400
H  31.52600 54.27800 38.81800
H  33.08700 60.15200 41.09000
H  26.80600 61.51500 41.32600
H  26.59700 53.84700 38.51300
H  29.44000 53.46300 37.80700
H  27.81200 52.40900 40.00300
H  29.21800 52.90300 40.64500
H  29.36900 51.73500 39.37000
H  28.15600 54.76400 36.04800
H  27.49700 56.06600 36.94900
H  25.37900 55.55300 36.14700
H  25.50900 53.93300 36.57000
H  33.65600 54.21400 39.61100
H  35.11900 54.96200 39.69800
H  34.01600 55.19300 38.15200
H  35.30400 59.87800 41.54000
H  35.05300 60.25000 39.73500
H  36.50700 59.69800 40.29000
H  31.27500 62.37600 40.28700
H  29.31300 62.39500 42.49200
H  32.85000 62.99000 41.66100
H  32.40500 61.65600 42.84300
H  31.43200 63.21300 42.75400
H  29.46600 64.07700 40.60600
H  27.78600 63.54300 40.97900
H  28.95900 61.92800 38.77400
H  28.99400 63.64700 38.50000
H  27.49700 62.98100 38.82800
H  24.28500 60.99000 40.30900
H  24.53900 60.81800 42.06200
H  23.21900 59.92200 41.28700
H  24.49600 55.77300 38.47300
H  22.14300 52.43600 39.34900
H  22.19900 53.46900 40.83300
H  23.27100 52.05100 40.66900

