158

Mg -1.42300 17.50200 27.17900
C  -1.86000 15.29600 29.83200
C  -1.73900 20.14300 29.52200
C  -1.22200 19.58500 24.67600
C  -1.65900 14.76100 24.94300
N  -1.82000 17.68300 29.50000
C  -1.83300 16.61700 30.35300
C  -1.99300 17.10900 31.81400
C  -1.93000 18.66900 31.63900
C  -1.89500 18.83900 30.11900
C  -3.17900 19.31700 32.28800
C  -0.94600 16.58700 32.85300
C  -0.54700 17.44800 34.05800
H  -0.57000 16.79900 35.44400
N  -1.40700 19.47800 27.13300
C  -1.54500 20.44200 28.13500
C  -1.39800 21.74900 27.63100
C  -1.15400 21.56200 26.22200
C  -1.20400 20.18300 25.91800
C  -1.76500 23.00000 28.34100
C  -0.86900 22.63200 25.07700
O  -0.42300 22.45200 23.92000
C  -0.88000 24.03000 25.48500
N  -1.48100 17.26100 25.16300
C  -1.32800 18.28100 24.34300
C  -1.35900 17.81100 22.84700
C  -1.45100 16.26900 22.95000
C  -1.46600 16.02300 24.44500
C  -2.51500 18.35400 21.96300
C  -0.34000 15.52800 22.20300
C  1.01900 15.45300 22.91000
N  -1.62000 15.45400 27.29700
C  -1.77900 14.46200 26.33400
C  -1.90400 13.13900 26.95800
C  -1.90800 13.47800 28.31200
C  -1.73300 14.87800 28.46600
C  -2.32100 11.82600 26.28000
C  -2.02000 12.88200 29.59100
O  -2.15800 11.70900 29.96000
C  -2.04500 14.00700 30.61600
C  -0.94100 13.74600 31.56000
O  0.23200 13.94900 31.25800
O  -1.43400 13.27400 32.69800
C  -0.35800 12.95400 33.67600
H  -1.51100 20.90200 30.27400
H  -1.06900 20.29500 23.86100
H  -1.69600 13.93100 24.23500
H  -2.97200 16.74600 32.13000
H  -1.02000 19.18700 31.94300
H  -4.04300 19.38700 31.62700
H  -2.90000 20.35800 32.45600
H  -3.63200 18.82100 33.14600
H  -0.07100 16.09900 32.42200
H  -1.52200 15.71600 33.16500
H  -1.17100 18.33800 33.98100
H  0.51400 17.68800 33.98400
H  -1.09000 23.85600 28.31900
H  -2.12400 22.79200 29.34900
H  -2.65800 23.26400 27.77500
H  -0.66700 24.63400 24.60300
H  0.09500 24.18200 25.94900
H  -1.77100 24.37800 26.00700
H  -0.35600 18.01300 22.47200
H  -2.40700 15.97200 22.51900
H  -2.89700 19.22700 22.49200
H  -3.37800 17.72000 21.75700
H  -2.01400 18.69900 21.05800
H  -0.37000 15.96400 21.20500
H  -0.80300 14.54300 22.13600
H  1.10600 14.44500 23.31700
H  0.95900 16.21900 23.68300
H  1.80000 15.58500 22.16200
H  -2.82800 11.14600 26.96400
H  -1.43000 11.29900 25.93900
H  -3.05400 12.17200 25.55100
H  -2.99800 13.92900 31.13900
H  -0.69500 12.59200 34.64700
H  0.28700 13.81100 33.87100
H  0.25900 12.19200 33.20000
Mg 6.13400 53.30900 41.99000
C  6.07500 49.86600 41.24900
C  9.39300 53.45400 40.72500
C  6.11400 56.66800 42.35600
C  2.65100 53.12500 42.73000
N  7.42900 51.87000 40.87000
C  7.23400 50.49500 40.81500
C  8.47400 49.78300 40.14400
C  9.52600 50.96200 40.04600
C  8.77700 52.22100 40.64600
C  10.91500 50.91200 40.77700
C  8.38200 49.04600 38.84500
C  7.47900 49.70600 37.70200
H  6.79500 48.86800 36.59700
N  7.55600 54.88500 41.63800
C  8.83000 54.72100 41.14300
C  9.42100 56.03300 40.98500
C  8.58000 57.00000 41.54700
C  7.37400 56.25300 41.94800
C  10.79800 56.20000 40.39300
C  8.99300 58.45000 41.76500
O  10.10200 58.86000 41.40100
C  8.16300 59.36300 42.55100
N  4.58200 54.62700 42.43700
C  4.86700 55.99600 42.61300
C  3.59800 56.76800 42.91700
C  2.49800 55.70000 43.00300
C  3.27700 54.34400 42.76000
C  3.72400 57.60000 44.16500
C  1.24200 55.97200 42.15600
C  1.26500 55.39900 40.70500
N  4.64300 51.83700 42.10200
C  3.26600 51.84700 42.50400
C  2.81700 50.52600 42.58700
C  3.86400 49.66500 42.22300
C  4.95900 50.57100 41.89400
C  1.44200 50.12600 42.84800
C  4.24800 48.28000 41.96900
O  3.64200 47.21400 42.09500
C  5.65400 48.38300 41.19900
C  5.43300 47.82500 39.84800
O  4.84500 48.38500 38.95400
O  5.99800 46.56800 39.77700
C  5.60600 45.57500 38.75700
H  10.39900 53.49700 40.30200
H  5.98800 57.73500 42.54700
H  1.64200 53.10500 43.14600
H  8.83900 49.08100 40.89400
H  9.71600 51.06500 38.97800
H  11.73000 51.14400 40.09200
H  11.17900 49.92400 41.15500
H  11.04900 51.69200 41.52600
H  7.99600 48.04500 39.03700
H  9.36700 49.02400 38.37900
H  8.11100 50.51600 37.33800
H  6.63800 50.18300 38.20500
H  10.69500 57.00000 39.66000
H  11.23900 55.28700 39.99300
H  11.52100 56.60200 41.10300
H  8.69100 60.28500 42.79600
H  7.82400 58.77600 43.40400
H  7.26100 59.58400 41.98000
H  3.40700 57.53800 42.17000
H  2.06400 55.50300 43.98200
H  3.27000 57.02300 44.97100
H  3.22600 58.54900 43.96900
H  4.78800 57.82700 44.24000
H  1.20600 57.05900 42.08500
H  0.37000 55.66200 42.73000
H  0.27500 54.96200 40.57300
H  2.02700 54.64400 40.50900
H  1.34000 56.26400 40.04600
H  1.35700 49.97100 43.92300
H  1.32600 49.21000 42.26800
H  0.66200 50.84500 42.59700
H  6.45000 47.78100 41.63800
H  6.04300 44.59900 38.96700
H  5.68600 45.87500 37.71200
H  4.53900 45.41700 38.91600

