158

Mg 45.36400 4.76800 48.28600
C  43.25300 7.57400 48.17400
C  42.68900 2.83100 47.33700
C  47.47500 2.23600 48.01600
C  48.04900 7.02000 48.39600
N  43.25900 5.17400 47.83100
C  42.57700 6.34400 47.96100
C  41.15000 6.28800 47.47300
C  40.89100 4.73300 47.50300
C  42.37300 4.22900 47.49500
C  39.96200 4.30600 48.60300
C  41.09100 7.11100 46.07400
C  39.71000 7.71600 45.78800
H  39.00100 7.27700 44.47400
N  45.08600 2.73900 47.87500
C  43.90600 2.11900 47.52000
C  44.10000 0.71900 47.45400
C  45.50400 0.48900 47.75600
C  46.11400 1.86700 47.86400
C  42.96700 -0.28800 47.16100
C  46.14000 -0.91500 47.91800
O  45.56300 -1.90800 47.46500
C  47.31100 -1.14900 48.67000
N  47.47800 4.64100 48.01600
C  48.10900 3.47400 48.06600
C  49.62000 3.69000 48.17100
C  49.75900 5.25400 48.17700
C  48.34800 5.68500 48.21100
C  50.32600 3.01000 49.28800
C  50.51400 5.81100 46.92000
C  51.68900 6.68400 47.37300
N  45.67000 6.79900 48.41300
C  46.79700 7.60600 48.43100
C  46.46500 8.96500 48.45100
C  45.09900 8.99700 48.47100
C  44.65600 7.70600 48.33300
C  47.34600 10.12100 48.32900
C  43.95600 9.86200 48.49200
O  43.98200 11.04400 48.51200
C  42.69600 9.03400 48.17500
C  41.61800 9.26600 49.23700
O  41.50500 8.55000 50.21100
O  40.79700 10.30800 48.89100
C  39.96500 10.76000 49.96300
H  41.75000 2.33200 47.09000
H  48.17700 1.41000 47.88300
H  48.92800 7.64700 48.56300
H  40.58200 6.78400 48.26000
H  40.43900 4.33000 46.59700
H  39.61700 5.18600 49.14500
H  40.41900 3.68600 49.37400
H  39.15500 3.69900 48.19200
H  41.17100 6.30700 45.34200
H  41.85100 7.85800 45.84300
H  39.86700 8.78700 45.66000
H  39.06900 7.48900 46.63900
H  42.52600 -0.53200 48.12700
H  43.30700 -1.13400 46.56300
H  42.22400 0.27200 46.59300
H  47.21600 -1.88000 49.47300
H  47.62800 -0.31300 49.29400
H  48.10900 -1.37000 47.96100
H  49.96700 3.17300 47.27600
H  50.26200 5.50600 49.11000
H  50.65000 2.05500 48.87500
H  49.73900 2.83400 50.18900
H  51.23600 3.53900 49.57300
H  49.75800 6.41000 46.41300
H  50.86800 4.96200 46.33600
H  51.99900 6.32200 48.35300
H  51.36800 7.72400 47.43600
H  52.47200 6.55000 46.62600
H  46.77200 10.89400 47.81800
H  48.23100 9.93200 47.72100
H  47.75500 10.37800 49.30600
H  42.25800 9.23300 47.19600
H  39.36100 11.61000 49.64600
H  40.67300 11.25300 50.63000
H  39.40100 9.94800 50.42200
Mg -11.04000 38.62900 41.86300
C  -9.15400 35.74800 40.99300
C  -8.85600 40.48100 39.98200
C  -13.29500 41.24800 41.74100
C  -13.61900 36.44800 43.01700
N  -9.43900 38.02800 40.30000
C  -8.75900 36.83500 40.24600
C  -7.46200 37.02300 39.35900
C  -7.37600 38.60500 39.22700
C  -8.64000 39.12600 39.91600
C  -6.08900 39.20900 39.72900
C  -7.70000 36.26600 37.95700
C  -6.62900 35.28400 37.55300
H  -5.68600 35.92100 36.47700
N  -10.96600 40.61200 41.15600
C  -9.97700 41.15500 40.49500
C  -10.20600 42.60200 40.30500
C  -11.46200 42.85500 40.89000
C  -11.99400 41.51600 41.16300
C  -9.28400 43.50100 39.50700
C  -12.17200 44.20500 40.94300
O  -11.59200 45.24000 40.70800
C  -13.55200 44.35700 41.50300
N  -13.12100 38.75200 42.11000
C  -13.81700 39.96800 42.08800
C  -15.28200 39.78500 42.46800
C  -15.40500 38.32100 42.79300
C  -13.92700 37.81200 42.68900
C  -15.67400 40.77700 43.61200
C  -16.17900 37.44500 41.80600
C  -17.19900 36.44200 42.45600
N  -11.36100 36.48300 42.03900
C  -12.33800 35.78500 42.70400
C  -11.87000 34.45600 42.94900
C  -10.66700 34.39900 42.36700
C  -10.37900 35.62300 41.73400
C  -12.64800 33.44200 43.72200
C  -9.59800 33.59800 41.97300
O  -9.41000 32.38900 42.14700
C  -8.55000 34.38100 41.07200
C  -7.16000 34.34000 41.75000
O  -6.37300 33.41800 41.59200
O  -6.86900 35.58000 42.34400
C  -5.52400 35.75700 42.83900
H  -8.24700 41.03600 39.26600
H  -14.07600 42.00800 41.81700
H  -14.40600 35.85600 43.48900
H  -6.62400 36.54200 39.86500
H  -7.45300 38.95000 38.19600
H  -6.25300 39.89700 40.55800
H  -5.59700 39.77900 38.94000
H  -5.30000 38.47700 39.90600
H  -7.89800 37.05800 37.23500
H  -8.56600 35.61900 38.10100
H  -6.96500 34.32900 37.14900
H  -5.98500 34.90800 38.34900
H  -9.90600 44.21400 38.96600
H  -8.77200 42.85100 38.79700
H  -8.62400 44.08200 40.15200
H  -13.82700 45.41100 41.45400
H  -13.68200 44.06700 42.54600
H  -14.11300 43.77700 40.77100
H  -16.01900 40.06100 41.71400
H  -15.84200 38.15900 43.77800
H  -15.94300 41.74600 43.19200
H  -14.85600 40.97700 44.30400
H  -16.52000 40.46300 44.22400
H  -15.49400 36.82000 41.23300
H  -16.73400 38.07300 41.10900
H  -18.23400 36.73400 42.28000
H  -17.06900 36.51000 43.53600
H  -17.05300 35.44300 42.04600
H  -13.64400 33.25100 43.32200
H  -12.76000 34.02400 44.63600
H  -11.99500 32.58000 43.85800
H  -8.39200 33.86700 40.12400
H  -5.55900 36.44400 43.68400
H  -4.79500 36.06500 42.08900
H  -5.22000 34.80600 43.27800

