158

Mg 9.01800 4.81200 27.17100
C  10.43200 3.11600 29.90200
C  6.93800 6.45200 29.28000
C  7.50900 5.95400 24.45200
C  10.60200 2.33800 25.12400
N  8.70200 4.80300 29.31600
C  9.55200 4.19700 30.23800
C  9.20900 4.57600 31.65100
C  8.03500 5.67600 31.37900
C  7.81000 5.54200 29.89000
C  6.79900 5.35700 32.25500
C  10.42700 5.09400 32.52200
C  10.10300 5.83200 33.83600
H  10.82500 5.48100 35.14100
N  7.55800 6.19200 26.88700
C  6.76800 6.74800 27.90800
C  5.75600 7.52200 27.29100
C  6.01400 7.53700 25.82500
C  7.09100 6.53000 25.69000
C  4.58300 8.17600 28.09100
C  5.26300 8.26800 24.69300
O  5.49700 8.05500 23.50300
C  4.09000 9.21200 25.05000
N  9.09000 4.25700 25.05300
C  8.43600 5.04400 24.15600
C  8.88000 4.70300 22.71200
C  9.88000 3.50900 22.93400
C  9.79300 3.27400 24.46000
C  7.57700 4.38100 21.84600
C  11.45100 3.75200 22.43400
C  12.16300 2.76100 21.47000
N  10.18700 3.08400 27.45000
C  10.77300 2.26200 26.46400
C  11.68900 1.30900 27.14100
C  11.54000 1.60600 28.48300
C  10.63700 2.62000 28.62000
C  12.60400 0.30100 26.55600
C  11.82600 1.21300 29.87300
O  12.46200 0.28300 30.29700
C  11.24200 2.33300 30.79600
C  10.39800 1.73700 31.87500
O  9.31300 1.21400 31.59400
O  11.06000 1.72200 33.07600
C  10.36100 0.94500 34.08900
H  6.34100 6.95400 30.04400
H  7.09100 6.38600 23.54000
H  11.03800 1.59700 24.45000
H  8.79500 3.76900 32.25500
H  8.55100 6.60600 31.61800
H  5.90200 5.45100 31.64200
H  6.60400 6.12600 33.00200
H  6.80100 4.35700 32.68700
H  10.96200 5.77100 31.85600
H  11.00000 4.22300 32.84000
H  9.03400 5.63600 33.92800
H  10.40500 6.86500 33.66500
H  4.48600 7.78100 29.10300
H  3.66400 7.95500 27.54900
H  4.76500 9.24200 28.22200
H  3.22800 8.70700 25.48500
H  3.93200 9.83300 24.16900
H  4.44000 9.94500 25.77600
H  9.48700 5.47900 22.24700
H  9.53300 2.59900 22.44500
H  7.81800 3.64800 21.07500
H  7.27400 5.28600 21.32000
H  6.75500 4.12600 22.51500
H  12.08100 3.80900 23.32200
H  11.41900 4.70800 21.91100
H  11.47400 2.27800 20.77800
H  12.56000 1.93000 22.05200
H  12.92000 3.27500 20.87800
H  12.67200 0.25600 25.46900
H  12.20000 -0.67200 26.83600
H  13.61700 0.59500 26.82900
H  12.01800 2.93400 31.27100
H  10.01800 -0.04400 33.78700
H  9.67600 1.49600 34.73300
H  11.18000 0.61500 34.72800
Mg 50.04600 35.44700 26.78200
C  47.57800 34.11900 28.85400
C  49.90100 38.37700 28.64500
C  52.09400 36.84100 24.46000
C  49.82400 32.50600 24.73800
N  48.91100 36.12100 28.56700
C  48.00500 35.37100 29.29300
C  47.64000 35.99600 30.60500
C  48.04500 37.49200 30.29700
C  49.13200 37.32400 29.22800
C  46.86700 38.44000 29.92600
C  48.28900 35.40900 31.85100
C  47.55100 35.12400 33.10600
H  47.77300 36.07300 34.33000
N  50.85300 37.27100 26.61200
C  50.67400 38.33900 27.48200
C  51.37500 39.49500 26.94600
C  52.12700 39.07700 25.79600
C  51.68500 37.69300 25.54100
C  51.41400 40.87000 27.66300
C  53.10100 39.88500 24.92700
O  53.50500 39.43300 23.85900
C  53.61500 41.20700 25.42700
N  50.58100 34.82600 24.69000
C  51.67200 35.47800 24.09300
C  52.22200 34.70800 22.86000
C  51.57600 33.27500 23.02400
C  50.61300 33.53300 24.26500
C  52.02600 35.23300 21.50600
C  52.57700 32.10100 23.35100
C  53.43800 31.62400 22.23700
N  49.04700 33.59800 26.84700
C  49.00000 32.57200 25.90600
C  48.09500 31.57000 26.32800
C  47.44300 32.13700 27.46800
C  48.06100 33.37200 27.69200
C  47.91500 30.20000 25.69600
C  46.51600 31.89700 28.49700
O  45.72700 30.94200 28.77900
C  46.52200 33.12200 29.37900
C  46.76400 32.69600 30.79400
O  47.82900 32.36100 31.18400
O  45.58600 32.65000 31.55400
C  45.63200 31.72300 32.67800
H  49.82000 39.23700 29.31400
H  52.77400 37.23000 23.69900
H  49.95500 31.52900 24.26700
H  46.56700 35.91200 30.77700
H  48.61000 38.03000 31.05800
H  47.04500 38.85700 28.93500
H  46.79900 39.14700 30.75300
H  45.92900 37.88500 29.91100
H  48.98500 36.20400 32.11800
H  48.98100 34.62200 31.55000
H  47.79400 34.10000 33.38900
H  46.49000 35.08000 32.86000
H  51.27300 41.60600 26.87100
H  52.43500 41.13000 27.94200
H  50.74100 41.17600 28.46400
H  52.88400 42.00000 25.27100
H  54.54300 41.49100 24.93200
H  53.78800 41.12600 26.50100
H  53.29200 34.62900 23.05300
H  51.08000 32.89800 22.13000
H  52.98400 35.41800 21.02100
H  51.53800 36.20800 21.48700
H  51.40100 34.59400 20.88200
H  52.08900 31.19400 23.70900
H  53.12900 32.62400 24.13100
H  53.32600 30.54500 22.13000
H  54.49700 31.87600 22.29400
H  53.01000 32.06200 21.33500
H  48.23400 30.21500 24.65400
H  46.87600 29.90100 25.56300
H  48.35700 29.39900 26.28800
H  45.55500 33.62500 29.37200
H  44.99800 32.19800 33.42600
H  46.62800 31.51700 33.07000
H  45.12700 30.79500 32.41200

