158

Mg 2.39700 -1.65800 44.76600
C  5.63900 -0.41200 44.30300
C  1.19900 0.69700 42.63500
C  -0.64200 -3.33100 44.82500
C  3.87800 -4.47900 46.29300
N  3.34100 -0.01400 43.54800
C  4.61800 0.33500 43.59000
C  4.91100 1.57500 42.75000
C  3.44000 2.08400 42.37800
C  2.60400 0.88500 42.88600
C  2.98900 3.45300 43.01200
C  5.67800 1.19100 41.34100
C  6.84600 2.15800 40.93700
H  6.34900 3.32400 40.05300
N  0.47600 -1.29600 44.03600
C  0.26500 -0.32500 43.08100
C  -1.14600 -0.33600 42.82700
C  -1.74400 -1.45300 43.51000
C  -0.64600 -2.04800 44.22700
C  -1.84500 0.78200 42.07600
C  -3.21700 -1.77000 43.48900
O  -4.01600 -1.22100 42.75400
C  -3.80000 -2.76200 44.30700
N  1.67200 -3.59800 45.61800
C  0.39200 -4.02800 45.48100
C  0.36100 -5.52200 45.97300
C  1.85100 -5.84000 46.34500
C  2.51000 -4.53100 46.09600
C  -0.71900 -6.00000 47.04200
C  2.42200 -7.06900 45.52800
C  1.48300 -8.21700 45.33200
N  4.36200 -2.32700 45.31200
C  4.77100 -3.46600 45.91700
C  6.24600 -3.37600 46.06100
C  6.61900 -2.19200 45.44000
C  5.46100 -1.57000 44.99900
C  7.18600 -4.49100 46.62000
C  7.77500 -1.42100 45.06000
O  8.97200 -1.55000 45.30300
C  7.19300 -0.22900 44.20800
C  7.58200 1.00500 44.84200
O  7.06400 1.47400 45.85900
O  8.42500 1.70600 44.07200
C  8.61700 3.06900 44.54200
H  0.72100 1.52400 42.10700
H  -1.56300 -3.90500 44.70800
H  4.33000 -5.33600 46.79600
H  5.47600 2.34000 43.28400
H  3.40700 2.06300 41.28800
H  3.92800 3.95200 43.25100
H  2.41100 3.33100 43.92800
H  2.43200 4.12400 42.35800
H  5.06900 1.30200 40.44400
H  6.12500 0.20800 41.49300
H  7.80500 1.75800 40.60900
H  7.09600 2.63800 41.88400
H  -2.77300 0.51500 41.57000
H  -1.17300 1.20500 41.32800
H  -2.18400 1.49700 42.82500
H  -4.88300 -2.66100 44.36600
H  -3.32200 -2.46600 45.24100
H  -3.51100 -3.78800 44.08000
H  0.08400 -6.02200 45.04500
H  2.03400 -5.99500 47.40800
H  -1.07500 -5.14300 47.61400
H  -0.22700 -6.75200 47.65800
H  -1.51400 -6.49300 46.48200
H  3.32800 -7.41600 46.02600
H  2.85100 -6.80200 44.56300
H  0.70100 -8.22700 46.09200
H  2.03000 -9.15400 45.43700
H  1.04000 -8.30000 44.34000
H  7.31200 -4.68600 47.68500
H  8.17000 -4.32200 46.18200
H  6.76400 -5.38500 46.16100
H  7.47100 -0.22300 43.15400
H  9.01700 3.13300 45.55400
H  7.69000 3.63500 44.45100
H  9.30200 3.58300 43.86700
Mg 24.35100 -4.61400 45.98600
C  26.43600 -2.38800 44.48400
C  21.84100 -3.73700 43.66300
C  22.47300 -7.24800 46.96500
C  27.01300 -5.80800 47.94300
N  24.17600 -3.24800 44.20100
C  25.13500 -2.30200 43.96200
C  24.64700 -1.29600 42.92800
C  23.10200 -1.57300 42.78700
C  23.01700 -2.92200 43.60000
C  22.22200 -0.51700 43.45900
C  25.42300 -1.36300 41.54000
C  25.51000 -0.03000 40.82700
H  24.69900 0.01600 39.55200
N  22.33000 -5.31500 45.47600
C  21.48400 -4.82000 44.56600
C  20.23000 -5.47400 44.66400
C  20.40700 -6.61200 45.42700
C  21.85900 -6.44100 45.97800
C  19.00700 -5.07700 43.96900
C  19.44900 -7.74800 45.67500
O  18.31100 -7.67600 45.28400
C  19.82300 -9.03300 46.32800
N  24.74700 -6.43800 47.12100
C  23.77500 -7.24100 47.47100
C  24.30300 -8.39500 48.29600
C  25.59400 -7.78100 48.87000
C  25.91300 -6.62600 47.88800
C  23.37600 -8.96100 49.39800
C  26.76100 -8.85400 48.94700
C  27.77300 -9.05100 50.09500
N  26.28800 -4.24400 46.22300
C  27.23500 -4.71300 47.10200
C  28.45300 -3.93000 46.96900
C  28.18100 -3.05800 45.90600
C  26.87300 -3.26600 45.48400
C  29.59800 -4.03900 47.88600
C  28.80000 -1.92200 45.16600
O  29.90000 -1.31600 45.19800
C  27.65100 -1.48400 44.20300
C  27.40200 -0.06300 44.54000
O  27.23000 0.35700 45.68100
O  27.67900 0.71300 43.46500
C  27.82700 2.10800 43.79900
H  20.93900 -3.37400 43.16600
H  21.89500 -8.05500 47.42000
H  27.73700 -6.14000 48.69000
H  24.75900 -0.33300 43.42500
H  22.74600 -1.79000 41.78100
H  22.75500 0.33600 43.87800
H  21.71700 -0.90900 44.34300
H  21.44900 -0.10300 42.81200
H  24.88500 -2.11500 40.96400
H  26.36100 -1.87300 41.76100
H  26.57800 0.13500 40.68300
H  25.12600 0.76500 41.46500
H  19.02500 -5.68400 43.06400
H  18.88700 -4.03500 43.67100
H  18.06600 -5.46800 44.35600
H  19.78600 -8.93200 47.41300
H  20.84300 -9.31700 46.06700
H  19.02000 -9.72300 46.06900
H  24.57700 -9.26900 47.70600
H  25.33200 -7.27600 49.80000
H  22.41400 -8.45000 49.36700
H  23.72400 -8.78200 50.41500
H  23.35400 -10.03800 49.22700
H  27.39100 -8.77700 48.06100
H  26.25200 -9.81400 48.85600
H  27.64900 -10.10300 50.35100
H  27.63000 -8.23500 50.80400
H  28.81100 -8.88700 49.80400
H  29.35100 -4.46300 48.86000
H  29.85000 -3.06200 48.29600
H  30.51200 -4.36600 47.39100
H  28.01200 -1.50500 43.17500
H  27.71900 2.74900 42.92400
H  28.71500 2.38700 44.36600
H  26.97600 2.39600 44.41700

