158

Mg 8.39300 3.45700 28.05500
C  9.87300 2.14600 30.85900
C  6.32300 5.38500 30.07000
C  6.74800 4.49000 25.18900
C  10.23400 1.26800 26.01900
N  8.18700 3.73700 30.23600
C  8.94100 3.13000 31.16400
C  8.62800 3.74800 32.62700
C  7.36800 4.56300 32.38300
C  7.32700 4.61300 30.78900
C  6.11400 3.92700 32.96600
C  9.86900 4.65200 33.02000
C  10.57000 4.19900 34.32500
H  10.72500 5.22000 35.41300
N  6.80900 4.81400 27.68900
C  6.09300 5.48400 28.64400
C  5.16200 6.33100 27.98300
C  5.27200 6.09500 26.58700
C  6.29100 5.02800 26.45000
C  4.31900 7.25500 28.82500
C  4.56500 6.81700 25.41300
O  4.84600 6.58200 24.23500
C  3.70400 7.93300 25.80200
N  8.40300 2.98600 25.92200
C  7.59500 3.44000 24.95700
C  7.96000 2.92700 23.53600
C  9.24000 2.07900 23.79300
C  9.30400 2.15100 25.33900
C  6.84200 2.16300 22.83700
C  10.58900 2.46100 23.18200
C  11.29800 1.33200 22.27200
N  9.76700 2.01100 28.30300
C  10.39600 1.19100 27.39200
C  11.32900 0.35700 28.12300
C  11.21400 0.73000 29.45500
C  10.22900 1.70000 29.54000
C  11.91400 -0.88600 27.60200
C  11.70500 0.45000 30.74000
O  12.50700 -0.39000 31.13100
C  10.88500 1.41000 31.72300
C  10.31900 0.44800 32.72900
O  9.31800 -0.22500 32.61800
O  11.05100 0.57600 33.85700
C  10.34700 0.23200 35.12800
H  5.72300 5.98300 30.75900
H  6.12300 4.73700 24.32800
H  10.75000 0.58100 25.34400
H  8.44200 2.96700 33.36300
H  7.44400 5.55500 32.82800
H  6.37900 3.03800 33.53900
H  5.28500 3.72000 32.29000
H  5.74400 4.58400 33.75400
H  9.45100 5.65500 33.10300
H  10.60800 4.70500 32.22100
H  11.42500 3.53500 34.20000
H  9.83000 3.67400 34.93000
H  4.68600 8.25000 28.57500
H  4.20800 7.08900 29.89700
H  3.30700 7.08200 28.46000
H  2.76500 7.54700 26.19600
H  3.48400 8.46700 24.87800
H  4.04000 8.75700 26.43300
H  8.27400 3.79400 22.95500
H  9.13000 1.06400 23.40900
H  5.98500 1.86500 23.44000
H  7.19700 1.29500 22.28200
H  6.32100 2.81900 22.13800
H  11.24400 2.76500 23.99800
H  10.43600 3.32500 22.53600
H  11.22700 1.58000 21.21300
H  10.85200 0.34800 22.41200
H  12.36600 1.20100 22.44100
H  11.24800 -1.53500 27.03300
H  12.33800 -1.51400 28.38500
H  12.77300 -0.66100 26.97000
H  11.62800 2.08700 32.14600
H  10.28300 -0.85500 35.19100
H  9.44500 0.81200 35.32200
H  10.98800 0.57900 35.93700
Mg 47.56200 25.18600 28.37700
C  48.49700 27.53000 30.79200
C  46.68800 23.05500 31.01200
C  46.96400 22.86600 26.16300
C  48.68800 27.26400 25.87300
N  47.56500 25.36300 30.57700
C  47.96300 26.38900 31.34000
C  47.67400 26.22200 32.83500
C  47.10300 24.72800 32.85600
C  47.10800 24.36600 31.35200
C  47.87700 23.78000 33.70800
C  46.78500 27.29400 33.45900
C  46.02000 26.83200 34.68200
H  45.88100 27.80500 35.88000
N  46.88600 23.29700 28.53800
C  46.55700 22.61900 29.64800
C  45.98300 21.32600 29.29100
C  46.15900 21.16200 27.88100
C  46.66800 22.48100 27.47400
C  45.38100 20.35400 30.33300
C  45.85800 19.91800 27.06600
O  46.14700 19.84400 25.86100
C  45.30200 18.70900 27.62800
N  47.76900 25.12100 26.25700
C  47.38400 24.04900 25.56900
C  47.80900 24.24300 24.07500
C  48.02100 25.80200 23.93200
C  48.10500 26.13400 25.44800
C  49.07900 23.36200 23.87000
C  46.97400 26.54800 23.07800
C  47.10300 26.63400 21.51200
N  48.36500 27.04300 28.33900
C  48.84700 27.70600 27.23100
C  49.48300 28.84100 27.73600
C  49.39400 28.86500 29.13000
C  48.65600 27.74600 29.40800
C  50.21800 29.83800 26.87600
C  49.67100 29.56800 30.35900
O  50.23400 30.67500 30.53700
C  49.09800 28.68100 31.51600
C  50.35300 28.21200 32.23300
O  51.12100 27.34400 31.86600
O  50.49700 28.86600 33.41100
C  51.58800 28.50800 34.30400
H  46.35700 22.54000 31.91600
H  46.88600 22.07400 25.41500
H  48.90800 27.96500 25.06600
H  48.68100 26.33900 33.23500
H  46.05300 24.70100 33.14700
H  48.25800 22.94100 33.12500
H  47.25500 23.40400 34.52000
H  48.70900 24.27600 34.20700
H  46.04600 27.64900 32.74100
H  47.39000 28.15300 33.74900
H  46.45500 25.93600 35.12400
H  44.97100 26.67900 34.43000
H  45.91300 19.40300 30.31600
H  44.32300 20.22400 30.10500
H  45.44300 20.77900 31.33500
H  45.75000 18.26000 28.51400
H  45.35300 17.95500 26.84200
H  44.29200 19.09800 27.75400
H  47.05400 23.91300 23.36200
H  48.99900 26.09200 23.54900
H  49.99400 23.94000 23.74000
H  48.82400 22.76300 22.99600
H  49.37400 22.69400 24.67900
H  47.02200 27.55100 23.50100
H  46.00400 26.19100 23.42500
H  47.79500 25.89800 21.10300
H  47.41200 27.66800 21.35800
H  46.17000 26.29000 21.06500
H  49.60400 30.73600 26.80400
H  50.45700 29.53800 25.85600
H  51.17400 30.05600 27.35200
H  48.28300 29.17500 32.04500
H  51.24200 27.60700 34.81000
H  51.64100 29.32400 35.02500
H  52.56300 28.32200 33.85300

