158

Mg -2.41300 17.05200 26.07700
C  -2.90200 14.76500 28.83900
C  -2.90300 19.57500 28.26800
C  -2.48700 18.92200 23.41400
C  -2.65600 14.06200 23.98900
N  -2.97600 17.14700 28.30600
C  -2.97300 16.15300 29.25200
C  -3.13900 16.73600 30.66600
C  -3.18000 18.27100 30.45000
C  -3.01800 18.38100 28.89700
C  -4.55400 18.87800 30.87600
C  -1.96800 16.45800 31.68300
C  -1.81000 17.24000 33.01100
H  -2.00100 16.49500 34.26000
N  -2.55900 18.97900 25.89400
C  -2.67600 19.88500 26.87800
C  -2.53800 21.22400 26.29100
C  -2.44800 21.06200 24.92800
C  -2.45300 19.59700 24.68300
C  -2.52600 22.51500 27.16200
C  -2.21500 22.09600 23.75000
O  -2.19900 21.93200 22.56400
C  -2.08400 23.47300 24.21800
N  -2.44000 16.58100 23.97200
C  -2.38900 17.55300 23.07500
C  -2.32500 16.95900 21.67800
C  -2.20900 15.47700 21.92400
C  -2.42700 15.33900 23.42500
C  -3.57900 17.35400 20.79600
C  -0.89800 14.84400 21.38300
C  0.33700 14.98900 22.26200
N  -2.73700 14.80100 26.22800
C  -2.87400 13.80300 25.29600
C  -2.99600 12.52000 26.04200
C  -3.02400 12.80900 27.40100
C  -2.82300 14.20700 27.48900
C  -2.98900 11.10600 25.39800
C  -3.12900 12.25000 28.72600
O  -3.19700 11.10500 29.10600
C  -3.03800 13.51100 29.72800
C  -1.86900 13.26900 30.61900
O  -0.76700 13.77200 30.37700
O  -2.28800 12.49800 31.65100
C  -1.33700 12.11500 32.68700
H  -3.05500 20.46400 28.88500
H  -2.48200 19.48100 22.47600
H  -2.77200 13.19400 23.33700
H  -4.12500 16.47600 31.05000
H  -2.32200 18.80700 30.85400
H  -4.23300 19.71900 31.49000
H  -5.22300 18.26200 31.47700
H  -5.20300 19.28000 30.09800
H  -1.05200 16.64000 31.12200
H  -2.08300 15.41400 31.97600
H  -2.52400 18.06200 32.96500
H  -0.82700 17.69800 32.90600
H  -2.41700 22.26200 28.21700
H  -3.42300 23.08000 26.91200
H  -1.62000 23.08800 26.96400
H  -2.89000 23.75400 24.89600
H  -2.16300 24.13100 23.35200
H  -1.11600 23.54300 24.71300
H  -1.44400 17.33900 21.16200
H  -3.00100 14.87800 21.47400
H  -4.16900 18.20800 21.12900
H  -4.40400 16.64900 20.89800
H  -3.16900 17.35400 19.78600
H  -0.59400 15.31600 20.44900
H  -1.10400 13.78200 21.25100
H  0.00200 15.30700 23.24900
H  1.02700 15.74500 21.88700
H  0.84300 14.03300 22.39000
H  -4.01800 10.88500 25.11500
H  -2.63600 10.40100 26.15000
H  -2.21300 11.08100 24.63300
H  -3.94000 13.54300 30.33800
H  -1.66700 11.24500 33.25300
H  -1.11900 12.92000 33.38900
H  -0.35200 11.80100 32.34100
Mg -9.96400 17.18100 42.52200
C  -6.47900 16.79600 42.28400
C  -9.51500 20.43100 41.63300
C  -13.30500 17.50800 42.39300
C  -10.17200 13.69700 42.67800
N  -8.05200 18.44800 41.97000
C  -6.78700 18.12100 41.97000
C  -5.89300 19.39800 41.62700
C  -6.90600 20.60700 41.54600
C  -8.27800 19.82300 41.78900
C  -6.62500 21.89700 42.35400
C  -5.05300 19.21500 40.38500
C  -5.56700 18.20800 39.27600
H  -4.88100 18.50100 37.85900
N  -11.29200 18.76400 42.18100
C  -10.85700 19.98800 41.82300
C  -12.05300 20.80200 41.56400
C  -13.25600 20.05800 41.86900
C  -12.69200 18.74000 42.27000
C  -11.90300 22.19000 41.00100
C  -14.72600 20.48700 41.82700
O  -15.13900 21.58900 41.37000
C  -15.86300 19.59800 42.20900
N  -11.47200 15.72200 42.29000
C  -12.81700 16.18100 42.33800
C  -13.75200 14.93800 42.63800
C  -12.72600 13.81700 42.59000
C  -11.36400 14.43500 42.56600
C  -14.47100 15.12300 44.05800
C  -12.97500 12.73700 41.45500
C  -13.04300 11.23600 41.87900
N  -8.60300 15.52900 42.65400
C  -8.86900 14.15900 42.74400
C  -7.66100 13.41800 42.82900
C  -6.68100 14.41400 42.74100
C  -7.25500 15.69300 42.54500
C  -7.46600 11.94300 42.88100
C  -5.32600 14.63600 42.71500
O  -4.30000 13.91300 42.73000
C  -5.15800 16.16800 42.49300
C  -4.31700 16.65900 43.71000
O  -3.15700 17.02900 43.60800
O  -5.09600 16.72100 44.83400
C  -4.52400 17.60600 45.86700
H  -9.26600 21.47200 41.41600
H  -14.38000 17.33200 42.47600
H  -10.30900 12.61700 42.76500
H  -5.25900 19.58500 42.49300
H  -6.90500 20.93900 40.50800
H  -5.59500 21.90300 42.71200
H  -7.28000 21.92200 43.22500
H  -6.79600 22.69800 41.63500
H  -4.00000 19.14700 40.66000
H  -4.96800 20.10300 39.75800
H  -6.65400 18.15700 39.20500
H  -5.25900 17.19900 39.54900
H  -11.16200 22.09700 40.20700
H  -11.40700 22.93900 41.61800
H  -12.89900 22.44400 40.63800
H  -15.99100 18.87400 41.40400
H  -16.74900 20.19500 42.42300
H  -15.61000 19.14300 43.16700
H  -14.47500 14.88800 41.82400
H  -12.63000 13.29400 43.54100
H  -14.45000 14.16800 44.58300
H  -15.44300 15.48100 43.71700
H  -13.93300 15.85600 44.65900
H  -12.19000 12.89600 40.71600
H  -13.90400 13.02900 40.96500
H  -13.98500 10.71700 41.69800
H  -12.76500 11.07600 42.92100
H  -12.23300 10.70700 41.37700
H  -8.34900 11.34300 42.66000
H  -6.96400 11.56200 43.77000
H  -6.66400 11.66300 42.20000
H  -4.62300 16.48300 41.59700
H  -3.85900 18.34200 45.41500
H  -4.03000 17.12900 46.71300
H  -5.24300 18.25700 46.36400

