158

Mg 17.54700 -0.97200 26.68600
C  16.70400 1.18200 29.41100
C  19.56100 -2.63100 28.86700
C  18.44800 -2.95600 24.14000
C  15.91800 1.24700 24.54200
N  17.92600 -0.79200 28.88900
C  17.51700 0.12400 29.78200
C  18.00000 -0.13000 31.21600
C  19.16000 -1.15700 30.92500
C  18.90300 -1.59000 29.46400
C  20.58800 -0.57500 31.09500
C  16.89900 -0.69900 32.13200
C  16.78000 -0.03200 33.47000
H  17.91200 0.68700 34.15900
N  18.78700 -2.65600 26.52300
C  19.43400 -3.18500 27.55000
C  20.16200 -4.42600 27.12400
C  19.95900 -4.43200 25.68600
C  18.99500 -3.32600 25.39000
C  20.89300 -5.37300 28.02300
C  20.45100 -5.51700 24.68600
O  20.23800 -5.44700 23.47700
C  21.20100 -6.68300 25.25300
N  17.32100 -0.78000 24.63200
C  17.69600 -1.81200 23.75600
C  17.42400 -1.42900 22.33100
C  16.36200 -0.34200 22.53200
C  16.60200 0.21900 24.00700
C  18.87800 -0.98900 21.75100
C  14.87700 -0.64800 22.24900
C  14.13900 -1.42300 23.42000
N  16.57600 0.90400 26.86000
C  15.85900 1.53200 25.91800
C  15.06100 2.54000 26.52500
C  15.37000 2.48900 27.89000
C  16.32700 1.50000 28.02200
C  14.27000 3.59400 25.77800
C  15.07500 3.08000 29.18600
O  14.32100 4.01200 29.50700
C  15.91400 2.27000 30.24800
C  16.77800 3.12900 31.07000
O  17.84400 3.58000 30.69100
O  16.23900 3.34000 32.30400
C  16.89600 4.44700 33.00000
H  20.17500 -3.30400 29.47000
H  18.72100 -3.53100 23.25200
H  15.29600 1.81500 23.84700
H  18.34400 0.75300 31.75500
H  19.03200 -2.00900 31.59300
H  20.53500 0.34300 31.67900
H  21.20200 -0.42600 30.20700
H  21.06800 -1.28000 31.77400
H  17.22900 -1.71300 32.35700
H  16.00500 -0.58200 31.52000
H  16.52800 -0.87600 34.11300
H  15.87700 0.57600 33.42500
H  21.92400 -5.45800 27.68100
H  20.47900 -6.38100 27.98000
H  20.87900 -4.93000 29.01900
H  20.64500 -7.20300 26.03300
H  22.18200 -6.33100 25.57300
H  21.32600 -7.29800 24.36200
H  17.03700 -2.25800 21.73800
H  16.64200 0.43800 21.82400
H  18.87200 0.09500 21.63700
H  19.18300 -1.51500 20.84600
H  19.73700 -1.14400 22.40400
H  14.74600 -1.19800 21.31700
H  14.38400 0.28100 21.96300
H  14.59000 -1.20200 24.38700
H  14.10500 -2.47800 23.14600
H  13.10900 -1.06700 23.38600
H  14.85100 4.07500 24.99200
H  13.88400 4.29800 26.51600
H  13.32400 3.21600 25.38900
H  15.19100 1.77700 30.89800
H  16.63100 5.39100 32.52300
H  17.97700 4.44400 32.86200
H  16.58000 4.60500 34.03100
Mg 26.53900 49.95500 26.67300
C  24.51400 51.28100 29.27000
C  28.89800 49.05100 29.02600
C  28.42500 48.82600 24.16500
C  24.19000 51.03000 24.45800
N  26.65700 50.09200 28.91200
C  25.77100 50.69500 29.75600
C  26.12300 50.42900 31.23600
C  27.64500 49.86500 31.08100
C  27.76500 49.62900 29.57200
C  28.80100 50.74600 31.71600
C  25.21000 49.31100 31.76000
C  24.69900 49.36500 33.23000
H  25.44600 49.97100 34.47900
N  28.53900 49.21300 26.59500
C  29.26900 48.81900 27.64500
C  30.41100 48.11100 27.21500
C  30.36100 48.13700 25.78400
C  29.05800 48.70000 25.41700
C  31.49500 47.63400 28.06100
C  31.44200 47.70600 24.78700
O  31.16600 47.85000 23.58700
C  32.82500 47.15000 25.34700
N  26.29500 49.85300 24.60400
C  27.21900 49.29300 23.79200
C  26.74100 49.32100 22.30700
C  25.40500 50.09100 22.49200
C  25.24500 50.30000 23.97800
C  27.76800 50.00400 21.24500
C  24.18700 49.43000 21.80000
C  23.67000 48.14200 22.47700
N  24.69400 50.89800 26.86500
C  23.89200 51.34300 25.82800
C  22.77700 51.97800 26.30400
C  22.91300 51.99300 27.72200
C  24.12200 51.32400 27.92800
C  21.61000 52.51800 25.46000
C  22.29000 52.35600 28.96500
O  21.21800 52.81600 29.20900
C  23.36000 51.93300 30.03500
C  23.77900 53.09100 30.99000
O  24.89100 53.62900 30.93100
O  22.83500 53.30600 31.96400
C  23.28700 54.15600 33.08400
H  29.70600 48.76100 29.70200
H  28.93100 48.41800 23.28700
H  23.46200 51.34300 23.70700
H  26.11100 51.32200 31.86100
H  27.78000 48.94500 31.65000
H  29.47800 51.12200 30.94900
H  29.34900 49.97800 32.26100
H  28.40600 51.58800 32.28400
H  25.51200 48.27600 31.60400
H  24.29800 49.38500 31.16900
H  24.59700 48.33300 33.56800
H  23.71100 49.81700 33.15400
H  31.25800 47.89300 29.09300
H  32.42400 48.13600 27.79300
H  31.51300 46.54700 28.13600
H  33.27200 48.06300 25.73900
H  33.52900 46.73700 24.62500
H  32.77700 46.33500 26.06900
H  26.49400 48.31100 21.98200
H  25.44900 51.07700 22.03000
H  28.76600 50.05700 21.68000
H  27.33900 50.92200 20.84300
H  27.83700 49.23500 20.47500
H  24.49600 49.17000 20.78800
H  23.34100 50.10900 21.69100
H  24.11900 47.95100 23.45200
H  23.80500 47.27400 21.83200
H  22.59600 48.21100 22.65200
H  21.48500 52.21300 24.42100
H  21.78400 53.59400 25.44800
H  20.66600 52.28300 25.95000
H  22.90600 51.16000 30.65500
H  23.93600 53.58900 33.75100
H  22.52900 54.47700 33.79800
H  23.76300 55.06200 32.70900

