158

Mg 36.64300 2.04300 29.58700
C  34.32600 2.96900 32.19300
C  38.98700 1.94600 32.00900
C  38.73900 1.23100 27.14800
C  34.04100 2.59900 27.26700
N  36.63200 2.29700 31.82500
C  35.54400 2.53800 32.71700
C  35.88500 2.67100 34.12400
C  37.47300 2.71100 34.00300
C  37.74000 2.32600 32.46600
C  38.28700 4.02800 34.21700
C  35.25600 1.55800 35.02300
C  34.75200 1.99000 36.40300
H  35.16700 3.32000 37.01000
N  38.67300 1.61100 29.54500
C  39.48500 1.61300 30.66000
C  40.87600 1.19100 30.25000
C  40.74700 0.97000 28.83300
C  39.34200 1.20200 28.41700
C  42.07500 1.04300 31.19300
C  41.80200 0.61700 27.76600
O  41.58400 0.54400 26.52600
C  43.18700 0.33200 28.24000
N  36.41200 2.02300 27.48200
C  37.40300 1.56800 26.62000
C  37.05500 1.63900 25.15100
C  35.46900 1.75000 25.35100
C  35.30300 2.14600 26.79100
C  37.76500 2.87900 24.41400
C  34.64200 0.47400 24.89100
C  33.27000 0.66200 24.09700
N  34.60600 2.57100 29.66000
C  33.70700 2.76100 28.61200
C  32.47600 3.25700 29.17400
C  32.67500 3.36100 30.52300
C  34.00400 2.97600 30.84000
C  31.22600 3.49200 28.37300
C  32.07600 3.68700 31.82300
O  30.97000 4.16100 32.02200
C  33.10200 3.46200 32.97300
C  33.27600 4.76000 33.74700
O  34.05300 5.62100 33.37900
O  32.29800 4.85700 34.73600
C  32.36300 6.08600 35.51500
H  39.66000 2.01500 32.86600
H  39.47700 1.05100 26.36300
H  33.29200 2.83700 26.50900
H  35.49500 3.66000 34.36500
H  38.02000 1.97000 34.58500
H  38.83700 3.88100 35.14600
H  37.60800 4.88000 34.25700
H  39.00700 4.08200 33.40000
H  35.96000 0.76800 35.28400
H  34.40200 1.03400 34.59400
H  35.09400 1.17800 37.04500
H  33.66500 1.94700 36.34000
H  42.84000 1.76000 30.89400
H  42.48300 0.03700 31.08900
H  41.80900 1.10400 32.24900
H  43.83900 -0.10600 27.48400
H  43.03700 -0.40900 29.02600
H  43.45100 1.35700 28.50100
H  37.40600 0.68000 24.77000
H  35.10500 2.63300 24.82600
H  38.28700 2.54300 23.51800
H  38.40400 3.38800 25.13500
H  36.99600 3.57600 24.08200
H  34.39400 0.05800 25.86800
H  35.26900 -0.28700 24.42700
H  33.06700 1.71800 23.91600
H  32.44000 0.15700 24.59100
H  33.41700 0.15600 23.14400
H  31.45600 4.04700 27.46300
H  30.38000 3.88100 28.93800
H  30.84900 2.49100 28.16500
H  32.59200 2.67600 33.53000
H  32.59000 5.71500 36.51400
H  31.37400 6.53000 35.40300
H  33.15200 6.78000 35.22700
Mg 0.90300 43.20600 25.62800
C  2.84100 42.99100 28.50600
C  -1.86100 42.43000 27.73700
C  -0.99400 42.55000 22.88800
C  3.69400 43.29600 23.67300
N  0.49800 43.00300 27.92100
C  1.46600 42.96300 28.87700
C  0.83500 42.74300 30.24800
C  -0.62500 42.54400 29.94500
C  -0.67300 42.63400 28.41900
C  -1.47200 41.41000 30.62200
C  1.17900 43.99600 31.14100
C  1.46600 43.71500 32.59900
H  0.89000 42.45300 33.33700
N  -1.14300 42.77100 25.36300
C  -2.11500 42.58200 26.35100
C  -3.40900 42.69800 25.72300
C  -3.19100 42.67200 24.24100
C  -1.71600 42.59300 24.11000
C  -4.71000 42.83800 26.51100
C  -4.25000 42.69400 23.18500
O  -3.94600 42.66200 22.00300
C  -5.70400 42.73500 23.52500
N  1.32700 42.82000 23.55900
C  0.35700 42.70900 22.60400
C  0.91600 42.97900 21.20900
C  2.47400 43.38300 21.51500
C  2.53600 43.11000 23.01200
C  0.77900 41.85300 20.13400
C  2.91700 44.81500 21.20200
C  4.20000 44.99400 20.49500
N  2.86800 43.27100 25.93100
C  3.89100 43.28000 25.06100
C  5.18400 43.14900 25.73100
C  4.78500 43.08100 27.11000
C  3.40000 43.17700 27.19300
C  6.56000 43.21700 25.12600
C  5.30900 42.91300 28.44300
O  6.45900 42.79100 28.78900
C  4.04600 42.97400 29.40600
C  4.13500 41.74000 30.25100
O  4.34200 40.60300 29.82100
O  3.98800 42.09800 31.59200
C  4.20300 40.99700 32.47100
H  -2.72600 42.32700 28.39600
H  -1.65100 42.45400 22.02100
H  4.59500 43.41300 23.06700
H  1.30800 41.84100 30.63600
H  -1.13500 43.45400 30.25800
H  -2.35500 41.86400 31.07100
H  -0.82400 40.91500 31.34500
H  -1.79000 40.70400 29.85400
H  0.32800 44.67600 31.10800
H  1.91200 44.71300 30.77300
H  1.02900 44.56100 33.13000
H  2.55300 43.76300 32.66200
H  -5.33400 43.66800 26.17900
H  -4.59400 42.82100 27.59500
H  -5.24900 41.93900 26.21400
H  -6.24700 42.87300 22.59000
H  -5.82200 43.67000 24.07300
H  -6.02400 41.86300 24.09600
H  0.37700 43.85600 20.85000
H  3.12800 42.71500 20.95400
H  0.16200 41.01100 20.44900
H  1.74300 41.38100 19.94800
H  0.30800 42.24400 19.23200
H  2.86100 45.38700 22.12800
H  2.13000 45.26000 20.59300
H  4.10100 45.74600 19.71300
H  4.38600 44.13000 19.85700
H  5.04700 45.28200 21.11900
H  6.69000 42.44900 24.36400
H  7.29800 42.92100 25.87200
H  6.81400 44.17100 24.66400
H  4.04800 43.80200 30.11500
H  5.23400 40.64400 32.42600
H  3.58400 40.10000 32.45400
H  4.16700 41.42200 33.47400

