158

Mg 24.82000 -7.29500 47.71600
C  26.97100 -4.88800 46.65000
C  22.74000 -6.57200 45.12400
C  22.77800 -9.85100 48.76400
C  27.48000 -8.79100 49.59700
N  24.82200 -5.77000 46.17200
C  25.78900 -4.96700 45.87700
C  25.55900 -4.13100 44.53400
C  24.15200 -4.65400 44.13800
C  23.86600 -5.78800 45.20100
C  23.03300 -3.49900 44.18600
C  26.70900 -4.57000 43.51000
C  27.50000 -3.32000 42.99900
H  27.30900 -2.97300 41.52000
N  22.94200 -8.15400 47.01100
C  22.29500 -7.70100 45.91900
C  21.05900 -8.36300 45.83500
C  21.01400 -9.34700 46.95200
C  22.27500 -9.18200 47.65700
C  19.87300 -7.96800 44.86800
C  19.75200 -10.24800 47.29900
O  18.81300 -10.25300 46.52100
C  19.79600 -11.22300 48.46100
N  25.12600 -9.01100 48.98600
C  24.02800 -9.80600 49.37500
C  24.41600 -10.83500 50.43200
C  26.02400 -10.77700 50.30900
C  26.25400 -9.41900 49.62400
C  23.96600 -10.52200 51.86200
C  26.73900 -11.94000 49.54900
C  27.42500 -13.04200 50.36900
N  26.79800 -6.90900 48.19200
C  27.77800 -7.61500 48.91900
C  29.00400 -6.78600 48.99600
C  28.71700 -5.69200 48.09300
C  27.39700 -5.82900 47.60600
C  30.31800 -7.09700 49.81800
C  29.24200 -4.52900 47.51500
O  30.34000 -4.05700 47.66700
C  28.23600 -4.01900 46.46200
C  28.10700 -2.54800 46.77400
O  28.69700 -1.68200 46.20900
O  27.20900 -2.32900 47.77200
C  26.83500 -0.88700 47.74300
H  22.11600 -6.45100 44.23600
H  22.09400 -10.53500 49.27000
H  28.27900 -9.39300 50.03500
H  25.40100 -3.06900 44.72200
H  24.13300 -5.22300 43.20800
H  23.41700 -2.52600 44.49000
H  22.40100 -3.89200 44.98200
H  22.38100 -3.40800 43.31700
H  26.30900 -5.08600 42.63700
H  27.30000 -5.33400 44.01500
H  28.56200 -3.49500 43.16800
H  27.34700 -2.39300 43.55000
H  18.84500 -8.01500 45.23000
H  19.95000 -8.42600 43.88200
H  19.96500 -6.89300 44.71900
H  20.63100 -11.88300 48.22700
H  18.94600 -11.90500 48.42700
H  19.89600 -10.74600 49.43600
H  23.93900 -11.76200 50.11500
H  26.46900 -10.65700 51.29700
H  23.98200 -9.43900 51.98700
H  24.44400 -11.02300 52.70400
H  22.95200 -10.91500 51.93400
H  27.56400 -11.45000 49.03200
H  26.04500 -12.30400 48.79200
H  27.28300 -12.91500 51.44200
H  28.49700 -13.11400 50.18800
H  27.10500 -14.02600 50.02700
H  30.80500 -7.95300 49.35000
H  29.98600 -7.48500 50.78100
H  30.93200 -6.19900 49.89300
H  28.60900 -4.10600 45.44200
H  27.37600 -0.32100 48.50200
H  25.78600 -0.76900 48.01700
H  26.87400 -0.37900 46.78000
Mg 48.70500 45.73600 43.21300
C  45.25800 45.16100 42.94800
C  49.20600 42.39200 42.78900
C  52.06900 46.25200 43.11700
C  48.14000 49.09900 43.33100
N  47.37200 44.00600 42.80700
C  45.91300 43.97300 42.85900
C  45.38800 42.50200 42.83400
C  46.74100 41.66900 42.64800
C  47.90000 42.72100 42.79600
C  46.84000 40.41800 43.48900
C  44.29500 42.00700 41.85700
C  44.17600 42.59900 40.43900
H  44.04400 41.78900 39.16100
N  50.40700 44.45100 43.02500
C  50.41500 43.11400 42.81800
C  51.77400 42.55900 42.81800
C  52.64300 43.69100 42.98800
C  51.74300 44.86900 43.04700
C  52.00500 41.07900 42.75900
C  54.14900 43.59700 43.06200
O  54.73400 42.52100 42.89800
C  55.05800 44.81800 43.25400
N  49.92700 47.40000 43.00400
C  51.22300 47.36600 43.08100
C  51.82700 48.76700 43.29200
C  50.58300 49.70500 43.08900
C  49.49700 48.71900 43.22100
C  52.43300 48.92400 44.70600
C  50.59000 50.47600 41.74500
C  50.73500 52.02700 41.85500
N  47.01900 46.98800 42.97400
C  46.98700 48.34300 43.14400
C  45.61000 48.74200 43.21900
C  44.91100 47.52000 43.10300
C  45.82300 46.47700 43.02500
C  44.93100 50.06500 43.37700
C  43.56100 46.93800 42.96000
O  42.49100 47.47800 42.79900
C  43.78200 45.34200 43.04300
C  43.12600 44.78100 44.26400
O  42.28900 43.94400 44.24600
O  43.63900 45.29200 45.42200
C  43.03600 44.92600 46.74600
H  49.33100 41.31000 42.70300
H  53.12600 46.52500 43.13900
H  48.05300 50.17200 43.51300
H  44.90600 42.40200 43.80700
H  46.86900 41.28800 41.63500
H  47.11300 39.62200 42.79700
H  45.85400 40.21700 43.90800
H  47.66200 40.34100 44.20100
H  43.30800 42.13900 42.30000
H  44.48300 40.95800 41.62700
H  45.01800 43.28800 40.37500
H  43.33700 43.29300 40.46300
H  51.84500 40.88700 41.69800
H  51.16700 40.53000 43.18800
H  52.89100 40.65100 43.22700
H  55.05500 45.31600 42.28400
H  56.06100 44.41900 43.40300
H  54.65300 45.52900 43.97500
H  52.62300 48.66000 42.55500
H  50.54700 50.44900 43.88500
H  52.25700 48.09200 45.38700
H  52.01500 49.84400 45.11300
H  53.50000 49.14000 44.76700
H  49.69200 50.31500 41.15000
H  51.44700 50.07500 41.20400
H  50.35300 52.37300 42.81500
H  50.16700 52.51900 41.06400
H  51.78100 52.33100 41.82900
H  44.20000 50.17100 42.57600
H  45.67900 50.85200 43.28100
H  44.48600 50.07900 44.37200
H  43.20000 44.81800 42.28500
H  43.75600 44.46600 47.42300
H  42.23500 44.18800 46.71700
H  42.58100 45.86600 47.06000

