158

Mg 35.62200 2.17900 30.11300
C  33.22800 2.65900 32.72600
C  38.02800 2.69200 32.48500
C  37.92200 1.74300 27.77800
C  33.03400 1.73100 27.94600
N  35.65900 2.51100 32.44000
C  34.50000 2.64700 33.24400
C  34.95400 2.91800 34.71000
C  36.42700 3.28100 34.56300
C  36.74500 2.87200 33.06800
C  36.59300 4.80600 34.75200
C  34.60800 1.67100 35.65100
C  34.28200 1.96000 37.18300
H  35.02200 3.16300 37.82500
N  37.70000 2.15700 30.17500
C  38.51400 2.44200 31.24300
C  39.88600 2.23400 30.83700
C  39.89100 2.01200 29.43300
C  38.42000 1.99200 29.04000
C  41.04200 2.16700 31.84700
C  41.03500 1.78900 28.49700
O  40.96700 1.57100 27.32800
C  42.47000 2.00900 28.93800
N  35.51100 1.78200 28.22600
C  36.56900 1.69900 27.35300
C  36.17800 1.71400 25.94000
C  34.70200 1.31000 26.07300
C  34.36900 1.65300 27.53400
C  36.42700 3.02700 25.19600
C  34.38000 -0.21500 25.76100
C  33.47000 -0.42800 24.57500
N  33.58900 2.28200 30.17000
C  32.67800 2.10400 29.21100
C  31.35800 2.14800 29.73200
C  31.50200 2.37800 31.08900
C  32.87400 2.43800 31.33700
C  30.01700 2.11400 28.92000
C  30.74200 2.67600 32.33500
O  29.48600 2.69700 32.54100
C  31.88100 2.82000 33.46200
C  31.76500 4.17300 34.07600
O  31.55200 5.29200 33.62900
O  31.66800 3.95900 35.44000
C  31.52700 5.21700 36.28500
H  38.76300 2.92800 33.25700
H  38.57600 1.54400 26.92700
H  32.15100 1.65600 27.30700
H  34.46400 3.74400 35.22600
H  37.15200 2.68800 35.12000
H  35.65000 5.33600 34.61400
H  37.34100 5.19000 34.05900
H  36.98300 5.16100 35.70600
H  35.44400 0.99300 35.47600
H  33.70200 1.20700 35.26400
H  34.61500 1.10200 37.76700
H  33.19500 2.04400 37.19100
H  42.01500 2.54000 31.52600
H  41.09700 1.10400 32.08300
H  40.81000 2.61600 32.81200
H  42.72500 3.04300 29.16800
H  43.03400 1.75300 28.04100
H  42.70500 1.27100 29.70600
H  36.69300 0.98600 25.31400
H  33.97400 1.84200 25.46100
H  36.79100 2.73500 24.21100
H  37.16900 3.65800 25.68400
H  35.44700 3.50500 25.20500
H  33.89400 -0.83100 26.51800
H  35.30700 -0.73200 25.51400
H  33.07400 0.48800 24.13600
H  32.75000 -1.20500 24.83300
H  34.04700 -0.91000 23.78500
H  30.02200 3.05800 28.37500
H  29.05300 1.93900 29.39700
H  30.17800 1.23400 28.29700
H  31.80100 2.07000 34.24800
H  30.51900 5.63000 36.26800
H  32.24400 5.98300 35.99100
H  31.70800 5.03400 37.34500
Mg 45.60400 24.96400 28.11600
C  46.88200 27.35300 30.54800
C  44.73500 23.07000 30.67700
C  44.79800 22.80100 25.84200
C  47.05600 27.09400 25.62600
N  45.68900 25.29200 30.28800
C  46.16500 26.30300 31.08400
C  46.12600 25.95500 32.61600
C  45.51700 24.51400 32.61300
C  45.26200 24.23100 31.10100
C  46.51800 23.50000 33.30700
C  45.17800 26.94000 33.40200
C  45.74900 27.47600 34.84100
H  44.69600 27.17400 35.99000
N  44.85100 23.13100 28.27000
C  44.59700 22.48800 29.41400
C  44.15200 21.10100 29.08600
C  44.19300 20.98800 27.66600
C  44.63100 22.32500 27.19100
C  43.84500 20.02800 30.07000
C  43.90800 19.73800 26.77600
O  44.06900 19.85000 25.60000
C  43.32300 18.47000 27.40800
N  46.07400 24.99900 25.99000
C  45.41300 23.96300 25.40200
C  45.49100 24.13600 23.83000
C  46.04600 25.62200 23.72600
C  46.42800 25.94500 25.14400
C  46.31800 23.00900 23.17400
C  45.08100 26.75400 23.16900
C  45.13800 26.96700 21.62200
N  46.73500 26.89700 28.04700
C  47.30000 27.51800 26.99300
C  48.10000 28.64700 27.47900
C  47.90300 28.68300 28.86900
C  47.13500 27.56300 29.17200
C  48.96700 29.43200 26.73100
C  48.32600 29.27800 30.09200
O  49.08100 30.19800 30.37300
C  47.53500 28.55100 31.22000
C  48.58600 28.27600 32.30700
O  49.40000 27.35200 32.30600
O  48.51300 29.19200 33.27500
C  49.19700 28.90900 34.49300
H  44.49100 22.45700 31.54700
H  44.58800 22.05000 25.07800
H  47.49900 27.72000 24.84800
H  47.13600 26.03400 33.02000
H  44.53400 24.47900 33.08200
H  46.78400 22.68900 32.62900
H  46.13900 22.97300 34.18400
H  47.40600 23.99500 33.69800
H  44.23900 26.44700 33.65600
H  44.84000 27.75300 32.76000
H  46.02400 28.53100 34.83600
H  46.54100 26.78800 35.13700
H  44.33300 20.23600 31.02200
H  44.30600 19.11400 29.69600
H  42.78700 19.77200 30.13300
H  42.64400 18.63100 28.24500
H  44.20000 17.89500 27.70500
H  42.83400 17.85600 26.65200
H  44.45200 24.09700 23.50200
H  46.94700 25.58800 23.11300
H  45.61600 22.35300 22.65800
H  46.73400 22.39500 23.97300
H  47.15400 23.43100 22.61600
H  45.34000 27.73900 23.56000
H  44.11800 26.42800 23.56100
H  45.57700 26.11400 21.10500
H  45.61400 27.85900 21.21400
H  44.10300 26.84800 21.30100
H  49.89000 28.86000 26.63900
H  49.15600 30.38100 27.23300
H  48.45300 29.57900 25.78100
H  46.79600 29.26700 31.58000
H  48.96100 27.97400 35.00200
H  49.11300 29.66700 35.27000
H  50.23100 28.69600 34.22400

