158

Mg 9.09900 3.41200 27.38100
C  10.19000 2.09900 30.37900
C  6.87600 5.36300 29.02800
C  7.99300 4.60300 24.34900
C  10.61300 0.75100 25.71900
N  8.52600 3.64700 29.53400
C  9.26400 3.13100 30.61700
C  8.69300 3.71200 31.92200
C  7.42100 4.58500 31.46900
C  7.50700 4.48300 29.92600
C  6.05100 4.17300 32.06200
C  9.81100 4.35000 32.78400
C  9.44700 4.89300 34.13500
H  10.37300 4.64100 35.33200
N  7.70700 4.96500 26.73800
C  6.94300 5.64700 27.63800
C  6.19400 6.57800 26.88700
C  6.45000 6.40300 25.50500
C  7.49700 5.35600 25.40700
C  5.17100 7.52900 27.54400
C  5.94700 7.07400 24.27000
O  6.35500 6.83300 23.09000
C  4.87300 8.04300 24.39800
N  9.30900 2.76500 25.36300
C  8.79800 3.47800 24.24900
C  9.22200 2.76600 22.92400
C  10.01800 1.51900 23.40100
C  9.97600 1.67800 24.92300
C  8.04700 2.48000 22.03700
C  11.40800 1.43800 22.67600
C  11.45800 0.36600 21.55500
N  10.10100 1.72300 27.89900
C  10.74100 0.76900 27.08200
C  11.51700 -0.12000 27.88900
C  11.32100 0.43500 29.15500
C  10.47500 1.55300 29.06600
C  12.37600 -1.24700 27.50800
C  11.82900 0.27600 30.45200
O  12.48600 -0.58100 30.88800
C  11.16600 1.39600 31.33600
C  10.61400 0.79200 32.52600
O  9.61300 0.09900 32.63100
O  11.26200 1.35200 33.56400
C  10.66400 1.01600 34.86800
H  6.23100 6.03500 29.59900
H  7.81300 5.05000 23.37000
H  11.28400 0.13400 25.11800
H  8.37400 2.81200 32.44700
H  7.51400 5.65000 31.68200
H  6.16900 3.60300 32.98300
H  5.47500 3.59900 31.33600
H  5.43900 5.03500 32.32500
H  10.31600 5.03500 32.10300
H  10.56600 3.61300 33.05800
H  8.45700 4.51000 34.38300
H  9.46000 5.98100 34.07200
H  4.16500 7.27100 27.21500
H  5.32500 8.57300 27.27200
H  5.27800 7.50300 28.62900
H  4.52700 8.32100 23.40300
H  5.42600 8.81000 24.94000
H  3.95500 7.78900 24.92800
H  10.00900 3.35000 22.44700
H  9.57000 0.53300 23.28000
H  7.19400 2.57800 22.70700
H  8.14700 1.45400 21.68200
H  8.10000 3.23300 21.25000
H  12.18200 1.11800 23.37400
H  11.74400 2.39100 22.26700
H  11.51100 0.89100 20.60100
H  10.63100 -0.34300 21.51200
H  12.26000 -0.37100 21.60500
H  13.00400 -1.58400 28.33300
H  12.93900 -0.87400 26.65200
H  11.73100 -2.06000 27.17500
H  12.01300 2.04600 31.55800
H  11.47300 0.92900 35.59400
H  10.11000 0.08300 34.96500
H  10.07300 1.88000 35.17200
Mg 48.26400 35.32300 28.45300
C  46.18900 33.94100 30.77400
C  48.47300 38.08300 30.42400
C  49.46600 37.07700 25.82300
C  47.69200 32.64700 26.34600
N  47.52100 35.81600 30.31400
C  46.84000 35.07000 31.13500
C  47.20600 35.46000 32.53300
C  47.45300 36.97700 32.37600
C  47.88500 36.96000 30.90100
C  46.22500 37.85600 32.67800
C  48.45100 34.68100 33.12000
C  48.67000 34.71900 34.64500
H  47.64200 35.54400 35.42000
N  48.87700 37.27500 28.17600
C  48.88000 38.30200 29.14300
C  49.39200 39.49800 28.64300
C  49.77900 39.21100 27.26300
C  49.42400 37.80400 27.01100
C  49.58800 40.80800 29.53700
C  50.40800 40.24700 26.25600
O  50.70700 39.95900 25.06500
C  50.75500 41.67900 26.67400
N  48.40900 34.87800 26.35100
C  49.11900 35.72300 25.55600
C  49.41000 35.14300 24.18500
C  49.09600 33.62800 24.46100
C  48.46100 33.68800 25.86000
C  48.53600 35.84900 23.17100
C  50.33000 32.72100 24.33300
C  50.82900 32.43300 22.90400
N  47.18700 33.53700 28.53900
C  47.05300 32.50500 27.61300
C  46.30700 31.45900 28.15600
C  45.86500 31.94800 29.40200
C  46.48000 33.26200 29.60100
C  45.96500 30.13100 27.61700
C  45.07300 31.69500 30.60600
O  44.36600 30.72700 30.93200
C  45.13700 33.04800 31.41900
C  45.43800 32.62300 32.84000
O  46.43600 32.00700 33.23700
O  44.42700 32.99900 33.63300
C  44.30800 32.43300 35.04900
H  48.42000 38.89900 31.14900
H  49.91400 37.70100 25.04600
H  47.51000 31.85000 25.62200
H  46.30800 35.31200 33.13300
H  48.20100 37.34400 33.07800
H  46.10800 38.09800 33.73500
H  45.40400 37.34500 32.17600
H  46.42200 38.85000 32.27500
H  49.31400 35.10700 32.60700
H  48.35600 33.65500 32.76500
H  49.70900 34.95000 34.88200
H  48.46000 33.70400 34.98100
H  50.41800 41.42800 29.20000
H  49.82200 40.63300 30.58700
H  48.67000 41.39400 29.47900
H  49.80300 42.03700 27.06700
H  51.14100 42.15600 25.77300
H  51.66200 41.63800 27.27600
H  50.43800 35.38600 23.91600
H  48.35100 33.29100 23.74000
H  49.15800 36.51800 22.57700
H  47.65900 36.29900 23.63600
H  48.21500 35.05400 22.49900
H  49.94900 31.75100 24.65200
H  51.06200 33.07200 25.06000
H  50.44000 33.14000 22.17100
H  50.49600 31.48400 22.48500
H  51.91000 32.29400 22.93900
H  44.89700 30.01800 27.42900
H  46.36000 29.31500 28.22300
H  46.51800 29.97700 26.69100
H  44.13000 33.46400 31.43400
H  43.28800 32.09200 35.22700
H  44.63900 33.14400 35.80600
H  44.93300 31.58300 35.32600

