158

Mg 26.37600 0.16900 29.40100
C  28.21800 -0.54600 32.32900
C  23.69500 0.69000 31.18900
C  24.84000 0.96800 26.51900
C  29.24100 -0.79400 27.53200
N  26.03500 -0.02800 31.54100
C  26.91800 -0.13000 32.53400
C  26.17500 0.10100 33.87900
C  24.67800 0.36800 33.52900
C  24.76000 0.21800 31.97900
C  23.72800 -0.63300 34.20300
C  26.90100 1.22200 34.77200
C  26.03000 1.60200 35.99000
H  26.79500 2.20700 37.19900
N  24.45300 0.74200 28.98300
C  23.41000 0.81600 29.83200
C  22.20900 1.13300 29.10200
C  22.54600 1.30600 27.74000
C  24.03400 1.05400 27.72000
C  20.90100 1.07900 29.86300
C  21.67700 1.55300 26.49000
O  22.16100 1.71700 25.35900
C  20.20700 1.47400 26.65000
N  26.99500 -0.01700 27.32500
C  26.12500 0.54800 26.38100
C  26.83500 0.62700 25.00600
C  28.28300 0.06000 25.30700
C  28.16000 -0.34500 26.80900
C  26.12700 -0.25500 23.86000
C  29.37200 1.04100 25.01300
C  30.81600 0.51500 24.64700
N  28.33400 -0.67600 29.77100
C  29.29900 -1.00600 28.89500
C  30.47900 -1.51000 29.61900
C  30.15500 -1.30000 31.03000
C  28.80000 -0.76500 31.02900
C  31.81600 -1.91800 29.08700
C  30.59400 -1.36500 32.42700
O  31.69300 -1.58500 32.92600
C  29.35400 -0.87300 33.29300
C  29.01900 -1.84000 34.28800
O  28.32300 -2.83300 34.12900
O  29.67100 -1.49500 35.42800
C  29.84100 -2.55900 36.47900
H  22.83900 0.99100 31.79700
H  24.50400 1.53600 25.65000
H  30.15700 -1.00700 26.97600
H  26.37500 -0.80800 34.44600
H  24.35000 1.38100 33.76100
H  23.97900 -0.67500 35.26300
H  23.76100 -1.65700 33.83300
H  22.70100 -0.29400 34.06900
H  27.19500 2.11200 34.21600
H  27.82400 0.80900 35.18100
H  25.38800 0.78200 36.31200
H  25.41600 2.37900 35.53500
H  20.25200 0.35000 29.37700
H  20.54300 2.10800 29.85000
H  20.97200 0.78700 30.91100
H  19.90600 0.55400 27.15100
H  19.75900 1.51600 25.65800
H  19.80000 2.34400 27.16600
H  26.81900 1.64400 24.61400
H  28.46400 -0.83900 24.71700
H  25.82600 -1.20800 24.29400
H  26.91000 -0.50100 23.14200
H  25.30700 0.30700 23.41200
H  29.40700 1.74800 25.84200
H  28.99500 1.59800 24.15500
H  31.14800 1.23000 23.89400
H  30.79800 -0.54100 24.38100
H  31.46900 0.53700 25.51900
H  32.05700 -1.20000 28.30200
H  31.95500 -2.93000 28.70800
H  32.52900 -1.55200 29.82500
H  29.72900 -0.02900 33.87200
H  30.66500 -3.10600 36.02100
H  28.96100 -3.19500 36.57600
H  30.21800 -2.17100 37.42400
Mg -2.47900 34.49100 26.74200
C  -3.81700 32.88700 29.50600
C  -1.02700 36.83600 28.81200
C  -1.55800 36.30700 24.04600
C  -3.92800 32.18900 24.67800
N  -2.53200 34.86000 28.95300
C  -2.94400 33.93100 29.82800
C  -2.43600 34.29300 31.25700
C  -1.61800 35.68600 31.03700
C  -1.77500 35.85200 29.48400
C  -2.01100 36.96600 31.84300
C  -1.61000 33.18500 32.09000
C  -2.25600 32.56700 33.31000
H  -1.36400 32.28700 34.47000
N  -1.45500 36.32000 26.51000
C  -0.84000 37.07500 27.44300
C  -0.17700 38.16400 26.80600
C  -0.29500 37.98400 25.36800
C  -1.16600 36.84300 25.31100
C  0.69200 39.12300 27.55100
C  0.26700 38.84600 24.21100
O  0.10400 38.65100 23.01100
C  1.13600 40.10900 24.49900
N  -2.82200 34.35300 24.63700
C  -2.32300 35.19900 23.71500
C  -2.35800 34.63400 22.26900
C  -2.99800 33.22800 22.50700
C  -3.23200 33.22100 24.03100
C  -3.08800 35.31500 21.12600
C  -2.19200 32.02800 21.91900
C  -0.77400 31.79200 22.52200
N  -3.67300 32.85200 26.96400
C  -4.19200 31.97600 26.03400
C  -4.84700 30.90700 26.69000
C  -4.78300 31.19600 28.09200
C  -4.08600 32.43000 28.17300
C  -5.50300 29.72600 26.12700
C  -5.10000 30.83000 29.46900
O  -5.77800 29.85700 29.83900
C  -4.50300 31.92100 30.44400
C  -5.66800 32.55400 31.21900
O  -6.53700 33.35200 30.83500
O  -5.53500 32.16000 32.50600
C  -6.52800 32.75400 33.44100
H  -0.36700 37.42700 29.45000
H  -0.99200 36.72400 23.21100
H  -4.22400 31.38800 23.99800
H  -3.35100 34.70900 31.67700
H  -0.61700 35.46900 31.41000
H  -2.84300 36.79100 32.52600
H  -2.26400 37.75000 31.12900
H  -1.10500 37.34200 32.31800
H  -0.64000 33.60800 32.35000
H  -1.37700 32.38100 31.39200
H  -2.74700 31.61400 33.11400
H  -3.07900 33.15800 33.71100
H  0.83200 40.09700 27.08300
H  1.66700 38.70700 27.80400
H  0.18200 39.34100 28.48900
H  0.70600 40.76300 25.25700
H  1.11700 40.77600 23.63700
H  2.08400 39.67100 24.81200
H  -1.33500 34.41000 21.96600
H  -4.02000 33.16100 22.13400
H  -3.64100 36.12900 21.59600
H  -3.79600 34.60900 20.69300
H  -2.40800 35.69500 20.36300
H  -1.98500 32.17800 20.85900
H  -2.76500 31.11600 22.08800
H  -0.33500 32.69000 22.95900
H  -0.07700 31.50300 21.73500
H  -0.83700 30.95700 23.22000
H  -4.93500 29.21300 25.35000
H  -6.39200 30.08000 25.60500
H  -5.69600 29.02200 26.93600
H  -3.90500 31.36900 31.16800
H  -6.35500 33.77600 33.77700
H  -6.68900 32.07500 34.27800
H  -7.50600 32.85700 32.97000

