158

Mg 8.60300 3.47300 27.73700
C  10.19900 1.96900 30.50100
C  6.44800 5.17400 29.87500
C  6.93400 4.79700 25.05800
C  10.27900 1.33000 25.57400
N  8.20500 3.31900 30.00800
C  9.12400 2.86700 30.94900
C  8.72700 3.44300 32.39300
C  7.51600 4.40800 32.08100
C  7.33200 4.29900 30.56200
C  6.20100 4.22000 32.82300
C  9.81000 4.03700 33.30400
C  9.44700 5.24000 34.29100
H  10.23900 5.13100 35.60700
N  6.86500 4.82900 27.52400
C  6.15900 5.38100 28.49600
C  5.15800 6.32400 27.93700
C  5.32100 6.27200 26.56000
C  6.45600 5.30400 26.29600
C  4.26000 7.14700 28.78700
C  4.65500 6.95000 25.41900
O  4.92600 6.76400 24.26400
C  3.69800 8.08300 25.73900
N  8.64800 3.16400 25.75900
C  7.88300 3.79900 24.78700
C  8.37000 3.62400 23.40500
C  9.46200 2.60100 23.58500
C  9.46700 2.31300 25.09800
C  7.21800 3.29000 22.32500
C  10.86800 3.06000 22.91600
C  11.24600 2.51200 21.53600
N  9.96300 1.92000 27.91100
C  10.59400 1.15600 26.96500
C  11.43700 0.23500 27.65800
C  11.38200 0.62900 28.97300
C  10.43000 1.65000 29.08200
C  12.24600 -0.80900 27.00000
C  11.94300 0.31800 30.27300
O  12.82000 -0.46000 30.53100
C  11.24600 1.26000 31.39400
C  10.60900 0.41300 32.39300
O  9.69200 -0.34500 32.20800
O  11.22200 0.64800 33.57200
C  10.57900 0.18900 34.76900
H  5.86500 5.74500 30.60100
H  6.41200 5.06400 24.13700
H  10.84300 0.80000 24.80300
H  8.19200 2.69500 32.97900
H  7.80500 5.45600 32.15800
H  5.83200 5.21500 33.07600
H  6.44200 3.71200 33.75700
H  5.51500 3.60500 32.24100
H  10.69400 4.23500 32.69700
H  10.13000 3.14000 33.83400
H  8.39600 5.15400 34.56600
H  9.69400 6.16800 33.77600
H  4.44100 8.19200 28.53600
H  4.29400 7.03700 29.87100
H  3.22900 6.98700 28.46900
H  3.27800 8.42900 24.79400
H  4.25300 8.87100 26.24700
H  2.93800 7.58200 26.33800
H  8.82000 4.55300 23.05200
H  9.22900 1.63200 23.14300
H  7.70100 2.87000 21.44200
H  6.68100 4.14500 21.91400
H  6.58100 2.50300 22.72800
H  11.69000 2.65900 23.50800
H  10.90900 4.13500 23.09300
H  11.40000 3.27200 20.77000
H  10.38600 1.90400 21.25600
H  12.18700 1.97500 21.42100
H  13.11000 -1.06500 27.61200
H  12.61100 -0.39800 26.05900
H  11.73000 -1.76400 26.89700
H  12.02600 1.84900 31.87700
H  11.36400 0.34600 35.50900
H  10.31600 -0.85700 34.61300
H  9.72700 0.72700 35.18400
Mg -12.41500 38.89400 42.97500
C  -10.62200 36.13600 41.62700
C  -10.37100 40.96600 41.26500
C  -14.59100 41.35900 43.73700
C  -14.89700 36.48600 44.07900
N  -10.73800 38.55400 41.47300
C  -10.14000 37.39500 41.18500
C  -8.88000 37.63600 40.41900
C  -8.74200 39.18100 40.43300
C  -10.02500 39.64400 41.14000
C  -7.46500 39.78000 41.14400
C  -8.81200 36.94700 39.04700
C  -7.54200 36.02800 38.68400
H  -6.50700 36.59000 37.76000
N  -12.40600 40.90700 42.61700
C  -11.45900 41.57800 41.95400
C  -11.87400 42.96000 41.87000
C  -13.08000 43.11200 42.57100
C  -13.42200 41.78900 43.06800
C  -11.13700 43.97800 40.99300
C  -13.73000 44.45500 42.79400
O  -13.26200 45.49000 42.33300
C  -14.98100 44.62200 43.63100
N  -14.45200 38.92100 43.75700
C  -15.01500 40.09800 44.09200
C  -16.35200 39.84800 44.75100
C  -16.50300 38.28500 44.75500
C  -15.23200 37.79200 44.11900
C  -16.42200 40.53100 46.07400
C  -17.73000 37.76900 44.03800
C  -18.94700 37.43600 44.95600
N  -12.76100 36.76000 42.89000
C  -13.72000 35.94100 43.49300
C  -13.32900 34.51700 43.33600
C  -12.10600 34.58600 42.60500
C  -11.83700 35.92700 42.35400
C  -13.99200 33.28400 43.76000
C  -11.04600 33.81200 42.05800
O  -10.99300 32.58900 41.95200
C  -9.98100 34.75100 41.35400
C  -8.74000 34.57500 41.99300
O  -7.89600 33.90600 41.50000
O  -8.65500 35.34600 43.15800
C  -7.37000 35.25700 43.84700
H  -9.68200 41.69500 40.83400
H  -15.42100 42.03500 43.95200
H  -15.56600 35.81100 44.61800
H  -8.12600 37.25700 41.11000
H  -8.69600 39.68300 39.46600
H  -6.64100 39.08400 41.29900
H  -7.66700 40.25100 42.10600
H  -7.06700 40.46600 40.39600
H  -8.82900 37.65600 38.22000
H  -9.72600 36.39700 38.82600
H  -7.81800 35.09100 38.19900
H  -7.03200 35.86500 39.63300
H  -11.53100 43.87800 39.98200
H  -10.07400 43.73600 41.00300
H  -11.14400 45.00200 41.36700
H  -15.88500 44.29200 43.11800
H  -15.16600 45.60100 44.07400
H  -14.81900 43.91100 44.44100
H  -17.01800 40.29000 44.01100
H  -16.43300 37.84100 45.74800
H  -15.48100 40.94600 46.43500
H  -16.79500 39.85900 46.84700
H  -17.15800 41.32700 45.96200
H  -17.55700 36.80400 43.56000
H  -17.95600 38.47700 43.24100
H  -19.08200 36.36000 44.85100
H  -19.72800 38.11800 44.62000
H  -18.73400 37.59600 46.01300
H  -13.71400 32.40100 43.18400
H  -15.05900 33.46100 43.62300
H  -13.64000 33.05100 44.76500
H  -10.09600 34.64300 40.27500
H  -7.55100 35.38600 44.91400
H  -6.67300 36.02700 43.51600
H  -6.93300 34.25800 43.82900

