158

Mg 8.20300 2.90900 27.42400
C  9.66300 1.52900 30.35500
C  6.30000 4.82000 29.66900
C  6.74100 4.07100 24.70000
C  9.34700 0.16400 25.66300
N  7.94100 3.10700 29.80400
C  8.88000 2.60200 30.69200
C  8.79200 3.24600 32.06300
C  7.56800 4.27800 31.80700
C  7.25300 4.08400 30.36300
C  6.31100 4.05700 32.66100
C  10.08100 3.92600 32.50000
C  10.53700 3.41600 33.92200
H  10.85400 4.46600 35.06800
N  6.83900 4.40100 27.17400
C  6.06700 4.95700 28.22000
C  5.01400 5.76900 27.59100
C  5.30900 5.73600 26.20800
C  6.34500 4.70800 25.95100
C  4.03500 6.61500 28.39100
C  4.64900 6.54000 25.15400
O  4.90700 6.38500 23.99000
C  3.61100 7.57500 25.56600
N  8.16900 2.34400 25.40900
C  7.57100 2.99000 24.46300
C  7.75200 2.25700 23.06400
C  8.50100 0.95800 23.43100
C  8.62400 1.06200 24.96800
C  6.50700 2.14700 22.13800
C  9.93800 0.73100 22.73700
C  10.17200 1.28400 21.31000
N  9.38800 1.29800 27.80800
C  9.75800 0.25700 26.99000
C  10.62200 -0.62400 27.73900
C  10.61400 -0.14600 29.05500
C  9.84400 1.03500 29.02200
C  11.27200 -1.86500 27.12900
C  11.23700 -0.27500 30.35800
O  12.03700 -1.17900 30.70600
C  10.68000 0.84800 31.21000
C  10.08300 0.17400 32.40600
O  9.00300 -0.40300 32.39800
O  10.91800 0.26800 33.47800
C  10.58600 -0.60600 34.57000
H  5.69000 5.50100 30.26500
H  6.21500 4.36100 23.78800
H  9.72400 -0.69500 25.10400
H  8.52500 2.46600 32.77600
H  7.78800 5.34400 31.86200
H  5.61800 3.31200 32.27100
H  5.73400 4.97500 32.77600
H  6.56900 3.71300 33.66300
H  10.04100 5.01300 32.57100
H  10.81200 3.69000 31.72700
H  11.47600 2.88300 33.76900
H  9.83700 2.66700 34.29300
H  4.50500 7.53900 28.72700
H  3.74200 6.03300 29.26500
H  3.11000 6.77000 27.83700
H  2.71100 6.97500 25.70000
H  3.33000 8.21000 24.72500
H  3.96400 8.16100 26.41500
H  8.54300 2.81300 22.56100
H  7.87900 0.07000 23.31800
H  5.65200 2.70200 22.52400
H  6.19200 1.16700 21.78000
H  6.95700 2.54500 21.22900
H  10.01200 -0.35100 22.62900
H  10.60500 1.16500 23.48100
H  9.25100 1.47300 20.76000
H  10.75500 0.57900 20.71600
H  10.78200 2.18100 21.41400
H  11.65500 -1.50900 26.17200
H  10.54900 -2.67700 27.04800
H  12.05700 -2.25300 27.77900
H  11.52800 1.47700 31.48200
H  10.11100 -1.48400 34.13300
H  9.93700 -0.08400 35.27400
H  11.45700 -0.83600 35.18400
Mg 54.00700 24.70800 44.87600
C  51.51400 27.29200 44.18800
C  51.58400 22.48200 43.90300
C  56.44900 22.55400 44.61400
C  56.16900 27.39600 45.69800
N  51.90900 24.92200 43.83500
C  51.09900 26.03100 43.76700
C  49.65900 25.72700 43.40700
C  49.69600 24.13100 43.68400
C  51.10900 23.78100 43.76900
C  48.93500 23.65500 44.98000
C  49.15000 26.10500 41.91800
C  50.20900 25.99100 40.75400
H  49.66500 25.40700 39.38900
N  54.03200 22.79900 44.40400
C  52.95300 22.01800 44.04400
C  53.46100 20.67600 43.88500
C  54.82100 20.65600 44.09300
C  55.22400 22.04800 44.36000
C  52.56400 19.54800 43.46400
C  55.72100 19.46000 43.96000
O  55.23800 18.51900 43.32700
C  57.16300 19.34100 44.34200
N  56.03400 24.93500 45.18200
C  56.86900 23.81300 44.99500
C  58.33100 24.22400 45.24200
C  58.20900 25.71000 45.74900
C  56.72700 26.08600 45.42800
C  59.13100 23.21200 46.18700
C  59.23400 26.66700 44.93300
C  58.93600 26.84900 43.39900
N  53.87600 26.86300 45.09500
C  54.82600 27.80700 45.50100
C  54.21600 29.04500 45.69700
C  52.93800 28.98600 45.14700
C  52.72900 27.59400 44.81400
C  54.90700 30.23300 46.29700
C  51.72300 29.70100 44.86100
O  51.39300 30.85900 44.99400
C  50.75200 28.62000 44.22300
C  50.47200 29.08100 42.80900
O  51.31400 29.22800 41.93500
O  49.15400 29.33600 42.62100
C  48.73600 29.89000 41.38900
H  50.82000 21.72700 43.70500
H  57.31100 21.89200 44.50900
H  56.81400 28.21800 46.01400
H  49.04100 26.26500 44.12700
H  49.15500 23.71200 42.83600
H  48.48800 24.40400 45.63400
H  49.57100 23.01400 45.59200
H  48.12000 23.04200 44.59600
H  48.74500 27.11600 41.96100
H  48.26600 25.58100 41.55500
H  51.14800 25.50900 41.02600
H  50.50100 26.99400 40.44100
H  52.98500 19.29800 42.49100
H  51.53000 19.88200 43.38600
H  52.53200 18.68600 44.13000
H  57.49600 18.32300 44.54300
H  57.18200 19.82400 45.32000
H  57.86200 19.80800 43.64800
H  58.89700 24.34700 44.31900
H  58.31300 25.66100 46.83300
H  58.52600 22.33500 46.41700
H  59.49800 23.64000 47.12000
H  60.03700 22.97300 45.62900
H  60.17100 26.11600 45.00500
H  59.32800 27.63100 45.43300
H  59.65000 26.41400 42.70000
H  58.87800 27.91400 43.17400
H  57.91600 26.51300 43.21400
H  55.99000 30.16600 46.40400
H  54.52000 30.29600 47.31400
H  54.60300 31.14500 45.78400
H  49.84100 28.41300 44.78500
H  49.08600 29.28500 40.55300
H  49.15900 30.89500 41.39200
H  47.68700 30.11400 41.19700

