158

Mg -0.66400 6.94400 26.39000
C  0.43400 9.05300 28.88500
C  -0.63200 4.35000 28.60300
C  -1.68100 4.94600 23.88500
C  -0.11600 9.50000 24.02600
N  -0.22100 6.76500 28.49500
C  0.16300 7.79500 29.38200
C  0.12800 7.29800 30.82600
C  0.08000 5.73300 30.70200
C  -0.25400 5.57300 29.18200
C  1.41700 5.06400 31.08500
C  -1.17200 7.99400 31.51100
C  -1.36900 7.81700 32.99400
H  -0.22200 7.16100 33.68400
N  -1.09300 4.89700 26.23100
C  -1.02100 3.98000 27.26100
C  -1.46200 2.69200 26.77400
C  -1.90800 2.88600 25.44000
C  -1.62100 4.31000 25.15900
C  -1.27300 1.54000 27.54200
C  -2.42700 1.89200 24.36700
O  -2.80700 2.22100 23.23700
C  -2.41900 0.43800 24.68600
N  -0.64400 7.13000 24.20400
C  -1.23100 6.20900 23.48900
C  -1.33300 6.64200 21.95600
C  -0.72000 8.13900 22.02300
C  -0.48800 8.29900 23.55400
C  -0.64100 5.73700 20.88000
C  -1.66000 9.24400 21.38600
C  -2.85900 9.66900 22.26800
N  0.07300 8.81200 26.40700
C  0.18300 9.78000 25.41000
C  0.61900 11.02000 25.92100
C  0.76000 10.77000 27.33400
C  0.41500 9.46700 27.51800
C  0.68500 12.30800 25.12700
C  1.15800 11.42300 28.55200
O  1.67800 12.55000 28.68400
C  0.84700 10.33400 29.68100
C  2.00100 10.19700 30.52300
O  3.11500 9.73500 30.28500
O  1.71000 10.62700 31.75200
C  2.84000 11.11600 32.53500
H  -0.67000 3.54200 29.33700
H  -1.94600 4.31000 23.03800
H  -0.10200 10.32500 23.31200
H  0.95500 7.71700 31.40100
H  -0.65700 5.22800 31.32600
H  2.24000 5.77200 30.98300
H  1.72000 4.47100 30.22300
H  1.37400 4.62200 32.08100
H  -2.06600 7.58500 31.04100
H  -1.10800 9.03700 31.19900
H  -2.23800 7.17000 33.10700
H  -1.53700 8.83700 33.34000
H  -0.33300 1.43700 28.08500
H  -1.26200 0.70300 26.84300
H  -2.01200 1.40600 28.33200
H  -3.19800 0.38100 25.44700
H  -1.41900 0.16000 25.01700
H  -2.63100 -0.21000 23.83500
H  -2.39700 6.64100 21.71700
H  0.16400 8.29100 21.40300
H  -0.39900 4.70600 21.13600
H  0.27300 6.18700 20.49300
H  -1.33200 5.63800 20.04300
H  -2.16800 8.87900 20.49400
H  -1.14700 10.18200 21.17700
H  -2.54400 10.54400 22.83800
H  -3.14600 8.86200 22.94200
H  -3.74200 9.86000 21.65900
H  1.18000 13.05700 25.74500
H  -0.22600 12.82000 24.81800
H  1.35100 12.10300 24.28900
H  0.00100 10.71200 30.25500
H  3.45000 10.24500 32.77300
H  2.43700 11.56400 33.44400
H  3.38900 11.84900 31.94400
Mg 26.99400 50.28700 26.64800
C  24.90000 51.35300 29.28000
C  29.48000 49.86500 28.95000
C  28.97000 49.86600 24.03800
C  24.39300 51.41500 24.36000
N  27.12400 50.61600 28.92700
C  26.13500 50.92900 29.78400
C  26.53800 50.81800 31.22700
C  28.01900 50.27500 31.04000
C  28.26800 50.27700 29.53400
C  29.11900 51.07700 31.78500
C  25.65600 49.97900 32.11600
C  24.96100 50.57500 33.37700
H  24.93700 49.70400 34.70900
N  28.93200 49.88000 26.52800
C  29.82500 49.66000 27.59400
C  31.11800 49.41400 26.99700
C  30.98800 49.50400 25.53200
C  29.54500 49.78500 25.34200
C  32.30000 49.23000 27.89300
C  32.09500 49.35700 24.53800
O  31.88600 49.64600 23.36300
C  33.43500 48.94100 25.03400
N  26.63900 50.46900 24.45000
C  27.63800 50.22900 23.63300
C  27.18700 50.29300 22.18400
C  25.70300 50.66100 22.29100
C  25.52600 50.88100 23.79200
C  28.04900 51.10500 21.19800
C  24.66600 49.65100 21.71700
C  23.81400 49.97700 20.44300
N  25.02100 51.15900 26.70900
C  24.16300 51.57600 25.71500
C  22.98800 52.17600 26.27700
C  23.18500 52.01500 27.73100
C  24.47700 51.47700 27.94600
C  21.94000 53.04100 25.57500
C  22.63300 52.37200 29.02000
O  21.59700 53.01600 29.28500
C  23.65300 51.85800 30.12800
C  23.98500 53.04600 30.93200
O  24.78800 53.90100 30.60900
O  23.15000 53.14500 32.06800
C  23.35600 54.20200 32.96600
H  30.19000 49.52800 29.70900
H  29.59200 49.81400 23.14100
H  23.52900 51.66400 23.74100
H  26.57600 51.84900 31.57900
H  28.08100 49.25700 31.42400
H  29.97800 50.44100 31.99900
H  28.66000 51.43600 32.70600
H  29.33700 51.95300 31.17400
H  26.17900 49.10200 32.49900
H  24.86600 49.54200 31.50400
H  23.89500 50.64800 33.16500
H  25.28100 51.59600 33.58700
H  32.97300 50.02900 27.58100
H  32.73100 48.24200 27.73000
H  32.18300 49.37100 28.96700
H  33.99200 48.59100 24.16500
H  33.44500 48.11200 25.74200
H  33.81800 49.79800 25.58900
H  27.24000 49.34300 21.65100
H  25.49700 51.61700 21.81000
H  27.40600 51.77200 20.62400
H  28.46200 50.43600 20.44300
H  28.92700 51.62400 21.58200
H  23.83900 49.41100 22.38500
H  25.15500 48.74100 21.36700
H  24.14400 50.93200 20.03400
H  22.76800 50.12900 20.70900
H  23.72900 49.26800 19.62000
H  22.50200 53.91100 25.23400
H  21.11800 53.33600 26.22700
H  21.53500 52.44700 24.75500
H  23.22400 51.06300 30.73800
H  24.09800 53.86300 33.69000
H  22.42800 54.41900 33.49500
H  23.76900 55.11200 32.53100

