158

Mg 17.43300 52.48600 25.55600
C  19.35300 51.40400 28.30500
C  15.09500 53.48500 27.74800
C  15.71900 53.42100 23.01200
C  19.86300 51.04500 23.41800
N  17.32900 52.53700 27.81200
C  18.27100 52.14400 28.70300
C  17.79800 52.35900 30.09500
C  16.31800 52.83300 29.96200
C  16.20700 52.87200 28.42600
C  15.28500 52.03400 30.65400
C  18.67400 53.24700 31.00600
C  18.40900 53.26400 32.53500
H  17.28300 52.30300 33.11300
N  15.62400 53.36500 25.42300
C  14.77000 53.75000 26.44600
C  13.48800 54.33900 25.86800
C  13.70700 54.33700 24.48200
C  15.05700 53.70800 24.19100
C  12.26900 54.74700 26.65900
C  12.78800 54.84300 23.26600
O  13.06700 54.88300 22.03700
C  11.57200 55.67000 23.70700
N  17.84800 52.38400 23.49100
C  16.95000 52.87400 22.60600
C  17.44200 52.72200 21.12300
C  18.86500 52.08000 21.25900
C  18.94300 51.91600 22.87900
C  16.46200 51.94700 20.17500
C  20.03500 52.96100 20.77600
C  21.29000 52.34100 20.27900
N  19.19200 51.33400 25.75500
C  19.97700 50.75200 24.82500
C  20.94200 49.88100 25.49300
C  20.77600 50.15900 26.86200
C  19.66800 51.07700 26.93800
C  22.06900 49.13700 25.00800
C  21.25200 49.87100 28.18400
O  22.29700 49.28800 28.52400
C  20.37300 50.66400 29.20300
C  19.79400 49.60000 30.02600
O  18.95800 48.80000 29.68800
O  20.35700 49.73500 31.26700
C  19.70100 48.95000 32.28500
H  14.28800 53.81000 28.40800
H  15.17100 53.74000 22.12300
H  20.58600 50.59800 22.73200
H  17.69600 51.39500 30.59300
H  16.18500 53.85000 30.33100
H  14.66500 51.52100 29.91900
H  14.78200 52.68600 31.36900
H  15.66500 51.28200 31.34500
H  18.49700 54.22600 30.56000
H  19.70100 52.88200 31.01100
H  18.10500 54.27400 32.81100
H  19.31800 52.91300 33.02400
H  11.99400 55.78400 26.46100
H  12.38400 54.69000 27.74100
H  11.40700 54.09900 26.49800
H  11.00400 56.01300 22.84300
H  11.90100 56.51500 24.31200
H  10.88800 55.00600 24.23500
H  17.48000 53.77200 20.83200
H  18.93800 51.06100 20.88000
H  16.11700 52.69300 19.45900
H  15.55000 51.62900 20.68100
H  17.10300 51.26100 19.62200
H  20.29500 53.50800 21.68200
H  19.71500 53.65600 20.00000
H  21.39700 52.46100 19.20000
H  21.26500 51.29500 20.58200
H  22.12800 52.80700 20.79600
H  21.85800 48.94500 23.95600
H  22.05900 48.19400 25.55300
H  22.99700 49.69200 25.14300
H  21.07100 51.29000 29.75900
H  19.97600 49.41400 33.23100
H  20.06700 47.92300 32.25100
H  18.63900 48.99200 32.04400
Mg 0.54500 43.92000 25.71000
C  2.14900 43.79100 28.85600
C  -2.40400 42.81800 27.24800
C  -0.69800 43.68200 22.67700
C  3.83700 44.37400 24.22600
N  -0.03400 43.50400 27.79500
C  0.73200 43.62300 28.90900
C  -0.05600 43.50500 30.17600
C  -1.42700 42.94500 29.61300
C  -1.32700 43.09500 28.09800
C  -1.77000 41.45000 29.94500
C  -0.02000 44.77800 31.06400
C  0.31900 44.65100 32.60000
H  0.35800 43.20800 33.19000
N  -1.32400 43.42600 25.08100
C  -2.40000 42.96500 25.85200
C  -3.54000 42.87300 24.98200
C  -3.09500 43.12000 23.66200
C  -1.64800 43.36100 23.73100
C  -4.90500 42.44100 25.45300
C  -3.88900 43.14900 22.33200
O  -3.34200 43.47900 21.28200
C  -5.31700 42.82700 22.39100
N  1.45400 43.91200 23.63500
C  0.64100 43.95000 22.61100
C  1.44500 44.03200 21.38800
C  2.91000 44.44000 21.85200
C  2.74300 44.24700 23.35600
C  1.32000 42.74800 20.52200
C  3.33100 45.90200 21.46800
C  2.52800 47.02800 22.19700
N  2.53000 44.27500 26.36000
C  3.74600 44.32800 25.63500
C  4.84300 44.38900 26.60500
C  4.25800 44.19500 27.84300
C  2.88400 44.06600 27.67500
C  6.32800 44.48700 26.33000
C  4.56200 44.14900 29.25800
O  5.66400 44.20700 29.86700
C  3.18400 43.92900 29.95500
C  3.30500 42.62300 30.79200
O  2.95800 41.48500 30.54700
O  3.93000 43.01400 31.92400
C  4.50600 41.92000 32.79400
H  -3.35400 42.48400 27.67100
H  -1.14500 43.60500 21.68300
H  4.79200 44.64300 23.76900
H  0.46400 42.72400 30.73100
H  -2.26800 43.57400 29.90300
H  -1.74200 40.84300 29.04000
H  -2.78700 41.45100 30.33700
H  -1.06000 41.09100 30.69100
H  -1.04400 45.14200 31.14600
H  0.60000 45.53900 30.59100
H  -0.43000 45.19700 33.17400
H  1.27600 45.07300 32.90600
H  -5.64200 43.22500 25.28000
H  -5.10800 42.16400 26.48700
H  -5.20600 41.56200 24.88200
H  -5.82200 42.96600 21.43500
H  -5.71400 43.52400 23.13000
H  -5.51700 41.82600 22.77200
H  1.07900 44.89500 20.83200
H  3.69500 43.74100 21.56500
H  0.48500 42.17400 20.92300
H  2.23600 42.15700 20.48800
H  0.99700 43.00900 19.51500
H  3.23500 45.98600 20.38600
H  4.40700 45.99400 21.61300
H  1.81600 47.51800 21.53400
H  3.22400 47.83600 22.42100
H  2.05100 46.77200 23.14400
H  6.80500 45.23100 26.96800
H  6.62200 44.63000 25.29000
H  6.76900 43.54000 26.64100
H  3.02300 44.84900 30.51700
H  5.57600 41.84600 32.60000
H  4.03100 40.95500 32.61500
H  4.39500 42.17100 33.84800

