158

Mg 49.33700 45.35800 42.38200
C  46.04400 46.31200 41.36700
C  48.87800 42.40200 40.79700
C  52.66400 44.93600 42.41600
C  49.83700 48.67000 43.38500
N  47.58400 44.45900 41.25900
C  46.38500 45.05500 40.93700
C  45.53800 44.04600 40.18800
C  46.38900 42.64300 40.30500
C  47.73300 43.20300 40.81600
C  45.60600 41.57800 41.28400
C  45.13500 44.46000 38.68700
C  43.94400 43.73400 38.06100
H  44.23600 42.65500 37.04400
N  50.59000 43.72700 41.93700
C  50.21100 42.64000 41.23600
C  51.34200 41.76100 41.19400
C  52.41300 42.34200 41.87500
C  51.93400 43.75500 42.08200
C  51.32400 40.39300 40.44300
C  53.83700 41.91100 42.14200
O  54.15800 40.81400 41.75600
C  54.91500 42.64700 42.86000
N  50.96800 46.66800 42.70700
C  52.22700 46.22700 42.67400
C  53.28900 47.32000 42.91900
C  52.43500 48.41200 43.63000
C  50.98700 47.96600 43.26300
C  54.51300 46.93200 43.86300
C  52.81900 49.86600 43.23100
C  53.87600 50.52400 44.15000
N  48.18200 47.08100 42.52100
C  48.54800 48.35700 42.95300
C  47.39800 49.17500 42.90200
C  46.38100 48.44200 42.30200
C  46.89100 47.16300 42.03100
C  47.42200 50.62800 43.33900
C  44.93900 48.40800 41.87200
O  44.00500 49.23700 41.89800
C  44.79800 47.10400 41.09700
C  43.55400 46.46800 41.33500
O  42.66800 46.30400 40.55300
O  43.56600 45.90800 42.60700
C  42.45500 44.93900 42.85700
H  48.71700 41.46700 40.25600
H  53.73500 44.72700 42.38000
H  50.00500 49.67700 43.77300
H  44.63200 43.85000 40.76200
H  46.44600 42.26700 39.28300
H  46.29000 41.36100 42.10400
H  45.41100 40.65900 40.73100
H  44.66900 41.91300 41.73100
H  46.06100 44.19500 38.17700
H  45.12300 45.54500 38.59200
H  43.30200 44.50100 37.62600
H  43.34300 43.38100 38.89900
H  52.23700 39.79700 40.42500
H  50.92100 40.52400 39.43900
H  50.69600 39.98500 41.23500
H  55.36000 43.36100 42.16600
H  55.61800 41.96100 43.33000
H  54.52600 43.06000 43.79100
H  53.69500 47.64300 41.96000
H  52.50900 48.28000 44.71000
H  54.46800 45.92300 44.27500
H  54.73100 47.55700 44.72900
H  55.39800 46.80200 43.24000
H  52.01700 50.60100 43.16600
H  53.34000 49.85900 42.27400
H  54.16400 49.88600 44.98500
H  53.52000 51.45100 44.60100
H  54.75700 50.76500 43.55500
H  47.70200 51.45000 42.68100
H  48.01000 50.73500 44.25000
H  46.45900 51.03700 43.64400
H  44.76900 47.41000 40.05200
H  42.58400 43.98000 42.35600
H  41.46200 45.20000 42.48900
H  42.41900 44.81600 43.94000
Mg 26.66100 50.10900 26.71800
C  24.65400 51.15400 29.32300
C  28.90300 49.06700 29.12000
C  28.69400 49.18000 24.25100
C  24.24400 51.11800 24.45700
N  26.74000 50.11800 29.02200
C  25.78900 50.59200 29.86600
C  25.99800 50.10000 31.29500
C  27.51600 49.68700 31.30400
C  27.74900 49.60200 29.74000
C  28.48300 50.71900 31.92800
C  24.97700 49.17200 31.86600
C  24.37600 49.40500 33.25500
H  24.54600 48.52100 34.48000
N  28.52300 49.28100 26.71200
C  29.35300 48.94000 27.76500
C  30.62100 48.48700 27.29200
C  30.56600 48.58600 25.84700
C  29.22200 49.00700 25.51200
C  31.66300 47.99400 28.23700
C  31.63700 48.43300 24.90600
O  31.47700 48.52900 23.72800
C  33.03800 48.13200 25.32900
N  26.51200 50.21300 24.63400
C  27.44000 49.67600 23.83100
C  27.00100 49.73200 22.31800
C  25.54900 50.34700 22.46300
C  25.38200 50.56200 23.91900
C  27.96600 50.56100 21.44900
C  24.36400 49.56400 21.86300
C  23.63900 48.48700 22.56500
N  24.89400 51.01400 26.78900
C  23.96000 51.36800 25.82700
C  22.89200 52.03800 26.44700
C  23.09700 51.97200 27.82200
C  24.36100 51.36600 27.95900
C  21.76200 52.64100 25.68200
C  22.50200 52.33300 29.06600
O  21.49900 52.99300 29.33200
C  23.44600 51.61400 30.07800
C  23.90800 52.53600 31.18300
O  24.84400 53.30600 31.08300
O  23.04900 52.40400 32.22600
C  23.30500 53.42700 33.34400
H  29.58300 48.73300 29.90600
H  29.23500 48.77600 23.39300
H  23.43300 51.44700 23.80300
H  26.01100 51.01800 31.88300
H  27.66300 48.69600 31.73400
H  28.70700 50.50000 32.97200
H  28.05900 51.67700 31.62900
H  29.46300 50.73500 31.45000
H  25.54500 48.25300 32.01200
H  24.20500 49.05900 31.10400
H  23.32700 49.63700 33.07300
H  24.81500 50.33600 33.61400
H  31.67900 48.64900 29.10800
H  32.71400 47.99700 27.94700
H  31.35800 47.05600 28.70100
H  33.31900 48.70100 26.21500
H  33.72300 48.30200 24.49900
H  32.95900 47.06600 25.54500
H  26.94300 48.71000 21.94200
H  25.65800 51.39100 22.17000
H  28.44300 49.85800 20.76500
H  28.76700 50.96900 22.06500
H  27.54200 51.34900 20.82600
H  24.65800 49.06900 20.93700
H  23.60200 50.29400 21.59200
H  23.70500 47.52200 22.06300
H  22.57400 48.69700 22.66300
H  23.98000 48.34800 23.59100
H  21.36000 51.88800 25.00400
H  21.93600 53.59200 25.17700
H  21.04800 52.84200 26.48000
H  22.94500 50.81700 30.62900
H  22.31200 53.73200 33.67300
H  23.89600 54.28900 33.03500
H  23.82800 52.82800 34.09000

