158

Mg 0.79200 7.25400 26.90600
C  1.45400 9.14200 29.68600
C  1.19100 4.38300 28.69500
C  0.99100 5.57600 24.01300
C  1.23700 10.33500 25.06800
N  1.34500 6.87700 28.90400
C  1.29300 7.75900 29.93100
C  1.21700 7.07500 31.25400
C  1.46200 5.58800 30.93700
C  1.34500 5.60000 29.41400
C  2.80200 4.89800 31.43500
C  -0.09200 7.38400 32.03800
C  0.05300 7.70800 33.50400
H  1.26600 7.10300 34.24400
N  0.88400 5.21000 26.41800
C  1.01800 4.13500 27.30000
C  0.96800 2.87300 26.54700
C  1.00700 3.23000 25.10400
C  0.96200 4.71100 25.12600
C  0.91000 1.57900 27.35400
C  1.04900 2.36600 23.98600
O  0.91700 2.78500 22.81400
C  1.18100 0.88300 24.15100
N  0.98800 7.88500 24.79800
C  0.98100 6.97200 23.79300
C  0.89300 7.60800 22.38300
C  0.93800 9.14100 22.78800
C  0.99900 9.12200 24.33600
C  1.97300 7.22900 21.38300
C  -0.30000 10.01800 22.33500
C  -0.04900 11.12000 21.32200
N  1.09700 9.30700 27.24100
C  1.31900 10.39500 26.39200
C  1.55600 11.62000 27.22400
C  1.66500 11.15300 28.50700
C  1.40300 9.74200 28.44000
C  1.59900 13.00500 26.75200
C  1.93100 11.49900 29.90600
O  2.28300 12.59300 30.36200
C  1.62400 10.27700 30.74500
C  2.66900 10.19300 31.73000
O  3.71400 9.68100 31.63000
O  2.29200 11.06300 32.69000
C  3.33700 11.35100 33.75300
H  1.33400 3.53700 29.37000
H  1.11600 5.09100 23.04200
H  1.45200 11.21600 24.46000
H  2.10100 7.42300 31.78800
H  0.69000 4.92400 31.32600
H  3.38300 5.58100 32.05500
H  3.45800 4.66400 30.59600
H  2.54000 4.02000 32.02500
H  -0.82300 6.58500 31.91700
H  -0.63700 8.15600 31.49600
H  -0.79700 7.31800 34.06200
H  0.06500 8.78600 33.66600
H  1.10700 1.76400 28.41000
H  1.84000 1.06900 27.10600
H  0.00100 0.99500 27.20900
H  0.32300 0.48700 24.69300
H  2.16900 0.63000 24.53500
H  1.14100 0.47600 23.14000
H  -0.08000 7.33200 21.97700
H  1.87100 9.59600 22.45600
H  2.80000 6.98500 22.05000
H  2.05800 8.14200 20.79400
H  1.58100 6.39300 20.80400
H  -0.85300 10.28200 23.23600
H  -1.01800 9.31700 21.91000
H  -0.51400 10.84900 20.37400
H  1.03000 11.14400 21.16600
H  -0.49800 12.06100 21.63900
H  1.70100 12.97600 25.66700
H  2.41500 13.55100 27.22700
H  0.63800 13.47100 26.97200
H  0.68500 10.56600 31.21700
H  2.90500 11.80700 34.64400
H  3.96100 12.10200 33.27000
H  3.80500 10.41500 34.06000
Mg 26.56600 0.56500 28.75400
C  28.34100 -0.02000 31.73700
C  23.61000 0.17500 30.59300
C  24.91600 0.97100 25.94300
C  29.65100 0.12000 27.04400
N  26.11700 0.23800 30.90100
C  26.96000 0.18000 31.91700
C  26.21200 0.22800 33.24800
C  24.71700 0.14300 32.90200
C  24.76400 0.06500 31.35600
C  23.91000 -1.08100 33.53000
C  26.56000 1.53500 34.08900
C  26.57600 1.18900 35.62700
H  27.17300 2.12600 36.58600
N  24.50900 0.62700 28.28700
C  23.51600 0.48700 29.19900
C  22.20000 0.79000 28.48800
C  22.56200 0.98200 27.16900
C  24.00800 0.87500 27.05000
C  20.82300 0.76200 29.24600
C  21.68600 1.08400 25.94100
O  22.12800 0.95100 24.83100
C  20.16300 1.29300 26.06100
N  27.23400 0.37200 26.72700
C  26.35300 0.77000 25.73000
C  27.10200 0.99700 24.33600
C  28.64100 0.96100 24.85700
C  28.54800 0.46400 26.30800
C  26.68900 0.10600 23.15800
C  29.25500 2.38000 24.77300
C  29.68600 2.72300 23.35100
N  28.57000 0.09800 29.20900
C  29.70200 0.00800 28.44600
C  30.85500 -0.13800 29.23000
C  30.32700 -0.10600 30.51500
C  28.92300 -0.05800 30.43900
C  32.22600 -0.37700 28.79300
C  30.73600 -0.16200 31.87600
O  31.84200 -0.23100 32.32000
C  29.42600 -0.09500 32.78500
C  29.16300 -1.33700 33.64900
O  28.53600 -2.33700 33.32700
O  29.64400 -1.04100 34.88000
C  29.38500 -2.06200 35.92400
H  22.70800 0.17000 31.20700
H  24.39400 1.07800 24.99000
H  30.59600 0.27900 26.52000
H  26.70600 -0.53900 33.84500
H  24.12400 1.02000 33.16000
H  23.07600 -0.74100 34.14300
H  24.56000 -1.63400 34.20800
H  23.46900 -1.71300 32.76000
H  25.76400 2.24000 33.84800
H  27.49900 1.93900 33.70900
H  26.77600 0.15100 35.89000
H  25.53900 1.30400 35.94200
H  20.48700 1.79600 29.32400
H  20.85400 0.32900 30.24600
H  19.99200 0.18400 28.84200
H  19.83100 1.69600 25.10400
H  20.02500 2.03100 26.85200
H  19.79200 0.29100 26.27600
H  26.69800 1.93400 23.95200
H  29.19200 0.20100 24.30300
H  26.09100 0.75900 22.52300
H  26.02800 -0.72700 23.39700
H  27.48800 -0.25700 22.51100
H  30.16600 2.38500 25.37200
H  28.60800 3.16200 25.17000
H  29.12200 3.61000 23.06200
H  29.41100 1.92700 22.65900
H  30.75300 2.86300 23.17800
H  32.80000 0.30300 29.42300
H  32.41500 -0.16200 27.74100
H  32.58000 -1.38700 28.99900
H  29.58700 0.76000 33.44200
H  30.08000 -1.98600 36.76000
H  29.55400 -3.05800 35.51400
H  28.34900 -2.02700 36.26200

