158

Mg 35.73800 0.99800 29.93400
C  33.34600 1.92500 32.28500
C  38.12800 0.95400 32.40400
C  38.03800 0.34500 27.50400
C  33.32000 1.57800 27.36000
N  35.74300 1.51300 32.06900
C  34.62800 1.72300 32.77800
C  35.05300 1.78500 34.31700
C  36.60600 1.83600 34.27400
C  36.86000 1.43400 32.80000
C  37.23600 3.23000 34.67100
C  34.33300 0.59000 35.13700
C  34.43700 0.63000 36.66900
H  34.66900 2.03500 37.27800
N  37.73700 0.45900 29.98500
C  38.54400 0.48500 31.14500
C  39.81600 -0.03100 30.75800
C  39.89200 -0.09700 29.31600
C  38.47200 0.24200 28.80700
C  40.82900 -0.44700 31.84900
C  41.07700 -0.42600 28.45800
O  40.95800 -0.54000 27.26400
C  42.45000 -0.68900 29.03400
N  35.67800 1.15600 27.70100
C  36.75900 0.68600 27.01100
C  36.50100 0.83200 25.50400
C  34.93200 1.15600 25.39300
C  34.58500 1.31300 26.88600
C  37.42800 1.79600 24.65400
C  33.93800 0.07900 24.79300
C  33.10600 0.57700 23.51500
N  33.76700 1.55900 29.78900
C  32.93800 1.72500 28.71200
C  31.65000 2.02600 29.16800
C  31.71800 2.13500 30.53100
C  33.04600 1.88500 30.91000
C  30.38100 2.17000 28.38200
C  30.96200 2.46900 31.74400
O  29.79900 2.80500 32.01500
C  31.99700 2.24200 32.96400
C  32.02800 3.58400 33.60400
O  32.72000 4.56100 33.28000
O  31.30700 3.65100 34.77800
C  31.23300 4.86700 35.67000
H  38.83100 0.99300 33.23900
H  38.77300 0.16500 26.71700
H  32.50900 1.77200 26.65400
H  34.60600 2.68300 34.74300
H  36.96000 1.02200 34.90500
H  37.76600 3.05500 35.60700
H  36.49700 4.02200 34.79000
H  37.96100 3.47500 33.89400
H  34.88800 -0.33400 34.98000
H  33.31000 0.54100 34.76300
H  35.24800 0.06900 37.13400
H  33.49000 0.17600 36.96200
H  41.14700 -1.46500 31.62600
H  40.60300 -0.46500 32.91500
H  41.72400 0.17000 31.76700
H  43.08700 -1.02500 28.21600
H  42.31300 -1.49100 29.75900
H  42.75800 0.26100 29.47200
H  36.61300 -0.17700 25.10900
H  34.78400 2.12000 24.90500
H  37.80800 1.27000 23.77800
H  38.26900 2.07100 25.29200
H  37.02200 2.76100 24.35100
H  33.19100 -0.17400 25.54500
H  34.32300 -0.91700 24.57600
H  33.29400 1.63600 23.33700
H  32.06100 0.36100 23.73600
H  33.47600 -0.01200 22.67500
H  30.67100 2.35000 27.34700
H  29.94700 3.07800 28.80100
H  29.69000 1.33700 28.51100
H  31.59400 1.49300 33.64600
H  31.07400 5.70600 34.99200
H  32.21200 4.93000 36.14400
H  30.40900 4.70900 36.36600
Mg 46.99400 14.82300 27.15400
C  45.17300 15.04800 30.14300
C  49.26800 17.03900 28.39500
C  48.35000 15.07200 23.99900
C  44.41300 12.85400 25.76200
N  47.17400 15.90300 29.01500
C  46.30200 15.90500 30.08400
C  46.91300 16.59900 31.35000
C  48.11000 17.37100 30.65800
C  48.19500 16.72600 29.25500
C  47.91100 18.87900 30.66000
C  47.38400 15.63500 32.49600
C  47.02000 16.10900 33.95500
H  48.06400 15.77700 35.01800
N  48.68300 15.70100 26.39900
C  49.54200 16.48400 27.09700
C  50.62600 16.94500 26.24400
C  50.40500 16.36800 24.96100
C  49.06600 15.69400 25.08100
C  51.78100 17.94700 26.69500
C  51.05100 16.75200 23.62100
O  50.63100 16.50800 22.52000
C  52.32400 17.51400 23.70700
N  46.44700 14.08000 25.17100
C  47.19400 14.29800 24.09600
C  46.66000 13.55300 22.84500
C  45.41500 12.80300 23.40600
C  45.42000 13.17900 24.90000
C  46.36100 14.42000 21.65300
C  45.42100 11.24300 23.22500
C  46.46800 10.48700 24.11000
N  45.10900 14.07500 27.73800
C  44.29000 13.26600 27.11000
C  43.17400 12.98500 28.09300
C  43.52700 13.61800 29.25700
C  44.67000 14.32100 29.02100
C  41.95500 12.10800 27.83000
C  43.17500 13.78100 30.61300
O  42.13300 13.40100 31.23700
C  44.22200 14.67600 31.29800
C  43.44700 15.84000 31.92200
O  43.20200 16.84300 31.29600
O  43.14900 15.57900 33.22400
C  42.72100 16.76600 34.04200
H  50.07500 17.66000 28.79100
H  48.84900 15.02500 23.02900
H  43.70700 12.06500 25.49500
H  46.26600 17.33400 31.82900
H  49.09000 17.15100 31.08200
H  47.85900 19.14900 29.60500
H  48.66400 19.33100 31.30500
H  46.95400 19.19200 31.07900
H  48.44900 15.40600 32.47900
H  46.93800 14.64300 32.44200
H  46.11500 15.56600 34.22800
H  46.74800 17.16500 33.94700
H  52.70800 17.37400 26.71100
H  51.64600 18.24700 27.73400
H  51.83500 18.85700 26.09800
H  52.21700 18.58900 23.84800
H  52.73000 17.36000 22.70800
H  53.10100 17.03600 24.30500
H  47.37800 12.79700 22.52900
H  44.49000 13.10600 22.91700
H  47.08000 14.07700 20.90900
H  46.37400 15.45700 21.99000
H  45.37900 14.24900 21.21400
H  45.81000 10.98100 22.24200
H  44.48800 10.73700 23.47700
H  46.10900 9.68800 24.75900
H  46.99700 11.15300 24.79200
H  47.27000 10.00500 23.55200
H  42.42300 11.35600 27.19500
H  41.30600 12.72100 27.20500
H  41.62300 11.64800 28.76100
H  44.67000 14.04500 32.06600
H  42.34300 16.52900 35.03600
H  41.97600 17.36900 33.52300
H  43.52500 17.46700 34.26700

