158

Mg 23.91500 -5.53700 46.02300
C  26.18400 -3.23100 44.49000
C  21.54000 -4.35600 43.76100
C  22.01300 -8.10800 46.88600
C  26.72100 -6.97600 47.63600
N  23.86900 -3.94800 44.31800
C  24.92600 -3.16900 43.92500
C  24.51900 -2.26400 42.72500
C  22.96100 -2.43300 42.77500
C  22.72800 -3.62800 43.67000
C  22.14900 -1.21200 43.34900
C  25.02300 -2.88500 41.39200
C  25.88700 -1.96300 40.54000
H  25.61600 -2.09200 38.97800
N  21.96600 -6.11800 45.53400
C  21.18600 -5.47000 44.61100
C  20.00500 -6.20300 44.43000
C  20.13200 -7.37300 45.25700
C  21.39700 -7.23300 45.96500
C  18.94500 -5.88100 43.35100
C  19.12000 -8.56400 45.24700
O  18.03000 -8.45100 44.69700
C  19.56100 -9.85700 45.85500
N  24.33300 -7.28700 47.06000
C  23.31100 -8.16200 47.40200
C  23.84500 -9.34400 48.22800
C  25.22900 -8.86400 48.63300
C  25.49500 -7.64900 47.72700
C  22.98500 -9.75300 49.41600
C  26.33500 -9.99200 48.72200
C  26.97700 -10.20000 50.10200
N  26.05400 -5.10200 46.24400
C  27.05000 -5.75700 46.92800
C  28.34800 -5.04800 46.82200
C  28.00400 -4.03200 45.85300
C  26.66400 -4.22300 45.44400
C  29.59100 -5.46600 47.54900
C  28.54200 -2.89100 45.11000
O  29.67400 -2.48500 45.13600
C  27.40500 -2.39400 44.10200
C  27.32400 -0.95900 44.37300
O  26.48600 -0.49800 45.16100
O  28.14200 -0.10800 43.60400
C  28.26600 1.27200 44.06400
H  20.79300 -4.01200 43.04200
H  21.41000 -8.90100 47.33200
H  27.55000 -7.43500 48.17800
H  24.83800 -1.23000 42.85700
H  22.50400 -2.52300 41.78900
H  22.83300 -0.39100 43.56700
H  21.60600 -1.44900 44.26300
H  21.46600 -0.84000 42.58500
H  24.24400 -3.16100 40.68000
H  25.62800 -3.77500 41.56900
H  26.90600 -2.33700 40.63600
H  25.76900 -0.94300 40.90600
H  19.02500 -6.67000 42.60400
H  19.07000 -4.86800 42.96800
H  17.97100 -5.79100 43.83300
H  20.60500 -10.00200 45.57800
H  18.87300 -10.63400 45.52200
H  19.44900 -9.57800 46.90300
H  24.03500 -10.13600 47.50400
H  25.21000 -8.40300 49.62000
H  23.49100 -9.70200 50.37900
H  22.60400 -10.74900 49.19200
H  22.12200 -9.08800 49.39300
H  27.05000 -9.81100 47.92000
H  25.90300 -10.95100 48.43500
H  28.06300 -10.21300 50.00800
H  26.69700 -11.12100 50.61300
H  26.77100 -9.45200 50.86800
H  29.80500 -6.48800 47.24000
H  29.36800 -5.32800 48.60800
H  30.43600 -4.81900 47.31500
H  27.68000 -2.67700 43.08600
H  27.35600 1.85700 43.93400
H  29.01500 1.70900 43.40400
H  28.68600 1.37300 45.06500
Mg 42.09900 41.36900 26.91600
C  41.23700 43.89600 29.11200
C  42.92200 39.54500 29.64500
C  43.32200 39.03500 24.85200
C  42.19800 43.68400 24.31300
N  41.99400 41.65400 29.10500
C  41.44000 42.71800 29.78500
C  41.31900 42.40400 31.31600
C  42.17000 41.18100 31.49600
C  42.43800 40.74400 29.98400
C  43.54600 41.34900 32.19300
C  39.88400 42.52800 31.82800
C  39.37700 41.66000 33.03100
H  38.70700 42.31100 34.24100
N  42.76900 39.45600 27.19600
C  43.03700 38.90000 28.39500
C  43.62100 37.55200 28.28800
C  43.66100 37.37400 26.87100
C  43.24600 38.64900 26.21500
C  44.07200 36.65300 29.47200
C  43.93100 36.13100 26.07500
O  43.99500 36.05700 24.84900
C  44.20600 34.92800 26.88100
N  42.64900 41.32500 24.85200
C  43.02300 40.20900 24.21900
C  42.97800 40.42100 22.61200
C  42.69800 41.97100 22.51600
C  42.50700 42.38900 23.98800
C  44.21700 39.95700 21.89900
C  41.61000 42.37100 21.58800
C  41.80500 43.70000 20.95300
N  41.75000 43.41400 26.71700
C  41.79100 44.19600 25.60000
C  41.48800 45.54000 25.96300
C  41.18600 45.48200 27.33300
C  41.44000 44.16700 27.73100
C  41.31200 46.59600 24.91500
C  40.70600 46.23600 28.43700
O  40.34600 47.40200 28.54900
C  40.78900 45.20800 29.70200
C  41.77600 45.76000 30.68100
O  42.99800 45.75700 30.61700
O  41.17000 46.27200 31.80100
C  41.98300 46.73600 32.95300
H  43.15300 38.94800 30.52900
H  43.74000 38.27500 24.19000
H  42.37500 44.40000 23.50800
H  41.90700 43.26100 31.64500
H  41.56100 40.53000 32.12200
H  44.41300 41.37700 31.53300
H  43.67600 40.62600 32.99900
H  43.58400 42.28600 32.74900
H  39.29900 42.19700 30.96900
H  39.74200 43.60500 31.92400
H  40.16500 41.09300 33.52900
H  38.90300 40.85100 32.47600
H  43.76300 35.60900 29.41800
H  43.68900 36.87000 30.46900
H  45.16200 36.64800 29.46100
H  44.93200 35.09700 27.67600
H  44.53700 34.06200 26.30800
H  43.34800 34.74500 27.52800
H  42.07900 39.93100 22.23700
H  43.64400 42.41400 22.20500
H  44.79900 40.71300 21.37200
H  44.12800 39.06700 21.27600
H  44.91400 39.59600 22.65500
H  40.62000 42.37000 22.04400
H  41.67700 41.68300 20.74500
H  41.48800 43.49400 19.93000
H  42.82500 44.05800 20.81200
H  41.19700 44.45200 21.45600
H  40.74800 46.18100 24.07900
H  42.33000 46.87500 24.64200
H  40.76900 47.44300 25.33400
H  39.82400 45.13000 30.20300
H  41.44000 47.62600 33.27200
H  43.01600 47.01300 32.74600
H  41.87800 46.02600 33.77400

