158

Mg 17.23100 -2.09500 27.69100
C  15.86100 0.04800 30.23600
C  18.64400 -3.84300 30.23000
C  18.62900 -3.94800 25.40400
C  15.95000 0.09100 25.36000
N  17.35700 -1.76300 30.01900
C  16.66900 -0.89000 30.78100
C  16.87900 -1.15800 32.27800
C  17.87600 -2.32500 32.24100
C  18.06600 -2.63200 30.73000
C  19.27900 -2.08000 32.86200
C  15.54300 -1.53800 32.94300
C  15.22100 -0.80500 34.28900
H  16.36000 -0.25200 35.03500
N  18.41100 -3.70100 27.78400
C  18.86400 -4.31200 28.93100
C  19.54000 -5.50800 28.54800
C  19.54600 -5.56400 27.10500
C  18.90300 -4.31700 26.69800
C  20.04100 -6.50700 29.63200
C  20.27800 -6.48300 26.17500
O  20.49800 -6.27100 25.00600
C  20.88000 -7.75200 26.68100
N  17.36800 -1.87200 25.69100
C  17.93600 -2.79700 24.93700
C  17.65600 -2.51200 23.40100
C  16.67100 -1.19700 23.40600
C  16.61100 -1.00500 24.94100
C  18.91000 -2.27800 22.52500
C  15.15500 -1.50900 22.84800
C  14.41900 -0.33700 22.16500
N  16.18500 -0.27200 27.72300
C  15.71700 0.45400 26.68900
C  14.82200 1.49700 27.14500
C  14.83400 1.37100 28.56600
C  15.69900 0.30900 28.85000
C  14.07300 2.49400 26.31000
C  14.34900 1.94800 29.79200
O  13.52200 2.85400 30.01700
C  15.07400 1.11000 30.88900
C  15.83700 2.11400 31.73900
O  17.04000 2.33500 31.72000
O  15.00000 2.67600 32.60000
C  15.62500 3.80500 33.34000
H  18.79100 -4.41700 31.14700
H  18.90400 -4.67000 24.63300
H  15.51600 0.77000 24.62300
H  17.32500 -0.23100 32.63800
H  17.48400 -3.20800 32.74500
H  19.52100 -2.65800 33.75400
H  19.33300 -1.02800 33.14100
H  20.09500 -2.29500 32.17200
H  15.52300 -2.57100 33.29100
H  14.73700 -1.40900 32.22100
H  14.87600 -1.55400 35.00100
H  14.38700 -0.10500 34.23200
H  21.13000 -6.49200 29.60500
H  19.78200 -7.54200 29.41200
H  19.64900 -6.31400 30.63000
H  20.14600 -8.37300 27.19600
H  21.68000 -7.38000 27.32100
H  21.35900 -8.33000 25.89100
H  17.10400 -3.35500 22.98500
H  17.12800 -0.32200 22.94400
H  19.76800 -2.60300 23.11300
H  18.99700 -1.27200 22.11300
H  18.81300 -2.86300 21.61000
H  14.50400 -1.93800 23.60900
H  15.29500 -2.27200 22.08200
H  14.31400 -0.41600 21.08300
H  14.88700 0.63000 22.34800
H  13.42400 -0.20700 22.58900
H  13.58800 3.28200 26.88600
H  13.26100 1.97100 25.80400
H  14.77300 3.01700 25.65800
H  14.14300 0.77000 31.34100
H  14.97600 4.50900 33.86100
H  16.08600 4.48600 32.62400
H  16.33500 3.36400 34.04000
Mg 39.67900 8.39500 29.22300
C  41.77000 9.59700 31.82200
C  37.29300 7.76200 31.53600
C  37.99600 6.74100 26.82500
C  42.41600 8.81400 27.05200
N  39.59600 8.59700 31.46900
C  40.48000 9.29000 32.20600
C  39.88900 9.38800 33.63600
C  38.58500 8.57200 33.59600
C  38.42400 8.26500 32.09000
C  38.49400 7.35700 34.58700
C  39.73000 10.82500 34.31200
C  39.13900 10.81300 35.71300
H  40.02600 11.23400 36.90700
N  37.88500 7.44300 29.17900
C  37.00000 7.34600 30.22300
C  35.79200 6.72200 29.70900
C  36.08500 6.27900 28.38400
C  37.38400 6.78900 28.03800
C  34.61600 6.48400 30.65100
C  35.29100 5.47200 27.37500
O  35.57900 5.11400 26.23300
C  33.86800 5.04900 27.80300
N  40.13500 7.87700 27.27600
C  39.29800 7.20300 26.42400
C  39.82300 7.09500 25.01500
C  41.06700 7.94900 25.09100
C  41.27000 8.19400 26.55000
C  40.05300 5.69400 24.38800
C  41.10200 9.29100 24.28200
C  40.32000 10.48200 24.94300
N  41.70700 9.08300 29.30700
C  42.63300 9.22500 28.38600
C  43.84600 9.85800 28.96000
C  43.48000 9.99800 30.28500
C  42.24900 9.41300 30.53200
C  45.01000 10.23800 28.14600
C  43.83700 10.68200 31.52500
O  44.78300 11.46000 31.71700
C  42.87500 10.23000 32.64800
C  43.50300 9.24700 33.56300
O  43.38600 8.02900 33.46400
O  44.26200 9.91400 34.48200
C  44.52800 9.14000 35.72600
H  36.38100 7.69600 32.13200
H  37.45300 6.35300 25.96100
H  43.15600 8.93000 26.25700
H  40.62900 8.84400 34.22300
H  37.69800 9.15600 33.84300
H  37.83300 7.63200 35.40900
H  39.42300 7.09400 35.09400
H  38.02600 6.52700 34.05800
H  39.00400 11.24800 33.61800
H  40.63200 11.43600 34.29100
H  38.80100 9.80300 35.94100
H  38.33600 11.54900 35.66500
H  33.72400 7.00600 30.30500
H  34.82900 6.60000 31.71400
H  34.34100 5.43400 30.54700
H  34.03300 4.26700 28.54300
H  33.36200 4.78600 26.87400
H  33.31600 5.87100 28.26000
H  39.11300 7.58800 24.35100
H  41.90700 7.33800 24.76100
H  41.04400 5.63700 23.93800
H  39.34800 5.48300 23.58400
H  39.95300 4.89000 25.11600
H  40.64900 9.15000 23.30100
H  42.13500 9.61500 24.15300
H  39.62600 10.24500 25.75000
H  39.63700 10.94200 24.22900
H  41.05500 11.25300 25.17500
H  44.74500 10.18000 27.09000
H  45.83900 9.57500 28.39700
H  45.37600 11.24200 28.35800
H  42.70500 11.16500 33.18200
H  43.57600 8.89600 36.19600
H  45.07600 9.85800 36.33600
H  45.17700 8.27200 35.60700

