158

Mg 25.26000 0.55900 29.58700
C  27.46000 0.15900 32.36000
C  22.61900 0.54200 31.87600
C  23.23700 0.39700 27.02800
C  27.94700 -0.30700 27.43800
N  25.08300 0.35400 31.82600
C  26.08600 0.44400 32.73600
C  25.54900 0.60800 34.24400
C  23.98700 0.48000 33.98800
C  23.85100 0.38100 32.48800
C  23.33900 -0.75400 34.79300
C  26.01900 1.90800 34.92300
C  26.92600 1.85500 36.12400
H  26.56800 2.83500 37.15900
N  23.26500 0.60300 29.48600
C  22.36500 0.62200 30.51300
C  21.03600 0.75700 29.92900
C  21.16900 0.84100 28.54700
C  22.58100 0.56800 28.30800
C  19.73100 0.91800 30.65600
C  20.10300 1.00000 27.41000
O  20.44200 1.01500 26.27000
C  18.53200 1.22400 27.65600
N  25.54400 -0.11000 27.46700
C  24.54100 0.03800 26.62400
C  25.04800 -0.09900 25.20200
C  26.59900 -0.18000 25.23500
C  26.75900 -0.16600 26.75500
C  24.32500 -1.21600 24.30900
C  27.36200 0.97800 24.53400
C  28.37300 0.52500 23.48900
N  27.28800 0.02500 29.71700
C  28.25400 -0.23500 28.78300
C  29.55100 -0.40900 29.46200
C  29.22500 -0.27500 30.85000
C  27.83800 -0.04300 31.00400
C  30.87200 -0.57200 28.78600
C  29.84400 -0.23300 32.14000
O  31.00100 -0.43300 32.44900
C  28.69900 0.11500 33.16900
C  28.64000 -0.91700 34.23300
O  28.11000 -2.03100 34.08400
O  29.43700 -0.60000 35.32200
C  29.50300 -1.59000 36.43700
H  21.69900 0.55200 32.46500
H  22.61700 0.50500 26.13500
H  28.78500 -0.60400 26.80400
H  26.03200 -0.27300 34.66700
H  23.42900 1.29500 34.44800
H  24.04600 -1.55600 35.00500
H  22.50200 -1.20500 34.25800
H  22.80700 -0.18500 35.55500
H  25.10500 2.39100 35.26700
H  26.55100 2.45600 34.14500
H  27.94300 1.98900 35.75600
H  26.72900 0.89800 36.60800
H  18.98800 0.23000 30.25200
H  19.25500 1.87900 30.46300
H  19.72800 0.85500 31.74400
H  17.97500 1.39800 26.73500
H  18.32100 1.94000 28.45100
H  18.28300 0.20800 27.96100
H  24.82700 0.89600 24.81500
H  26.94000 -1.12200 24.80600
H  23.48400 -1.74500 24.75700
H  25.06700 -1.96600 24.03600
H  23.86000 -0.67800 23.48400
H  27.89600 1.52200 25.31300
H  26.72500 1.75800 24.11900
H  28.46400 -0.56100 23.48300
H  29.27000 1.08500 23.75600
H  27.89600 0.88300 22.57700
H  31.61400 0.08300 29.24300
H  30.72000 -0.21800 27.76600
H  31.28000 -1.58100 28.72700
H  29.03400 1.06500 33.58500
H  29.45600 -2.61400 36.06500
H  28.63700 -1.39900 37.07100
H  30.41600 -1.39800 37.00000
Mg 54.38700 24.04100 44.90000
C  51.53100 26.11600 44.17500
C  52.32800 21.32400 44.07200
C  57.02100 22.07800 44.60800
C  56.23200 26.90600 45.27800
N  52.20100 23.79400 44.10500
C  51.31600 24.73000 43.90900
C  50.03100 24.09800 43.44000
C  50.15700 22.55000 43.75100
C  51.66900 22.51100 44.06500
C  49.24700 22.02000 44.95300
C  49.75000 24.31900 41.94100
C  50.95200 24.25600 40.88600
H  51.93800 23.05800 40.75600
N  54.68400 21.88600 44.49100
C  53.69600 20.96500 44.26900
C  54.35800 19.66100 44.17000
C  55.72000 19.86300 44.59200
C  55.87000 21.32600 44.62500
C  53.64300 18.34000 43.81900
C  56.80900 18.77000 44.70500
O  56.56500 17.59900 44.46900
C  58.24200 19.10400 45.05100
N  56.32900 24.45800 44.69000
C  57.28400 23.47700 44.67200
C  58.66900 24.09000 45.04700
C  58.41000 25.62500 44.97000
C  56.89600 25.67600 44.99700
C  59.15400 23.61400 46.51300
C  58.97100 26.24000 43.71700
C  58.80500 25.58600 42.25700
N  53.98600 26.11800 44.69900
C  54.84700 27.13000 45.02200
C  54.09000 28.30300 45.25100
C  52.82100 27.97300 44.90400
C  52.77500 26.62800 44.57700
C  54.63400 29.58300 45.81800
C  51.41600 28.49700 44.70900
O  50.91500 29.62200 44.89300
C  50.56000 27.26300 44.21800
C  50.17800 27.58900 42.88500
O  50.92300 27.78600 41.91900
O  48.83000 27.88700 42.96200
C  48.37100 28.62400 41.74500
H  51.78200 20.42500 43.78200
H  57.93200 21.48300 44.52300
H  56.86100 27.75500 45.55300
H  49.11700 24.38300 43.96000
H  49.89900 22.02500 42.83200
H  48.72800 21.16800 44.51400
H  48.50200 22.71500 45.34200
H  49.88700 21.64900 45.75400
H  49.16900 25.23800 41.86500
H  49.00000 23.62500 41.56300
H  51.50300 25.14600 41.18900
H  50.65000 24.46100 39.85900
H  54.22000 17.68000 43.17100
H  52.65000 18.53300 43.41200
H  53.51300 17.89300 44.80400
H  58.72300 19.43300 44.13000
H  58.70900 18.12900 45.18500
H  58.39800 19.78800 45.88600
H  59.41500 23.71900 44.34300
H  58.79600 26.25100 45.77400
H  58.48800 22.79600 46.78800
H  59.07700 24.29100 47.36400
H  60.14800 23.18800 46.37900
H  59.98600 26.54800 43.96500
H  58.43100 27.17300 43.55500
H  58.06800 26.20000 41.73900
H  58.45000 24.55500 42.25800
H  59.77500 25.65400 41.76400
H  54.00000 30.41600 45.51200
H  55.66200 29.77500 45.51300
H  54.54600 29.57100 46.90500
H  49.61700 26.97700 44.68500
H  47.44600 29.18700 41.87100
H  48.21600 27.92500 40.92300
H  49.13900 29.26100 41.30800

