158

Mg 24.52000 -6.94800 47.79000
C  27.04200 -4.76500 46.81100
C  22.44000 -5.68100 45.27200
C  22.37000 -9.45300 48.26900
C  26.88600 -8.64100 49.80500
N  24.76000 -5.45400 46.15400
C  25.92400 -4.69600 45.95000
C  25.64900 -3.67600 44.84900
C  24.10400 -3.92000 44.53200
C  23.74300 -5.16800 45.30900
C  23.22700 -2.64100 44.61800
C  26.55300 -3.96900 43.59600
C  27.31000 -2.83000 43.03700
H  27.17000 -2.36600 41.52900
N  22.56000 -7.38900 47.04200
C  21.88600 -6.71300 46.06400
C  20.58100 -7.34300 45.88300
C  20.47400 -8.41500 46.80400
C  21.80000 -8.46600 47.46500
C  19.58000 -6.85800 44.88900
C  19.22600 -9.28800 47.06200
O  18.14200 -8.94600 46.50600
C  19.29400 -10.49900 47.87900
N  24.66900 -8.74200 48.92900
C  23.50800 -9.51800 49.03200
C  23.82900 -10.77500 49.90900
C  25.22900 -10.51700 50.42000
C  25.65600 -9.18800 49.68800
C  22.73900 -11.23600 50.95600
C  26.29300 -11.67600 50.32200
C  27.30400 -11.57600 51.43400
N  26.60100 -6.76300 48.27800
C  27.39400 -7.47600 49.17300
C  28.67100 -6.85000 49.35800
C  28.61700 -5.75300 48.41500
C  27.28700 -5.77900 47.80400
C  29.85200 -7.25800 50.29500
C  29.28400 -4.63300 47.84200
O  30.37800 -4.22500 48.11500
C  28.30900 -3.94100 46.79300
C  28.24800 -2.42600 47.18800
O  28.12800 -1.86400 48.31000
O  28.31400 -1.72300 46.02900
C  28.08200 -0.26400 46.19700
H  21.82600 -5.17300 44.52600
H  21.64900 -10.25800 48.42400
H  27.63100 -9.00500 50.51600
H  25.93300 -2.65800 45.11400
H  23.98100 -4.22900 43.49400
H  23.84300 -1.75200 44.75000
H  22.45700 -2.76100 45.38100
H  22.66600 -2.47700 43.69800
H  25.94100 -4.38800 42.79800
H  27.21100 -4.80600 43.83200
H  28.34100 -3.17400 43.11400
H  27.35700 -1.95700 43.68800
H  19.51200 -7.75900 44.27900
H  19.87700 -5.94800 44.36700
H  18.62300 -6.57300 45.32500
H  19.36600 -10.33600 48.95400
H  20.15700 -11.03200 47.48100
H  18.36600 -10.97700 47.56500
H  23.81600 -11.56600 49.15900
H  24.98700 -10.38800 51.47500
H  21.74000 -10.90000 50.67700
H  22.98100 -10.70100 51.87400
H  22.72900 -12.31500 51.11200
H  26.76100 -11.75500 49.34000
H  25.79800 -12.63100 50.49600
H  27.28600 -12.47000 52.05800
H  27.38400 -10.63700 51.98100
H  28.25200 -11.64100 50.90100
H  30.31500 -8.14400 49.85900
H  29.46400 -7.48200 51.28800
H  30.52700 -6.40300 50.29000
H  28.85200 -3.92500 45.84800
H  28.26500 0.18800 45.22200
H  28.65400 0.20200 46.99900
H  27.06100 -0.08800 46.53600
Mg 9.14200 47.47200 28.33900
C  7.35000 47.12100 31.38000
C  11.94900 48.21200 30.15200
C  10.74100 48.52300 25.53700
C  6.05700 48.28200 26.72900
N  9.52600 47.60900 30.52400
C  8.73500 47.34600 31.63300
C  9.49400 47.61800 32.97400
C  10.84600 48.05500 32.45800
C  10.77100 48.04100 30.90100
C  11.29600 49.48900 32.94200
C  9.37800 46.41700 33.88700
C  10.51900 46.09400 34.86500
H  10.10500 45.20600 36.08900
N  11.15800 47.77700 27.91100
C  12.13800 48.02200 28.80900
C  13.42400 48.14900 28.17300
C  13.11600 48.31400 26.75600
C  11.60600 48.21900 26.63300
C  14.80300 48.28600 28.84400
C  14.03800 48.56000 25.55600
O  13.61600 48.75100 24.45400
C  15.46700 48.51300 25.82500
N  8.49700 48.21000 26.35700
C  9.32700 48.51200 25.40600
C  8.73600 49.09100 24.16300
C  7.22900 48.84200 24.49100
C  7.21100 48.35600 25.94900
C  9.08600 50.59700 23.92700
C  6.49300 47.78700 23.57600
C  7.30000 46.42700 23.60700
N  7.12400 47.54300 28.81500
C  5.98600 47.83500 28.06500
C  4.79000 47.55700 28.89500
C  5.29700 47.21000 30.23000
C  6.71900 47.29900 30.06900
C  3.31600 47.67200 28.43100
C  4.91500 46.92900 31.57600
O  3.80700 46.79700 32.03300
C  6.20900 47.07300 32.36700
C  6.33000 45.89000 33.17900
O  6.52300 44.75800 32.71100
O  6.26200 46.13300 34.52900
C  6.49500 44.91700 35.35100
H  12.81200 48.38100 30.79800
H  11.33800 48.83100 24.67600
H  5.09300 48.39100 26.22800
H  8.94500 48.49700 33.31100
H  11.48300 47.20100 32.68800
H  12.38200 49.52800 33.02400
H  10.80000 49.63300 33.90200
H  10.87900 50.28300 32.32400
H  8.98400 45.52900 33.39100
H  8.61300 46.72700 34.59800
H  10.78500 47.05800 35.29900
H  11.43300 45.72200 34.40200
H  15.64800 47.74900 28.41200
H  14.81900 48.05400 29.90900
H  15.09100 49.33800 28.83900
H  15.97900 48.81600 24.91300
H  15.64100 47.45700 26.02900
H  15.77700 49.19100 26.62100
H  9.04000 48.49700 23.30100
H  6.74200 49.81000 24.37300
H  9.93200 50.57800 23.24000
H  9.43900 51.01200 24.87100
H  8.23700 51.15500 23.53200
H  6.43000 48.08500 22.52900
H  5.50100 47.60700 23.99200
H  8.07800 46.41900 24.37000
H  7.75900 46.27100 22.63100
H  6.74100 45.52000 23.83900
H  3.25000 48.43500 27.65500
H  2.60400 48.01700 29.18100
H  2.97200 46.66700 28.18900
H  6.06900 47.90900 33.05300
H  6.41000 45.31700 36.36100
H  7.42000 44.40000 35.09300
H  5.68500 44.21100 35.17000

