158

Mg -2.21400 16.36900 26.80400
C  -2.67500 14.02400 29.30200
C  -2.59400 18.84400 29.35300
C  -2.21500 18.76700 24.38100
C  -2.19900 13.79300 24.43700
N  -2.67100 16.42800 29.05300
C  -2.60300 15.35200 29.84400
C  -2.75700 15.80000 31.30700
C  -2.99300 17.31000 31.22600
C  -2.73800 17.55200 29.80700
C  -4.48000 17.74200 31.66800
C  -1.65500 15.28900 32.37700
C  -1.29900 16.13100 33.64900
H  -0.93900 15.33300 34.97200
N  -2.15300 18.44700 26.90400
C  -2.31300 19.26200 27.99600
C  -2.09900 20.57500 27.55700
C  -2.07900 20.60500 26.13900
C  -2.13600 19.20700 25.76900
C  -2.20600 21.76600 28.51000
C  -2.04800 21.74800 25.25900
O  -2.02300 21.67800 24.05100
C  -2.17400 23.06800 25.81000
N  -2.22000 16.23800 24.71900
C  -2.16700 17.35900 23.89200
C  -2.07900 17.07200 22.36800
C  -1.94300 15.48500 22.44300
C  -2.14800 15.11100 23.96100
C  -3.38300 17.48300 21.60300
C  -0.64700 14.91900 21.70800
C  0.64300 14.82600 22.59300
N  -2.54100 14.39300 26.81100
C  -2.42100 13.45100 25.76800
C  -2.60900 12.02700 26.18300
C  -2.65100 12.24400 27.61300
C  -2.58000 13.68200 27.93600
C  -2.85800 10.85300 25.35000
C  -2.74200 11.58700 28.89600
O  -2.95100 10.39200 29.11100
C  -2.76500 12.67700 30.02400
C  -1.68200 12.41100 30.90900
O  -0.49100 12.65700 30.61800
O  -2.09100 11.61600 31.92200
C  -1.11200 11.42300 32.95000
H  -2.62400 19.59100 30.14800
H  -2.29200 19.47900 23.55600
H  -2.11200 12.95500 23.74200
H  -3.68900 15.34100 31.63600
H  -2.29800 17.85800 31.86200
H  -4.91100 16.87900 32.17500
H  -5.13100 18.08400 30.86300
H  -4.40200 18.63900 32.28200
H  -0.70800 15.04600 31.89500
H  -2.12500 14.36700 32.71800
H  -2.10200 16.83500 33.86500
H  -0.34500 16.60600 33.41700
H  -1.27300 22.32800 28.49700
H  -2.32700 21.53600 29.56900
H  -3.06300 22.38500 28.24500
H  -3.05800 23.20700 26.43300
H  -2.12100 23.80100 25.00500
H  -1.29000 23.14200 26.44400
H  -1.21200 17.56600 21.92700
H  -2.84400 15.05300 22.00500
H  -3.11500 18.41100 21.09800
H  -4.10300 17.68800 22.39500
H  -3.78500 16.81500 20.84200
H  -0.35400 15.66900 20.97400
H  -0.90600 14.07500 21.06800
H  0.58300 14.33400 23.56400
H  1.16900 15.77100 22.73300
H  1.34500 14.22100 22.02000
H  -2.30000 11.04800 24.43400
H  -3.90800 10.80200 25.06200
H  -2.55700 9.95600 25.89100
H  -3.73700 12.53400 30.49500
H  -1.64200 10.68400 33.55200
H  -0.91000 12.33800 33.50600
H  -0.17600 10.96200 32.63600
Mg 6.27300 53.05200 40.46500
C  5.68600 49.54300 40.45900
C  9.37100 52.37600 39.27800
C  6.49800 56.31500 39.62600
C  2.87900 53.43000 41.27400
N  7.35700 51.18700 39.91400
C  6.94100 49.89100 39.99700
C  8.03000 48.88200 39.50600
C  9.30800 49.79200 39.56600
C  8.68500 51.22400 39.65000
C  10.42400 49.50400 40.64700
C  7.80900 48.31000 38.05000
C  7.00000 49.04900 36.98400
H  7.81500 49.54700 35.71900
N  7.74000 54.15300 39.58100
C  8.98100 53.72500 39.30000
C  9.82900 54.92700 38.86100
C  9.00800 56.04300 38.88600
C  7.67200 55.50100 39.36000
C  11.25900 54.85700 38.40800
C  9.39400 57.35800 38.30000
O  10.59500 57.62400 37.96500
C  8.41600 58.47600 38.20100
N  4.88800 54.60800 40.31000
C  5.26900 55.86900 40.02300
C  4.19500 56.90500 40.44000
C  3.00300 56.00300 40.91500
C  3.59600 54.56600 40.84300
C  4.75600 57.91500 41.53700
C  1.69100 56.22400 40.16800
C  0.43100 56.77800 40.93700
N  4.59800 51.81700 40.91800
C  3.30100 52.06600 41.26100
C  2.58700 50.88600 41.54800
C  3.48700 49.86600 41.18800
C  4.66300 50.48300 40.75000
C  1.19100 50.66100 42.11000
C  3.70200 48.41700 41.17900
O  2.93500 47.51100 41.37300
C  5.15800 48.18800 40.62600
C  5.01100 47.26300 39.41600
O  4.51300 47.61800 38.35600
O  5.19200 45.93700 39.80700
C  4.93500 44.94100 38.76100
H  10.33200 51.99800 38.92200
H  6.51800 57.38700 39.41700
H  1.82200 53.46100 41.54200
H  8.06500 48.07200 40.23400
H  9.84000 49.73000 38.61700
H  11.43900 49.85000 40.45200
H  10.53800 48.42100 40.68700
H  10.19000 49.85500 41.65200
H  7.25400 47.37600 38.13300
H  8.76800 47.95800 37.66800
H  6.57600 49.92200 37.48100
H  6.22700 48.35900 36.64500
H  11.36800 55.24600 37.39600
H  11.58300 53.82000 38.31800
H  11.89200 55.25700 39.20100
H  8.11900 58.69200 39.22700
H  7.66600 58.19300 37.46300
H  8.80300 59.47000 37.97800
H  3.81400 57.44400 39.57200
H  2.65600 56.15500 41.93700
H  5.63300 57.45100 41.98800
H  4.05000 58.06700 42.35300
H  5.00500 58.84900 41.03400
H  1.29900 55.26500 39.83100
H  1.86800 56.76700 39.24000
H  0.68400 56.86800 41.99400
H  -0.49300 56.20300 40.98800
H  0.23300 57.78100 40.56100
H  0.59700 51.54200 42.35200
H  1.20400 49.99500 42.97200
H  0.61800 50.08500 41.38300
H  5.72200 47.59400 41.34500
H  5.88700 44.94800 38.23000
H  4.18700 45.14800 37.99700
H  4.62100 44.00500 39.22200

