158

Mg 1.80700 -1.81700 43.58400
C  5.23500 -0.80200 43.94700
C  1.37500 0.97400 41.62000
C  -1.19900 -2.97800 43.00700
C  2.80300 -4.99400 44.91400
N  3.14600 -0.07000 42.84000
C  4.45300 0.02500 43.15200
C  5.04400 1.26700 42.46000
C  3.81100 1.94300 41.75400
C  2.70500 0.93100 42.03600
C  3.45300 3.35800 42.36200
C  6.21800 1.08700 41.45200
C  6.33500 -0.18700 40.59300
H  6.40800 0.18400 39.08000
N  0.18700 -1.06500 42.56700
C  0.21200 0.09600 41.81700
C  -1.14400 0.34000 41.35400
C  -1.94200 -0.77400 41.66100
C  -1.03100 -1.71900 42.41300
C  -1.46900 1.57200 40.56700
C  -3.42500 -0.98700 41.39900
O  -4.08400 -0.23400 40.70900
C  -4.15600 -2.18200 41.95700
N  0.99200 -3.81100 43.58000
C  -0.33900 -3.93000 43.56200
C  -0.80400 -5.23200 44.22200
C  0.51600 -5.93800 44.50700
C  1.48100 -4.81400 44.38600
C  -1.71500 -4.93400 45.48200
C  0.93500 -7.11600 43.62600
C  0.73700 -8.45900 44.38500
N  3.60600 -2.75700 44.35200
C  3.88100 -4.05300 44.79200
C  5.32200 -4.13700 45.25900
C  5.87800 -2.87200 44.94500
C  4.83400 -2.10100 44.33900
C  5.91000 -5.19100 46.08600
C  7.01900 -1.92400 45.07300
O  8.08900 -2.04600 45.62800
C  6.71400 -0.71400 44.26300
C  6.99000 0.52900 45.01500
O  6.52000 0.77300 46.08400
O  7.78200 1.43100 44.33100
C  7.81700 2.79700 44.89900
H  1.19600 1.86800 41.01800
H  -2.23600 -3.31700 42.95700
H  2.99700 -5.89500 45.49900
H  5.52700 1.88900 43.21400
H  3.96400 2.02500 40.67800
H  4.35000 3.85100 42.73600
H  2.63900 3.40300 43.08600
H  3.18700 4.02100 41.53900
H  7.17300 1.28300 41.94100
H  6.21300 1.89100 40.71700
H  5.46800 -0.81600 40.79500
H  7.24500 -0.64400 40.98200
H  -0.70600 1.77800 39.81700
H  -1.46100 2.43000 41.24000
H  -2.41500 1.41000 40.05000
H  -5.22600 -2.15900 41.75000
H  -4.09300 -2.06100 43.03800
H  -3.69800 -3.09900 41.58500
H  -1.45000 -5.77000 43.52800
H  0.43500 -6.24700 45.54900
H  -1.47700 -5.54700 46.35100
H  -2.72900 -5.22400 45.20500
H  -1.60500 -3.87200 45.70200
H  2.00000 -7.05000 43.40300
H  0.51200 -7.15000 42.62200
H  -0.02800 -8.38000 45.15700
H  1.70100 -8.70700 44.82800
H  0.44200 -9.32400 43.79200
H  6.28500 -5.98200 45.43700
H  5.11000 -5.57800 46.71800
H  6.79500 -4.88000 46.64100
H  7.45100 -0.77500 43.46200
H  6.84800 3.26300 44.72300
H  8.62400 3.36600 44.43600
H  8.07800 2.74200 45.95600
Mg 9.65900 48.35400 26.15900
C  7.54700 48.31900 29.01200
C  12.12900 49.75800 28.06800
C  11.59800 48.47100 23.38200
C  6.84300 47.83000 24.21900
N  9.70000 49.03900 28.28900
C  8.84300 48.70200 29.29000
C  9.29500 49.21600 30.59700
C  10.70900 49.94400 30.19100
C  10.88600 49.60900 28.73500
C  10.81200 51.48100 30.49000
C  9.35000 48.17000 31.70700
C  10.01100 48.63700 33.01200
H  9.28200 48.42000 34.36100
N  11.64200 48.89400 25.79400
C  12.55000 49.37500 26.73600
C  13.92000 49.33000 26.15100
C  13.61500 49.12700 24.78500
C  12.22600 48.93000 24.57800
C  15.20500 49.68300 26.92100
C  14.56900 49.19500 23.64600
O  14.21400 49.20300 22.48200
C  16.06200 49.30300 23.96200
N  9.24700 48.24900 24.09900
C  10.23700 48.25900 23.12800
C  9.58700 47.83100 21.76500
C  8.15800 47.46100 22.11700
C  8.09000 47.77400 23.59800
C  9.72400 48.82300 20.54900
C  7.84600 46.00400 21.77600
C  8.47500 45.04100 22.72300
N  7.51000 48.14700 26.49900
C  6.51700 47.90700 25.57200
C  5.31800 47.59400 26.26300
C  5.64700 47.68900 27.61900
C  7.00500 48.02600 27.70700
C  3.93300 47.10000 25.79000
C  5.16300 47.60700 28.98700
O  4.03800 47.29100 29.36600
C  6.37300 47.99600 29.96900
C  6.55900 46.69200 30.60500
O  7.49000 45.93900 30.26300
O  5.65300 46.55900 31.60700
C  5.86600 45.36900 32.52400
H  12.90300 49.87600 28.82900
H  12.05000 48.42300 22.38900
H  5.99600 47.48000 23.62400
H  8.57900 49.98400 30.89000
H  11.51200 49.45200 30.74000
H  11.83100 51.63800 30.84200
H  10.11100 51.78100 31.26900
H  10.70100 51.95700 29.51500
H  9.92000 47.33300 31.30400
H  8.33800 47.85600 31.96100
H  10.14200 49.71900 32.98300
H  10.96900 48.14000 33.16600
H  15.96100 48.89800 26.93900
H  14.89300 49.87400 27.94800
H  15.55800 50.61000 26.46900
H  16.30800 48.58200 24.74100
H  16.32100 50.29300 24.33800
H  16.60100 49.07800 23.04200
H  10.04000 46.90200 21.41700
H  7.46500 48.03300 21.50000
H  10.15000 49.76600 20.89200
H  8.73300 49.01300 20.13900
H  10.41200 48.33200 19.86000
H  8.35600 45.71500 20.85700
H  6.75800 45.96700 21.83700
H  7.71300 44.55300 23.33100
H  9.20400 45.48100 23.40500
H  8.92700 44.24100 22.13800
H  4.02700 46.54800 24.85600
H  3.43800 48.05300 25.60500
H  3.29100 46.49700 26.43200
H  6.22200 48.84900 30.63200
H  5.96200 45.52600 33.59900
H  6.61600 44.63300 32.23500
H  4.99700 44.73600 32.34200

