158

Mg 49.49500 46.65700 43.85800
C  46.34700 46.93100 42.50300
C  49.96200 43.67500 42.29400
C  52.95100 46.93000 44.46800
C  49.32700 50.02200 44.82100
N  48.22400 45.44400 42.45200
C  46.96400 45.68200 42.07000
C  46.41700 44.59500 41.11300
C  47.59600 43.48800 41.18000
C  48.68400 44.20800 42.03000
C  47.18000 42.10700 41.74100
C  46.02500 45.21400 39.70200
C  44.68200 44.83500 39.14000
H  44.58100 43.78300 38.06300
N  51.15800 45.46300 43.49500
C  51.14500 44.24200 42.93000
C  52.45900 43.62100 42.90100
C  53.29500 44.49800 43.65000
C  52.49500 45.71100 43.91100
C  52.73400 42.24200 42.42300
C  54.71500 44.20000 43.99800
O  55.23100 43.14100 43.68700
C  55.49300 45.10600 44.85900
N  50.97200 48.33500 44.51700
C  52.30200 48.15500 44.70000
C  52.93500 49.45600 45.34700
C  51.75400 50.42100 45.43100
C  50.61700 49.54100 45.01300
C  53.87600 49.21700 46.56700
C  51.75000 51.89700 44.70900
C  51.79100 53.11400 45.70500
N  48.07800 48.11900 43.91700
C  48.14700 49.43900 44.31300
C  46.84900 50.05200 44.12000
C  46.07500 49.06700 43.49900
C  46.90600 47.96300 43.31800
C  46.43700 51.40100 44.45100
C  44.86400 48.79100 42.79700
O  43.85000 49.37200 42.61500
C  44.97000 47.35300 42.22400
C  44.03700 46.52800 43.01600
O  43.94800 46.57600 44.23500
O  43.23300 45.91000 42.12500
C  42.01100 45.29100 42.65300
H  50.00600 42.76200 41.69700
H  54.04100 46.97500 44.52200
H  49.18300 51.07400 45.08000
H  45.53600 44.10700 41.53100
H  48.05200 43.29000 40.21000
H  47.84900 41.95200 42.58700
H  47.37200 41.24100 41.10800
H  46.14500 41.99100 42.06200
H  46.81500 44.82200 39.06200
H  45.95100 46.30000 39.65300
H  44.09000 45.68000 38.78800
H  44.03800 44.54100 39.96900
H  53.22100 42.38400 41.45800
H  51.81800 41.65200 42.42100
H  53.34300 41.77800 43.19800
H  56.32400 44.47000 45.16500
H  54.83600 45.45800 45.65400
H  55.88100 45.99400 44.36200
H  53.52600 50.01300 44.62000
H  51.68400 50.58900 46.50600
H  54.01900 48.15700 46.77300
H  53.47800 49.73800 47.43800
H  54.86100 49.56500 46.25600
H  50.85000 51.95900 44.09600
H  52.58600 51.94700 44.01100
H  52.38300 53.86800 45.18700
H  52.17600 52.92800 46.70800
H  50.74200 53.38200 45.82700
H  46.71900 51.54400 45.49400
H  45.40200 51.53200 44.13400
H  46.99600 52.11800 43.85100
H  44.80000 47.34300 41.14700
H  42.28700 44.23900 42.73600
H  41.18800 45.46000 41.95900
H  41.71900 45.75100 43.59700
Mg 16.98500 53.08600 26.08900
C  19.11900 51.50900 28.46500
C  14.86200 53.87300 28.70800
C  15.03000 54.51900 23.91400
C  19.21300 52.13500 23.58300
N  16.94400 52.60500 28.28800
C  17.99100 52.11900 29.04600
C  17.76700 52.31400 30.55500
C  16.31400 52.88500 30.57900
C  16.00400 53.18500 29.09600
C  15.16800 51.99500 31.24400
C  18.75900 53.25900 31.25500
C  19.12900 53.07400 32.74700
H  18.13600 52.43800 33.71200
N  15.15900 54.01500 26.24000
C  14.52900 54.35900 27.37700
C  13.44000 55.27400 27.07400
C  13.40200 55.42100 25.69100
C  14.57300 54.58500 25.19900
C  12.43700 55.77100 28.13100
C  12.37500 56.19500 24.84100
O  12.44500 56.25800 23.63500
C  11.32800 56.85700 25.52700
N  17.01400 53.15200 23.95700
C  16.11700 53.92800 23.32000
C  16.50600 54.14900 21.84900
C  17.93600 53.42800 21.75400
C  18.05500 52.82100 23.14000
C  15.53500 53.52800 20.84000
C  19.17100 54.34700 21.43200
C  20.31300 53.82600 20.57800
N  18.70900 51.81600 25.96400
C  19.45900 51.54100 24.86000
C  20.56900 50.76100 25.32700
C  20.54300 50.71400 26.75100
C  19.35900 51.40200 27.04400
C  21.77600 50.24500 24.47400
C  21.22400 50.28900 27.92500
O  22.19800 49.61900 28.13100
C  20.22700 50.81000 29.10600
C  19.78200 49.68500 29.94200
O  19.42200 48.60200 29.50500
O  20.10700 49.86200 31.28700
C  19.65500 48.71000 32.11800
H  14.37100 54.38200 29.54000
H  14.39000 55.09500 23.24200
H  19.98100 51.99300 22.82000
H  17.70000 51.32800 31.01500
H  16.31100 53.91400 30.93700
H  14.40300 52.74800 31.43300
H  15.55500 51.52100 32.14700
H  14.86400 51.14100 30.63900
H  18.61100 54.30700 30.99200
H  19.71200 53.04100 30.77300
H  19.36800 54.08100 33.08700
H  20.04400 52.48200 32.72400
H  12.46500 56.86100 28.13400
H  12.77600 55.53800 29.14000
H  11.45800 55.30500 28.23900
H  10.72000 56.14500 26.08600
H  10.66200 57.47300 24.92300
H  11.80300 57.63900 26.11900
H  16.44400 55.20400 21.58000
H  17.85800 52.61600 21.03100
H  14.76100 54.24800 20.57700
H  15.17100 52.58400 21.24600
H  16.08500 53.26800 19.93500
H  19.54400 54.48200 22.44800
H  18.89200 55.31600 21.01900
H  20.33700 54.41100 19.65900
H  20.30100 52.81700 20.16600
H  21.27800 54.03300 21.04200
H  22.70200 50.34500 25.04000
H  21.91200 50.82400 23.56000
H  21.64500 49.19700 24.20400
H  20.89700 51.40200 29.72900
H  20.08600 47.75100 31.83000
H  18.57300 48.74700 31.98800
H  19.77000 48.85600 33.19200

