158

Mg 1.44900 -2.11900 44.10600
C  4.92500 -1.58000 43.92300
C  1.01000 0.66700 42.28300
C  -1.74800 -3.04000 43.88500
C  2.13400 -5.26800 45.72900
N  2.89400 -0.58700 43.26000
C  4.21600 -0.58500 43.22300
C  4.79200 0.58600 42.28200
C  3.44500 1.35900 41.99100
C  2.33800 0.43800 42.55100
C  3.42800 2.78500 42.47900
C  5.54100 0.06100 41.06800
C  7.03700 0.59500 41.03900
H  7.42800 1.49600 39.91000
N  -0.10400 -1.24500 43.30200
C  -0.10700 -0.06700 42.63700
C  -1.45100 0.24700 42.33200
C  -2.31400 -0.86900 42.57900
C  -1.42300 -1.81400 43.23600
C  -1.94900 1.47200 41.70000
C  -3.76600 -0.99200 42.34700
O  -4.43300 0.02900 42.13400
C  -4.40800 -2.35800 42.40100
N  0.33200 -3.88000 44.78300
C  -1.01300 -4.00400 44.60300
C  -1.57200 -5.35000 45.02600
C  -0.33600 -5.91400 45.86200
C  0.80300 -5.02100 45.39700
C  -2.95000 -5.25300 45.73900
C  -0.10000 -7.44500 45.75000
C  0.49100 -8.19700 47.03400
N  3.13900 -3.25700 44.67600
C  3.21800 -4.47700 45.41700
C  4.59400 -4.80800 45.53600
C  5.30800 -3.67000 45.03500
C  4.38700 -2.73300 44.54200
C  5.03700 -6.10100 46.18500
C  6.66500 -3.08700 44.88200
O  7.71300 -3.43300 45.31200
C  6.43100 -1.73800 44.10200
C  6.80000 -0.52400 44.91200
O  6.20200 -0.02300 45.83700
O  7.91300 0.06600 44.33400
C  8.13600 1.41100 44.71500
H  0.95600 1.57500 41.68000
H  -2.80100 -3.32400 43.93600
H  2.30600 -6.25100 46.17100
H  5.36600 1.31700 42.85000
H  3.27800 1.38700 40.91400
H  2.68400 2.80500 43.27500
H  3.27400 3.49600 41.66700
H  4.37000 3.06200 42.95200
H  5.06900 0.44900 40.16500
H  5.50300 -1.02300 40.96500
H  7.66000 -0.29800 40.97500
H  7.25000 1.07600 41.99400
H  -2.59400 1.25900 40.84800
H  -1.09800 2.12400 41.50300
H  -2.53700 2.01500 42.44000
H  -5.22100 -2.38100 41.67600
H  -4.93500 -2.51200 43.34200
H  -3.75200 -3.12200 41.98500
H  -1.74000 -5.93200 44.11900
H  -0.28900 -5.66400 46.92200
H  -2.76200 -5.86700 46.62000
H  -3.78500 -5.69100 45.19300
H  -3.14100 -4.18900 45.88400
H  0.61200 -7.76200 44.98900
H  -1.05400 -7.91900 45.51900
H  1.43200 -8.72500 46.88100
H  -0.19800 -8.85000 47.57000
H  0.71800 -7.42500 47.76900
H  4.61800 -6.98500 45.70600
H  4.63600 -6.11800 47.19900
H  6.12700 -6.08800 46.18000
H  6.99200 -1.93900 43.19000
H  8.82500 1.82400 43.97900
H  8.57400 1.70800 45.66800
H  7.21700 1.96600 44.52600
Mg 23.74000 -5.80300 45.43100
C  26.09400 -3.58800 43.79500
C  21.43600 -4.57100 43.21600
C  21.91500 -8.49800 46.07900
C  26.45800 -7.24000 47.09100
N  23.80400 -4.23700 43.75700
C  24.86500 -3.50200 43.21200
C  24.39500 -2.64600 41.99300
C  22.82600 -2.62000 42.24800
C  22.64600 -3.94500 43.09300
C  22.30100 -1.34400 42.96500
C  24.88000 -3.18700 40.61100
C  25.53200 -2.30200 39.43800
H  24.94200 -2.37200 38.03800
N  21.87700 -6.43600 44.76500
C  21.00700 -5.75500 43.88100
C  19.70500 -6.42900 43.91500
C  19.83900 -7.64400 44.68400
C  21.26400 -7.57500 45.18200
C  18.57500 -5.82100 43.15900
C  18.80600 -8.74300 44.87500
O  17.64600 -8.47300 44.49400
C  18.94400 -9.98200 45.75300
N  24.11500 -7.71400 46.45500
C  23.19300 -8.59800 46.64500
C  23.67300 -9.82500 47.55100
C  25.12700 -9.26100 47.95400
C  25.28000 -8.00000 47.14500
C  22.67000 -10.15300 48.79600
C  26.26600 -10.30500 47.72300
C  27.16800 -10.61800 48.95200
N  25.80100 -5.42000 45.62800
C  26.72700 -6.09200 46.34300
C  27.99400 -5.42400 46.13300
C  27.85000 -4.49600 45.19500
C  26.48600 -4.52000 44.86300
C  29.32300 -5.86500 46.71000
C  28.51600 -3.49600 44.34900
O  29.77600 -3.35400 44.18200
C  27.36500 -2.80600 43.50000
C  27.33200 -1.39200 43.97500
O  26.54300 -0.90400 44.75300
O  28.19300 -0.58600 43.24800
C  27.70400 0.82600 43.11200
H  20.62100 -4.23300 42.57300
H  21.36300 -9.41100 46.31000
H  27.23800 -7.84100 47.56300
H  24.84300 -1.66200 42.12600
H  22.30300 -2.77200 41.30400
H  21.38000 -0.94100 42.54500
H  23.04700 -0.56900 43.14100
H  22.05700 -1.54600 44.00800
H  23.97200 -3.53800 40.12000
H  25.45600 -4.09100 40.80700
H  26.59100 -2.56100 39.40900
H  25.54000 -1.26200 39.76300
H  18.40600 -6.09600 42.11800
H  18.71000 -4.74600 43.27900
H  17.61900 -6.00700 43.64800
H  18.03200 -10.57000 45.85000
H  19.24300 -9.54500 46.70600
H  19.74400 -10.61600 45.37100
H  23.59800 -10.72000 46.93300
H  25.02400 -8.93800 48.99000
H  22.00500 -9.30200 48.94600
H  23.11700 -10.12500 49.79000
H  22.10300 -11.08000 48.71800
H  26.98400 -9.90400 47.00800
H  25.82200 -11.25300 47.42100
H  28.19800 -10.56900 48.59900
H  26.99800 -11.64000 49.29000
H  26.90700 -9.97200 49.79000
H  29.87300 -6.59800 46.12100
H  29.08600 -6.29700 47.68200
H  29.88900 -4.93400 46.76300
H  27.63400 -2.80300 42.44300
H  26.62400 0.81500 42.96400
H  28.03500 1.21800 42.15000
H  28.01500 1.40600 43.98000

