158

Mg 40.84100 7.84200 29.79600
C  42.56300 9.08100 32.58400
C  38.38500 6.63500 31.86600
C  39.38200 6.39600 27.16500
C  43.73900 8.45200 27.83700
N  40.44400 7.83500 32.04600
C  41.19800 8.57400 32.93000
C  40.42100 8.71100 34.26700
C  39.15300 7.71000 34.07900
C  39.30700 7.36000 32.62500
C  39.01000 6.46500 35.06400
C  40.17200 10.18600 34.50200
C  39.83400 10.50300 36.01000
H  40.88000 11.32100 36.80700
N  39.07800 6.81200 29.54100
C  38.18000 6.43700 30.47300
C  37.00500 5.74900 29.91900
C  37.32900 5.59500 28.54500
C  38.64800 6.26200 28.36200
C  35.84100 5.12000 30.69000
C  36.61100 4.79700 27.50400
O  37.12900 4.53100 26.40800
C  35.21800 4.14100 27.74900
N  41.45700 7.41600 27.79600
C  40.69700 6.74300 26.90000
C  41.44600 6.70300 25.55200
C  42.79600 7.27700 25.80300
C  42.67800 7.75600 27.24600
C  41.59000 5.20000 24.91800
C  43.14800 8.44000 24.80100
C  42.29900 9.69300 24.99300
N  42.76300 8.51600 30.10200
C  43.82200 8.81000 29.25600
C  44.95800 9.41000 29.92300
C  44.50200 9.58800 31.18600
C  43.16500 8.94400 31.32200
C  46.26400 9.85200 29.27800
C  44.77700 10.14400 32.51600
O  45.76500 10.68900 32.95100
C  43.59500 9.75100 33.50300
C  44.09300 8.90500 34.66900
O  45.12700 8.25000 34.65400
O  43.20200 8.90200 35.69100
C  43.52500 8.05100 36.84500
H  37.51000 6.38600 32.47000
H  38.91400 6.04800 26.24200
H  44.59100 8.74500 27.22000
H  40.95800 8.24700 35.09500
H  38.19600 8.23000 34.03800
H  38.18100 6.63600 35.75000
H  39.88700 6.26900 35.68200
H  38.83900 5.58700 34.44200
H  39.30500 10.49000 33.91600
H  41.06200 10.74500 34.21500
H  39.72700 9.59800 36.61000
H  38.94900 11.12000 36.16400
H  34.85800 5.13600 30.21900
H  35.65900 5.55100 31.67400
H  36.14700 4.08800 30.86000
H  34.55800 4.90100 28.16800
H  35.37500 3.15300 28.18400
H  34.65300 3.97300 26.83200
H  40.82400 7.27100 24.86000
H  43.63000 6.57800 25.85100
H  41.29500 4.52700 25.72300
H  42.62800 4.96100 24.68800
H  41.06400 5.06200 23.97300
H  42.99800 8.08100 23.78300
H  44.22500 8.59700 24.85900
H  41.71900 9.80600 24.07700
H  42.93400 10.56900 25.12600
H  41.55900 9.59800 25.78800
H  46.49900 9.26500 28.39000
H  46.96300 9.44500 30.00900
H  46.29500 10.93900 29.20400
H  43.24100 10.66800 33.97400
H  43.37100 6.98700 36.67000
H  42.93700 8.39500 37.69600
H  44.55300 8.09600 37.20500
Mg 8.72500 47.38800 27.18900
C  7.09500 46.85500 30.25100
C  11.64800 47.81300 28.97200
C  10.25300 48.68000 24.29000
C  5.64700 47.94000 25.64300
N  9.31400 47.35900 29.39000
C  8.53000 47.03000 30.42600
C  9.28000 47.17900 31.81300
C  10.71000 47.70600 31.31800
C  10.56700 47.66800 29.81400
C  11.01100 49.13600 31.82900
C  9.34900 45.84200 32.76800
C  9.04900 46.14900 34.27300
H  9.25600 45.14600 35.34900
N  10.68700 48.03000 26.66500
C  11.73300 47.95200 27.54200
C  12.98900 48.28200 26.82500
C  12.61000 48.47200 25.46700
C  11.17000 48.43000 25.38200
C  14.35000 48.39200 27.44300
C  13.52300 48.62000 24.28100
O  13.14700 48.86300 23.16700
C  14.96500 48.61600 24.37500
N  8.10200 48.18900 25.33200
C  8.88800 48.48500 24.31100
C  8.09700 48.91100 23.00500
C  6.59100 48.48300 23.41800
C  6.82900 48.07200 24.86900
C  8.34000 50.42800 22.55400
C  6.15200 47.28600 22.48200
C  5.85500 47.65400 20.97500
N  6.76900 47.25600 27.73100
C  5.65100 47.57000 27.05400
C  4.49100 47.22300 27.84500
C  5.02800 46.91300 29.14100
C  6.44400 47.00600 29.04000
C  3.08800 47.36100 27.39700
C  4.71200 46.71100 30.53500
O  3.63200 46.69700 31.04800
C  6.05200 46.52400 31.28600
C  6.07900 45.20100 32.03600
O  6.49700 44.12800 31.52300
O  5.71100 45.30000 33.34000
C  5.87700 44.10100 34.10500
H  12.55200 47.75300 29.58200
H  10.62500 49.12000 23.36200
H  4.68300 47.95000 25.12900
H  8.70600 47.90500 32.38900
H  11.50300 47.03000 31.63900
H  10.83600 49.87200 31.04400
H  12.09700 49.21500 31.88100
H  10.56100 49.48500 32.75800
H  10.35200 45.42000 32.70300
H  8.75100 45.07400 32.27700
H  8.04000 46.54300 34.39800
H  9.71100 46.94200 34.62300
H  14.99100 47.57000 27.12600
H  14.14600 48.33500 28.51200
H  14.70300 49.35800 27.08000
H  15.27700 49.44200 25.01500
H  15.36700 48.78600 23.37700
H  15.21900 47.62800 24.75800
H  8.48300 48.29400 22.19400
H  5.99700 49.39200 23.31700
H  8.93300 50.53700 21.64600
H  8.83600 51.04600 23.30300
H  7.38900 50.93700 22.39400
H  5.27100 46.73800 22.81900
H  6.96000 46.55500 22.50500
H  6.67900 47.23100 20.39900
H  5.68600 48.71800 20.81200
H  4.93300 47.09200 20.82800
H  2.90300 48.00900 26.54000
H  2.45500 47.56500 28.26000
H  2.81200 46.35400 27.08200
H  6.15700 47.28300 32.06100
H  5.86800 44.31700 35.17300
H  6.89000 43.70100 34.04600
H  5.31400 43.26500 33.68900

