158

Mg 47.38000 25.41700 29.02200
C  47.91000 28.00900 31.35200
C  46.00800 23.58000 31.51100
C  47.01600 23.10100 26.77700
C  48.94500 27.51600 26.53300
N  47.01500 25.73700 31.20200
C  47.35000 26.88500 31.96500
C  46.83100 26.76800 33.38300
C  46.42500 25.28100 33.44700
C  46.47800 24.81400 31.96600
C  47.16900 24.38500 34.48500
C  45.72600 27.85400 33.81900
C  45.89900 28.33500 35.30400
H  46.73100 27.49400 36.31500
N  46.58100 23.61800 29.11600
C  46.10000 23.00100 30.26100
C  45.65900 21.66800 29.92000
C  45.95300 21.45300 28.49400
C  46.57800 22.70300 28.09700
C  44.96700 20.71800 30.91200
C  45.75500 20.27400 27.62200
O  46.24800 20.19200 26.50000
C  44.94600 19.13900 28.15800
N  47.77300 25.41100 26.85500
C  47.53100 24.24800 26.14900
C  48.02000 24.26700 24.64800
C  48.42400 25.85300 24.63800
C  48.40000 26.32400 26.04400
C  49.22600 23.30000 24.43500
C  47.60300 26.72100 23.62500
C  48.45600 27.40900 22.57500
N  48.23600 27.41400 28.82900
C  48.82600 28.13400 27.80300
C  49.18600 29.50400 28.25600
C  48.75700 29.52000 29.63300
C  48.25000 28.19900 29.96200
C  49.97100 30.67100 27.49900
C  48.68700 30.30600 30.85500
O  49.07200 31.45300 31.08900
C  48.34300 29.29700 32.06100
C  49.67600 29.12000 32.74800
O  50.70000 28.91000 32.15100
O  49.45300 29.05700 34.13000
C  50.55900 28.70900 34.88600
H  45.61000 22.94400 32.30500
H  46.91300 22.30900 26.03200
H  49.14700 28.23700 25.73800
H  47.73100 27.02800 33.94000
H  45.36600 25.33600 33.70000
H  46.42200 23.90800 35.12000
H  47.91500 24.96600 35.02700
H  47.69000 23.56400 33.99400
H  44.72000 27.48000 33.62600
H  45.76700 28.76600 33.22400
H  44.90600 28.29000 35.75100
H  46.30600 29.34300 35.22200
H  43.90900 20.58300 30.68500
H  44.90600 21.09600 31.93200
H  45.43300 19.73400 30.87900
H  45.27500 18.80800 29.14300
H  45.07700 18.24400 27.55000
H  43.89300 19.40800 28.23800
H  47.19400 24.11400 23.95400
H  49.49400 25.93400 24.45100
H  49.28600 22.66200 25.31600
H  50.14400 23.88600 24.48600
H  49.15000 22.76800 23.48600
H  47.16100 27.54000 24.19300
H  46.88500 25.97600 23.28100
H  49.51300 27.14100 22.56700
H  48.46200 28.48700 22.73000
H  48.19400 27.18500 21.54000
H  49.49100 31.56500 27.89700
H  49.94300 30.52400 26.41900
H  50.98600 30.86100 27.84700
H  47.62700 29.76200 32.73900
H  50.97600 29.63200 35.29000
H  51.42000 28.26100 34.39100
H  50.31500 27.99100 35.66800
Mg -11.69100 37.63700 42.45500
C  -9.54700 34.95600 41.47700
C  -9.52200 39.73500 41.06800
C  -14.04700 40.02200 42.85500
C  -14.05400 35.14800 43.41300
N  -9.87800 37.30800 41.16800
C  -9.12300 36.19100 41.02300
C  -7.87200 36.48800 40.26900
C  -7.73600 38.08600 40.36700
C  -9.14700 38.37700 40.94100
C  -6.50300 38.70000 41.18200
C  -7.89100 35.85300 38.82400
C  -6.49300 35.33700 38.51400
H  -5.87300 36.09100 37.35100
N  -11.78100 39.67600 41.99800
C  -10.73400 40.34300 41.45100
C  -11.18600 41.65200 41.22400
C  -12.49500 41.80900 41.72300
C  -12.87800 40.52400 42.23100
C  -10.33400 42.70700 40.62800
C  -13.33800 43.06300 41.67600
O  -12.99400 43.99300 40.95300
C  -14.74200 43.16500 42.26600
N  -13.75000 37.59800 42.95500
C  -14.44600 38.77300 43.16200
C  -15.88300 38.52200 43.81800
C  -15.77600 37.00000 44.04300
C  -14.43400 36.55600 43.42500
C  -16.13400 39.38600 45.12900
C  -16.99000 36.27800 43.39400
C  -17.06400 36.13300 41.89700
N  -11.81700 35.53700 42.50700
C  -12.80200 34.69700 42.94800
C  -12.33300 33.30200 42.92700
C  -11.05000 33.39000 42.40400
C  -10.84500 34.71800 41.99000
C  -12.97800 32.04300 43.51300
C  -9.77900 32.58900 42.15100
O  -9.53200 31.40800 42.37800
C  -8.77100 33.60400 41.44700
C  -7.55800 33.72300 42.26400
O  -7.48900 34.38000 43.29900
O  -6.45600 33.04300 41.72100
C  -5.15400 33.15100 42.47700
H  -8.70700 40.39500 40.76600
H  -14.88900 40.71400 42.92400
H  -14.66200 34.42500 43.96000
H  -6.97100 36.13100 40.76700
H  -7.70400 38.53600 39.37500
H  -5.69800 38.02200 41.46500
H  -6.81200 39.40800 41.95200
H  -5.92300 39.31700 40.49600
H  -8.18400 36.62600 38.11400
H  -8.54600 34.98600 38.73800
H  -6.56800 34.29700 38.19500
H  -5.87000 35.36800 39.40800
H  -9.29700 42.36900 40.61100
H  -10.37500 43.63500 41.19900
H  -10.72300 42.95900 39.64200
H  -14.95600 44.23300 42.23200
H  -14.51200 42.86100 43.28700
H  -15.50900 42.63500 41.70000
H  -16.64000 38.85200 43.10600
H  -15.82700 36.89800 45.12700
H  -17.13200 39.81800 45.05300
H  -15.29100 40.07500 45.17600
H  -16.23700 38.69100 45.96200
H  -17.86500 36.89700 43.58900
H  -17.30300 35.37200 43.91300
H  -17.31900 35.11200 41.61300
H  -16.17500 36.30100 41.28900
H  -17.83000 36.84400 41.58900
H  -14.04400 32.20900 43.66300
H  -12.56000 31.48900 44.35400
H  -12.82400 31.39200 42.65200
H  -8.51600 33.22600 40.45800
H  -5.30100 33.01500 43.54800
H  -4.75800 34.15100 42.30500
H  -4.46600 32.42300 42.04600

