158

Mg 1.84900 -1.32500 44.32600
C  5.19300 -0.19600 44.16900
C  0.89800 1.79000 43.25500
C  -1.28700 -2.40500 44.22500
C  2.92000 -4.51600 45.21500
N  2.94900 0.51400 43.70000
C  4.31700 0.82500 43.78700
C  4.59400 2.22100 43.16300
C  3.20900 2.94200 43.08600
C  2.32000 1.69100 43.33300
C  2.93900 4.07400 44.20000
C  5.24100 2.02700 41.79200
C  6.48500 2.93200 41.55900
H  7.55700 2.21100 40.79500
N  0.06500 -0.48000 43.64900
C  -0.14800 0.83200 43.33700
C  -1.52600 1.05100 43.10100
C  -2.20800 -0.17600 43.29100
C  -1.11800 -1.10000 43.76300
C  -2.03500 2.35700 42.68600
C  -3.66900 -0.51400 43.05000
O  -4.41100 0.35300 42.65900
C  -4.21100 -1.84700 43.29200
N  0.96600 -3.20300 44.50500
C  -0.40400 -3.32300 44.67500
C  -0.76600 -4.72400 44.96000
C  0.54300 -5.23800 45.58500
C  1.59900 -4.29500 45.02000
C  -2.11000 -4.98300 45.72900
C  0.76400 -6.73600 45.30900
C  1.16300 -7.70300 46.45000
N  3.63400 -2.19500 44.75300
C  3.89700 -3.54900 44.95200
C  5.30700 -3.59900 45.21600
C  5.86900 -2.38000 44.87400
C  4.81600 -1.55400 44.52800
C  5.99100 -4.77700 45.80300
C  7.18800 -1.58000 44.87100
O  8.34500 -1.94300 45.08300
C  6.68000 -0.09000 44.32900
C  7.17900 0.85000 45.37600
O  6.63500 1.05000 46.43800
O  8.24100 1.49000 44.84600
C  8.45700 2.77900 45.37300
H  0.52500 2.79500 43.04900
H  -2.25200 -2.91500 44.19100
H  3.18100 -5.50800 45.58800
H  5.18600 2.83100 43.84500
H  2.94900 3.41300 42.13800
H  3.79200 4.34300 44.82300
H  2.06600 3.75900 44.77200
H  2.54400 4.93200 43.65500
H  4.54400 2.17500 40.96700
H  5.52500 0.97700 41.72500
H  6.79900 3.36100 42.51100
H  6.21000 3.80700 40.97000
H  -3.06300 2.54500 42.99400
H  -1.86000 2.62700 41.64500
H  -1.61400 3.18500 43.25800
H  -3.78600 -2.68300 42.73700
H  -5.28200 -1.96300 43.12400
H  -4.12200 -2.11500 44.34500
H  -0.84000 -5.09900 43.93900
H  0.29700 -5.09200 46.63700
H  -2.70500 -4.11800 46.02000
H  -1.96700 -5.56600 46.63900
H  -2.81800 -5.37600 45.00000
H  1.60300 -6.89000 44.63000
H  -0.21400 -7.08100 44.97300
H  1.00200 -7.15800 47.38000
H  2.23500 -7.89900 46.43700
H  0.76500 -8.71700 46.39900
H  6.49300 -5.30300 44.99100
H  5.32800 -5.47600 46.31200
H  6.81400 -4.58600 46.49100
H  7.15900 0.16400 43.38300
H  7.49100 3.22800 45.60500
H  8.93600 3.43000 44.64200
H  8.93000 2.79000 46.35500
Mg 24.71800 1.49300 29.53800
C  26.44800 1.14900 32.53600
C  21.83300 1.99300 31.37800
C  23.00500 1.36000 26.69400
C  27.75900 0.63500 27.78600
N  24.19800 1.56300 31.70700
C  25.11900 1.56400 32.69600
C  24.44300 1.87700 34.05400
C  22.94000 2.11200 33.70700
C  22.94200 1.77400 32.18400
C  22.02600 1.19800 34.45700
C  25.00300 3.11500 34.80700
C  25.46500 2.89300 36.20700
H  25.40900 4.03900 37.14100
N  22.70800 1.76100 29.12300
C  21.68800 1.97700 29.98000
C  20.47800 2.03100 29.27900
C  20.78200 1.91000 27.87500
C  22.24400 1.74900 27.84500
C  19.21300 2.33700 29.96400
C  19.79700 1.94100 26.71000
O  20.16100 1.68200 25.52800
C  18.40800 2.16300 26.81200
N  25.36700 1.21200 27.54700
C  24.41000 1.16800 26.54200
C  24.99500 0.66700 25.27300
C  26.48400 0.82100 25.56200
C  26.58700 0.92000 27.02000
C  24.46900 -0.73600 24.99100
C  27.16500 2.01700 24.76800
C  26.48300 3.40400 24.94000
N  26.74600 1.03000 29.99600
C  27.84100 0.76100 29.18900
C  28.98700 0.60100 30.05300
C  28.49200 0.78000 31.34000
C  27.11400 1.04800 31.28600
C  30.37000 0.25000 29.65900
C  28.90200 0.77500 32.67100
O  30.00900 0.66700 33.16400
C  27.61200 0.99600 33.50100
C  27.46100 -0.18200 34.42300
O  26.70700 -1.14900 34.35000
O  28.43600 -0.10300 35.39500
C  28.43400 -1.02800 36.50700
H  21.02900 2.30700 32.04700
H  22.44000 1.13600 25.78700
H  28.67400 0.45100 27.21900
H  24.59300 0.98000 34.65300
H  22.67000 3.13800 33.95600
H  21.57700 0.54500 33.70800
H  21.25600 1.73700 35.00800
H  22.63300 0.57800 35.11700
H  24.32900 3.97100 34.76200
H  25.87000 3.38600 34.20400
H  26.45600 2.44000 36.24600
H  24.89200 2.08900 36.66800
H  19.12100 2.46700 31.04200
H  18.56300 1.54300 29.59500
H  18.80700 3.25500 29.54000
H  18.26100 2.88300 27.61600
H  18.00300 1.18300 27.06600
H  17.88000 2.56200 25.94700
H  24.78800 1.32300 24.42700
H  27.00400 -0.09100 25.26900
H  23.74700 -0.54600 24.19600
H  24.02500 -1.18600 25.87900
H  25.16200 -1.42600 24.51000
H  27.18400 1.72400 23.71800
H  28.19700 2.22600 25.04800
H  25.75900 3.46600 25.75200
H  25.97500 3.68100 24.01600
H  27.25300 4.12600 25.21300
H  30.56500 0.47300 28.61000
H  30.62400 -0.80100 29.79100
H  31.03800 0.78800 30.33300
H  27.74600 1.84100 34.17600
H  27.59700 -0.68800 37.11700
H  29.28200 -1.04800 37.19200
H  28.25800 -2.06000 36.20400

