158

Mg 30.10000 57.60700 40.53000
C  27.08500 56.16800 39.44900
C  31.79500 55.01800 39.08700
C  32.77700 59.72600 40.26200
C  28.18200 60.54700 41.44200
N  29.46600 55.92200 39.35100
C  28.19200 55.41300 39.11900
C  28.23500 54.06600 38.42600
C  29.75700 53.71100 38.51100
C  30.35100 54.90700 39.06200
C  30.03300 52.47000 39.52800
C  27.64100 54.10100 36.95200
C  27.96700 55.35600 36.15600
H  27.92600 55.26900 34.62100
N  32.02300 57.37200 39.81400
C  32.51500 56.24500 39.33200
C  33.90400 56.49700 39.14800
C  34.23500 57.83600 39.34000
C  33.01700 58.43300 39.80300
C  34.80700 55.37100 38.70000
C  35.64900 58.49200 39.16300
O  36.58300 57.89700 38.62900
C  35.90200 59.97800 39.64500
N  30.53500 59.70700 41.20200
C  31.73700 60.27900 40.98900
C  31.67100 61.78800 41.24300
C  30.18400 62.05100 41.63600
C  29.58400 60.63300 41.39900
C  32.75400 62.32300 42.22500
C  29.56700 63.16700 40.81200
C  28.86900 64.21800 41.65400
N  28.11600 58.12700 40.78400
C  27.47800 59.35100 41.13900
C  26.05700 59.20900 41.00000
C  25.82500 57.96200 40.39500
C  27.12000 57.35000 40.20800
C  24.96200 60.15600 41.35300
C  24.80800 57.08200 39.83800
O  23.58600 57.11300 39.86100
C  25.65700 55.87800 39.21400
C  25.16800 54.59300 39.81600
O  25.22900 54.33800 40.98600
O  24.52100 53.81300 38.93700
C  23.92100 52.61100 39.49900
H  32.39200 54.17700 38.72800
H  33.63700 60.39000 40.14700
H  27.56900 61.38900 41.77100
H  27.59000 53.36700 38.95800
H  30.11600 53.51800 37.50000
H  30.82200 52.81600 40.19600
H  30.24200 51.68000 38.80700
H  29.22200 52.11800 40.16600
H  26.60000 53.78300 37.01800
H  28.13200 53.25800 36.46600
H  28.96900 55.73900 36.35100
H  27.23400 56.12900 36.38800
H  35.51900 55.65900 37.92600
H  34.36800 54.40200 38.46600
H  35.48400 55.13900 39.52200
H  35.39700 60.63100 38.93300
H  36.96300 60.20300 39.53400
H  35.64000 60.10600 40.69500
H  31.97600 62.28000 40.32000
H  30.05300 62.33400 42.68000
H  33.45700 63.01100 41.75500
H  33.33400 61.51500 42.67000
H  32.36700 62.93500 43.04000
H  28.79100 62.86700 40.10700
H  30.29700 63.66000 40.17000
H  29.10300 64.15500 42.71700
H  27.80000 64.18100 41.44600
H  29.29800 65.18600 41.39300
H  25.36500 60.90400 42.03600
H  24.15500 59.61100 41.84200
H  24.59600 60.64300 40.44900
H  25.50700 55.88000 38.13500
H  23.69300 51.96000 38.65500
H  22.96600 52.73500 40.01000
H  24.55400 52.05000 40.18700
Mg 6.36200 54.09500 41.68400
C  5.90100 50.54100 41.38800
C  9.44100 53.63200 40.27200
C  6.66200 57.53500 41.50100
C  3.04600 54.49200 42.36600
N  7.47700 52.31200 40.78400
C  7.12500 50.96800 40.87700
C  8.29400 50.15400 40.30900
C  9.54300 51.10500 40.57100
C  8.76200 52.44800 40.46300
C  10.30800 50.81500 41.87500
C  8.06600 49.87600 38.80400
C  7.03800 50.66400 38.06100
H  6.70600 50.18800 36.55200
N  7.85400 55.41900 41.01300
C  9.07200 54.99100 40.43900
C  9.93600 56.14500 40.30300
C  9.21400 57.26100 40.79900
C  7.87300 56.80100 41.15800
C  11.35500 56.04700 39.82700
C  9.85800 58.65200 41.20300
O  11.00700 58.90500 40.86600
C  9.10000 59.64000 42.08200
N  4.95000 55.85700 41.89000
C  5.31900 57.14400 41.82100
C  4.16000 58.08200 42.06600
C  2.91000 57.08600 42.27600
C  3.65100 55.72800 42.09700
C  4.39000 59.01500 43.21700
C  1.76600 57.14600 41.30800
C  0.67900 58.21700 41.71200
N  4.79600 52.83700 41.97500
C  3.52000 53.15200 42.30500
C  2.79900 51.95000 42.58200
C  3.65600 50.89900 42.21400
C  4.84200 51.51500 41.82400
C  1.40600 51.77600 43.03000
C  3.79700 49.46000 42.14200
O  3.04000 48.55500 42.40600
C  5.26000 49.18400 41.48000
C  5.12800 48.41700 40.21100
O  4.39900 48.77800 39.24200
O  5.91700 47.31300 40.22100
C  5.55100 46.35400 39.16300
H  10.45400 53.42300 39.92100
H  6.79200 58.61700 41.43000
H  2.02500 54.59800 42.74000
H  8.29900 49.19400 40.82700
H  10.35600 51.08700 39.84600
H  11.34300 51.15400 41.83400
H  10.12700 49.82700 42.29900
H  9.96800 51.55900 42.59500
H  7.88100 48.80700 38.69700
H  8.97700 50.06400 38.23600
H  7.37800 51.69500 37.96300
H  6.11200 50.66100 38.63500
H  11.22200 56.18800 38.75400
H  11.73400 55.02500 39.84500
H  12.04400 56.77500 40.25400
H  8.43600 59.05600 42.71900
H  8.61200 60.14100 41.24600
H  9.68800 60.21900 42.79400
H  4.00100 58.68200 41.17000
H  2.55400 57.28900 43.28600
H  3.83200 58.64400 44.07700
H  4.12500 60.01800 42.88500
H  5.45000 59.16100 43.42200
H  1.19000 56.22100 41.33000
H  2.08800 57.40700 40.30000
H  -0.28600 57.77600 41.96200
H  0.60900 59.08400 41.05400
H  1.05400 58.80800 42.54700
H  1.25700 52.62300 43.69900
H  1.23800 50.82200 43.52800
H  0.79600 51.84700 42.12900
H  5.88300 48.53400 42.09300
H  5.97100 45.38400 39.42900
H  5.83200 46.77600 38.19800
H  4.46700 46.24700 39.18000

