158

Mg 48.99900 46.69300 43.45700
C  45.75000 46.96200 42.03500
C  49.21900 43.70000 41.80200
C  52.28200 46.81400 44.01500
C  48.66200 49.96800 44.61000
N  47.67000 45.48900 41.99900
C  46.37000 45.77700 41.54300
C  45.79000 44.74000 40.58100
C  46.91300 43.66200 40.72600
C  48.02900 44.33700 41.58500
C  46.43200 42.15300 41.15700
C  45.29900 45.25400 39.17400
C  44.09000 44.64400 38.43000
H  44.30900 43.78900 37.14600
N  50.52100 45.38200 43.06200
C  50.37500 44.13400 42.45300
C  51.74500 43.49900 42.49000
C  52.57000 44.36800 43.25300
C  51.80800 45.60500 43.47400
C  51.95200 42.06100 42.04100
C  53.97200 43.91600 43.68900
O  54.48500 42.84600 43.35800
C  54.85000 44.91500 44.57000
N  50.21700 48.15800 44.36400
C  51.58200 47.96300 44.42200
C  52.32900 49.27500 44.98100
C  51.09700 50.16800 45.37600
C  49.86100 49.39400 44.71700
C  53.36300 48.96300 46.02400
C  51.20300 51.66300 44.85800
C  50.97100 52.72300 45.93000
N  47.58300 48.24000 43.27100
C  47.55500 49.42900 43.96200
C  46.19600 49.92900 44.02000
C  45.42000 49.00900 43.18700
C  46.35100 48.05400 42.75500
C  45.70500 51.17100 44.69200
C  44.10600 48.67300 42.72500
O  43.03500 49.17400 42.98600
C  44.41800 47.55700 41.66000
C  43.30700 46.54700 41.59100
O  43.09100 45.78700 42.46500
O  42.40800 46.78500 40.63100
C  41.15900 46.01500 40.57300
H  49.32500 42.69000 41.40100
H  53.36700 46.94000 44.03900
H  48.55000 50.96900 45.03100
H  44.83700 44.45400 41.02600
H  47.37200 43.54800 39.74400
H  47.00900 41.86400 42.03600
H  46.76800 41.52200 40.33400
H  45.38100 41.89200 41.27700
H  46.12300 44.98900 38.51200
H  45.26400 46.34400 39.15300
H  43.58700 45.53800 38.06000
H  43.36200 44.17200 39.08900
H  52.47800 42.09300 41.08700
H  51.07700 41.41000 42.03900
H  52.52200 41.51300 42.79100
H  54.18000 45.33400 45.32100
H  55.42300 45.55000 43.89400
H  55.49200 44.29500 45.19500
H  52.80100 49.69200 44.09100
H  51.02400 50.13000 46.46300
H  53.63200 47.90700 46.02200
H  53.02600 49.09400 47.05200
H  54.28200 49.50300 45.79400
H  50.38800 51.68700 44.13300
H  52.06600 51.87600 44.22700
H  49.90000 52.91400 45.86000
H  51.50400 53.67100 46.00600
H  51.08600 52.14100 46.84500
H  44.63600 51.17800 44.90600
H  46.01000 52.00000 44.05300
H  46.26100 51.25500 45.62600
H  44.43300 47.87300 40.61700
H  40.87500 45.60500 41.54200
H  41.11600 45.17000 39.88500
H  40.37000 46.70400 40.27300
Mg 48.37400 34.80000 26.80500
C  46.49100 33.32000 29.49100
C  48.70500 37.60900 28.70800
C  49.87300 36.15800 24.18800
C  47.46900 32.07600 24.99900
N  47.41300 35.40100 28.82200
C  46.90100 34.64600 29.78000
C  47.06400 35.32900 31.17200
C  47.39200 36.77600 30.72900
C  47.88600 36.59400 29.34000
C  46.23700 37.80000 30.99000
C  48.16600 34.47800 31.94000
C  47.98200 34.39800 33.45700
H  46.82000 35.23700 34.02700
N  49.14300 36.65700 26.51700
C  49.27000 37.63500 27.41100
C  50.04300 38.74700 26.80200
C  50.38500 38.29900 25.46800
C  49.77600 36.96800 25.36700
C  50.36200 40.14700 27.49400
C  51.27200 38.97000 24.38200
O  51.51300 38.67100 23.22500
C  52.03000 40.22300 24.82000
N  48.52400 34.30600 24.88100
C  49.24000 34.99700 23.91600
C  49.11100 34.25000 22.60100
C  48.67500 32.85400 22.92900
C  48.17700 33.02700 24.33800
C  48.32700 35.02100 21.59300
C  49.76600 31.75700 22.98700
C  50.53200 31.50700 21.66100
N  47.19900 32.99700 27.08800
C  46.93400 31.96800 26.24200
C  46.15000 30.92000 26.89100
C  45.93800 31.38800 28.13300
C  46.61400 32.67400 28.23500
C  45.74800 29.59000 26.33100
C  45.27700 31.08500 29.40100
O  44.57200 30.15300 29.66000
C  45.61300 32.30000 30.35700
C  46.28800 31.75100 31.51700
O  47.41100 31.28700 31.58200
O  45.31300 31.67900 32.51700
C  45.72600 31.00800 33.74300
H  48.93800 38.55700 29.19700
H  50.35200 36.73500 23.39400
H  47.16400 31.24700 24.35600
H  46.03700 35.23300 31.52300
H  48.13000 37.11000 31.45700
H  45.31000 37.46000 31.45300
H  45.92900 38.15500 30.00700
H  46.63700 38.68800 31.48000
H  49.03900 35.05700 31.63900
H  48.26400 33.46100 31.56000
H  48.92700 34.79100 33.83300
H  47.91400 33.34700 33.73900
H  51.40200 40.45500 27.37800
H  50.22000 40.12700 28.57400
H  49.72600 40.98900 27.22000
H  52.91500 40.40100 24.21000
H  52.59700 40.00400 25.72500
H  51.34900 41.06600 24.93700
H  50.11600 34.16200 22.18800
H  47.82600 32.57800 22.30300
H  47.88800 35.86000 22.13300
H  47.57900 34.35700 21.16000
H  48.80200 35.44700 20.71000
H  49.26900 30.86600 23.37100
H  50.51800 32.00200 23.73800
H  50.65500 30.42800 21.57100
H  51.54100 31.91900 21.64800
H  49.92600 31.90700 20.84900
H  46.47600 29.38300 25.54700
H  44.69600 29.54500 26.05200
H  45.83300 28.92400 27.19000
H  44.72300 32.78800 30.75400
H  45.40400 29.98200 33.56600
H  45.12700 31.45000 34.53900
H  46.79400 31.12600 33.92600

