158

Mg 25.66200 0.96500 29.82500
C  27.72500 0.96700 32.63300
C  22.91900 1.49100 31.95900
C  23.64600 1.02500 27.12200
C  28.36300 0.38400 27.69500
N  25.41600 1.24100 32.15000
C  26.40300 1.24100 33.04300
C  25.87700 1.48400 34.42600
C  24.32600 1.59100 34.15100
C  24.19900 1.38300 32.66000
C  23.49700 0.51300 34.92800
C  26.46300 2.73100 35.13400
C  26.61900 2.47900 36.62600
H  26.16700 3.66800 37.53600
N  23.58900 1.05600 29.61400
C  22.62500 1.21100 30.57900
C  21.35900 1.28300 29.96100
C  21.55300 1.19200 28.54200
C  23.02300 1.06900 28.37200
C  20.02600 1.49800 30.65900
C  20.45300 1.14900 27.40200
O  20.76200 1.13200 26.18900
C  18.99500 1.19700 27.64800
N  25.91400 0.69000 27.68000
C  24.97000 1.01400 26.78300
C  25.55900 1.08700 25.40700
C  27.08200 0.86300 25.60400
C  27.08900 0.60800 27.06700
C  24.91600 0.21100 24.23200
C  27.99000 2.01100 25.10200
C  29.38400 1.61200 24.59500
N  27.58500 0.61400 30.01100
C  28.57600 0.33100 29.10800
C  29.79400 0.24100 29.80300
C  29.50300 0.40300 31.17600
C  28.14600 0.64500 31.29600
C  31.09400 0.00900 29.09200
C  30.03200 0.39600 32.44900
O  31.18500 0.31000 32.78100
C  28.93500 0.80000 33.50000
C  28.88100 -0.23800 34.43700
O  28.52500 -1.38300 34.23300
O  29.37700 0.19000 35.66500
C  29.32700 -0.59500 36.84800
H  22.03800 1.66400 32.58100
H  23.13100 1.33000 26.20900
H  29.14500 0.23800 26.94700
H  26.05600 0.61100 35.05400
H  23.97400 2.59700 34.38200
H  23.77200 0.51600 35.98300
H  23.68000 -0.46700 34.48700
H  22.41900 0.67200 34.95400
H  25.75500 3.54100 34.95800
H  27.36900 3.10200 34.65600
H  27.65400 2.24800 36.87600
H  26.01600 1.61900 36.91900
H  19.48800 2.35800 30.25900
H  20.13800 1.68300 31.72700
H  19.33400 0.66300 30.55500
H  18.62200 0.42800 28.32300
H  18.35200 1.10000 26.77300
H  18.78400 2.15400 28.12400
H  25.46400 2.15500 25.20900
H  27.25800 -0.12400 25.17700
H  25.71500 -0.36200 23.76100
H  24.53200 0.89800 23.47900
H  24.22900 -0.54400 24.61600
H  28.25300 2.80000 25.80600
H  27.42600 2.56000 24.34800
H  30.07300 2.22800 25.17300
H  29.35400 1.91200 23.54800
H  29.58200 0.54200 24.66200
H  31.15900 -0.93600 28.55300
H  31.89900 0.15600 29.81200
H  31.19500 0.76800 28.31500
H  29.29200 1.71800 33.96500
H  28.62100 -0.19700 37.57700
H  30.25400 -0.44800 37.40200
H  29.23300 -1.65700 36.61900
Mg -11.97300 16.58400 41.20900
C  -8.93100 14.57400 40.84400
C  -10.34900 19.11800 39.62100
C  -14.89500 18.01500 40.77200
C  -13.51300 13.68000 42.43200
N  -9.85800 16.79000 40.41900
C  -8.78200 15.95700 40.36900
C  -7.52400 16.59500 39.75400
C  -7.95600 18.08000 39.52000
C  -9.53500 18.00800 39.81300
C  -7.06900 19.22000 40.14200
C  -7.03300 15.92300 38.47400
C  -5.55100 15.46600 38.41900
H  -4.90200 16.02400 37.15300
N  -12.51900 18.41400 40.33500
C  -11.73300 19.29600 39.78000
C  -12.47000 20.48100 39.36200
C  -13.85700 20.23000 39.82700
C  -13.83900 18.86700 40.33400
C  -11.80700 21.67700 38.70400
C  -14.99600 21.22800 39.76400
O  -14.96000 22.33100 39.30900
C  -16.34200 20.83100 40.45800
N  -13.87400 15.92800 41.57700
C  -14.94800 16.72500 41.33000
C  -16.22800 16.13200 41.76200
C  -15.76800 14.83300 42.37900
C  -14.30100 14.77900 42.14700
C  -17.04500 16.99100 42.78600
C  -16.46000 13.49800 41.78200
C  -17.36400 12.75800 42.81900
N  -11.36100 14.57200 41.61600
C  -12.10600 13.49000 42.14000
C  -11.33600 12.38300 42.32100
C  -10.04100 12.78100 41.88100
C  -10.11100 14.10700 41.41700
C  -11.70400 11.01100 42.88100
C  -8.62000 12.27700 41.71900
O  -7.99900 11.27500 41.94000
C  -7.83900 13.50500 41.00800
C  -6.88500 13.94800 42.00100
O  -7.20500 14.48800 43.07300
O  -5.58800 13.60700 41.67900
C  -4.51200 14.34500 42.38900
H  -9.74300 19.90000 39.15800
H  -15.89600 18.44700 40.83400
H  -13.94500 12.74600 42.79900
H  -6.73600 16.51700 40.50300
H  -7.89600 18.27300 38.44900
H  -6.38800 18.79800 40.88000
H  -7.72200 19.93000 40.65000
H  -6.55300 19.71000 39.31600
H  -7.21400 16.48800 37.55900
H  -7.63200 15.01600 38.38700
H  -5.45200 14.38200 38.35400
H  -5.06200 15.84700 39.31600
H  -11.39200 21.37900 37.74200
H  -11.09600 22.05600 39.43900
H  -12.56000 22.46000 38.61700
H  -17.01100 21.69100 40.42800
H  -16.23000 20.60600 41.51800
H  -16.78000 19.94600 39.99500
H  -16.75000 16.04300 40.80900
H  -15.85600 14.80400 43.46500
H  -17.42900 16.45400 43.65300
H  -17.96900 17.33900 42.32500
H  -16.42600 17.78800 43.19900
H  -15.72800 12.83700 41.31900
H  -16.95400 13.81900 40.86500
H  -17.01100 11.73000 42.73100
H  -18.37400 12.70900 42.41200
H  -17.26600 13.15000 43.83100
H  -11.78000 11.09200 43.96600
H  -10.94600 10.24600 42.71100
H  -12.67000 10.70600 42.47900
H  -7.31800 13.11800 40.13200
H  -4.88000 15.27700 42.81900
H  -3.71500 14.58300 41.68400
H  -4.15700 13.67600 43.17400

