158

Mg -12.67300 37.53400 42.97400
C  -10.18600 35.24900 41.62700
C  -10.97400 39.94700 41.44400
C  -15.29300 39.48500 43.41900
C  -14.42500 34.72400 43.87500
N  -10.77700 37.51900 41.74200
C  -9.94200 36.56600 41.32300
C  -8.77700 37.06300 40.48300
C  -9.03800 38.57900 40.65400
C  -10.37300 38.74700 41.33300
C  -7.93900 39.33600 41.42800
C  -8.69600 36.54700 38.99800
C  -7.37000 35.81800 38.58500
H  -6.66400 36.33500 37.33900
N  -12.99400 39.55700 42.65100
C  -12.13400 40.43000 42.04200
C  -12.63100 41.77500 42.11300
C  -13.86200 41.62400 42.78300
C  -14.15200 40.20300 42.91000
C  -11.90000 42.88200 41.44200
C  -14.66000 42.82100 43.27900
O  -14.26700 43.95400 43.09300
C  -15.89400 42.61800 44.08300
N  -14.62600 37.26800 43.61400
C  -15.58300 38.17300 43.68500
C  -16.93600 37.61000 44.16400
C  -16.55400 36.06000 44.42200
C  -15.10700 35.99100 43.84000
C  -17.66700 38.30600 45.34100
C  -17.52900 35.08200 43.77000
C  -17.73300 35.08000 42.16600
N  -12.34000 35.44100 42.89600
C  -13.13800 34.44100 43.42200
C  -12.43700 33.16700 43.27400
C  -11.26300 33.47900 42.59300
C  -11.25100 34.85600 42.39900
C  -12.86800 31.82800 43.63700
C  -10.06900 32.82700 41.99600
O  -9.58800 31.69000 42.06200
C  -9.41600 33.99000 41.20800
C  -7.95800 34.04800 41.64000
O  -7.44500 34.42300 42.68500
O  -7.25900 33.45300 40.65600
C  -5.79300 33.32900 40.93800
H  -10.29300 40.66100 40.97500
H  -16.10200 40.19900 43.58900
H  -14.99800 33.85100 44.19400
H  -7.84100 36.83100 40.99300
H  -9.05300 38.99100 39.64500
H  -8.43800 39.72200 42.31700
H  -7.60800 40.12500 40.75300
H  -7.04700 38.83700 41.80600
H  -8.64900 37.37600 38.29300
H  -9.63700 36.02400 38.82300
H  -7.48800 34.76200 38.34100
H  -6.57500 35.89000 39.32800
H  -11.44800 42.50000 40.52600
H  -11.21300 43.30200 42.17700
H  -12.67500 43.63200 41.28300
H  -16.25400 43.51300 44.59100
H  -15.70900 41.86300 44.84700
H  -16.73600 42.29000 43.47400
H  -17.61200 37.71700 43.31600
H  -16.42500 35.83000 45.48000
H  -17.67600 37.60200 46.17300
H  -18.69500 38.53600 45.06000
H  -17.13000 39.17800 45.71400
H  -18.53800 35.25100 44.14700
H  -17.20100 34.09600 44.09700
H  -17.27700 36.00200 41.80500
H  -18.80600 35.22500 42.04200
H  -17.35500 34.18700 41.67000
H  -13.41900 31.93500 44.57100
H  -11.93000 31.32500 43.87300
H  -13.40500 31.29700 42.85000
H  -9.41500 33.78500 40.13800
H  -5.38200 33.54300 41.92500
H  -5.19000 33.80600 40.16500
H  -5.58900 32.25900 40.93600
Mg -12.41000 16.21400 42.45900
C  -9.75500 14.05100 42.08300
C  -10.61500 18.65500 40.79900
C  -15.29600 17.99700 42.30000
C  -14.22100 13.47400 43.90100
N  -10.52300 16.30000 41.37600
C  -9.58800 15.25200 41.36200
C  -8.18400 15.68500 40.75100
C  -8.47800 17.23600 40.42700
C  -9.88600 17.45800 41.00000
C  -7.39900 18.17800 41.00700
C  -7.89300 14.82200 39.48700
C  -6.35700 14.62100 39.28200
H  -5.61300 15.41900 38.28700
N  -12.86100 18.12500 41.74800
C  -11.92600 18.97100 41.16400
C  -12.64300 20.22700 40.89900
C  -14.00400 20.07100 41.30800
C  -14.07600 18.69500 41.86000
C  -11.98100 21.35600 40.23900
C  -15.09700 21.09100 41.09600
O  -14.87800 22.16100 40.51700
C  -16.49800 20.84300 41.49000
N  -14.52900 15.84700 43.04900
C  -15.49400 16.72400 42.90800
C  -16.84100 16.12100 43.33500
C  -16.49700 14.75400 43.94500
C  -14.95200 14.67900 43.65600
C  -17.75700 16.93000 44.30500
C  -17.22200 13.55200 43.29200
C  -18.01400 12.56700 44.11600
N  -12.09100 14.20900 42.97700
C  -12.85900 13.24300 43.61300
C  -12.09000 11.95500 43.76600
C  -10.82000 12.31900 43.29800
C  -10.93700 13.65600 42.74600
C  -12.51900 10.65200 44.46700
C  -9.49000 11.91400 43.18500
O  -8.94500 10.86900 43.55300
C  -8.71000 13.04400 42.42800
C  -7.64500 13.70800 43.28500
O  -7.87100 14.38400 44.28300
O  -6.43800 13.35100 42.75800
C  -5.27300 14.04900 43.30400
H  -10.05000 19.43300 40.28100
H  -16.28900 18.45000 42.32800
H  -14.84800 12.72100 44.38400
H  -7.38100 15.71600 41.48700
H  -8.62800 17.29600 39.34900
H  -7.50500 18.42800 42.06200
H  -7.15100 19.13200 40.54000
H  -6.47400 17.60300 40.96500
H  -8.27600 15.39500 38.64300
H  -8.37500 13.86400 39.68100
H  -6.11100 13.56100 39.22000
H  -5.86300 14.93800 40.20000
H  -11.00700 21.08400 39.83200
H  -11.83400 22.13800 40.98400
H  -12.67300 21.62300 39.44000
H  -17.08900 21.75600 41.42900
H  -16.47700 20.56700 42.54400
H  -16.98100 19.98800 41.01700
H  -17.29700 15.97400 42.35600
H  -16.55900 14.74800 45.03300
H  -17.25000 17.79100 44.74000
H  -18.07800 16.23500 45.08100
H  -18.63400 17.16700 43.70400
H  -16.49600 12.96000 42.73500
H  -17.89700 14.02100 42.57700
H  -17.51000 11.64100 44.39500
H  -18.83200 12.25000 43.46900
H  -18.30800 13.15700 44.98400
H  -13.15600 10.86000 45.32600
H  -11.63500 10.09100 44.76900
H  -13.09000 9.99500 43.81000
H  -8.29300 12.41400 41.64300
H  -5.60000 15.01100 43.69700
H  -4.61900 14.15900 42.43900
H  -4.83500 13.33300 43.99800

