158

Mg 7.77700 2.93200 26.89700
C  9.21700 1.68800 29.99500
C  5.55800 4.59700 28.86600
C  6.33500 3.91100 24.06300
C  9.60700 0.48900 25.22800
N  7.54600 3.21500 29.16300
C  8.20300 2.62200 30.23100
C  7.63300 3.04700 31.57100
C  6.29900 3.84400 31.18400
C  6.42900 3.83500 29.61300
C  4.96300 3.08700 31.64600
C  8.62400 3.80700 32.38700
C  8.54200 3.51500 33.92100
H  9.37800 4.45000 34.85400
N  6.36500 4.32500 26.51900
C  5.55300 4.86400 27.45200
C  4.68700 5.85100 26.81500
C  4.94100 5.72800 25.39100
C  5.92100 4.62400 25.21400
C  3.65700 6.72700 27.50300
C  4.49700 6.64700 24.17600
O  4.75300 6.35200 23.02000
C  3.66400 7.91600 24.54400
N  8.00300 2.30400 24.94000
C  7.20000 2.80600 23.91100
C  7.49100 2.09600 22.57600
C  8.68600 1.13100 22.95700
C  8.82200 1.32900 24.45200
C  6.26100 1.32300 22.14300
C  10.06100 1.51700 22.21200
C  10.71100 0.23000 21.66300
N  9.18700 1.49600 27.42000
C  9.78700 0.57000 26.61500
C  10.69600 -0.20600 27.39100
C  10.53400 0.21600 28.74100
C  9.58900 1.26200 28.67100
C  11.62300 -1.32000 26.90200
C  11.02200 0.01300 30.07600
O  11.92600 -0.68200 30.60600
C  10.03900 0.93200 30.95200
C  9.32400 0.01200 31.96300
O  8.23800 -0.55700 31.69500
O  9.98800 -0.02500 33.22100
C  9.16300 -0.67400 34.27800
H  4.93700 5.25200 29.48200
H  5.96400 4.32200 23.12100
H  10.19400 -0.28500 24.73000
H  7.43000 2.13900 32.13800
H  6.32100 4.86600 31.56200
H  5.16100 2.21000 32.26200
H  4.32200 2.85700 30.79500
H  4.37900 3.71200 32.32200
H  8.59100 4.89000 32.26500
H  9.64200 3.54700 32.09600
H  9.01200 2.54000 34.04800
H  7.51800 3.46800 34.29200
H  2.70300 6.44700 27.05600
H  3.68600 7.81500 27.44900
H  3.48100 6.43400 28.53800
H  4.32500 8.65300 24.99800
H  2.80800 7.73400 25.19400
H  3.16500 8.21200 23.62100
H  7.64900 2.89600 21.85200
H  8.43800 0.08700 22.76900
H  5.38800 1.50900 22.77000
H  6.34200 0.25600 21.93500
H  5.90800 1.55800 21.13900
H  10.68900 2.08300 22.90000
H  9.80600 2.20700 21.40900
H  11.41100 0.60500 20.91500
H  10.02400 -0.47200 21.19100
H  11.18700 -0.41600 22.40100
H  11.10500 -1.67400 26.01000
H  11.53100 -2.15900 27.59200
H  12.60500 -0.93100 26.63300
H  10.64900 1.56900 31.59300
H  8.51300 0.11900 34.64700
H  9.85000 -0.87400 35.10100
H  8.57600 -1.56600 34.06000
Mg 54.39800 23.89800 44.27900
C  51.68100 26.16500 43.69700
C  52.37200 21.29000 43.34800
C  57.09800 21.94000 43.98600
C  56.43600 26.70500 44.98400
N  52.29800 23.77700 43.51700
C  51.34200 24.78000 43.41300
C  49.99300 24.14300 43.00300
C  50.23000 22.63800 43.31900
C  51.74900 22.50300 43.33900
C  49.59500 22.13800 44.70000
C  49.77900 24.35600 41.44600
C  50.99500 24.30500 40.50900
H  50.78600 24.62700 39.02300
N  54.65500 21.84500 43.76500
C  53.68600 20.93700 43.51600
C  54.26400 19.64800 43.36200
C  55.67900 19.77300 43.47200
C  55.91900 21.20800 43.84400
C  53.63900 18.35300 42.92500
C  56.68000 18.71000 43.21800
O  56.36700 17.66800 42.62500
C  58.13600 18.83500 43.67200
N  56.59600 24.33000 44.13600
C  57.47700 23.27800 44.17700
C  58.95300 23.95100 44.39100
C  58.62900 25.44700 44.64400
C  57.09600 25.46700 44.70700
C  59.61900 23.24600 45.69400
C  59.21300 26.41000 43.53600
C  58.62500 26.27400 42.10800
N  54.20200 25.98100 44.44800
C  55.04200 26.97700 44.81700
C  54.31000 28.16900 45.02700
C  52.98500 27.89400 44.57500
C  52.97000 26.57600 44.14600
C  54.87700 29.46600 45.48500
C  51.72000 28.52400 44.44700
O  51.35800 29.62400 44.76800
C  50.80800 27.40600 43.82700
C  50.35700 27.92700 42.48900
O  50.91200 27.76800 41.46700
O  49.35700 28.78500 42.65900
C  48.82700 29.33500 41.38000
H  51.62000 20.52000 43.16600
H  58.05500 21.42400 43.88600
H  57.03500 27.53900 45.35600
H  49.24900 24.55000 43.68800
H  49.75200 21.94600 42.62600
H  50.35300 21.53200 45.19600
H  48.68800 21.54200 44.59700
H  49.52300 22.92500 45.45100
H  49.44300 25.39000 41.37300
H  49.03500 23.63000 41.11700
H  51.29400 23.29300 40.78500
H  51.81200 24.95600 40.82200
H  54.07600 17.94600 42.01200
H  52.58500 18.44200 42.66100
H  53.71700 17.65500 43.75900
H  58.52200 17.82100 43.77700
H  58.20600 19.36100 44.62400
H  58.68400 19.39500 42.91400
H  59.64400 23.69700 43.58700
H  59.16100 25.70500 45.56000
H  58.90700 22.51600 46.08100
H  59.84800 23.90500 46.53100
H  60.61200 22.85500 45.47300
H  60.30000 26.37500 43.61100
H  59.16400 27.45500 43.84300
H  57.87000 27.02600 41.87800
H  58.34500 25.23200 41.95500
H  59.45700 26.51400 41.44600
H  55.89400 29.69800 45.16800
H  54.75800 29.30700 46.55700
H  54.17700 30.25600 45.21300
H  49.89400 27.15000 44.36400
H  47.87800 29.85400 41.51500
H  48.65400 28.43900 40.78500
H  49.37400 30.15000 40.90500

