158

Mg 48.16200 25.08400 28.27800
C  49.33100 27.51100 30.69400
C  47.46200 23.14900 30.96900
C  47.71300 22.72900 26.04300
C  49.95200 27.02100 25.79300
N  48.33700 25.36200 30.62300
C  48.72000 26.49000 31.32700
C  48.55400 26.23500 32.79100
C  48.13500 24.72200 32.87200
C  48.01000 24.37100 31.38900
C  49.11300 23.81500 33.66000
C  47.55800 27.19700 33.42700
C  47.67100 27.36000 34.95000
H  46.40900 27.64500 35.74600
N  47.39800 23.26300 28.42200
C  47.16900 22.54900 29.64500
C  46.59800 21.23500 29.35200
C  46.62600 21.20200 27.91000
C  47.27600 22.41200 27.37800
C  46.16100 20.23900 30.45200
C  46.13700 20.12100 26.98400
O  46.37200 20.12300 25.77500
C  45.54200 18.97500 27.65500
N  48.83000 24.90300 26.28200
C  48.31400 23.86900 25.52700
C  48.78000 23.95800 24.05200
C  49.20700 25.47900 23.96500
C  49.38200 25.80300 25.42100
C  49.93700 22.98700 23.70100
C  48.20400 26.52200 23.31500
C  48.75200 27.90600 22.91100
N  49.35600 26.89000 28.14400
C  49.92100 27.53700 27.06600
C  50.55000 28.74700 27.49900
C  50.22300 28.86000 28.87600
C  49.55900 27.65200 29.24100
C  51.45400 29.61100 26.63100
C  50.38800 29.66000 30.04900
O  50.88100 30.78100 30.07800
C  49.77200 28.88100 31.30400
C  50.89300 28.76400 32.28000
O  51.83600 27.96300 32.20000
O  50.61800 29.45200 33.48700
C  51.37200 29.07000 34.71100
H  47.09900 22.49100 31.76200
H  47.38800 21.97300 25.32500
H  50.40900 27.63900 25.01800
H  49.51700 26.40400 33.27200
H  47.14100 24.58100 33.29700
H  49.77600 24.34900 34.34000
H  49.73800 23.26100 32.96000
H  48.44400 23.17000 34.23000
H  46.56700 26.76300 33.29200
H  47.62900 28.15400 32.90800
H  48.42600 28.13100 35.10500
H  48.21600 26.44900 35.19600
H  46.17600 20.65000 31.46200
H  46.69000 19.28600 30.45400
H  45.11800 19.95300 30.31900
H  44.63700 19.15100 28.23600
H  46.23100 18.28700 28.14200
H  45.02000 18.46200 26.84700
H  47.95500 23.68500 23.39500
H  50.17000 25.50600 23.45500
H  50.13500 22.32700 24.54500
H  50.79600 23.61600 23.46500
H  49.60500 22.30300 22.92000
H  47.39800 26.65900 24.03600
H  47.69600 26.02200 22.49000
H  48.37100 28.67000 23.58800
H  48.46700 28.24500 21.91500
H  49.83500 27.84800 22.80200
H  51.97700 28.97900 25.91300
H  52.07900 30.15000 27.34300
H  50.80700 30.30200 26.09000
H  49.02500 29.58700 31.66800
H  51.25200 27.98900 34.78300
H  50.97700 29.46900 35.64500
H  52.36900 29.50300 34.62600
Mg -2.26900 34.77100 27.14000
C  -4.09900 33.17900 29.72700
C  -0.83400 36.84100 29.42600
C  -1.32700 36.82900 24.57700
C  -4.26500 32.89200 24.93000
N  -2.54800 35.02700 29.38700
C  -3.30000 34.25100 30.25500
C  -2.99300 34.58800 31.73100
C  -2.26400 35.98500 31.51800
C  -1.77600 35.93500 30.06500
C  -2.96000 37.29600 31.80700
C  -2.17300 33.48600 32.41300
C  -1.92300 33.72300 33.88000
H  -2.48600 32.82800 34.93300
N  -1.06800 36.43300 27.02000
C  -0.44400 37.08500 28.07500
C  0.43200 38.09400 27.56400
C  0.27400 38.12300 26.10800
C  -0.78400 37.10600 25.84700
C  1.35800 38.85800 28.45200
C  1.14100 38.90500 25.08700
O  0.89200 38.73800 23.91400
C  2.23200 39.76900 25.42200
N  -2.80000 34.91700 25.07100
C  -2.22500 35.88600 24.19700
C  -2.73800 35.70400 22.75500
C  -3.56400 34.34300 22.86100
C  -3.54800 33.98200 24.36800
C  -3.56400 36.88600 22.27900
C  -3.24100 33.12900 21.82300
C  -2.32500 31.93100 22.38200
N  -3.84900 33.28100 27.20000
C  -4.48400 32.53600 26.24800
C  -5.40700 31.61000 26.79700
C  -5.21200 31.76200 28.18800
C  -4.30500 32.84600 28.40600
C  -6.31600 30.67100 26.09300
C  -5.64800 31.23400 29.47800
O  -6.56500 30.45600 29.82400
C  -4.92300 32.14500 30.48600
C  -5.94300 32.73000 31.42400
O  -6.85000 33.45500 31.01600
O  -5.73500 32.36300 32.76100
C  -6.82400 32.65300 33.62500
H  -0.27600 37.42800 30.15900
H  -0.99000 37.54300 23.82300
H  -4.74500 32.14500 24.29400
H  -3.90500 34.78100 32.29600
H  -1.29400 35.92600 32.01100
H  -3.76200 37.20000 32.53800
H  -3.33900 37.59200 30.83000
H  -2.23200 37.97500 32.25200
H  -1.17000 33.37600 32.00200
H  -2.77500 32.58000 32.34300
H  -2.25200 34.73900 34.09700
H  -0.84600 33.79900 34.02900
H  0.87100 39.81100 28.65800
H  2.33800 38.94000 27.98300
H  1.57600 38.39400 29.41400
H  2.66200 40.35900 24.61200
H  3.02700 39.11300 25.77600
H  1.96100 40.53400 26.15000
H  -1.83800 35.67100 22.14100
H  -4.61800 34.56900 22.70000
H  -4.62100 36.62100 22.30200
H  -3.30900 37.29900 21.30400
H  -3.59100 37.64900 23.05700
H  -2.82000 33.64100 20.95800
H  -4.20300 32.76600 21.45900
H  -1.73100 31.58100 21.53800
H  -2.98000 31.07800 22.55900
H  -1.67400 32.20500 23.21200
H  -7.30000 31.13900 26.05800
H  -6.37500 29.83200 26.78600
H  -6.03800 30.27700 25.11500
H  -4.18700 31.51100 30.97900
H  -6.50400 32.93400 34.62900
H  -7.32400 31.68700 33.69300
H  -7.48300 33.44200 33.26300

