158

Mg 46.67000 16.73100 28.06000
C  44.70700 16.12100 30.85200
C  48.91800 18.36600 29.94500
C  48.12400 17.93700 25.25100
C  44.02200 15.41100 26.01600
N  46.68000 17.28100 30.11100
C  45.79200 16.93500 31.13500
C  46.36600 17.27500 32.49200
C  47.63700 18.10800 32.13200
C  47.79400 17.85200 30.61100
C  47.73100 19.52600 32.69700
C  46.57200 16.06300 33.51000
C  45.88500 16.16300 34.87200
H  45.43100 17.59500 35.43300
N  48.50000 17.78600 27.68500
C  49.23600 18.42000 28.57900
C  50.33600 19.12600 27.96000
C  50.18900 18.95400 26.55000
C  48.93500 18.15100 26.39500
C  51.30600 19.91100 28.79900
C  50.97200 19.48200 25.33300
O  50.65300 19.24000 24.18600
C  52.11100 20.32600 25.62300
N  46.12100 16.70800 25.94800
C  46.90600 17.27900 25.01900
C  46.33400 17.04700 23.60000
C  45.31700 15.96200 23.80300
C  45.11700 16.01300 25.32700
C  45.84900 18.33800 22.94600
C  45.77700 14.53600 23.33200
C  44.71700 13.94500 22.39200
N  44.84700 15.86200 28.33100
C  43.89300 15.33200 27.41500
C  42.73700 14.87800 28.16300
C  43.09300 15.13700 29.48200
C  44.30900 15.69100 29.52200
C  41.44500 14.27300 27.57200
C  42.54200 15.06000 30.83600
O  41.42400 14.61700 31.21100
C  43.61500 15.67000 31.90200
C  42.90900 16.74300 32.63600
O  42.63800 17.83300 32.11900
O  42.57800 16.37000 33.94000
C  41.50500 17.16200 34.56700
H  49.53900 18.98100 30.60000
H  48.54100 18.31200 24.31400
H  43.22500 15.14300 25.31900
H  45.59100 17.97600 32.80100
H  48.52300 17.60500 32.51900
H  47.90200 20.10900 31.79200
H  48.53000 19.61900 33.43200
H  46.80000 19.96700 33.05400
H  47.65000 15.90400 33.52700
H  46.11000 15.21200 33.01000
H  46.45300 15.70000 35.67800
H  44.94400 15.61400 34.84400
H  51.95000 20.62500 28.28600
H  51.84300 19.19900 29.42500
H  50.70900 20.51500 29.48200
H  51.63600 21.19700 26.07600
H  52.60500 20.70200 24.72700
H  52.78100 19.80100 26.30400
H  47.02700 16.61800 22.87500
H  44.32600 16.24300 23.44600
H  46.42500 19.16000 23.37200
H  44.78200 18.49200 23.10500
H  45.98500 18.16900 21.87800
H  45.94000 14.02300 24.28000
H  46.66200 14.55500 22.69500
H  43.74500 14.43800 22.41300
H  44.51700 12.95700 22.80700
H  45.16600 13.87000 21.40200
H  41.70200 13.21800 27.48000
H  41.34200 14.60200 26.53800
H  40.56800 14.42900 28.19900
H  43.98700 14.84600 32.51000
H  41.12000 18.03800 34.04500
H  41.93800 17.63300 35.45000
H  40.64300 16.58700 34.90600
Mg -2.19000 35.25900 26.74100
C  -3.74100 33.36800 29.22900
C  -0.63700 37.19300 29.13200
C  -0.87200 37.00200 24.32500
C  -4.18600 33.51000 24.31400
N  -2.22300 35.37500 28.93800
C  -2.95300 34.46500 29.70600
C  -2.69100 34.66500 31.20400
C  -1.83800 36.02900 31.10800
C  -1.60500 36.30200 29.63300
C  -2.30700 37.29600 31.90100
C  -1.95300 33.44400 31.85400
C  -2.58900 32.76900 33.07400
H  -1.73100 32.49600 34.35200
N  -0.83500 36.87400 26.73400
C  -0.27700 37.40800 27.77500
C  0.71300 38.39100 27.35300
C  0.62600 38.43200 25.95300
C  -0.37900 37.41400 25.58900
C  1.54800 39.27700 28.39900
C  1.34500 39.25900 24.88500
O  1.05400 39.29000 23.70700
C  2.42500 40.19200 25.32900
N  -2.63800 35.40000 24.65600
C  -1.89000 36.18500 23.85800
C  -2.47500 36.33200 22.50200
C  -3.28700 35.00300 22.44500
C  -3.53300 34.68200 23.91500
C  -3.27700 37.66400 22.31100
C  -2.68800 33.78300 21.71800
C  -1.24600 33.33500 22.21600
N  -3.60200 33.74900 26.76800
C  -4.21700 33.06100 25.70200
C  -4.90000 31.93500 26.21000
C  -4.73500 31.98200 27.63600
C  -3.93100 33.08200 27.91600
C  -5.73500 31.02000 25.38200
C  -5.16800 31.35300 28.83200
O  -5.83300 30.32400 28.97000
C  -4.57500 32.30600 29.96300
C  -5.74100 32.85700 30.76500
O  -6.55300 33.66300 30.33200
O  -5.75700 32.33500 31.99400
C  -6.79200 32.66200 33.00800
H  -0.03600 37.71900 29.87700
H  -0.52400 37.66500 23.53000
H  -4.50700 32.79500 23.55300
H  -3.69800 34.77000 31.60600
H  -0.77200 35.95600 31.31900
H  -1.52300 37.47800 32.63600
H  -3.29200 37.14100 32.34200
H  -2.31400 38.15200 31.22700
H  -0.99700 33.82800 32.20700
H  -1.85400 32.65000 31.11300
H  -2.94200 31.77800 32.79300
H  -3.51500 33.17200 33.48300
H  1.27800 40.30700 28.16400
H  2.61200 39.11100 28.23200
H  1.32200 39.06900 29.44500
H  2.98900 40.61400 24.49600
H  3.08000 39.69400 26.04300
H  1.85800 40.97400 25.83400
H  -1.64000 36.23500 21.80800
H  -4.26400 35.24200 22.02400
H  -3.35400 38.26000 23.22000
H  -4.31400 37.47800 22.03100
H  -2.72200 38.25900 21.58600
H  -2.57900 34.08000 20.67500
H  -3.45800 33.01600 21.62800
H  -0.70200 33.99200 22.89400
H  -0.66800 33.03400 21.34200
H  -1.39000 32.42600 22.80000
H  -6.03400 30.11100 25.90300
H  -5.23500 30.73600 24.45600
H  -6.69800 31.50000 25.20600
H  -3.94600 31.68400 30.59900
H  -7.22900 31.76300 33.44400
H  -7.67000 33.10700 32.54000
H  -6.30300 33.25800 33.77800

