158

Mg 41.49500 41.56200 26.65300
C  40.70800 43.88700 29.02900
C  42.38500 39.28600 29.01500
C  42.55400 39.51800 24.07100
C  40.70000 43.99100 24.13100
N  41.62400 41.59900 28.73000
C  41.08400 42.61800 29.54300
C  41.13100 42.22600 31.02200
C  41.70900 40.77900 31.03700
C  41.86900 40.49600 29.48100
C  42.99800 40.62600 31.79700
C  39.87200 42.42600 31.78000
C  39.97900 43.24700 33.09400
H  39.46600 42.83000 34.42900
N  42.42800 39.74000 26.52000
C  42.70700 38.93300 27.65800
C  43.36000 37.73700 27.26100
C  43.32200 37.77600 25.84100
C  42.73800 39.07000 25.40300
C  43.74800 36.63900 28.17300
C  43.69500 36.63400 24.86200
O  43.64000 36.77400 23.65700
C  44.07700 35.30200 25.35800
N  41.55600 41.75700 24.43800
C  41.99600 40.69400 23.63400
C  41.74900 41.06600 22.11400
C  40.79500 42.32100 22.17400
C  41.02000 42.77200 23.64000
C  43.08200 41.28800 21.28500
C  39.28000 42.08200 21.76600
C  38.57600 40.91000 22.37500
N  40.98100 43.47900 26.52900
C  40.64100 44.37900 25.50600
C  40.28700 45.68300 26.00000
C  40.36500 45.58400 27.38300
C  40.74000 44.19200 27.66000
C  39.75600 46.74800 25.12600
C  40.08300 46.16900 28.61900
O  39.66100 47.31700 28.82500
C  40.39000 45.14300 29.74200
C  41.42400 45.64500 30.72800
O  42.56800 45.24800 30.79100
O  40.75300 46.58300 31.57800
C  41.53400 46.93700 32.80300
H  42.70400 38.59800 29.80100
H  42.97200 38.83200 23.33100
H  40.42900 44.71700 23.36100
H  41.86500 42.89500 31.47000
H  41.01100 40.02900 31.40800
H  43.31900 41.55600 32.26500
H  43.82300 40.37100 31.13100
H  42.87400 39.84300 32.54500
H  39.42600 41.47200 32.05900
H  39.16700 42.88400 31.08600
H  39.49700 44.19800 32.86600
H  40.99900 43.57500 33.29800
H  43.13500 35.76800 27.94000
H  43.51200 36.96000 29.18700
H  44.75700 36.22800 28.15800
H  43.24400 34.82300 25.87300
H  44.96000 35.37400 25.99200
H  44.30900 34.72500 24.46300
H  41.20000 40.29300 21.57500
H  41.05600 43.16800 21.54100
H  43.36400 42.31500 21.05100
H  42.98300 40.77200 20.32900
H  43.92900 40.83600 21.80100
H  39.30600 41.85700 20.70000
H  38.74100 43.00100 21.99700
H  38.15800 40.35600 21.53400
H  37.76200 41.33400 22.96300
H  39.22400 40.28600 22.99000
H  39.07900 46.31200 24.39100
H  40.51000 47.23800 24.51000
H  39.19100 47.43800 25.75300
H  39.43500 44.94800 30.23000
H  42.56800 46.59300 32.78500
H  41.11000 46.39900 33.65100
H  41.51200 48.00600 33.01300
Mg 6.87800 54.56600 41.15100
C  6.27700 51.16500 41.28400
C  10.09800 53.97800 39.92700
C  7.14300 57.87000 40.26300
C  3.48800 55.18400 42.17300
N  8.00700 52.70400 40.43400
C  7.57000 51.45200 40.77900
C  8.76300 50.49900 40.58700
C  10.01400 51.38500 40.33700
C  9.37700 52.80300 40.35500
C  11.15600 51.23600 41.43300
C  8.61600 49.39700 39.60800
C  8.55500 49.70800 38.14800
H  7.25700 49.28900 37.48600
N  8.44000 55.77500 40.33400
C  9.68900 55.33400 39.95700
C  10.47800 56.48100 39.53000
C  9.59100 57.56600 39.37700
C  8.33100 57.10900 40.03000
C  11.91100 56.47700 39.06700
C  9.85700 58.87200 38.59600
O  10.94600 58.95400 38.11700
C  8.86300 59.84000 38.33000
N  5.47700 56.25900 41.08400
C  5.92000 57.48400 40.80500
C  4.81400 58.55500 41.23300
C  3.56000 57.68800 41.47800
C  4.20900 56.26200 41.57800
C  5.25100 59.48600 42.34200
C  2.43200 57.73000 40.32100
C  1.65900 59.00400 40.37300
N  5.23600 53.44900 41.70100
C  4.03200 53.81000 42.19900
C  3.37100 52.67700 42.69800
C  4.15900 51.60300 42.38300
C  5.27300 52.11300 41.66800
C  1.98000 52.52800 43.31800
C  4.39100 50.19900 42.42700
O  3.83400 49.29900 43.05100
C  5.60000 49.82900 41.55500
C  5.18200 49.11700 40.32700
O  4.26600 49.48000 39.59800
O  5.69200 47.77200 40.20500
C  4.71500 46.91500 39.42800
H  11.02600 53.71400 39.41600
H  7.18400 58.95800 40.17400
H  2.48200 55.30100 42.58300
H  8.91500 49.88100 41.47200
H  10.41400 51.24600 39.33300
H  10.89600 50.39200 42.07300
H  11.12800 52.14400 42.03500
H  12.06700 51.02000 40.87600
H  7.72600 48.78800 39.76700
H  9.44200 48.69500 39.72100
H  9.38700 49.21300 37.64800
H  8.68900 50.78000 38.00400
H  12.22300 56.59200 38.02900
H  12.32300 55.52800 39.41000
H  12.37400 57.35300 39.52000
H  8.10700 59.54500 37.60300
H  9.46600 60.64800 37.91700
H  8.53100 60.10100 39.33500
H  4.56600 59.18300 40.37700
H  3.14600 57.92100 42.45900
H  6.26400 59.20900 42.63300
H  4.64700 59.39500 43.24500
H  5.20200 60.51900 41.99800
H  1.72000 56.91700 40.46200
H  2.82700 57.82300 39.30900
H  1.73500 59.60900 39.47000
H  1.95600 59.56100 41.26200
H  0.63300 58.71200 40.59600
H  1.20200 53.10700 42.82000
H  2.03700 52.85700 44.35600
H  1.76200 51.46100 43.27400
H  6.23700 49.18200 42.15900
H  4.93100 45.84700 39.42500
H  4.64100 47.16900 38.37100
H  3.76900 46.99000 39.96300

