158

Mg 0.29600 8.08400 26.03200
C  1.00400 10.05900 28.96200
C  0.65600 5.27200 28.11100
C  -0.11800 6.18300 23.34200
C  0.74700 10.94100 24.02900
N  0.68600 7.67500 28.37600
C  0.71000 8.66400 29.26900
C  0.54400 8.10400 30.67600
C  0.81200 6.57700 30.37800
C  0.75700 6.46300 28.84500
C  2.18300 5.90700 30.88200
C  -0.85500 8.48000 31.33500
C  -1.09800 8.53300 32.83900
H  0.02400 8.30300 33.79800
N  0.22200 5.98400 25.76600
C  0.40800 4.99600 26.72200
C  0.35400 3.66400 26.09400
C  0.03600 3.91600 24.70700
C  0.08100 5.39200 24.50000
C  0.52700 2.35600 26.78900
C  -0.37600 2.98500 23.62500
O  -0.62600 3.35900 22.48900
C  -0.38000 1.49100 23.92200
N  0.14400 8.54700 24.02000
C  -0.10000 7.58100 23.09900
C  -0.05200 8.20600 21.65300
C  -0.12800 9.71600 21.92300
C  0.26600 9.76200 23.43200
C  1.11000 7.80700 20.72900
C  -1.51000 10.36100 21.59400
C  -1.41500 11.53500 20.71800
N  0.88500 10.12800 26.31100
C  1.04100 11.11000 25.42400
C  1.40900 12.31500 26.20300
C  1.33300 11.94700 27.56900
C  0.99500 10.61200 27.59300
C  1.59000 13.64800 25.57800
C  1.41100 12.44700 28.90200
O  1.65600 13.59500 29.29400
C  1.20100 11.27400 29.90100
C  2.36200 11.18800 30.79900
O  3.51100 10.91200 30.47500
O  1.94500 11.50900 32.08000
C  2.85200 11.62100 33.25200
H  0.92600 4.36500 28.65700
H  -0.35600 5.64800 22.42000
H  0.75900 11.89400 23.49600
H  1.36800 8.53000 31.24900
H  0.00200 5.97400 30.78800
H  2.86900 6.51200 31.47500
H  2.72700 5.54900 30.00800
H  1.93100 5.06200 31.52300
H  -1.57600 7.81000 30.86800
H  -1.04500 9.51600 31.05300
H  -1.93500 7.85800 33.02000
H  -1.47600 9.52500 33.08600
H  0.98600 2.45900 27.77300
H  1.23000 1.77200 26.19500
H  -0.39100 1.80200 26.98500
H  0.66400 1.17800 23.96200
H  -0.80100 0.99100 23.05000
H  -1.15500 1.24800 24.64800
H  -0.96600 7.85700 21.17300
H  0.62500 10.27400 21.36600
H  2.05000 7.85400 21.27900
H  1.17200 8.59300 19.97700
H  0.86900 6.80100 20.38700
H  -2.18100 10.47600 22.44500
H  -2.04900 9.58700 21.04700
H  -1.45600 11.35300 19.64400
H  -0.45500 11.98500 20.97200
H  -2.27100 12.15500 20.98100
H  0.65900 13.92900 25.08700
H  2.23900 13.57600 24.70500
H  1.87000 14.46300 26.24500
H  0.34400 11.40500 30.56100
H  3.18100 12.65700 33.32900
H  3.68700 10.94000 33.08900
H  2.31300 11.34100 34.15700
Mg 53.68100 24.74800 43.82600
C  51.12100 26.96200 43.30700
C  51.56200 22.29000 42.47100
C  56.30700 22.65300 43.26300
C  55.78000 27.36900 44.50500
N  51.67300 24.69600 42.68200
C  50.85100 25.74400 42.65100
C  49.51700 25.43500 41.97100
C  49.53200 23.80800 42.00600
C  50.99300 23.53100 42.44600
C  48.45600 23.11700 42.87700
C  49.28700 25.92100 40.47400
C  50.42900 25.84400 39.48400
H  50.03300 25.30400 38.14100
N  53.92600 22.66000 43.17100
C  52.90400 21.87500 42.72400
C  53.44300 20.54100 42.52700
C  54.84000 20.62200 42.77100
C  55.07600 22.02200 43.07500
C  52.57400 19.38700 42.25100
C  55.82200 19.47800 42.70200
O  55.52100 18.32200 42.41700
C  57.17200 19.51900 43.31500
N  55.77600 24.94400 43.78100
C  56.62100 23.99400 43.59400
C  58.02800 24.51700 43.70900
C  57.85500 26.06400 43.91000
C  56.35200 26.15800 44.16100
C  58.89300 23.82800 44.76300
C  58.31400 26.92800 42.69400
C  58.83800 28.28400 43.00300
N  53.51600 26.69300 44.11800
C  54.43900 27.68400 44.45300
C  53.70800 28.87700 44.81700
C  52.37300 28.60800 44.40600
C  52.35400 27.26400 43.92000
C  54.33100 30.10600 45.36000
C  51.13800 29.30100 44.22500
O  50.74900 30.48300 44.35300
C  50.25100 28.16100 43.45200
C  49.72100 28.76100 42.24400
O  50.27600 28.93800 41.17200
O  48.41500 29.10300 42.50400
C  47.68100 29.90700 41.54700
H  50.93500 21.47500 42.10200
H  57.17200 22.02600 43.04100
H  56.51900 28.07400 44.88900
H  48.74600 25.92200 42.56800
H  49.42900 23.41000 40.99700
H  48.71500 22.38200 43.64000
H  47.80100 22.57700 42.19300
H  47.81600 23.88300 43.31600
H  48.95400 26.95700 40.54900
H  48.31300 25.53100 40.17800
H  51.24300 25.27700 39.93500
H  50.79200 26.86700 39.38600
H  52.03100 19.62700 41.33700
H  51.77700 19.28900 42.98800
H  53.00700 18.42600 41.97400
H  57.67300 18.55900 43.43700
H  57.10400 19.97400 44.30300
H  57.72000 20.16400 42.62800
H  58.55600 24.24700 42.79500
H  58.54600 26.40400 44.68200
H  59.84400 23.56300 44.30000
H  58.45800 22.86500 45.03300
H  59.04500 24.41900 45.66600
H  57.48200 27.03700 41.99800
H  59.04400 26.33200 42.14700
H  59.36200 28.64400 42.11800
H  59.61000 28.21500 43.76900
H  58.08800 29.02600 43.27900
H  53.56800 30.82800 45.65400
H  54.94800 30.55200 44.58000
H  54.94700 29.87700 46.22900
H  49.43900 27.84300 44.10600
H  47.15200 29.23900 40.86700
H  48.31800 30.59800 40.99600
H  46.97000 30.52400 42.09800

