158

Mg 40.66500 8.41300 28.84900
C  42.56100 9.45700 31.65500
C  38.63700 6.73200 31.20300
C  39.11700 7.01700 26.32000
C  43.09500 9.63900 26.70500
N  40.67900 8.04800 31.15500
C  41.43700 8.77200 32.04800
C  40.98400 8.64400 33.46700
C  39.84100 7.57800 33.31000
C  39.66100 7.43900 31.77900
C  40.21000 6.23600 33.92100
C  40.57000 9.91300 34.15200
C  39.63800 9.90900 35.38800
H  40.12600 10.87200 36.47700
N  39.01000 7.18000 28.77300
C  38.35800 6.55700 29.79700
C  37.41400 5.67300 29.27900
C  37.39400 5.84200 27.80700
C  38.55000 6.69200 27.58200
C  36.39500 4.88400 30.03800
C  36.40800 5.18400 26.83500
O  36.50000 5.31000 25.62600
C  35.11600 4.44800 27.35200
N  41.07800 8.31200 26.77200
C  40.26300 7.70800 25.87000
C  40.78700 7.81800 24.41500
C  42.10300 8.59700 24.62800
C  42.16300 8.85900 26.14400
C  40.83800 6.36500 23.78000
C  42.28200 9.85500 23.78900
C  41.24800 10.90000 23.78400
N  42.41000 9.42700 29.08300
C  43.32000 9.84400 28.12800
C  44.46500 10.41800 28.84100
C  44.14700 10.42300 30.18200
C  42.93300 9.76100 30.31300
C  45.59700 10.93400 28.19200
C  44.58700 10.75400 31.49800
O  45.57900 11.34000 31.82800
C  43.59500 10.24600 32.47900
C  44.19200 9.45100 33.55000
O  44.43900 8.26500 33.54100
O  44.51100 10.32300 34.55000
C  44.98000 9.75800 35.79100
H  38.02700 6.23000 31.95600
H  38.54000 6.59900 25.49300
H  43.87600 9.95100 26.00800
H  41.87400 8.29000 33.98600
H  38.92100 7.96100 33.75300
H  39.87200 5.33800 33.40300
H  39.72600 6.07200 34.88400
H  41.25000 6.15300 34.23800
H  39.97000 10.44900 33.41700
H  41.39200 10.54700 34.48500
H  39.68800 8.89300 35.77900
H  38.62100 10.21600 35.14800
H  36.66600 4.99400 31.08800
H  36.43900 3.82000 29.80500
H  35.41900 5.33100 29.84500
H  34.53900 5.09700 28.00900
H  35.43200 3.48900 27.76200
H  34.42100 4.28500 26.52800
H  40.01100 8.49300 24.05300
H  42.86900 7.82500 24.56100
H  40.11500 6.30000 22.96700
H  40.65200 5.51300 24.43300
H  41.77500 6.17900 23.25700
H  42.24500 9.58600 22.73400
H  43.18800 10.42700 23.98900
H  41.77700 11.84500 23.90800
H  40.78600 10.63400 24.73400
H  40.49900 10.94100 22.99300
H  46.07000 11.42300 29.04400
H  45.46100 11.59800 27.33800
H  46.26600 10.09400 28.00800
H  42.99100 11.02900 32.93800
H  44.26400 10.07700 36.54900
H  45.94800 10.15500 36.09800
H  44.96900 8.66900 35.76400
Mg 53.55500 23.32000 44.88100
C  51.31000 25.58300 43.49600
C  52.01100 20.87600 43.20200
C  56.23800 21.47900 45.44900
C  55.40500 26.20100 46.01000
N  51.84700 23.23700 43.48500
C  51.09500 24.30300 43.10600
C  50.08100 23.83700 42.10300
C  50.10200 22.25100 42.22900
C  51.37900 22.04500 43.05300
C  48.85200 21.58400 42.94100
C  50.58900 24.17700 40.66900
C  49.42700 24.43700 39.72300
H  49.82600 24.82100 38.27300
N  53.93300 21.35700 44.56600
C  53.15700 20.46000 43.89300
C  53.64500 19.17100 44.05300
C  54.87200 19.33300 44.69700
C  55.01500 20.78300 44.98300
C  52.80500 18.00200 43.76300
C  55.76800 18.11500 45.00200
O  55.39000 17.00400 44.61100
C  57.00100 18.18800 45.95400
N  55.56200 23.82600 45.48600
C  56.46200 22.82900 45.65300
C  57.85400 23.49900 46.03800
C  57.37900 24.76600 46.67000
C  55.99700 24.98300 45.98000
C  58.83000 22.60100 46.85700
C  58.37800 25.99600 46.60200
C  58.53600 26.60400 45.26900
N  53.37300 25.47400 44.89800
C  54.15800 26.43500 45.49900
C  53.42300 27.70400 45.37300
C  52.32100 27.42400 44.55800
C  52.37900 26.09000 44.29100
C  53.82700 29.04500 45.98100
C  51.09300 27.96900 44.02100
O  50.63400 29.07700 44.07600
C  50.38400 26.82300 43.28000
C  50.10200 27.32900 41.91600
O  50.95900 27.82500 41.17200
O  48.68800 27.40600 41.66000
C  48.10300 27.97400 40.46700
H  51.42600 20.16400 42.61600
H  57.12300 20.93400 45.78300
H  55.93100 27.03400 46.47900
H  49.14100 24.35900 42.28300
H  50.12000 21.84700 41.21700
H  48.42100 20.84900 42.26100
H  48.04800 22.30800 43.07200
H  49.19400 21.05100 43.82800
H  51.29800 23.43200 40.30700
H  51.07900 25.14300 40.79600
H  48.80000 25.25200 40.08400
H  48.87600 23.49600 39.72200
H  52.90900 17.45400 44.69900
H  52.96400 17.41600 42.85800
H  51.73800 18.22000 43.70700
H  56.97400 18.68400 46.92400
H  57.86700 18.48700 45.36300
H  57.25300 17.14500 46.14900
H  58.36300 23.76700 45.11200
H  57.13700 24.54500 47.71000
H  59.09000 23.24100 47.70000
H  59.72300 22.45600 46.24900
H  58.34700 21.70200 47.23800
H  59.36100 25.63600 46.90400
H  58.18500 26.74600 47.36900
H  57.68100 26.37800 44.63200
H  59.41600 26.08800 44.88600
H  58.56100 27.68600 45.40000
H  52.99900 29.51800 46.50900
H  54.24000 29.63400 45.16300
H  54.53500 28.91400 46.79900
H  49.45300 26.64800 43.81900
H  48.81800 28.65200 40.00100
H  47.24800 28.54400 40.82900
H  47.94200 27.31200 39.61600

