158

Mg 25.18900 -5.52100 45.54100
C  27.24600 -3.08100 44.02400
C  22.57500 -4.45900 43.41400
C  23.52100 -8.37000 46.09700
C  27.96700 -6.71400 47.26400
N  24.92400 -3.88600 44.00900
C  25.95800 -3.07600 43.49100
C  25.44900 -1.97600 42.55400
C  23.90500 -2.44900 42.35000
C  23.72500 -3.64200 43.38100
C  22.77500 -1.31900 42.44500
C  26.34300 -1.73100 41.32600
C  26.61700 -2.97900 40.43400
H  26.29800 -2.77900 38.89200
N  23.26100 -6.31900 44.91500
C  22.34300 -5.64400 44.13500
C  21.11300 -6.49500 44.03700
C  21.40900 -7.65900 44.84000
C  22.76900 -7.45200 45.31300
C  19.82600 -6.14200 43.26600
C  20.41500 -8.76400 45.15700
O  19.23400 -8.74000 44.72000
C  20.73300 -9.89900 46.09700
N  25.72000 -7.28000 46.55500
C  24.83500 -8.27400 46.72200
C  25.48700 -9.47000 47.53200
C  26.89900 -8.89000 47.84100
C  26.86500 -7.54900 47.12700
C  24.53800 -10.05500 48.63700
C  28.08000 -9.85400 47.57900
C  28.97500 -10.16200 48.76100
N  27.19200 -4.91100 45.75000
C  28.18100 -5.54600 46.48000
C  29.40800 -4.79700 46.36600
C  29.07400 -3.79400 45.38100
C  27.74000 -3.91800 45.04700
C  30.72400 -4.98600 47.06200
C  29.69600 -2.80600 44.52800
O  30.77800 -2.36800 44.49800
C  28.50900 -2.25800 43.64800
C  28.47400 -0.87900 44.06700
O  28.05200 -0.49300 45.14500
O  28.84500 -0.01300 43.08000
C  29.08100 1.42000 43.34400
H  21.80600 -4.04800 42.75700
H  23.09800 -9.34200 46.36100
H  28.75200 -6.92500 47.99300
H  25.36100 -1.06100 43.14000
H  23.64500 -2.84600 41.36900
H  21.80500 -1.59600 42.85700
H  22.53900 -0.99300 41.43200
H  23.07900 -0.45100 43.03100
H  27.31700 -1.42500 41.70800
H  25.90300 -0.87600 40.81400
H  25.79400 -3.64800 40.68400
H  27.58300 -3.43300 40.65700
H  19.30400 -7.06400 43.01200
H  20.07600 -5.61400 42.34600
H  19.35400 -5.45300 43.96700
H  19.88400 -10.55900 46.27600
H  21.10100 -9.54900 47.06200
H  21.43200 -10.53000 45.54900
H  25.44600 -10.22900 46.75100
H  27.03100 -8.59100 48.88100
H  23.62400 -9.47100 48.73700
H  25.11100 -9.87800 49.54800
H  24.48200 -11.14300 48.58400
H  28.66300 -9.46800 46.74300
H  27.56200 -10.74500 47.22200
H  28.73600 -9.78400 49.75500
H  30.02500 -9.90000 48.62900
H  28.99100 -11.24700 48.86600
H  30.70700 -4.63800 48.09500
H  31.55800 -4.53500 46.52600
H  31.00000 -6.03900 47.00800
H  28.90800 -2.36100 42.63900
H  29.07000 1.65500 44.40900
H  28.33200 2.07700 42.90300
H  30.08000 1.72800 43.03500
Mg 6.96900 53.26000 41.02800
C  6.52200 49.67000 40.88800
C  10.10200 52.67900 39.51300
C  7.04600 56.39700 40.22400
C  3.58700 53.49000 41.85700
N  8.13500 51.42500 40.24800
C  7.81700 50.08000 40.43500
C  8.94800 49.09600 39.86000
C  10.11600 50.09200 39.89900
C  9.39100 51.52200 39.84600
C  11.06400 50.05600 41.14600
C  8.68400 48.37700 38.43900
C  8.56600 49.25000 37.20700
H  7.36400 49.10500 36.29100
N  8.40600 54.39700 40.10400
C  9.67600 54.05600 39.59300
C  10.34400 55.23600 39.12600
C  9.40800 56.33900 39.31000
C  8.22700 55.73300 39.87600
C  11.68600 55.25300 38.48200
C  9.67100 57.75900 38.93100
O  10.75800 58.09900 38.50300
C  8.70200 58.88700 39.16600
N  5.39500 54.67700 40.90000
C  5.78800 55.97300 40.69600
C  4.67200 56.95100 41.04900
C  3.60900 55.91900 41.49800
C  4.24300 54.60900 41.45400
C  5.05500 58.13500 42.00600
C  2.25400 56.05300 40.63800
C  1.83000 55.12900 39.50300
N  5.40600 51.90600 41.53000
C  4.10600 52.16500 41.89300
C  3.53400 50.93300 42.34200
C  4.43300 49.92900 41.90700
C  5.53400 50.59000 41.38200
C  2.23000 50.68000 42.97300
C  4.59800 48.50200 41.83900
O  3.90100 47.62000 42.29400
C  5.92000 48.25300 41.02000
C  5.36800 47.59200 39.77600
O  4.77000 48.26700 38.88800
O  5.67700 46.24300 39.70600
C  5.44800 45.63400 38.37700
H  11.09300 52.46600 39.10500
H  6.92400 57.47500 40.09500
H  2.58100 53.77200 42.17600
H  9.16200 48.34800 40.62400
H  10.82700 49.93500 39.08800
H  11.93900 49.49800 40.81100
H  10.50500 49.37300 41.78500
H  11.33200 51.02700 41.56300
H  7.92900 47.61300 38.62300
H  9.62500 47.84700 38.29400
H  9.51800 49.14600 36.68700
H  8.57600 50.29800 37.50900
H  12.21800 54.31500 38.64100
H  12.38500 55.99300 38.87200
H  11.70300 55.43300 37.40700
H  8.57400 59.03200 40.23800
H  7.72000 58.66100 38.74900
H  9.03100 59.80500 38.67800
H  4.36400 57.46600 40.13800
H  3.35700 56.12100 42.53900
H  6.11700 58.09800 42.24900
H  4.49600 58.11000 42.94100
H  4.72400 59.04200 41.50000
H  2.23000 57.10100 40.34000
H  1.48000 55.95400 41.39800
H  1.83500 55.71300 38.58300
H  0.83800 54.73400 39.72200
H  2.55300 54.31600 39.42900
H  1.66500 49.99400 42.34200
H  1.60100 51.55800 43.12200
H  2.48600 50.18400 43.91000
H  6.60500 47.62400 41.58900
H  6.24300 44.88800 38.34900
H  5.67400 46.36100 37.59700
H  4.43300 45.27800 38.19800

