158

Mg 36.22100 49.17500 26.05100
C  36.12700 47.17400 28.79600
C  35.12600 51.82200 27.92100
C  35.79400 51.13200 23.11100
C  36.90100 46.48400 23.95700
N  35.53700 49.46100 28.09100
C  35.70000 48.47400 29.00100
C  35.56400 49.08300 30.45500
C  35.03100 50.52600 30.17000
C  35.28200 50.63800 28.60500
C  33.61700 50.84800 30.62600
C  36.94500 48.96600 31.13500
C  36.94000 48.15200 32.50500
H  35.84800 48.56500 33.50800
N  35.58400 51.24800 25.59300
C  35.16100 52.13900 26.55800
C  34.83000 53.39100 25.91400
C  35.06100 53.20600 24.49100
C  35.51800 51.84700 24.35900
C  34.43600 54.66500 26.71100
C  34.93700 54.18300 23.33700
O  35.37900 53.95400 22.17500
C  34.29600 55.54300 23.52500
N  36.32300 48.85100 23.89700
C  36.12200 49.82300 22.91000
C  36.08000 49.20300 21.48800
C  36.45600 47.69900 21.80600
C  36.62700 47.65100 23.30800
C  34.79900 49.48400 20.67300
C  37.83500 47.30500 21.11300
C  39.20900 47.79000 21.82900
N  36.48300 47.19200 26.29200
C  36.81600 46.21300 25.37300
C  36.97600 44.95500 26.09200
C  36.78400 45.33800 27.46600
C  36.44000 46.62100 27.53300
C  37.28700 43.61700 25.48700
C  36.74700 44.81300 28.75200
O  36.95000 43.68700 29.18800
C  36.37000 46.00700 29.72900
C  35.16800 45.57900 30.47200
O  34.02400 45.67700 30.14200
O  35.54300 45.17600 31.73200
C  34.47900 44.85400 32.72400
H  34.79400 52.61500 28.59400
H  35.64100 51.64900 22.16200
H  37.17500 45.59000 23.39200
H  34.84000 48.47500 30.99600
H  35.74500 51.29200 30.47100
H  32.76800 50.83700 29.94300
H  33.68600 51.85900 31.02700
H  33.34700 50.22500 31.47900
H  37.31700 49.95500 31.40500
H  37.76900 48.52800 30.57200
H  37.84700 48.47300 33.01700
H  37.02400 47.07300 32.37700
H  33.40100 54.53800 27.02700
H  34.56200 55.62800 26.21600
H  35.19600 54.56000 27.48400
H  34.23600 55.89800 22.49700
H  34.95500 56.25300 24.02500
H  33.32700 55.57500 24.02200
H  37.02100 49.62300 21.13100
H  35.69900 47.01300 21.42800
H  33.86200 49.41400 21.22500
H  34.77300 48.61200 20.02000
H  34.90600 50.41300 20.11200
H  37.83300 47.67000 20.08600
H  37.86400 46.21700 21.04300
H  39.85600 48.27100 21.09500
H  39.73100 46.94200 22.27300
H  38.97800 48.51500 22.61000
H  38.37100 43.50800 25.47100
H  37.09300 43.71300 24.41900
H  36.74500 42.74900 25.86400
H  37.24400 46.22600 30.34200
H  34.42100 43.77000 32.82200
H  33.52400 45.27100 32.40600
H  34.64500 45.29500 33.70700
Mg -11.08800 38.94500 41.36300
C  -8.74000 36.12100 40.96100
C  -9.04200 40.80000 39.51300
C  -13.63700 41.07800 40.99500
C  -13.36500 36.43500 42.38300
N  -9.17000 38.46500 40.21600
C  -8.40800 37.30800 40.24300
C  -7.10300 37.54400 39.51400
C  -7.15700 39.07100 39.09500
C  -8.53500 39.48900 39.67200
C  -5.96600 39.97600 39.61800
C  -7.05900 36.62600 38.26500
C  -5.72400 35.89100 38.20900
H  -4.95700 36.11900 36.93900
N  -11.19900 40.73700 40.47800
C  -10.22800 41.33900 39.84400
C  -10.61500 42.69700 39.51200
C  -11.98400 42.80600 39.83500
C  -12.35100 41.51400 40.48000
C  -9.73400 43.83200 38.79000
C  -12.87400 43.98600 39.55300
O  -12.40200 45.01700 38.97400
C  -14.31500 44.04400 39.81200
N  -13.21000 38.76900 41.67600
C  -14.02300 39.86000 41.54800
C  -15.50700 39.48800 41.96500
C  -15.36500 37.95200 42.36400
C  -13.91700 37.70400 42.13600
C  -16.14400 40.32100 43.15100
C  -16.30100 37.02700 41.59500
C  -17.06900 36.02600 42.55600
N  -11.14500 36.74700 41.72000
C  -12.10400 35.92700 42.20100
C  -11.57300 34.61900 42.47600
C  -10.33400 34.66600 41.97700
C  -10.05000 35.97500 41.51700
C  -12.37700 33.59200 43.10400
C  -9.13000 33.85800 41.81400
O  -8.96500 32.67600 41.99600
C  -8.07800 34.78700 41.05500
C  -6.72600 34.78500 41.70400
O  -5.83800 33.95100 41.61300
O  -6.55700 36.00900 42.38600
C  -5.25800 36.25900 43.14700
H  -8.28500 41.45700 39.07900
H  -14.54800 41.67300 40.90000
H  -14.04000 35.74700 42.89600
H  -6.17000 37.50400 40.07600
H  -7.20400 39.23000 38.01800
H  -6.41300 40.62000 40.37600
H  -5.56700 40.60700 38.82400
H  -5.10500 39.54800 40.13200
H  -7.34100 37.20400 37.38400
H  -7.87000 35.89800 38.24200
H  -5.92400 34.82700 38.32700
H  -5.05700 36.19300 39.01800
H  -10.16800 43.99300 37.80400
H  -8.71800 43.47500 38.62800
H  -9.65500 44.79700 39.29200
H  -14.31700 43.94200 40.89700
H  -14.83900 43.23000 39.31100
H  -14.73200 44.98600 39.45700
H  -16.20600 39.59300 41.13500
H  -15.53400 37.82300 43.43400
H  -16.51500 41.28600 42.80600
H  -15.54600 40.43600 44.05500
H  -16.90200 39.65600 43.56500
H  -15.79000 36.43300 40.83700
H  -17.05900 37.57700 41.03700
H  -17.00100 35.02500 42.13000
H  -18.01500 36.47600 42.85800
H  -16.55600 35.93200 43.51300
H  -13.04400 33.91300 43.90500
H  -11.60300 33.07200 43.66900
H  -12.78200 32.97100 42.30600
H  -8.06200 34.46900 40.01300
H  -5.24800 35.57700 43.99700
H  -5.04800 37.30200 43.38200
H  -4.51200 36.15600 42.35900

