158

Mg 49.39600 45.33000 42.81800
C  46.13600 46.32300 42.17400
C  48.52700 42.06200 42.20200
C  52.73200 44.67500 42.63000
C  50.13500 48.73400 43.32400
N  47.46100 44.26100 42.34500
C  46.28800 44.91400 41.96200
C  45.36500 43.91500 41.24100
C  46.02100 42.53700 41.68500
C  47.41300 42.93000 42.17300
C  45.17800 41.71600 42.72300
C  45.29300 44.10400 39.67700
C  44.02600 43.44900 39.13500
H  43.48000 43.77200 37.71500
N  50.43300 43.63700 42.56300
C  49.86900 42.43500 42.35800
C  50.94500 41.43500 42.37400
C  52.15900 42.11600 42.51300
C  51.80800 43.53400 42.61400
C  50.66400 39.94800 42.08300
C  53.50500 41.43900 42.49300
O  53.56900 40.21900 42.34800
C  54.79300 42.15800 42.67600
N  51.20800 46.54200 42.88400
C  52.47000 46.03100 42.82700
C  53.53400 47.18900 42.91900
C  52.68900 48.47900 43.17600
C  51.24400 47.90000 43.16900
C  54.71000 46.95100 43.97500
C  52.97100 49.60600 42.10700
C  52.09900 49.64600 40.82700
N  48.37200 47.20000 42.78000
C  48.76000 48.50000 43.09100
C  47.65300 49.39000 43.12100
C  46.61100 48.60700 42.76600
C  47.09300 47.27400 42.60200
C  47.68100 50.87900 43.45800
C  45.18600 48.58800 42.37100
O  44.38100 49.51600 42.31900
C  44.81400 47.13100 41.93400
C  43.67700 46.58800 42.72000
O  43.62900 46.68800 43.93100
O  42.73300 45.96700 41.93600
C  41.52700 45.54200 42.71800
H  48.28500 41.03300 41.92800
H  53.78000 44.38300 42.72700
H  50.32200 49.80300 43.44000
H  44.38000 43.96200 41.70600
H  46.12700 41.91600 40.79600
H  44.29200 42.27300 43.02800
H  45.77700 41.45400 43.59400
H  44.92500 40.78100 42.22200
H  46.21700 43.72300 39.24200
H  45.43200 45.17200 39.51000
H  43.25300 43.95800 39.71100
H  44.08400 42.38800 39.38100
H  51.23700 39.60600 41.22200
H  49.62000 39.67400 41.93100
H  50.90300 39.38800 42.98700
H  54.94600 42.77300 41.78900
H  55.67600 41.51900 42.69300
H  54.79300 42.70600 43.61800
H  53.94500 47.30200 41.91500
H  52.66000 48.85700 44.19800
H  54.83100 47.89100 44.51500
H  55.69500 46.75700 43.55200
H  54.44800 46.15100 44.66700
H  54.01400 49.46400 41.82500
H  52.99200 50.53500 42.67600
H  51.67900 50.64300 40.68900
H  51.35800 48.84800 40.79800
H  52.77900 49.50800 39.98600
H  46.69100 51.14600 43.08600
H  48.42900 51.52300 42.99600
H  47.75700 50.91500 44.54400
H  44.53000 47.13900 40.88100
H  40.74900 45.25500 42.01100
H  41.19600 46.29600 43.43300
H  41.78100 44.65000 43.29100
Mg 30.20300 58.91800 40.68200
C  27.42000 57.10700 39.67200
C  32.31700 56.73700 39.23000
C  32.69100 61.34100 41.01200
C  27.81800 61.56000 41.67800
N  29.88300 57.18600 39.54500
C  28.71000 56.53600 39.34500
C  28.95100 55.33500 38.42800
C  30.48200 54.98200 38.62100
C  30.95400 56.35700 39.16400
C  30.79500 53.76400 39.48500
C  28.48700 55.65900 36.99000
C  27.55700 54.61500 36.28900
H  27.71800 54.50800 34.75600
N  32.29500 58.98800 40.13500
C  32.94100 57.94900 39.59300
C  34.30100 58.34900 39.35400
C  34.49200 59.67100 39.91400
C  33.08700 60.09700 40.40200
C  35.29000 57.56800 38.57400
C  35.82800 60.44900 39.86100
O  36.84200 59.86200 39.48000
C  35.87100 61.94300 39.98900
N  30.24600 61.15600 41.13800
C  31.41700 61.84900 41.25000
C  31.22700 63.24000 41.83500
C  29.67800 63.36500 42.13900
C  29.19100 61.95000 41.64800
C  32.08500 63.42800 43.25500
C  28.92300 64.57400 41.52700
C  28.25600 65.53000 42.55700
N  28.08200 59.23100 40.85600
C  27.32300 60.33200 41.17900
C  25.91200 59.96300 41.09800
C  25.95800 58.65700 40.59100
C  27.26000 58.33700 40.38900
C  24.82200 60.64800 41.66900
C  25.07800 57.55700 40.19100
O  23.87600 57.31800 40.30300
C  26.04200 56.54600 39.47800
C  25.72300 55.22800 40.00800
O  26.39000 54.68400 40.91100
O  24.63400 54.67300 39.39400
C  24.13300 53.37100 39.75500
H  32.81700 55.94100 38.67400
H  33.51000 62.01300 41.28000
H  27.02300 62.25600 41.95300
H  28.33100 54.49100 38.73100
H  30.97800 54.88700 37.65500
H  31.61400 53.18300 39.06200
H  29.96100 53.07500 39.62500
H  31.20400 54.16000 40.41400
H  29.34100 55.76800 36.32200
H  28.03000 56.64300 37.08900
H  26.56200 54.99200 36.52500
H  27.54100 53.61100 36.71300
H  36.18100 57.38900 39.17600
H  35.52800 58.01100 37.60600
H  34.75000 56.63500 38.41200
H  35.10700 62.40900 39.36700
H  36.85200 62.29800 39.67200
H  35.77500 62.27500 41.02300
H  31.45200 63.98300 41.07000
H  29.51700 63.34100 43.21600
H  32.05900 62.51800 43.85500
H  31.73300 64.30100 43.80400
H  33.11300 63.60500 42.93900
H  28.11900 64.19400 40.89600
H  29.55300 65.23100 40.92800
H  28.30800 66.55500 42.18900
H  28.81100 65.54700 43.49600
H  27.22700 65.24900 42.77800
H  25.19300 61.27000 42.48300
H  23.99000 60.03200 42.01100
H  24.45200 61.25900 40.84600
H  25.73900 56.51700 38.43100
H  24.76000 52.96200 40.54700
H  23.92300 52.70400 38.91800
H  23.14400 53.54800 40.17900

