158

Mg 16.53500 51.52300 25.36500
C  18.20400 50.38900 28.20700
C  13.81500 52.47600 27.33000
C  15.06100 52.70100 22.66500
C  19.18500 50.26100 23.50000
N  16.08900 51.37100 27.50500
C  16.92600 50.92500 28.51500
C  16.33700 51.24600 29.92300
C  14.87400 51.70000 29.60700
C  14.93100 51.86900 28.02400
C  13.89700 50.65500 30.10300
C  17.22300 52.25300 30.69900
C  17.61300 51.87600 32.13200
H  17.17300 52.98400 33.16600
N  14.64100 52.42500 25.02000
C  13.70000 52.77300 25.94400
C  12.59100 53.43600 25.26400
C  12.90700 53.50600 23.94800
C  14.28300 52.89000 23.81600
C  11.33600 54.04200 25.98000
C  12.02800 54.01400 22.75200
O  12.31700 53.84200 21.62900
C  10.86200 54.85100 23.08000
N  16.99400 51.36200 23.30900
C  16.26200 52.04900 22.39700
C  17.06300 52.25400 21.09100
C  18.41800 51.48500 21.41000
C  18.18600 50.98100 22.85300
C  16.29600 51.80200 19.85500
C  19.67900 52.35300 21.36400
C  20.93200 51.54800 21.08100
N  18.21600 50.49900 25.76000
C  19.25200 50.03700 24.92700
C  20.26700 49.39600 25.64900
C  19.91500 49.54900 26.94100
C  18.67400 50.18800 26.96000
C  21.54200 48.75800 25.17500
C  20.35000 49.30100 28.24900
O  21.33600 48.71600 28.71300
C  19.21100 49.92000 29.23900
C  18.69300 48.87200 30.21500
O  17.85500 48.02000 29.96200
O  19.44700 48.98000 31.40400
C  19.25800 48.06200 32.48000
H  12.96800 52.83700 27.91800
H  14.59500 53.16700 21.79500
H  19.99700 49.90400 22.86300
H  16.37400 50.27200 30.41100
H  14.78200 52.64600 30.14100
H  12.98900 51.12900 30.47500
H  14.29000 50.04600 30.91700
H  13.66800 50.08700 29.20100
H  16.75300 53.23000 30.80600
H  18.19000 52.40800 30.22000
H  18.70000 51.81100 32.10100
H  17.18600 50.92700 32.45900
H  11.31000 55.11300 25.78100
H  11.42200 53.76800 27.03100
H  10.41700 53.52500 25.70400
H  11.03100 55.82900 23.53000
H  10.07200 54.24600 23.52400
H  10.32000 55.08200 22.16300
H  17.30900 53.31300 21.02300
H  18.53800 50.60600 20.77800
H  16.78700 51.14900 19.13400
H  15.89400 52.68700 19.36000
H  15.36800 51.28100 20.09000
H  19.68500 52.83000 22.34400
H  19.54500 53.16400 20.64900
H  20.65300 50.55800 20.72200
H  21.64600 51.48000 21.90200
H  21.47400 52.02500 20.26400
H  21.29000 47.82800 24.66500
H  22.13100 48.46200 26.04300
H  22.18900 49.33700 24.51700
H  19.72100 50.74800 29.73200
H  18.40400 48.25100 33.13200
H  20.14500 47.84000 33.07300
H  19.04000 47.08600 32.04700
Mg -9.87900 16.83500 41.66900
C  -6.22900 16.57800 41.77700
C  -9.46700 20.33700 41.51700
C  -12.90700 16.77700 40.70700
C  -9.75700 13.26500 41.63700
N  -8.16400 18.23200 41.52500
C  -6.77200 17.90300 41.65200
C  -5.99400 19.15700 41.53800
C  -6.97300 20.24800 42.03000
C  -8.28200 19.59200 41.58900
C  -7.03100 20.55800 43.56200
C  -5.57000 19.34700 40.07900
C  -4.09100 18.83400 39.69500
H  -3.90900 18.03100 38.42300
N  -11.01900 18.36000 41.15800
C  -10.70000 19.71800 41.16900
C  -11.90000 20.37800 40.83200
C  -12.96000 19.41500 40.70800
C  -12.37100 18.07000 40.81500
C  -11.92700 21.93300 40.57700
C  -14.41100 19.71800 40.49400
O  -14.77700 20.82400 40.14100
C  -15.46100 18.66600 40.32300
N  -11.11500 15.17000 41.04100
C  -12.36400 15.51300 40.80100
C  -13.19000 14.24800 40.55700
C  -12.20100 13.07800 41.01300
C  -10.98400 13.83300 41.27900
C  -14.50800 14.26200 41.25400
C  -12.07500 11.97600 40.02100
C  -12.89400 10.67500 40.26700
N  -8.31400 15.15000 41.80900
C  -8.43600 13.78300 41.91500
C  -7.15600 13.11400 42.13300
C  -6.26500 14.18700 42.13400
C  -6.99000 15.38400 41.83300
C  -6.81500 11.72400 42.23300
C  -4.87500 14.58000 42.28000
O  -3.86600 13.97200 42.55900
C  -4.78300 16.10100 42.02000
C  -4.07500 16.80200 43.10200
O  -3.05900 17.46200 42.99400
O  -4.66200 16.63800 44.36100
C  -4.01800 17.22900 45.53500
H  -9.33800 21.42200 41.52900
H  -13.89400 16.71500 40.24200
H  -9.81500 12.19200 41.83300
H  -5.14900 19.12200 42.22600
H  -6.85000 21.15800 41.44200
H  -6.15300 20.32900 44.16600
H  -7.85200 20.05100 44.06700
H  -7.09300 21.62800 43.76400
H  -5.68800 20.41800 39.91200
H  -6.22000 18.72500 39.46300
H  -3.70000 18.32800 40.57700
H  -3.58100 19.78800 39.56200
H  -12.00700 22.47300 41.52000
H  -12.87600 22.30200 40.19000
H  -11.12200 22.35900 39.97900
H  -15.50900 18.06400 39.41600
H  -16.47100 19.07800 40.31100
H  -15.37300 17.99900 41.18000
H  -13.36700 14.25100 39.48100
H  -12.48500 12.63900 41.96900
H  -15.35500 14.39300 40.58100
H  -14.46600 15.05500 42.00000
H  -14.73200 13.33200 41.77600
H  -11.02000 11.73700 39.88600
H  -12.42800 12.34400 39.05700
H  -13.31100 10.71400 41.27400
H  -12.29800 9.77900 40.09500
H  -13.69000 10.57400 39.52900
H  -5.90400 11.62200 42.82400
H  -6.47100 11.39900 41.25100
H  -7.60700 11.03000 42.51300
H  -4.21300 16.22100 41.09800
H  -3.09300 16.66600 45.66000
H  -4.61900 17.12300 46.43800
H  -3.82800 18.29500 45.41100

