158

Mg 41.68700 9.37700 29.75500
C  42.91600 10.64600 32.84800
C  39.38600 7.64500 31.47500
C  40.62900 8.15000 26.80000
C  44.18400 11.34900 28.11100
N  41.38800 9.09300 31.97000
C  41.89200 9.73800 33.03300
C  41.26200 9.21700 34.32800
C  40.17900 8.14000 33.83800
C  40.33000 8.27600 32.32100
C  40.34100 6.66400 34.34800
C  40.64000 10.33900 35.23600
C  40.98400 10.30800 36.78900
H  41.32100 11.60400 37.42900
N  40.23000 8.08300 29.25300
C  39.34400 7.47400 30.07000
C  38.37700 6.66700 29.34100
C  38.75900 6.79200 27.98900
C  39.90800 7.64300 27.94300
C  37.25800 5.80600 30.00100
C  38.09400 6.19200 26.77500
O  38.48600 6.33800 25.64800
C  36.84200 5.35800 26.89800
N  42.31300 9.73700 27.70400
C  41.77200 9.01900 26.70900
C  42.40500 9.50300 25.33000
C  43.27800 10.73200 25.73300
C  43.29800 10.53600 27.25100
C  43.05100 8.37400 24.52500
C  42.72900 12.16800 25.22200
C  41.30000 12.76800 25.62500
N  43.37600 10.53100 30.36900
C  44.29900 11.30000 29.53400
C  45.21500 12.01200 30.41900
C  44.64000 11.77800 31.72200
C  43.59500 10.83900 31.63200
C  46.37400 12.84100 29.91600
C  44.78600 12.09200 33.13100
O  45.59200 12.81100 33.68200
C  43.71700 11.38000 33.90500
C  44.44800 10.37100 34.83400
O  45.29100 9.57400 34.54700
O  44.01600 10.56400 36.27300
C  44.79300 9.67200 37.21600
H  38.68800 6.93800 31.92800
H  40.20100 7.92200 25.82200
H  44.93700 11.94200 27.58600
H  42.09200 8.73600 34.84700
H  39.20000 8.47500 34.18000
H  41.17400 6.66100 35.05100
H  40.51500 6.06500 33.45300
H  39.45100 6.24200 34.81400
H  39.55200 10.32800 35.17500
H  41.04600 11.29800 34.91300
H  41.65500 9.46600 36.96200
H  40.03100 9.95900 37.18600
H  37.28400 4.85900 29.46200
H  36.29200 6.27000 29.79900
H  37.38200 5.63700 31.07100
H  36.32200 5.13000 25.96800
H  36.19700 5.78300 27.66800
H  37.08200 4.38500 27.32600
H  41.58300 9.88200 24.72200
H  44.26800 10.48000 25.35100
H  42.94200 8.48800 23.44600
H  42.48900 7.51100 24.88300
H  44.09000 8.16100 24.77300
H  42.92200 12.32300 24.16000
H  43.36300 12.83200 25.80900
H  40.93200 12.22700 26.49700
H  40.61300 12.80800 24.78000
H  41.47000 13.81500 25.87800
H  45.96000 13.36300 29.05300
H  47.15500 12.10400 29.72900
H  46.61200 13.58800 30.67300
H  43.12500 12.14000 34.41500
H  45.84300 9.96000 37.25700
H  44.69900 8.62300 36.93600
H  44.37400 9.86700 38.20300
Mg 8.97200 47.53500 26.39200
C  7.19100 47.81100 29.48400
C  11.84700 48.57900 28.18800
C  10.62900 47.56000 23.54300
C  6.09900 46.77400 24.85000
N  9.44800 48.08700 28.57500
C  8.56300 48.03400 29.63200
C  9.26000 48.37600 30.94700
C  10.61000 49.09000 30.44900
C  10.68400 48.55500 28.97300
C  10.65200 50.58000 30.58600
C  9.50500 47.16800 31.88800
C  9.18900 47.39600 33.32700
H  9.17900 46.23300 34.41900
N  10.96200 47.93500 25.96300
C  12.02300 48.31300 26.82400
C  13.24900 48.54000 26.02800
C  12.90000 48.08200 24.68300
C  11.45300 47.93300 24.66900
C  14.57900 48.94200 26.74100
C  13.76600 47.91400 23.49100
O  13.28900 47.57000 22.43800
C  15.29500 48.16600 23.53300
N  8.36400 47.43100 24.48700
C  9.21500 47.41500 23.44900
C  8.50500 47.09800 22.13400
C  7.10700 46.61300 22.56000
C  7.17700 46.98000 24.03700
C  8.60800 48.10900 20.96000
C  6.84900 45.03100 22.41900
C  7.63000 44.06200 23.25500
N  7.05300 47.37000 26.97800
C  5.94300 47.08400 26.21800
C  4.80600 46.98000 27.03200
C  5.18700 47.27900 28.34700
C  6.58000 47.45900 28.25600
C  3.40200 46.61000 26.55000
C  4.80000 47.53000 29.73300
O  3.64500 47.68200 30.22300
C  6.13300 47.72100 30.55200
C  6.30800 46.51900 31.33400
O  6.59100 45.42200 30.81100
O  5.63600 46.61500 32.52400
C  5.52100 45.35800 33.29900
H  12.70300 48.95700 28.75200
H  11.07400 47.34400 22.56900
H  5.31600 46.31800 24.24100
H  8.57000 49.07500 31.42000
H  11.52100 48.74800 30.94000
H  9.80000 50.92700 31.17200
H  10.35900 50.91900 29.59300
H  11.60900 51.02200 30.86000
H  10.58200 47.00100 31.85400
H  9.12200 46.19700 31.57400
H  8.28400 48.00300 33.31600
H  9.94500 48.01300 33.81300
H  14.44400 49.35400 27.74100
H  14.99300 49.80400 26.21800
H  15.37300 48.20900 26.59700
H  15.56600 49.03600 24.13200
H  15.48900 48.39100 22.48500
H  15.68600 47.23700 23.94800
H  8.94600 46.19000 21.72200
H  6.31800 47.23200 22.13200
H  9.06900 49.05000 21.26000
H  7.63600 48.44700 20.60100
H  9.22600 47.65700 20.18300
H  6.95000 44.71200 21.38200
H  5.78500 44.85600 22.58100
H  7.04100 43.53000 24.00300
H  8.41500 44.59400 23.79300
H  8.24100 43.36700 22.67900
H  2.78000 47.50300 26.49400
H  2.92300 45.90700 27.23100
H  3.40400 46.22100 25.53200
H  6.18500 48.58800 31.21000
H  4.51500 44.98800 33.09900
H  5.58100 45.50000 34.37800
H  6.24000 44.59800 32.99100

