158

Mg 24.65100 -4.94100 45.81000
C  26.84400 -2.50200 44.28600
C  22.30300 -4.14000 43.66100
C  23.19200 -7.73800 46.88200
C  27.46600 -5.69900 48.03900
N  24.69500 -3.46500 44.15600
C  25.57800 -2.58500 43.69100
C  25.00900 -1.72300 42.50500
C  23.44300 -2.11100 42.58500
C  23.41600 -3.31900 43.57100
C  22.47400 -0.94500 42.86600
C  25.81400 -1.90500 41.18500
C  26.08700 -0.61600 40.37200
H  25.78400 -0.65800 38.84100
N  22.97100 -5.81700 45.36600
C  22.07400 -5.28600 44.45600
C  20.92600 -6.19200 44.45900
C  21.24100 -7.25300 45.37500
C  22.49500 -6.95400 45.93500
C  19.73700 -6.09600 43.47600
C  20.31300 -8.48700 45.57700
O  19.10300 -8.45700 45.26700
C  20.76800 -9.67300 46.29400
N  25.36700 -6.64900 47.14300
C  24.46500 -7.57000 47.37700
C  24.95700 -8.47500 48.55000
C  26.25900 -7.76300 49.04000
C  26.39900 -6.62200 47.98900
C  23.88200 -8.62900 49.67300
C  27.56100 -8.66100 49.27000
C  28.14100 -8.59600 50.73800
N  26.71900 -4.25200 46.12800
C  27.70200 -4.65100 47.05500
C  28.88700 -3.85300 46.92500
C  28.59500 -2.98300 45.88300
C  27.31700 -3.27500 45.42500
C  30.06900 -3.91200 47.84200
C  29.09300 -1.76600 45.08300
O  29.99900 -1.02100 45.17800
C  28.07600 -1.62700 43.91500
C  27.76000 -0.13100 43.79800
O  27.07700 0.47700 44.57500
O  28.49000 0.40300 42.78000
C  28.15300 1.80200 42.62400
H  21.59200 -3.91900 42.86100
H  22.74200 -8.62300 47.33800
H  28.21500 -5.96200 48.78900
H  25.12900 -0.65200 42.66800
H  23.12500 -2.51300 41.62300
H  21.83600 -1.13800 43.72900
H  21.73300 -0.90700 42.06700
H  22.85600 0.07400 42.92200
H  25.22300 -2.65200 40.65600
H  26.73500 -2.44200 41.41200
H  27.13400 -0.31500 40.33200
H  25.47600 0.15900 40.83300
H  19.81100 -6.97800 42.84000
H  19.62900 -5.28300 42.75800
H  18.84200 -6.25500 44.07700
H  20.80300 -9.67100 47.38300
H  21.72500 -9.98300 45.87600
H  20.14300 -10.50500 45.96900
H  25.23500 -9.48000 48.23200
H  26.01400 -7.17700 49.92600
H  23.54000 -9.66300 49.72500
H  22.97300 -8.03300 49.60000
H  24.28500 -8.45100 50.67000
H  28.30800 -8.31000 48.55800
H  27.48200 -9.70100 48.95400
H  27.45100 -9.23900 51.28500
H  28.31000 -7.61200 51.17500
H  29.09000 -9.12900 50.69100
H  30.92900 -3.73600 47.19700
H  30.03400 -4.92200 48.25200
H  30.00200 -3.19400 48.66000
H  28.45100 -2.04200 42.98000
H  29.05200 2.12300 42.09700
H  27.99400 2.35200 43.55200
H  27.35000 1.89700 41.89400
Mg 47.65000 24.11400 27.67700
C  48.56500 26.10500 30.44400
C  47.09500 21.55500 30.12100
C  47.00100 22.00300 25.32400
C  48.81100 26.51100 25.54400
N  47.65400 23.87900 30.04700
C  48.05500 24.90000 30.94500
C  47.94100 24.46500 32.43500
C  47.43400 22.96400 32.33200
C  47.44600 22.73400 30.73500
C  48.42100 21.96600 33.01200
C  47.03400 25.36100 33.30900
C  47.65500 25.90400 34.64300
H  46.58700 26.31900 35.64800
N  47.04400 22.06200 27.69300
C  46.87100 21.22500 28.76600
C  46.32500 19.91900 28.27900
C  46.30600 20.02300 26.87600
C  46.83600 21.37100 26.55700
C  45.92600 18.73700 29.08400
C  45.73100 19.02600 25.88500
O  45.93900 19.21600 24.69000
C  45.20600 17.65900 26.29900
N  47.76800 24.34600 25.72700
C  47.38900 23.29100 24.88600
C  47.14600 23.78100 23.42600
C  47.77400 25.29500 23.54900
C  48.25300 25.36500 24.97100
C  47.91000 22.92200 22.40700
C  46.77200 26.37800 23.15000
C  46.73600 26.57700 21.71400
N  48.39900 25.99600 27.91100
C  48.80800 26.85100 26.91700
C  49.35100 28.05700 27.53500
C  49.28000 27.81600 28.91000
C  48.67300 26.55800 29.08000
C  49.87800 29.19900 26.84000
C  49.49800 28.38400 30.23700
O  49.85600 29.50800 30.54100
C  49.13700 27.29500 31.22400
C  50.37400 26.92300 31.90600
O  51.14500 26.05200 31.52800
O  50.46900 27.67100 33.02500
C  51.53000 27.06600 33.89800
H  46.84200 20.75500 30.82000
H  46.75100 21.40000 24.44800
H  49.14300 27.35800 24.94000
H  48.94500 24.56100 32.84700
H  46.41400 22.86200 32.70400
H  49.02000 22.63200 33.63200
H  49.05000 21.37300 32.34900
H  47.91100 21.37600 33.77300
H  46.14500 24.83500 33.65700
H  46.67100 26.16300 32.66700
H  48.27100 26.75100 34.34100
H  48.39200 25.15000 34.92200
H  46.75700 18.04000 28.98200
H  44.92000 18.41500 28.81200
H  45.77700 18.96800 30.13900
H  45.86500 17.15000 27.00300
H  45.18700 17.04900 25.39600
H  44.21000 17.70200 26.73800
H  46.05600 23.78700 23.42900
H  48.65000 25.41000 22.91100
H  48.22500 22.07200 23.01200
H  48.74700 23.41100 21.90900
H  47.34300 22.54500 21.55500
H  47.07200 27.33600 23.57600
H  45.74100 26.16200 23.43000
H  47.68300 26.39000 21.21000
H  46.49600 27.61200 21.46900
H  46.01900 25.94300 21.19300
H  49.61200 29.22000 25.78300
H  50.95100 29.37000 26.93100
H  49.40700 30.06700 27.30200
H  48.56900 27.81600 31.99400
H  51.53700 27.76900 34.73100
H  52.53500 27.04300 33.47500
H  51.36800 26.02500 34.17800

