158

Mg -2.03200 16.98700 26.40100
C  -2.46200 14.91800 29.36700
C  -2.40300 19.74500 28.46400
C  -2.23300 18.81300 23.72300
C  -2.14400 14.13200 24.51800
N  -2.38500 17.24800 28.65400
C  -2.46700 16.25700 29.66100
C  -2.57000 16.91400 31.06500
C  -2.59600 18.47800 30.69600
C  -2.50600 18.50800 29.17500
C  -3.88400 19.20500 31.22400
C  -1.39000 16.59800 32.11700
C  -0.90200 17.55100 33.16900
H  -0.29200 17.08700 34.50500
N  -2.17800 19.02000 26.16400
C  -2.28900 19.98400 27.09200
C  -2.36100 21.20900 26.44600
C  -2.18800 21.03400 25.03400
C  -2.23100 19.53500 24.90600
C  -2.40200 22.47400 27.19300
C  -1.98000 22.05100 23.91300
O  -1.87200 21.75400 22.72600
C  -1.87600 23.47900 24.34100
N  -2.41600 16.49900 24.39300
C  -2.21500 17.41300 23.39600
C  -2.22200 16.83100 22.01100
C  -1.79000 15.34300 22.40300
C  -2.11700 15.29200 23.85400
C  -3.59600 16.99700 21.26600
C  -0.39200 14.76200 21.97200
C  -0.32200 13.61800 20.94000
N  -2.22900 14.96700 26.81300
C  -2.21300 13.93000 25.90100
C  -2.32400 12.66300 26.57600
C  -2.31300 13.05000 27.94700
C  -2.33500 14.43600 28.03600
C  -2.25200 11.35800 25.99400
C  -2.33500 12.60200 29.32300
O  -2.43400 11.45100 29.75200
C  -2.43400 13.77700 30.27500
C  -1.36300 13.70500 31.26100
O  -0.19100 14.01200 31.04500
O  -1.86100 13.39300 32.51500
C  -0.96700 13.40200 33.70400
H  -2.43500 20.59500 29.14800
H  -2.04300 19.46700 22.86900
H  -2.06700 13.25400 23.87300
H  -3.49600 16.57500 31.52900
H  -1.70300 19.00300 31.03600
H  -4.03400 18.73200 32.19500
H  -4.69400 19.05100 30.51000
H  -3.74400 20.28000 31.32800
H  -0.47500 16.25300 31.63600
H  -1.84400 15.83600 32.75000
H  -1.57300 18.38500 33.37600
H  -0.12500 18.10900 32.64700
H  -1.44600 22.97400 27.34600
H  -2.98100 22.49800 28.11700
H  -3.08700 23.12000 26.64300
H  -2.80400 24.01000 24.55200
H  -1.34100 24.08000 23.60600
H  -1.20100 23.48000 25.19800
H  -1.43600 17.22000 21.36400
H  -2.48400 14.66900 21.90100
H  -4.20800 17.74300 21.77200
H  -4.20100 16.09000 21.29400
H  -3.46700 17.14100 20.19300
H  0.11400 14.51400 22.90500
H  0.03200 15.63400 21.47400
H  0.15500 12.75300 21.40100
H  0.41000 13.90100 20.18400
H  -1.29200 13.35600 20.51700
H  -1.50500 11.28600 25.20300
H  -3.16300 11.10300 25.45100
H  -2.06300 10.52900 26.67600
H  -3.35400 13.67800 30.85100
H  -1.03800 12.39000 34.10300
H  -1.44700 14.11100 34.37900
H  0.09000 13.63100 33.57000
Mg 2.35900 -2.32100 44.36600
C  5.79100 -1.51000 43.51700
C  1.40600 0.43700 42.67000
C  -0.76200 -3.45500 44.63000
C  3.57800 -5.43600 45.41800
N  3.47900 -0.71900 43.10800
C  4.86600 -0.53100 43.03400
C  5.10900 0.63800 42.07800
C  3.72400 1.35800 42.10800
C  2.79100 0.25700 42.68600
C  3.77400 2.66800 42.95200
C  5.49800 0.03900 40.67900
C  6.62400 0.76300 39.95600
H  6.65500 0.80700 38.44000
N  0.46300 -1.48700 43.80500
C  0.30100 -0.29200 43.20000
C  -1.10500 -0.04200 43.03600
C  -1.78200 -1.17700 43.59500
C  -0.73500 -2.13000 44.04000
C  -1.51300 1.11400 42.31000
C  -3.20000 -1.32800 43.63000
O  -3.91400 -0.55300 43.02700
C  -3.76500 -2.46000 44.28000
N  1.57400 -4.18300 44.81400
C  0.23700 -4.37900 44.91600
C  -0.15700 -5.76200 45.54500
C  1.26600 -6.39700 45.62300
C  2.23600 -5.25700 45.30900
C  -0.97900 -5.82400 46.87100
C  1.48200 -7.60800 44.62600
C  1.86500 -9.02300 45.17600
N  4.27600 -3.30500 44.63600
C  4.63500 -4.53200 45.08200
C  6.06100 -4.80400 44.97200
C  6.60800 -3.57400 44.45700
C  5.44900 -2.76900 44.19800
C  6.78700 -6.06700 45.34900
C  7.76000 -2.81700 44.09600
O  8.93000 -3.11600 44.05800
C  7.25300 -1.37500 43.59000
C  7.72200 -0.35300 44.57200
O  7.83600 -0.52400 45.75900
O  8.06900 0.81200 43.88800
C  8.18700 2.00800 44.67000
H  1.27300 1.31900 42.03900
H  -1.68100 -3.87500 45.04600
H  3.86300 -6.42600 45.78400
H  5.84300 1.33500 42.48400
H  3.43200 1.65900 41.10200
H  3.35200 3.55000 42.47100
H  4.81400 2.87700 43.20200
H  3.24100 2.59300 43.90000
H  4.59400 0.08300 40.07200
H  5.83000 -0.99400 40.78400
H  7.49900 0.15500 40.18400
H  6.77200 1.77200 40.34100
H  -2.47200 1.19700 41.79700
H  -0.85900 1.14600 41.43900
H  -1.52300 1.94800 43.01300
H  -3.27300 -3.39700 44.01700
H  -4.83800 -2.53100 44.10200
H  -3.57400 -2.25600 45.33300
H  -0.68500 -6.26200 44.73400
H  1.47500 -6.78100 46.62100
H  -1.18100 -4.93000 47.46000
H  -0.54800 -6.54000 47.57000
H  -2.00400 -6.09500 46.61600
H  2.35000 -7.27000 44.05900
H  0.58400 -7.65600 44.01000
H  1.04900 -9.72700 45.01300
H  1.93500 -8.92400 46.25900
H  2.85100 -9.32400 44.82300
H  6.60600 -6.67600 44.46300
H  6.31300 -6.54200 46.20800
H  7.83500 -5.86300 45.56900
H  7.62800 -1.12500 42.59800
H  7.29700 2.21900 45.26200
H  8.54500 2.82600 44.04500
H  9.03700 1.79100 45.31800

