158

Mg 47.08200 15.46800 28.40500
C  44.99800 14.83800 31.09900
C  49.23800 17.00700 30.44600
C  48.74900 16.57700 25.66700
C  44.60500 14.16000 26.22700
N  47.02200 15.95700 30.55200
C  46.13900 15.52100 31.49300
C  46.62900 15.84900 32.94300
C  47.83600 16.71900 32.61400
C  48.10700 16.49200 31.11600
C  47.82600 18.19300 33.13300
C  46.82000 14.66400 33.91900
C  46.31900 14.81500 35.35000
H  46.15900 16.14700 35.98100
N  48.88700 16.48200 28.11800
C  49.65700 17.00900 29.10400
C  50.90700 17.53000 28.50100
C  50.73200 17.49400 27.10800
C  49.47900 16.86400 26.92300
C  52.11600 18.02500 29.34200
C  51.69300 17.91900 26.03400
O  51.43900 17.72700 24.84700
C  53.02100 18.56800 26.43700
N  46.74100 15.29900 26.30700
C  47.56700 15.89800 25.42500
C  47.12300 15.68100 23.96400
C  46.01200 14.64400 24.15300
C  45.69100 14.75900 25.67000
C  46.68200 17.04700 23.37000
C  46.47500 13.23200 23.67800
C  45.67500 12.76100 22.44100
N  45.12400 14.69100 28.58500
C  44.24700 14.17900 27.63400
C  43.18200 13.50300 28.36600
C  43.51600 13.71200 29.72900
C  44.59800 14.54500 29.79000
C  42.10300 12.72900 27.62700
C  42.95600 13.44200 31.03400
O  42.00200 12.79200 31.40600
C  43.85600 14.35700 32.06100
C  43.03900 15.35800 32.74500
O  42.42200 16.26100 32.16400
O  42.90400 15.11900 34.06700
C  42.10500 16.17700 34.79800
H  49.96500 17.46200 31.12200
H  49.23400 16.99400 24.78100
H  43.87300 13.79100 25.50500
H  45.86000 16.48000 33.38900
H  48.77700 16.34600 33.01800
H  47.68600 18.88000 32.29900
H  48.70700 18.40500 33.73800
H  46.97700 18.18000 33.81600
H  47.90600 14.63700 34.01200
H  46.37600 13.75500 33.51300
H  47.09700 14.32800 35.93900
H  45.38500 14.25600 35.40500
H  52.93300 17.34200 29.57700
H  51.67900 18.24300 30.31600
H  52.55500 18.95800 28.98800
H  53.64400 17.97100 27.10200
H  52.77400 19.52900 26.89000
H  53.60400 18.71400 25.52800
H  47.95200 15.34900 23.33800
H  45.09500 14.92100 23.63300
H  45.69300 17.02000 22.91300
H  47.34400 17.48600 22.62400
H  46.49100 17.80600 24.12900
H  46.09300 12.61600 24.49100
H  47.56300 13.16200 23.69600
H  46.41400 12.43400 21.71000
H  45.12600 13.55100 21.92800
H  45.06200 11.89800 22.69900
H  42.48800 12.25800 26.72200
H  41.32200 13.43100 27.33700
H  41.54100 11.98900 28.19700
H  44.14300 13.72000 32.89700
H  41.08400 16.28700 34.43400
H  42.77500 17.03200 34.88900
H  41.99200 15.84000 35.82800
Mg 30.22400 59.10400 40.40600
C  27.48000 56.73800 39.58300
C  32.34800 56.67700 39.41200
C  32.44900 61.54500 40.23800
C  27.69600 61.35300 41.09200
N  29.90100 56.96000 39.53500
C  28.78300 56.20200 39.36800
C  29.15500 54.81300 38.73700
C  30.66500 54.71100 39.17700
C  31.03800 56.21500 39.39700
C  31.10900 53.69300 40.27700
C  29.01800 54.71800 37.23800
C  28.18000 53.49800 36.77100
H  27.54400 53.61600 35.36500
N  32.26000 59.12500 39.89900
C  32.96700 57.99100 39.51500
C  34.38500 58.35300 39.45200
C  34.49300 59.78100 39.67600
C  33.10200 60.24600 39.98000
C  35.39900 57.38400 39.12700
C  35.73500 60.68200 39.50700
O  36.86800 60.20000 39.31100
C  35.65300 62.19300 39.60800
N  30.10000 61.15400 40.50700
C  31.17900 61.99300 40.50800
C  30.81600 63.43600 40.73100
C  29.29400 63.40400 40.96800
C  28.94400 61.90500 40.85300
C  31.57100 63.95000 42.02700
C  28.45700 64.24900 39.98000
C  27.56100 65.29200 40.63100
N  28.00300 59.10900 40.45200
C  27.19300 60.07300 40.80700
C  25.77600 59.62300 40.77400
C  25.87000 58.40300 40.16800
C  27.25800 58.08300 40.07400
C  24.45800 60.35400 41.04400
C  25.12700 57.32000 39.60100
O  23.94000 57.23100 39.37100
C  26.11400 56.14300 39.30300
C  25.77500 55.07300 40.18400
O  25.70600 55.21000 41.40100
O  25.62500 53.97200 39.53100
C  25.46500 52.71300 40.30000
H  33.07700 55.89200 39.19900
H  33.12600 62.39900 40.30600
H  26.93700 62.06500 41.42300
H  28.58400 54.06000 39.28100
H  31.28700 54.35600 38.35500
H  31.83600 52.96600 39.91400
H  30.29400 53.17000 40.77800
H  31.75800 54.31900 40.89100
H  29.96600 54.78800 36.70500
H  28.54600 55.65100 36.93100
H  27.32600 53.38600 37.43900
H  28.75900 52.59200 36.94900
H  36.31600 57.49500 39.70500
H  35.55200 57.47500 38.05100
H  35.11100 56.35400 39.33600
H  34.80700 62.56800 39.03200
H  36.57300 62.70400 39.32300
H  35.42300 62.29500 40.66900
H  31.02300 63.97300 39.80600
H  29.02800 63.62900 42.00100
H  30.91900 64.39500 42.77800
H  32.27600 64.70400 41.67800
H  32.21600 63.14400 42.37700
H  27.78200 63.67900 39.34100
H  29.20300 64.79000 39.39800
H  28.02700 66.26400 40.46700
H  27.44100 65.13500 41.70300
H  26.56000 65.37100 40.20800
H  23.85400 60.54000 40.15600
H  24.51600 61.24900 41.66300
H  23.87900 59.69800 41.69500
H  26.00100 55.64500 38.34000
H  26.38500 52.37700 40.77800
H  25.17900 51.95800 39.56800
H  24.66300 52.86200 41.02300

