158

Mg -11.25100 38.46100 42.09700
C  -9.33300 35.87900 40.58400
C  -9.39900 40.86400 40.68100
C  -13.72300 40.68900 42.89200
C  -13.51300 35.77700 43.12100
N  -9.55300 38.34300 40.80400
C  -8.93800 37.24600 40.30300
C  -7.67000 37.61800 39.55000
C  -7.63300 39.17400 39.64300
C  -8.96300 39.52000 40.38800
C  -6.37300 39.75300 40.35800
C  -7.65800 36.99400 38.11900
C  -6.34800 36.21900 37.75500
H  -5.44800 36.81000 36.67300
N  -11.43500 40.57400 41.92000
C  -10.56200 41.35700 41.25000
C  -11.08700 42.70700 41.34500
C  -12.38600 42.65600 41.84200
C  -12.55600 41.25300 42.25400
C  -10.37500 43.86900 40.66500
C  -13.35700 43.78400 41.99500
O  -13.03500 44.90100 41.61900
C  -14.64000 43.74400 42.86200
N  -13.32900 38.21200 42.77200
C  -14.05000 39.37900 43.17300
C  -15.38000 38.91400 43.71000
C  -15.25200 37.38000 43.76500
C  -13.99300 37.09100 43.10500
C  -15.86600 39.62400 45.04700
C  -16.52000 36.63400 43.23200
C  -17.31600 35.90300 44.32800
N  -11.35000 36.31500 41.98000
C  -12.29400 35.40600 42.48200
C  -11.76800 33.97700 42.29500
C  -10.65900 34.16500 41.53100
C  -10.42700 35.58400 41.36200
C  -12.34400 32.62100 42.68700
C  -9.57400 33.40300 40.91700
O  -9.29900 32.22200 40.93500
C  -8.63200 34.55300 40.29800
C  -7.41300 34.50300 41.23100
O  -7.33200 34.79600 42.43300
O  -6.48900 33.86300 40.46800
C  -5.23800 33.33500 41.04700
H  -8.74400 41.65800 40.31800
H  -14.51400 41.38900 43.17000
H  -14.14500 35.03400 43.61200
H  -6.81800 37.31400 40.15700
H  -7.56800 39.66400 38.67100
H  -6.34400 40.83500 40.22500
H  -5.48000 39.34600 39.88300
H  -6.41100 39.50800 41.41900
H  -7.84800 37.76900 37.37800
H  -8.56700 36.39700 38.04300
H  -6.53800 35.16400 37.55400
H  -5.64900 36.12400 38.58600
H  -10.51500 44.74000 41.30400
H  -10.87400 44.12000 39.72900
H  -9.31800 43.63100 40.54800
H  -15.45500 43.21500 42.36800
H  -14.95200 44.78800 42.89700
H  -14.44600 43.40100 43.87900
H  -16.00800 39.20300 42.86700
H  -15.16600 37.12600 44.82100
H  -16.73800 40.23100 44.80400
H  -15.09300 40.27800 45.45200
H  -16.18500 38.88500 45.78200
H  -16.00300 35.99300 42.51800
H  -17.16500 37.39300 42.78900
H  -17.78300 36.56600 45.05600
H  -16.67900 35.22900 44.90100
H  -18.05500 35.25300 43.86000
H  -12.46100 32.66800 43.76900
H  -11.78600 31.78600 42.26300
H  -13.32700 32.45200 42.24600
H  -8.28600 34.39700 39.27700
H  -4.37100 33.33900 40.38600
H  -5.40200 32.32400 41.41900
H  -5.10000 33.96700 41.92400
Mg 1.01900 43.03600 26.42600
C  3.41800 43.08600 28.90800
C  -1.31700 41.95400 28.73000
C  -0.98800 42.39000 23.93700
C  3.72100 43.46100 24.11000
N  1.03600 42.62500 28.52400
C  2.10500 42.87900 29.42500
C  1.63400 42.88700 30.88600
C  0.15200 42.26700 30.77200
C  -0.05700 42.32100 29.24400
C  -0.16400 40.88800 31.42900
C  1.65900 44.35700 31.50800
C  1.70400 44.41600 33.03900
H  1.33800 43.10600 33.76700
N  -0.89800 42.34800 26.38400
C  -1.67800 41.97600 27.39400
C  -3.00500 41.74900 26.87900
C  -2.94200 41.77900 25.41600
C  -1.55600 42.16900 25.20000
C  -4.16800 41.52300 27.88600
C  -4.01200 41.47500 24.44700
O  -3.80800 41.42500 23.22800
C  -5.39400 41.25500 24.88400
N  1.36900 43.00100 24.30600
C  0.30400 42.68500 23.54800
C  0.72200 42.84900 21.98400
C  2.13200 43.45900 22.02200
C  2.49000 43.29600 23.52600
C  0.60000 41.55900 21.15300
C  2.29700 44.88200 21.53800
C  1.56800 45.97000 22.39300
N  3.12100 43.20100 26.40700
C  4.03000 43.45000 25.45600
C  5.34900 43.57900 26.06500
C  5.13900 43.33700 27.45000
C  3.72800 43.25700 27.59600
C  6.63500 43.84200 25.40200
C  5.77500 43.21000 28.66300
O  6.95600 43.19700 29.05300
C  4.65800 43.11400 29.74500
C  4.94800 41.88000 30.60100
O  5.11700 40.70000 30.24000
O  4.96200 42.28400 31.91400
C  5.10400 41.27600 32.97100
H  -1.96700 41.62100 29.54200
H  -1.64300 42.21900 23.08100
H  4.51300 43.87800 23.48400
H  2.19800 42.17000 31.48100
H  -0.55700 42.98100 31.19000
H  0.66000 40.39700 31.94700
H  -0.45100 40.17200 30.66000
H  -0.99400 40.98500 32.13000
H  0.73000 44.80400 31.15400
H  2.47300 44.92700 31.06000
H  0.96800 45.08300 33.48800
H  2.71300 44.76800 33.25700
H  -4.82800 42.37800 27.73900
H  -3.83500 41.70500 28.90800
H  -4.78900 40.63100 27.80700
H  -6.08100 41.05100 24.06200
H  -5.72500 42.06000 25.54000
H  -5.23400 40.36700 25.49600
H  0.06000 43.58700 21.53000
H  2.75600 42.78400 21.43700
H  1.50200 40.95000 21.20800
H  0.25600 41.78100 20.14300
H  -0.29100 41.08500 21.56600
H  1.83300 44.94900 20.55400
H  3.37800 45.02400 21.54300
H  0.70200 45.62700 22.96000
H  1.20400 46.73500 21.70700
H  2.30400 46.41800 23.06100
H  7.41300 44.30400 26.01100
H  6.34700 44.67100 24.75600
H  7.11200 43.03400 24.84800
H  4.59500 43.97600 30.40900
H  4.75900 40.29800 32.63500
H  4.50800 41.71300 33.77200
H  6.11600 41.20400 33.36900

