158

Mg 25.82200 51.00000 26.57500
C  23.82700 52.33800 29.00500
C  28.15100 50.11000 29.12400
C  28.16500 50.37600 24.17700
C  23.74700 52.44300 24.21000
N  25.87900 51.23700 28.74500
C  24.94000 51.76000 29.53900
C  25.27800 51.45700 30.99400
C  26.78700 51.09900 31.02400
C  26.97500 50.77100 29.51500
C  27.86700 52.17500 31.36600
C  24.30600 50.48000 31.83100
C  23.93800 51.01100 33.16500
H  25.17300 51.02500 34.11200
N  27.78800 50.23200 26.66400
C  28.61100 49.89900 27.79000
C  29.84500 49.29000 27.35000
C  29.80500 49.37500 25.92200
C  28.53200 49.99800 25.54000
C  30.99300 48.85600 28.34700
C  30.86500 48.92200 24.91600
O  30.71300 49.13700 23.68200
C  31.95000 47.93800 25.32100
N  25.95700 51.42600 24.52700
C  26.94500 51.03500 23.71200
C  26.65200 51.50100 22.26900
C  25.21500 51.98500 22.29300
C  24.92200 51.99600 23.76700
C  27.88400 52.38600 21.73200
C  24.14900 51.09200 21.51400
C  23.94100 51.47900 20.10800
N  24.06700 52.09700 26.54800
C  23.32400 52.59100 25.54400
C  22.09100 53.35500 26.06100
C  22.24400 53.20900 27.45700
C  23.43400 52.48100 27.65200
C  21.02900 54.09600 25.21700
C  21.67300 53.49800 28.78300
O  20.60000 53.97100 29.07500
C  22.76900 53.00700 29.78700
C  23.24700 54.06900 30.67400
O  24.04300 54.89500 30.37700
O  22.49600 54.14700 31.80100
C  22.58100 55.35500 32.58900
H  28.80900 49.83500 29.95100
H  28.81000 50.19400 23.31500
H  23.10100 52.92200 23.47200
H  25.24200 52.42300 31.49900
H  26.96500 50.19600 31.60800
H  28.37500 52.51700 30.46500
H  28.59900 51.68000 32.00400
H  27.41200 53.04600 31.83900
H  24.75000 49.48700 31.89700
H  23.34800 50.42700 31.31400
H  23.15400 50.37500 33.57500
H  23.67100 52.06100 33.04500
H  31.94200 49.27300 28.00900
H  31.05600 47.76700 28.34800
H  30.86200 49.07000 29.40700
H  32.83400 48.34800 25.81000
H  32.26200 47.48500 24.38000
H  31.50000 47.24900 26.03500
H  26.70300 50.58500 21.68100
H  25.01400 53.01200 21.98600
H  28.05900 51.88100 20.78100
H  28.79700 52.53900 22.30700
H  27.50700 53.36100 21.42300
H  23.14700 51.00600 21.93400
H  24.53800 50.08200 21.63800
H  24.68600 50.94100 19.52200
H  24.00300 52.53300 19.83900
H  22.99900 51.03300 19.78600
H  20.61500 53.37200 24.51500
H  21.44800 54.89200 24.60200
H  20.28100 54.48300 25.91000
H  22.18600 52.32400 30.40400
H  22.51600 55.14100 33.65600
H  21.70800 55.94400 32.30700
H  23.40500 56.02900 32.35900
Mg -10.38200 16.97100 42.41300
C  -6.95200 17.49700 42.78400
C  -10.74600 20.35000 41.62300
C  -13.54500 16.30600 41.73100
C  -9.59000 13.52400 42.36900
N  -8.92600 18.65300 42.00100
C  -7.56100 18.66200 42.34000
C  -7.01800 20.03100 41.99100
C  -8.25000 20.93900 41.94200
C  -9.40100 19.91800 41.75900
C  -8.40900 21.83800 43.26200
C  -6.04000 20.08600 40.76900
C  -4.68200 20.79500 41.01300
H  -4.13600 21.64500 39.86500
N  -11.88300 18.18500 41.82100
C  -11.94300 19.54600 41.63800
C  -13.31600 19.96300 41.34500
C  -14.16000 18.75400 41.31400
C  -13.18400 17.64400 41.62500
C  -13.69800 21.41600 41.09000
C  -15.63800 18.70300 41.08300
O  -16.23000 19.76000 40.92500
C  -16.34600 17.44400 40.71400
N  -11.38100 15.15800 41.97100
C  -12.72700 15.21200 41.90300
C  -13.35800 13.77400 41.97800
C  -12.04000 12.88600 41.85300
C  -10.89300 13.90900 42.04200
C  -14.09900 13.50800 43.32500
C  -11.89600 12.26200 40.45600
C  -12.48000 10.87800 40.25100
N  -8.70700 15.69800 42.73200
C  -8.49900 14.32300 42.75300
C  -7.05600 13.98600 43.02700
C  -6.50500 15.24600 43.19700
C  -7.50400 16.20700 42.85000
C  -6.39700 12.64500 43.15200
C  -5.24900 15.90000 43.42100
O  -4.14000 15.57300 43.82300
C  -5.51900 17.40300 43.25500
C  -5.21000 18.03000 44.53600
O  -5.92800 18.01900 45.54200
O  -4.04400 18.66900 44.51100
C  -3.47400 19.15200 45.77000
H  -10.85600 21.42800 41.48400
H  -14.60600 16.08700 41.59400
H  -9.48000 12.43900 42.42200
H  -6.32500 20.39500 42.75000
H  -8.08000 21.62200 41.11000
H  -8.44100 22.89400 42.99100
H  -7.54300 21.72400 43.91500
H  -9.32900 21.61200 43.80000
H  -6.63500 20.47200 39.94200
H  -5.72000 19.05100 40.65000
H  -3.89900 20.11600 41.35100
H  -4.74600 21.45600 41.87700
H  -14.34200 21.49200 40.21400
H  -12.90300 22.16000 41.14100
H  -14.27200 21.77400 41.94400
H  -17.33900 17.61800 40.30000
H  -16.43000 16.94800 41.68100
H  -15.78700 16.89500 39.95700
H  -14.13100 13.54200 41.24500
H  -11.93700 12.16100 42.66000
H  -15.02900 12.97900 43.11800
H  -14.42600 14.41800 43.82800
H  -13.43000 13.02300 44.03500
H  -10.86800 12.10800 40.13000
H  -12.34200 12.93900 39.72800
H  -11.82000 10.06600 39.94500
H  -13.31300 10.96400 39.55300
H  -13.02100 10.54400 41.13700
H  -6.66700 12.06900 44.03700
H  -5.33600 12.86700 43.04100
H  -6.78100 11.96800 42.38800
H  -4.88800 17.90000 42.51900
H  -2.85300 20.02800 45.58200
H  -2.80000 18.40600 46.19000
H  -4.21000 19.39900 46.53500

