158

Mg 43.88000 3.14200 47.88800
C  41.63700 5.65900 47.03600
C  41.29300 0.83400 47.61600
C  46.09200 0.58300 47.90000
C  46.43700 5.45200 47.52500
N  41.82000 3.27500 47.39100
C  41.11000 4.34300 47.07100
C  39.61600 4.11700 46.94100
C  39.46500 2.64200 47.32700
C  40.95600 2.24700 47.55200
C  38.66000 2.44900 48.69800
C  39.11500 4.38000 45.51500
C  37.73900 5.08400 45.35800
H  37.71500 6.19900 44.24000
N  43.65500 0.93600 47.99100
C  42.48800 0.25600 47.86100
C  42.86100 -1.14900 48.02800
C  44.29700 -1.26900 48.18600
C  44.76500 0.09600 48.05100
C  41.87300 -2.26500 47.85100
C  45.07700 -2.52300 48.42200
O  44.53700 -3.66300 48.46400
C  46.56100 -2.52200 48.71600
N  45.99900 2.97700 47.60700
C  46.70700 1.82300 47.77600
C  48.20000 2.08000 47.88200
C  48.27900 3.67100 47.69200
C  46.79300 4.08400 47.63500
C  48.69600 1.77400 49.26300
C  49.09600 4.14400 46.44300
C  48.60600 3.83400 45.05900
N  44.10700 5.16200 47.40400
C  45.16800 5.98300 47.47500
C  44.77200 7.36700 47.38100
C  43.35500 7.29700 47.23700
C  43.04800 5.89200 47.19200
C  45.69900 8.48200 47.49400
C  42.08300 8.05800 47.09800
O  41.76100 9.24300 47.16900
C  40.91000 6.97600 46.87600
C  39.90600 7.27700 47.87700
O  40.06500 7.03000 49.09500
O  38.81100 7.85700 47.31900
C  37.87300 8.41300 48.34400
H  40.43500 0.17500 47.46500
H  46.92600 -0.10400 48.05700
H  47.25400 6.17600 47.56200
H  39.12900 4.79600 47.64100
H  38.95300 2.03900 46.57700
H  39.29200 2.43100 49.58600
H  38.23500 1.44600 48.72000
H  37.83100 3.14100 48.85000
H  38.99300 3.45300 44.95500
H  39.85900 4.87200 44.88800
H  37.38600 5.51600 46.29400
H  37.13000 4.22200 45.08500
H  40.90000 -1.77300 47.86500
H  41.94200 -3.00000 48.65300
H  42.08900 -2.77400 46.91100
H  47.03100 -2.54300 47.73200
H  46.77100 -3.46100 49.22700
H  46.90300 -1.67100 49.30500
H  48.72100 1.51900 47.10600
H  48.58300 4.24600 48.56700
H  49.08200 0.76000 49.35900
H  47.92600 1.91300 50.02200
H  49.53800 2.43800 49.46200
H  50.06800 3.65400 46.49500
H  49.18300 5.22200 46.57300
H  48.36200 4.79500 44.60500
H  47.73000 3.18600 45.06500
H  49.34400 3.29700 44.46300
H  46.42800 8.57400 48.29900
H  45.01300 9.32600 47.43300
H  46.13100 8.68000 46.51300
H  40.42900 7.06300 45.90100
H  38.23000 9.37600 48.70900
H  37.60600 7.69800 49.12200
H  36.90400 8.62500 47.89100
Mg 47.47600 24.18300 27.76400
C  47.91400 26.48700 30.50100
C  46.72500 21.84800 30.12000
C  47.41600 21.93200 25.34800
C  48.59300 26.64000 25.58700
N  47.44200 24.20200 30.09400
C  47.42300 25.24800 30.95200
C  47.09300 24.86100 32.39700
C  46.74300 23.27600 32.25800
C  46.95200 23.10000 30.72700
C  47.42100 22.28500 33.30500
C  46.00600 25.73200 33.07300
C  46.33900 26.06700 34.58600
H  45.16000 26.11800 35.52200
N  47.05700 22.18100 27.66300
C  46.78200 21.40900 28.77600
C  46.45000 20.08900 28.33600
C  46.59400 20.04800 26.92400
C  47.03600 21.38500 26.55300
C  46.03900 18.88000 29.29000
C  46.41300 18.86300 25.93100
O  46.50600 18.94800 24.72500
C  46.08000 17.45700 26.43600
N  47.95600 24.27000 25.80200
C  47.79900 23.25300 24.97400
C  48.36000 23.58100 23.53200
C  48.51800 25.12900 23.62300
C  48.33800 25.37900 25.06900
C  49.67300 22.86900 23.07700
C  47.41500 25.85300 22.78600
C  46.06600 26.01200 23.46600
N  48.33300 26.07100 27.94700
C  48.60300 27.00100 26.94700
C  49.05200 28.21000 27.57200
C  48.81100 28.09600 28.97400
C  48.33700 26.75000 29.14000
C  49.61100 29.44900 26.97000
C  48.79800 28.76700 30.31900
O  49.19700 29.90900 30.66800
C  48.18500 27.76400 31.33600
C  49.03200 27.47400 32.53000
O  49.94500 26.73700 32.56700
O  48.66200 28.19100 33.60900
C  49.46400 28.25700 34.82100
H  46.29200 21.13500 30.82400
H  47.39500 21.18100 24.55500
H  48.85900 27.43400 24.88700
H  48.02600 24.85100 32.96000
H  45.67500 23.06400 32.31500
H  46.52700 21.76200 33.64700
H  48.09500 22.58000 34.10900
H  47.90800 21.55200 32.66300
H  45.04400 25.22300 33.12300
H  45.71300 26.64600 32.55800
H  46.81500 27.03400 34.75000
H  47.02000 25.28700 34.92800
H  46.60900 18.00300 28.98400
H  44.96200 18.72100 29.22800
H  46.34500 19.11600 30.30900
H  45.93200 16.72900 25.63800
H  45.15800 17.56700 27.00700
H  47.00000 17.21000 26.96600
H  47.61400 23.26700 22.80100
H  49.47500 25.48400 23.24300
H  49.58500 22.08700 22.32300
H  50.05200 22.36300 23.96500
H  50.38800 23.61800 22.73900
H  47.34200 25.15200 21.95500
H  47.87500 26.82800 22.61900
H  45.99300 25.23300 24.22500
H  45.34600 25.69000 22.71400
H  45.82100 27.00400 23.84400
H  48.93000 30.28800 27.11600
H  49.93500 29.41600 25.93000
H  50.47200 29.76400 27.56100
H  47.22500 28.11300 31.71800
H  50.39000 27.69000 34.72000
H  48.93700 27.63600 35.54500
H  49.68100 29.24200 35.23500

