158

Mg 2.22900 -1.07600 44.08000
C  5.76100 -0.80400 43.29500
C  1.89000 1.86700 42.42800
C  -1.10600 -1.66600 44.04900
C  2.84400 -4.28800 45.19700
N  3.70000 0.34000 42.81300
C  5.09000 0.25300 42.70100
C  5.61500 1.40700 41.91100
C  4.39800 2.46100 41.97700
C  3.23500 1.53700 42.52800
C  4.71000 3.57400 42.90100
C  6.06100 0.95200 40.43900
C  7.49200 1.46000 39.94400
H  7.56500 2.20100 38.67200
N  0.57200 0.04600 43.55600
C  0.71700 1.20100 42.86000
C  -0.65200 1.72700 42.63900
C  -1.59100 0.76600 43.18700
C  -0.71300 -0.29500 43.67100
C  -0.93800 3.07400 41.96900
C  -3.10400 0.80200 43.17700
O  -3.59300 1.79500 42.63400
C  -3.99200 -0.23300 43.92500
N  1.04500 -2.83000 44.43300
C  -0.28700 -2.72400 44.39800
C  -0.91000 -3.95800 45.13400
C  0.31900 -4.91900 45.22600
C  1.46400 -4.00400 44.89500
C  -1.71100 -3.73000 46.39700
C  0.28600 -6.01600 44.10800
C  0.27900 -7.49600 44.52500
N  3.92700 -2.25300 44.36600
C  4.00000 -3.57500 44.81000
C  5.41000 -3.92200 44.91500
C  6.11500 -2.82900 44.34600
C  5.17900 -1.87700 44.01200
C  6.01200 -5.29300 45.32000
C  7.44700 -2.39300 43.96500
O  8.51800 -2.94300 44.04900
C  7.24500 -1.04700 43.24800
C  7.95700 0.04000 43.96300
O  7.62100 0.63700 45.00600
O  8.97600 0.43700 43.16800
C  9.70300 1.56700 43.64800
H  1.72500 2.84700 41.97500
H  -2.13300 -2.01200 43.91300
H  3.11900 -5.26100 45.60900
H  6.49700 1.70700 42.47600
H  4.11700 2.88200 41.01200
H  5.13400 4.36900 42.28700
H  5.33800 3.16900 43.69500
H  3.83700 3.97000 43.41900
H  5.31800 1.39400 39.77500
H  6.10400 -0.13500 40.38000
H  8.06100 0.53000 39.93900
H  7.94200 2.04300 40.74800
H  -1.94700 3.13000 41.56100
H  -0.20200 3.29600 41.19600
H  -0.88300 3.77500 42.80200
H  -4.85800 0.40300 44.11100
H  -3.52000 -0.49100 44.87300
H  -4.23900 -1.08300 43.28800
H  -1.61400 -4.42600 44.44600
H  0.51000 -5.39300 46.19000
H  -2.67100 -4.24300 46.33500
H  -1.86900 -2.66100 46.54100
H  -1.27100 -4.09500 47.32500
H  1.10400 -5.88400 43.40000
H  -0.54300 -5.69200 43.47800
H  -0.67300 -7.88300 44.16200
H  0.23900 -7.57800 45.61100
H  1.14700 -7.97900 44.07600
H  5.32600 -5.99100 45.79900
H  6.90700 -5.07800 45.90400
H  6.22000 -5.79900 44.37700
H  7.59100 -1.05800 42.21400
H  10.50600 1.78100 42.94300
H  10.08300 1.48100 44.66600
H  9.05800 2.44400 43.68200
Mg -2.18100 35.01600 26.14300
C  -3.44300 33.07000 28.60300
C  -0.78500 37.04400 28.47700
C  -0.68300 36.84000 23.51700
C  -3.67800 32.93700 23.76400
N  -2.05300 34.94400 28.32200
C  -2.73900 34.07200 29.11500
C  -2.31400 34.25000 30.61100
C  -1.57300 35.64200 30.55700
C  -1.42100 35.87500 29.05200
C  -2.35300 36.88300 31.25600
C  -1.55400 33.08100 31.28200
C  -1.92100 32.96100 32.85200
H  -0.72800 33.15100 33.87600
N  -0.97800 36.74300 26.04800
C  -0.56900 37.47000 27.13100
C  0.17500 38.63000 26.67600
C  0.32800 38.54100 25.28900
C  -0.41400 37.30900 24.88500
C  0.85700 39.60100 27.59500
C  1.08600 39.45700 24.30500
O  1.18400 39.17800 23.13500
C  1.51500 40.81000 24.71800
N  -2.28200 35.01200 23.92600
C  -1.48800 35.74000 23.12500
C  -1.59200 35.23600 21.62600
C  -2.32400 33.88900 21.89300
C  -2.78500 33.92600 23.26300
C  -2.44600 36.24900 20.82300
C  -1.42500 32.63000 21.61000
C  -0.01800 32.82500 22.30800
N  -3.51000 33.56200 26.10000
C  -4.03200 32.74500 25.09400
C  -4.78800 31.70500 25.72100
C  -4.54800 31.73000 27.06700
C  -3.76600 32.91200 27.25300
C  -5.41600 30.54300 24.92000
C  -4.85400 31.07700 28.21900
O  -5.41100 29.99800 28.36800
C  -4.13500 31.89600 29.31000
C  -5.04600 32.42400 30.35200
O  -5.72900 33.43000 30.20700
O  -4.95900 31.65700 31.45600
C  -5.52800 32.22100 32.66100
H  -0.39300 37.80900 29.15100
H  -0.09500 37.26400 22.70100
H  -4.03000 32.22400 23.01700
H  -3.24100 34.34300 31.17700
H  -0.54900 35.62100 30.93200
H  -2.81700 37.45200 30.45100
H  -1.62500 37.54500 31.72400
H  -3.10200 36.51200 31.95600
H  -0.50100 33.34500 31.18400
H  -1.72500 32.10900 30.81800
H  -2.38300 32.00100 33.08100
H  -2.67500 33.65600 33.22200
H  1.05700 39.17500 28.57900
H  0.23300 40.48900 27.70300
H  1.83400 39.92900 27.24000
H  1.60000 41.42300 23.82100
H  2.49000 40.53300 25.11800
H  0.82600 41.20100 25.46700
H  -0.54700 35.21500 21.31600
H  -3.17600 33.76700 21.22400
H  -2.52300 37.15400 21.42500
H  -3.44000 35.82300 20.68400
H  -1.93400 36.55900 19.91300
H  -1.30700 32.63900 20.52700
H  -1.92600 31.69000 21.84100
H  0.09200 33.64400 23.01900
H  0.65400 32.89100 21.45200
H  0.10100 31.84200 22.76300
H  -4.58100 30.10100 24.37500
H  -6.19900 30.93500 24.27100
H  -5.72700 29.76800 25.62000
H  -3.36100 31.18900 29.61100
H  -5.48600 33.30900 32.69200
H  -4.85000 31.82300 33.41600
H  -6.56500 31.90500 32.76800

