158

Mg 24.39900 -5.09000 46.70000
C  26.21400 -2.40000 45.05500
C  21.57000 -4.00900 45.12200
C  23.07200 -8.04300 47.35100
C  27.49800 -6.21100 47.93400
N  24.00000 -3.48700 45.20500
C  24.87500 -2.49000 44.66900
C  24.09400 -1.70900 43.67000
C  22.63600 -1.95400 44.03600
C  22.70800 -3.25500 44.81900
C  21.99100 -0.80000 44.77900
C  24.62000 -1.96700 42.21800
C  25.12100 -0.77500 41.37100
H  26.03200 -1.04200 40.16600
N  22.50600 -5.91700 46.33400
C  21.48600 -5.34700 45.63600
C  20.38800 -6.26400 45.55900
C  20.76600 -7.44600 46.31800
C  22.11800 -7.16600 46.82700
C  19.05700 -5.85200 44.85200
C  19.90700 -8.64600 46.43900
O  18.82600 -8.78300 45.92800
C  20.28500 -9.77400 47.25900
N  25.19200 -6.86000 47.57300
C  24.41400 -7.98300 47.70900
C  25.22500 -9.11000 48.25400
C  26.53100 -8.45700 48.69700
C  26.47500 -7.10400 48.05100
C  24.42600 -10.04100 49.25500
C  27.77600 -9.30000 48.32100
C  28.73500 -9.46000 49.41200
N  26.44800 -4.46100 46.54000
C  27.54200 -5.00300 47.23100
C  28.71400 -4.06500 47.01700
C  28.25400 -3.08300 46.12900
C  26.86000 -3.37300 45.85900
C  30.03900 -4.27700 47.56800
C  28.73000 -1.86000 45.41800
O  29.77600 -1.26500 45.36800
C  27.35800 -1.37700 44.63300
C  27.04300 -0.01300 44.97900
O  26.22100 0.46000 45.72100
O  27.82900 0.74100 44.21600
C  27.64300 2.19100 44.20100
H  20.63500 -3.71400 44.64000
H  22.73900 -9.08200 47.38700
H  28.38200 -6.54100 48.48400
H  24.41600 -0.68000 43.82700
H  22.05100 -1.99100 43.11800
H  22.74000 -0.08700 45.12100
H  21.49100 -1.23700 45.64400
H  21.26300 -0.29200 44.14700
H  23.90500 -2.62800 41.72800
H  25.42600 -2.70100 42.21100
H  25.45200 0.00100 42.06100
H  24.28000 -0.29300 40.87300
H  19.22400 -5.93000 43.77800
H  18.81600 -4.79500 44.97300
H  18.21200 -6.47300 45.15000
H  19.38000 -10.35000 47.45200
H  20.60400 -9.30600 48.19000
H  20.95400 -10.48000 46.76600
H  25.52300 -9.79000 47.45500
H  26.40900 -8.29500 49.76800
H  24.94200 -10.11000 50.21200
H  24.21600 -10.98600 48.75500
H  23.46000 -9.62700 49.54500
H  28.41600 -8.73200 47.64600
H  27.44400 -10.24900 47.90100
H  29.68400 -9.02100 49.10500
H  28.84400 -10.53800 49.53600
H  28.27900 -9.02700 50.30200
H  30.63300 -4.96800 46.97000
H  30.05300 -4.68900 48.57700
H  30.48600 -3.28800 47.66900
H  27.69700 -1.50300 43.60500
H  27.84000 2.56700 45.20500
H  26.65100 2.59500 44.00300
H  28.28200 2.79500 43.55600
Mg 1.04200 43.38500 26.20200
C  2.60700 43.59400 29.38200
C  -1.84400 42.32200 27.80300
C  -0.18300 42.78900 23.21200
C  4.15600 43.85700 24.73800
N  0.45200 43.12100 28.39600
C  1.23300 43.34600 29.48600
C  0.40900 43.20400 30.72400
C  -0.93200 42.54000 30.24600
C  -0.79800 42.60300 28.68400
C  -1.23900 41.08000 30.70500
C  0.23400 44.61400 31.46300
C  0.58800 44.67100 33.00400
H  -0.26200 43.94100 34.00900
N  -0.77700 42.71700 25.61000
C  -1.81700 42.39600 26.36200
C  -2.90200 42.05700 25.49600
C  -2.47800 42.06700 24.13200
C  -1.08100 42.55000 24.27000
C  -4.27100 41.73700 26.08500
C  -3.20200 41.75800 22.87800
O  -2.71400 41.84600 21.73700
C  -4.54200 41.21300 22.84100
N  1.92400 43.14400 24.23500
C  1.18800 42.96100 23.16500
C  1.89000 43.11500 21.81200
C  3.17500 43.88300 22.36200
C  3.16300 43.59100 23.84500
C  2.13400 41.89600 21.00200
C  3.23100 45.47900 22.02500
C  4.30400 46.00000 21.04800
N  2.93600 43.80200 26.87600
C  4.10900 43.99400 26.15000
C  5.25500 44.10800 27.02000
C  4.68500 43.99300 28.33900
C  3.28400 43.73000 28.19500
C  6.62100 44.54500 26.61900
C  4.96400 43.92500 29.78000
O  5.97500 44.07800 30.46700
C  3.58800 43.76800 30.51800
C  3.64700 42.63000 31.43400
O  3.36900 41.50000 31.11700
O  3.82600 43.13200 32.68800
C  3.68800 42.11600 33.68500
H  -2.78300 42.09300 28.31100
H  -0.60500 42.71700 22.20800
H  5.09100 44.17600 24.27400
H  0.91900 42.50700 31.38900
H  -1.70000 43.25300 30.54600
H  -0.53900 40.92000 31.52500
H  -1.10800 40.29900 29.95600
H  -2.29800 40.99000 30.94800
H  -0.81600 44.87600 31.59200
H  0.75900 45.47700 31.05400
H  0.64900 45.71700 33.30700
H  1.62200 44.33000 33.05800
H  -4.39400 42.35500 26.97400
H  -4.39100 40.71200 26.43400
H  -4.96900 42.01600 25.29600
H  -5.27300 42.01400 22.73500
H  -4.74700 40.57100 23.69800
H  -4.51400 40.57500 21.95800
H  1.33400 43.86100 21.24300
H  4.13300 43.50700 22.00300
H  3.06900 41.44300 21.33200
H  2.34300 42.24300 19.99100
H  1.32500 41.16800 21.05800
H  3.27500 45.98700 22.98900
H  2.27600 45.65400 21.53000
H  4.83200 46.84300 21.49400
H  3.74200 46.32000 20.17000
H  5.00100 45.19000 20.83700
H  7.39900 44.04100 27.19200
H  6.61800 45.49600 27.15000
H  6.73400 44.60300 25.53600
H  3.49200 44.70600 31.06600
H  4.22900 42.66800 34.45300
H  4.20600 41.18300 33.46100
H  2.69700 41.86800 34.06600

