158

Mg 25.52900 0.08700 29.27100
C  27.28900 -0.12400 32.26300
C  22.68600 0.14900 31.09500
C  23.86900 0.54400 26.26900
C  28.46800 -0.06400 27.47500
N  25.08600 -0.05500 31.42700
C  25.94600 0.00600 32.50000
C  25.24400 0.06900 33.88100
C  23.72600 -0.14400 33.43500
C  23.81500 0.00700 31.91600
C  23.03600 -1.43000 33.96100
C  25.57700 1.33900 34.77800
C  26.11900 1.06200 36.19600
H  25.07400 0.64200 37.27400
N  23.54100 0.25900 28.80000
C  22.50100 0.20300 29.68500
C  21.28700 0.24800 28.92500
C  21.60900 0.39600 27.49900
C  23.07000 0.45500 27.46200
C  19.85400 0.17200 29.60800
C  20.70700 0.46500 26.24100
O  21.15600 0.62400 25.08800
C  19.24300 0.36000 26.51300
N  26.08200 -0.07000 27.11800
C  25.25100 0.25300 26.10100
C  25.95400 0.37000 24.72000
C  27.46900 0.18700 25.16900
C  27.33400 0.06300 26.71200
C  25.38700 -0.55000 23.65200
C  28.45700 1.35100 24.80600
C  29.87100 0.95100 24.28800
N  27.49400 -0.09500 29.74000
C  28.61100 -0.13300 28.88700
C  29.79700 -0.40300 29.70600
C  29.33700 -0.38800 31.04000
C  27.92100 -0.24100 31.04000
C  31.16600 -0.59300 29.17300
C  29.80300 -0.49800 32.40300
O  30.92200 -0.66700 32.83100
C  28.51500 -0.17600 33.28300
C  28.42300 -1.29600 34.26900
O  27.69900 -2.28400 34.15500
O  29.22600 -1.11200 35.33500
C  28.99900 -2.02500 36.41700
H  21.88900 0.18500 31.84100
H  23.27400 0.80500 25.39200
H  29.32200 -0.14400 26.79900
H  25.43400 -0.81400 34.49100
H  23.02800 0.62100 33.77800
H  23.64400 -2.07200 34.59900
H  22.62800 -2.08500 33.19200
H  22.24600 -1.09600 34.63300
H  24.70600 1.98900 34.86900
H  26.29800 1.93300 34.21800
H  26.65800 1.89700 36.64300
H  26.72200 0.15500 36.15700
H  19.92300 0.10700 30.69400
H  19.41700 -0.79600 29.36600
H  19.18300 0.96300 29.27200
H  18.80200 1.27900 26.89900
H  19.15300 -0.46900 27.21500
H  18.78000 0.08300 25.56600
H  25.80900 1.34500 24.25500
H  27.83700 -0.80300 24.90300
H  25.52500 -0.14100 22.65100
H  24.31500 -0.42700 23.80900
H  25.69200 -1.59500 23.69900
H  28.61100 1.92000 25.72300
H  28.03500 2.06100 24.09600
H  29.84900 -0.10600 24.02500
H  30.52500 1.11100 25.14500
H  30.12300 1.55700 23.41800
H  31.79400 -0.56300 30.06300
H  31.31700 0.09400 28.34000
H  31.24500 -1.64100 28.88400
H  28.64700 0.73800 33.86100
H  28.02900 -1.61700 36.69800
H  29.78300 -1.86200 37.15600
H  28.71500 -3.05100 36.18000
Mg 6.32300 57.03800 41.26000
C  5.17400 53.84600 41.35700
C  9.50500 55.81000 40.35400
C  7.49400 60.25100 40.72700
C  3.12300 58.18800 42.10700
N  7.14700 55.11700 40.59300
C  6.40000 53.92200 40.74100
C  7.29900 52.72500 40.35500
C  8.72900 53.42200 40.33600
C  8.51000 54.87500 40.54700
C  9.80400 52.58500 41.18000
C  7.03600 52.23900 38.85600
C  7.55400 50.90400 38.39400
H  7.00200 50.34500 37.09200
N  8.25900 57.89200 40.51300
C  9.41100 57.22900 40.20600
C  10.42800 58.17600 39.81000
C  9.87300 59.47700 40.11800
C  8.46300 59.30900 40.41800
C  11.86600 57.77500 39.45100
C  10.68200 60.69500 40.08000
O  11.87300 60.59300 39.76700
C  10.18800 62.02600 40.33600
N  5.47400 58.85000 41.32400
C  6.19000 60.12100 41.19500
C  5.27400 61.34500 41.55500
C  3.91400 60.62800 41.86800
C  4.19500 59.08900 41.79700
C  5.85300 62.24700 42.59700
C  2.67000 61.07500 40.93100
C  1.37800 61.43700 41.66900
N  4.46600 56.22100 41.83200
C  3.23600 56.81600 42.03300
C  2.27900 55.74300 42.27100
C  2.97700 54.55200 42.13000
C  4.28100 54.90800 41.73000
C  0.77300 55.91600 42.57100
C  2.89200 53.13800 42.07400
O  1.86900 52.44300 42.19500
C  4.37600 52.63900 41.66700
C  4.09900 51.65900 40.55500
O  3.21300 51.64300 39.75900
O  5.03000 50.62100 40.69200
C  4.81900 49.39100 39.86700
H  10.53200 55.44200 40.41600
H  7.75100 61.31200 40.70700
H  2.22000 58.77400 42.29200
H  7.22300 51.80600 40.93800
H  9.12300 53.49500 39.32200
H  10.59700 52.24900 40.51200
H  9.32200 51.68500 41.56400
H  10.28000 53.09600 42.01700
H  7.35000 53.04300 38.19000
H  5.95000 52.25100 38.76500
H  7.51100 50.19700 39.22300
H  8.58900 50.97600 38.05900
H  11.88100 56.70300 39.25100
H  12.47900 57.99300 40.32600
H  12.15300 58.37000 38.58400
H  9.74200 62.12500 41.32600
H  9.46900 62.32800 39.57500
H  11.07600 62.65500 40.39900
H  5.26400 61.76600 40.55000
H  3.64600 60.90500 42.88800
H  6.84900 61.85300 42.79800
H  5.27900 62.27000 43.52300
H  5.99900 63.23900 42.17000
H  2.39100 60.49000 40.05500
H  2.95400 62.00500 40.43800
H  0.50500 61.07000 41.12900
H  1.40600 62.49100 41.94300
H  1.35800 60.87700 42.60400
H  0.83500 56.24400 43.60900
H  0.33200 54.91900 42.56800
H  0.19400 56.61200 41.96400
H  4.83100 52.07000 42.47800
H  4.02500 48.86900 40.40100
H  5.72100 48.78300 39.79800
H  4.60000 49.57400 38.81500

