158

Mg 54.23700 23.51800 44.21200
C  51.80900 26.13800 43.52900
C  51.94400 21.15200 43.15200
C  56.75900 21.42700 44.11200
C  56.48600 26.12600 45.16100
N  52.18100 23.67200 43.06900
C  51.40100 24.77100 43.03300
C  49.95200 24.35100 42.68700
C  50.00400 22.82800 43.09200
C  51.50900 22.49600 43.07500
C  49.28000 22.43500 44.42300
C  49.61900 24.68500 41.16800
C  50.54800 24.28700 40.00400
H  51.14300 25.40000 39.02800
N  54.35200 21.56000 43.69300
C  53.32400 20.71500 43.37600
C  53.80900 19.38500 43.27600
C  55.20500 19.44600 43.35700
C  55.52200 20.86800 43.74400
C  53.05600 18.13500 42.95800
C  56.17400 18.37800 43.12600
O  55.82900 17.19300 42.91000
C  57.69300 18.59600 42.87600
N  56.34400 23.80300 44.31800
C  57.08600 22.70600 44.49300
C  58.42500 22.93500 45.22800
C  58.41700 24.48800 45.39200
C  56.97700 24.83900 44.86200
C  58.58000 22.00000 46.49100
C  59.53800 25.22800 44.56100
C  60.59200 25.88700 45.52600
N  54.19400 25.71700 44.40500
C  55.14200 26.55200 44.84600
C  54.53500 27.83600 45.11400
C  53.25000 27.72500 44.60700
C  53.14900 26.44000 43.99500
C  55.12800 29.04000 45.77700
C  51.97300 28.43600 44.42200
O  51.69900 29.57800 44.78400
C  51.04500 27.48700 43.60800
C  50.80800 28.04800 42.30400
O  51.68100 28.59400 41.63500
O  49.43900 28.28600 42.15800
C  48.95500 28.82800 40.88000
H  51.19700 20.36400 43.03300
H  57.46800 20.65400 44.41300
H  57.18100 26.86300 45.56900
H  49.24600 24.93400 43.27800
H  49.52800 22.23900 42.30800
H  50.02100 22.14100 45.16800
H  48.48800 21.69500 44.31200
H  48.77100 23.30400 44.83900
H  49.56000 25.76800 41.06400
H  48.57700 24.39200 41.04200
H  49.85000 23.67600 39.43200
H  51.37900 23.69700 40.39100
H  52.00400 18.31200 43.18100
H  53.31800 17.34800 43.66600
H  53.18800 17.89500 41.90300
H  58.20200 18.56400 43.84000
H  57.89500 19.56000 42.41000
H  58.07000 17.81100 42.22000
H  59.12800 22.65400 44.44400
H  58.49500 24.73900 46.45000
H  57.58400 21.89900 46.92200
H  59.27200 22.46600 47.19100
H  58.97900 21.02700 46.20400
H  59.01100 26.01300 44.01900
H  59.99900 24.58100 43.81500
H  61.60600 25.55900 45.29600
H  60.34500 25.73200 46.57600
H  60.52700 26.96600 45.38500
H  56.01800 28.65300 46.27200
H  54.44100 29.40400 46.54100
H  55.36500 29.76500 44.99900
H  50.14800 27.47400 44.22800
H  49.12000 28.24200 39.97600
H  49.38500 29.80300 40.64700
H  47.87100 28.94000 40.90100
Mg 48.09600 45.27000 42.86500
C  44.59200 45.26900 42.12400
C  48.26800 42.22500 41.37600
C  51.44800 45.81300 42.54900
C  47.70000 48.61100 43.88100
N  46.59400 43.94100 41.75400
C  45.25300 44.15800 41.65300
C  44.67600 43.05400 40.68600
C  45.72500 41.91300 40.76800
C  46.94200 42.67300 41.38400
C  45.36400 40.61500 41.47600
C  44.64500 43.69400 39.30000
C  43.25900 43.67400 38.55000
H  43.22300 43.47200 37.04900
N  49.69200 44.11000 42.25100
C  49.52400 42.83200 41.75100
C  50.85200 42.21500 41.68600
C  51.84900 43.24100 42.04100
C  51.02200 44.47500 42.28100
C  51.10200 40.70300 41.39300
C  53.31400 43.11000 42.09500
O  53.79200 42.05300 41.83900
C  54.33500 44.27100 42.28400
N  49.40900 47.18800 42.77300
C  50.72300 46.99100 42.82300
C  51.45100 48.29000 43.24200
C  50.24700 49.25700 43.65200
C  49.04200 48.24200 43.50800
C  52.44000 48.11300 44.40900
C  49.99000 50.60900 42.80600
C  49.38000 51.78000 43.56100
N  46.51000 46.65100 43.11700
C  46.49800 47.91800 43.65400
C  45.13200 48.30000 43.89300
C  44.42100 47.31600 43.18500
C  45.28300 46.35900 42.76300
C  44.70300 49.53600 44.75000
C  43.05500 46.99000 42.78700
O  41.98400 47.53000 43.02400
C  43.12500 45.70400 41.95100
C  42.09100 44.73700 42.54600
O  41.44400 43.95600 41.84700
O  42.15700 44.64200 43.87100
C  41.24900 43.72500 44.58600
H  48.47300 41.19300 41.08400
H  52.53600 45.89000 42.50800
H  47.63600 49.63200 44.26100
H  43.65800 42.86300 41.02500
H  46.06200 41.59200 39.78200
H  45.57600 39.76700 40.82400
H  44.30500 40.56900 41.73300
H  45.98800 40.72000 42.36300
H  45.28700 43.12500 38.62700
H  44.98300 44.72100 39.16200
H  42.63800 44.51700 38.85400
H  42.87000 42.78800 39.05000
H  51.91900 40.63800 40.67500
H  50.23400 40.28300 40.88500
H  51.34100 40.13000 42.28900
H  54.12900 44.86300 41.39300
H  55.36100 43.90500 42.24200
H  54.19700 44.81300 43.21900
H  51.86400 48.82200 42.38500
H  50.21600 49.46400 44.72100
H  53.27000 47.50200 44.05300
H  51.99100 47.43500 45.13400
H  52.85000 49.09100 44.66200
H  49.46100 50.40600 41.87400
H  51.01900 50.88400 42.57500
H  48.45100 52.20800 43.18500
H  50.08200 52.61100 43.63200
H  49.27300 51.53700 44.61800
H  45.22000 49.54900 45.71000
H  43.66000 49.35400 45.00600
H  44.99300 50.44500 44.22200
H  42.82500 45.85200 40.91300
H  40.30900 43.47700 44.09100
H  41.05000 44.25400 45.51800
H  41.64000 42.75800 44.90100

