158

Mg -2.95600 17.58100 25.85300
C  -3.18600 15.06500 28.26800
C  -3.47300 19.91800 28.15800
C  -2.84500 19.70800 23.34500
C  -3.08300 14.92700 23.41200
N  -3.14100 17.44400 28.01200
C  -3.39600 16.37300 28.74700
C  -3.69700 16.79200 30.20700
C  -3.84900 18.35200 30.04000
C  -3.38200 18.61400 28.66200
C  -5.28300 18.98700 30.38800
C  -2.76600 16.41800 31.38300
C  -2.72500 17.29500 32.64300
H  -2.73500 16.51200 33.95300
N  -3.04900 19.52600 25.77500
C  -3.12600 20.36100 26.87800
C  -3.12500 21.69400 26.48200
C  -2.95100 21.72900 25.06700
C  -2.91700 20.29900 24.64500
C  -3.07100 22.85000 27.40800
C  -2.86000 22.92900 24.13200
O  -2.90100 22.74800 22.91500
C  -2.80900 24.28900 24.63300
N  -3.21900 17.33500 23.69400
C  -3.00100 18.39200 22.96200
C  -2.80700 18.03700 21.51100
C  -3.04400 16.51600 21.45900
C  -3.10600 16.19900 22.93600
C  -3.60000 18.93100 20.46600
C  -1.96700 15.71200 20.66300
C  -2.40900 15.21600 19.29400
N  -2.92800 15.35400 25.78600
C  -2.94400 14.48500 24.74700
C  -2.87700 13.14700 25.26100
C  -2.94800 13.31500 26.68800
C  -2.92600 14.68500 26.94600
C  -2.82400 11.95700 24.39600
C  -3.05200 12.61700 27.95800
O  -2.99000 11.37000 28.17800
C  -3.16400 13.75800 29.06400
C  -2.00900 13.57600 29.85900
O  -0.89600 14.01900 29.64500
O  -2.43000 12.79900 30.92300
C  -1.34800 12.70600 31.90000
H  -3.82700 20.58200 28.95000
H  -2.43200 20.35300 22.56600
H  -3.20700 14.10700 22.70200
H  -4.59900 16.24600 30.48200
H  -3.04800 18.80200 30.62700
H  -5.95300 18.12700 30.38400
H  -5.70400 19.72900 29.70900
H  -5.11500 19.42100 31.37300
H  -1.80800 16.42500 30.86300
H  -2.84800 15.39600 31.75200
H  -3.53700 18.01600 32.73800
H  -1.80000 17.86700 32.57100
H  -4.00200 23.41500 27.37000
H  -2.28400 23.56400 27.16700
H  -2.85300 22.68300 28.46300
H  -2.59400 25.06000 23.89400
H  -2.01300 24.43500 25.36300
H  -3.79300 24.46100 25.07100
H  -1.76800 18.23900 21.24700
H  -4.03700 16.22000 21.12200
H  -4.49700 19.37300 20.89900
H  -3.92000 18.31900 19.62300
H  -3.01400 19.72300 20.00000
H  -1.58000 14.99200 21.38400
H  -1.08700 16.32100 20.45700
H  -3.38700 15.64100 19.07200
H  -2.47000 14.13100 19.20100
H  -1.71200 15.63700 18.56900
H  -2.53000 11.07300 24.96300
H  -2.24400 12.10500 23.48500
H  -3.78200 11.93700 23.87700
H  -3.95800 13.71000 29.80900
H  -1.65000 12.11900 32.76800
H  -1.12900 13.68600 32.32400
H  -0.45600 12.22800 31.49600
Mg 35.85200 49.10900 25.60300
C  36.17700 47.58900 28.66700
C  34.24500 51.87400 27.26700
C  35.16200 50.59200 22.58500
C  37.09800 46.39500 24.06700
N  35.22700 49.66200 27.78000
C  35.59000 48.88000 28.86000
C  35.17100 49.59200 30.14900
C  34.53100 50.96300 29.72600
C  34.65000 50.82500 28.14300
C  33.02100 51.08200 30.15700
C  36.45700 49.65500 31.14000
C  36.10200 49.50400 32.63900
H  34.62400 49.53400 33.08900
N  34.85400 51.00300 25.00400
C  34.34200 51.97600 25.84300
C  33.98700 53.15000 25.01700
C  34.25500 52.80300 23.62500
C  34.69900 51.40600 23.70000
C  33.59300 54.53100 25.69300
C  34.17500 53.69700 22.42300
O  34.54800 53.36000 21.29600
C  33.63600 55.12200 22.56200
N  35.99100 48.52700 23.58100
C  35.77600 49.33400 22.55500
C  36.24200 48.70500 21.27300
C  36.92800 47.33300 21.76500
C  36.74800 47.42600 23.20300
C  35.15400 48.47700 20.14000
C  38.39600 47.23000 21.40500
C  39.46800 48.03500 22.09200
N  36.53000 47.32600 26.18300
C  37.04100 46.26100 25.44400
C  37.40400 45.18100 26.27900
C  37.07700 45.65700 27.56300
C  36.51100 46.97400 27.47400
C  37.94900 43.83500 25.86900
C  36.98300 45.26900 28.99200
O  37.27100 44.23200 29.52800
C  36.48000 46.48900 29.71000
C  35.19800 46.12200 30.44200
O  34.13400 45.96100 29.88900
O  35.46900 45.76700 31.73500
C  34.43200 44.96400 32.42300
H  33.64400 52.63100 27.77600
H  34.90400 51.03300 21.62100
H  37.55100 45.53600 23.56900
H  34.41000 48.92100 30.54800
H  35.05500 51.80300 30.18200
H  32.88800 52.03200 30.67400
H  32.61300 50.38100 30.88500
H  32.33000 51.06100 29.31400
H  37.04400 50.56700 31.02800
H  37.15200 48.87300 30.83000
H  36.68100 50.19000 33.25700
H  36.48900 48.49700 32.79500
H  32.52500 54.75100 25.66100
H  34.14400 55.32500 25.18800
H  34.03100 54.54100 26.69100
H  33.55300 55.59800 21.58500
H  34.41200 55.64700 23.11900
H  32.75000 55.06700 23.19500
H  37.03200 49.34300 20.87600
H  36.43600 46.49100 21.28000
H  34.17100 48.55700 20.60500
H  35.34500 47.49900 19.69700
H  35.38100 49.26900 19.42700
H  38.44500 47.56900 20.37100
H  38.57300 46.17200 21.59900
H  39.56900 47.83800 23.15900
H  39.33800 49.09400 21.86500
H  40.44700 47.83400 21.65700
H  38.73300 44.06400 25.14700
H  37.13500 43.21800 25.48700
H  38.48800 43.43300 26.72700
H  37.22000 46.75800 30.46300
H  34.83200 43.96400 32.58900
H  33.48300 44.94400 31.88700
H  34.12800 45.50800 33.31800

