158

Mg 7.78000 3.35400 28.07300
C  9.30000 1.79300 30.88200
C  6.27200 5.56200 30.16000
C  6.23800 4.60700 25.43700
C  8.93200 0.72300 26.15500
N  7.72300 3.52200 30.32700
C  8.59000 2.97200 31.21600
C  8.39400 3.67900 32.64600
C  7.27700 4.71300 32.42500
C  7.12200 4.63500 30.84800
C  5.91500 4.46400 33.12800
C  9.75600 4.29100 33.16100
C  10.27500 3.66900 34.45800
H  10.43800 4.51200 35.78300
N  6.47200 4.95200 27.79200
C  5.98500 5.73600 28.75600
C  5.25800 6.85300 28.12200
C  5.23900 6.57300 26.80400
C  5.94000 5.29200 26.58700
C  4.54100 8.05000 28.78000
C  4.70900 7.40800 25.56800
O  4.47300 6.89300 24.46800
C  4.39300 8.88600 25.78800
N  7.73700 2.86900 26.08000
C  7.08700 3.53700 25.14000
C  7.23700 2.89000 23.77400
C  8.17500 1.70600 23.99900
C  8.22000 1.70500 25.49600
C  5.96200 2.49500 23.07600
C  9.70000 1.78600 23.38600
C  10.35400 0.48100 22.99400
N  8.92800 1.62100 28.44300
C  9.35500 0.64700 27.47200
C  10.12600 -0.40000 28.13700
C  10.05500 0.00900 29.48000
C  9.35200 1.21300 29.61200
C  10.85100 -1.49700 27.52200
C  10.53000 -0.30300 30.80600
O  11.30800 -1.19100 31.15300
C  10.19500 0.85500 31.72700
C  9.46800 0.28600 32.91700
O  8.36600 -0.15700 33.05000
O  10.42100 0.37000 33.91200
C  10.03100 -0.05900 35.24900
H  5.96500 6.47100 30.68100
H  5.83700 5.01900 24.50900
H  9.32900 -0.08300 25.53500
H  8.01600 2.96600 33.37800
H  7.71300 5.68100 32.67000
H  5.12700 4.55400 32.37900
H  5.72000 5.27400 33.83000
H  5.84600 3.53000 33.68600
H  9.77100 5.37700 33.24200
H  10.53400 4.20800 32.40300
H  11.26500 3.24100 34.30100
H  9.66900 2.82500 34.78600
H  4.75500 8.00800 29.84800
H  3.51400 7.70600 28.65700
H  4.78100 9.06000 28.44800
H  5.16300 9.45600 26.30700
H  3.55100 8.93600 26.47700
H  4.15700 9.39900 24.85500
H  7.58300 3.67400 23.10100
H  7.81300 0.72900 23.67700
H  5.03400 2.63900 23.63100
H  5.91700 1.49400 22.64800
H  5.88400 3.20600 22.25400
H  10.38000 2.36300 24.01200
H  9.62700 2.46700 22.53900
H  10.73300 0.50300 21.97200
H  9.68300 -0.37300 23.08800
H  11.18200 0.26900 23.67000
H  10.67100 -1.58100 26.45000
H  10.65100 -2.47500 27.95800
H  11.91400 -1.30600 27.67200
H  10.93800 1.57300 32.07500
H  9.37000 0.70800 35.65200
H  10.99600 -0.11800 35.75200
H  9.68700 -1.09300 35.24500
Mg 26.40700 50.19900 26.40100
C  24.23200 51.39200 29.00600
C  28.62200 49.13900 28.64000
C  28.36700 49.37100 23.83300
C  24.08700 51.58400 24.02800
N  26.35100 50.21700 28.52800
C  25.39400 50.68800 29.42100
C  25.75800 50.23500 30.86700
C  27.30700 49.89900 30.77700
C  27.41700 49.64200 29.19100
C  28.22500 51.19000 30.96100
C  24.81000 49.14900 31.36500
C  24.53600 49.01400 32.90600
H  25.57900 49.49200 33.93200
N  28.38500 49.36800 26.25900
C  29.06800 48.93300 27.31000
C  30.36500 48.54500 26.83800
C  30.31300 48.65900 25.44600
C  28.98900 49.12200 25.12100
C  31.38500 47.92700 27.75200
C  31.42500 48.48000 24.37600
O  31.36900 48.86300 23.21400
C  32.74500 47.98000 24.81200
N  26.30600 50.68300 24.18300
C  27.17600 50.01200 23.45200
C  26.63700 49.86900 21.97500
C  25.32500 50.61900 22.07400
C  25.18600 50.88500 23.52700
C  27.68700 50.38200 20.88000
C  24.21600 49.81100 21.35800
C  23.16400 50.72500 20.67100
N  24.61700 51.28800 26.45400
C  23.79600 51.81200 25.44600
C  22.60800 52.41300 26.11200
C  22.71600 52.25700 27.50900
C  23.91100 51.48200 27.60100
C  21.49900 53.10300 25.41900
C  22.18300 52.62800 28.73800
O  21.24900 53.28700 29.06100
C  23.06100 51.92300 29.82500
C  23.46100 52.90800 30.82300
O  24.30100 53.77400 30.62100
O  22.78300 52.70900 31.98400
C  23.23500 53.61200 33.11300
H  29.29800 48.64600 29.34200
H  28.94600 48.97800 22.99500
H  23.26100 51.88200 23.37900
H  25.72300 51.16800 31.43000
H  27.47600 48.96700 31.31800
H  28.97900 51.10400 31.74300
H  27.65800 52.03600 31.35100
H  28.54100 51.59000 29.99800
H  25.23300 48.19800 31.04000
H  23.85200 49.27500 30.86000
H  24.40500 47.94400 33.07000
H  23.69300 49.67700 33.09700
H  31.49400 46.90900 27.37800
H  31.08400 47.73300 28.78100
H  32.37100 48.39200 27.74600
H  32.67000 46.94200 25.13800
H  33.16100 48.64500 25.56900
H  33.38800 47.86600 23.93900
H  26.34700 48.83000 21.82100
H  25.43500 51.65400 21.75100
H  28.25100 51.08200 21.49600
H  27.16600 50.83700 20.03700
H  28.39800 49.64700 20.50300
H  23.73400 49.28200 22.18000
H  24.45700 49.01600 20.65300
H  22.20900 50.64500 21.19000
H  22.95700 50.37300 19.66000
H  23.38100 51.79300 20.64800
H  20.52900 52.91300 25.87800
H  21.46500 52.75800 24.38600
H  21.69400 54.16300 25.58200
H  22.57200 51.08300 30.31800
H  23.40100 54.66100 32.86600
H  24.22100 53.24900 33.40400
H  22.48800 53.64900 33.90600

