158

Mg 36.13200 49.46700 24.76300
C  36.40500 47.58900 27.75700
C  34.69400 52.04900 26.59400
C  35.64100 50.96900 21.84000
C  37.20800 46.58700 23.06900
N  35.50400 49.64400 26.94800
C  35.81200 48.81800 27.99300
C  35.59600 49.61100 29.30800
C  34.84400 50.89800 28.92100
C  35.00600 50.90300 27.40700
C  33.40100 51.01200 29.40200
C  36.87200 49.81000 30.13200
C  36.84700 49.62100 31.64000
H  35.54600 49.56800 32.42000
N  35.40300 51.28100 24.31800
C  34.89200 52.23100 25.20800
C  34.45300 53.41600 24.38400
C  34.74100 53.11700 23.00200
C  35.28800 51.74800 23.04500
C  33.65400 54.60300 24.95000
C  34.32700 53.90000 21.68800
O  34.57600 53.44400 20.59400
C  33.64200 55.31900 21.80700
N  36.12000 48.76400 22.77000
C  36.00300 49.63800 21.77300
C  36.46400 49.08200 20.41100
C  37.08200 47.69900 20.80800
C  36.83800 47.70300 22.30700
C  35.49300 48.79200 19.32200
C  38.55300 47.38200 20.33700
C  39.67900 48.23600 20.94800
N  36.74200 47.50900 25.22900
C  37.12200 46.47600 24.44400
C  37.50600 45.39200 25.24300
C  37.23900 45.77600 26.54400
C  36.79400 47.09400 26.48800
C  38.20800 44.17800 24.75500
C  37.33900 45.32700 27.92300
O  37.72300 44.28800 28.38800
C  36.80800 46.57700 28.76700
C  35.71600 46.18900 29.73200
O  34.50600 46.14600 29.53900
O  36.23600 45.65500 30.82100
C  35.46600 45.06800 31.95200
H  34.22000 52.93200 27.02800
H  35.69900 51.48700 20.88100
H  37.74700 45.76600 22.59200
H  34.97800 49.03600 29.99900
H  35.38000 51.69000 29.44400
H  32.87200 50.77200 28.47900
H  33.22400 52.04000 29.71700
H  33.11300 50.28200 30.15800
H  37.28500 50.80100 29.94500
H  37.59100 49.11000 29.70500
H  37.50800 50.36400 32.08500
H  37.21800 48.60400 31.76300
H  33.27600 54.42400 25.95700
H  32.75200 54.64000 24.33900
H  34.16900 55.56300 24.97900
H  32.69600 55.20400 22.33600
H  33.40800 55.76900 20.84200
H  34.19400 56.08700 22.34900
H  37.20300 49.78200 20.02300
H  36.44400 46.89800 20.43600
H  34.85800 47.96300 19.63600
H  36.13900 48.61300 18.46200
H  34.94900 49.67500 18.98700
H  38.72600 47.30400 19.26400
H  38.73900 46.32800 20.54400
H  40.17400 48.84900 20.19500
H  40.50100 47.61900 21.30800
H  39.30100 48.86000 21.75800
H  37.70500 43.71000 23.90900
H  38.43700 43.52200 25.59500
H  39.10400 44.52000 24.23600
H  37.62000 47.00000 29.35800
H  34.88400 44.23900 31.54800
H  34.77400 45.83000 32.30900
H  35.94800 44.55200 32.78300
Mg 9.31700 48.29300 25.62900
C  7.41000 48.17700 28.56500
C  11.85600 49.71700 27.53200
C  11.18700 48.18000 22.92600
C  6.56600 47.26700 23.86800
N  9.54700 48.92700 27.82100
C  8.68000 48.72700 28.82000
C  9.17200 49.20500 30.13700
C  10.61100 49.79900 29.83800
C  10.67800 49.52400 28.27400
C  10.94000 51.17000 30.23300
C  9.08400 48.21900 31.29800
C  9.84200 48.68300 32.49200
H  9.23200 48.28700 33.89000
N  11.28100 48.95700 25.21200
C  12.18800 49.51900 26.09900
C  13.41700 49.70200 25.41800
C  13.28500 49.16600 24.12400
C  11.87100 48.79400 24.01700
C  14.58400 50.41700 26.02300
C  14.42300 48.85900 23.04600
O  14.11200 48.60900 21.92300
C  15.73200 48.90800 23.47800
N  8.84100 47.98600 23.68000
C  9.89100 47.72700 22.82200
C  9.41000 46.91600 21.52100
C  7.93000 46.67000 21.81300
C  7.76700 47.33300 23.20500
C  9.60700 47.55400 20.08800
C  7.56500 45.19400 21.75500
C  7.91700 44.38100 23.02200
N  7.37600 47.76900 26.05200
C  6.35100 47.46100 25.20300
C  5.06000 47.40300 25.94800
C  5.44400 47.67100 27.32500
C  6.80700 47.88900 27.30100
C  3.68000 47.37600 25.33000
C  4.95800 47.96300 28.62400
O  3.85800 48.07200 29.06200
C  6.21300 47.91600 29.45900
C  6.26900 46.63000 30.22000
O  6.64300 45.51200 29.77200
O  5.96400 46.78100 31.54600
C  6.13200 45.65700 32.44700
H  12.61800 50.09600 28.21700
H  11.83700 47.76300 22.15300
H  5.70400 46.87600 23.32400
H  8.55000 50.08300 30.30900
H  11.37300 49.07100 30.11700
H  10.05900 51.66300 30.64300
H  11.24900 51.75600 29.36700
H  11.66600 51.06500 31.04000
H  9.31000 47.20900 30.95800
H  8.02500 48.26100 31.55000
H  9.76600 49.76800 32.56400
H  10.87700 48.35700 32.59100
H  14.37100 50.70900 27.05200
H  14.84900 51.14500 25.25600
H  15.38000 49.67700 26.11300
H  15.93900 49.97300 23.58800
H  16.33900 48.52500 22.65700
H  15.89900 48.37800 24.41500
H  9.79700 45.90100 21.43400
H  7.35400 47.21400 21.06500
H  10.58900 47.28400 19.69800
H  9.51100 48.62900 20.23900
H  8.85500 47.29400 19.34200
H  8.13500 44.76600 20.93000
H  6.52500 45.06600 21.45300
H  8.34000 44.99200 23.81900
H  8.61400 43.61200 22.69000
H  7.00600 43.98200 23.46900
H  3.72100 47.29700 24.24400
H  3.23500 48.31900 25.64800
H  3.09500 46.53700 25.70500
H  6.06600 48.83500 30.02600
H  5.14500 45.20600 32.53900
H  6.32500 46.14200 33.40400
H  6.89100 44.93600 32.14400

