158

Mg 48.14100 35.29900 26.86100
C  46.20800 33.99300 29.48100
C  48.54200 38.12700 28.70200
C  49.36400 36.60500 24.05600
C  47.16700 32.40100 24.95800
N  47.64900 35.87100 28.97500
C  46.96300 35.10800 29.88200
C  47.13800 35.65500 31.25900
C  47.61200 37.22400 30.98600
C  47.93300 37.08400 29.40600
C  46.63400 38.33100 31.44300
C  48.26800 34.77700 31.86600
C  48.21200 34.50600 33.30200
H  47.26300 35.36900 34.11800
N  48.86800 37.12100 26.39700
C  49.10800 38.14500 27.36100
C  49.89800 39.16900 26.70800
C  50.01700 38.81000 25.32100
C  49.36300 37.49400 25.16100
C  50.35400 40.40400 27.37900
C  50.71000 39.55400 24.20900
O  50.87400 39.13400 23.07800
C  51.22200 40.94500 24.46600
N  48.23400 34.61000 24.76700
C  48.86000 35.40600 23.79500
C  48.98200 34.64100 22.41700
C  48.50000 33.16400 22.83300
C  47.91200 33.38000 24.27100
C  48.35800 35.32900 21.20300
C  49.52400 31.96300 22.76600
C  49.56400 31.10600 21.46800
N  47.03700 33.54200 27.11700
C  46.61100 32.53400 26.24600
C  45.68500 31.65500 26.93500
C  45.44400 32.23000 28.16800
C  46.32100 33.32900 28.23100
C  45.13800 30.37800 26.35100
C  44.69300 32.14200 29.40400
O  43.78800 31.42500 29.74400
C  45.13300 33.34100 30.25200
C  45.49400 32.78100 31.57800
O  46.45300 32.17700 31.84800
O  44.41300 33.00400 32.40800
C  44.37800 32.33400 33.68700
H  48.86300 39.02700 29.23100
H  49.83600 37.10500 23.20800
H  47.02000 31.47300 24.40100
H  46.21200 35.57600 31.82900
H  48.57400 37.41300 31.46200
H  45.67500 37.95100 31.79600
H  46.44800 39.02300 30.62200
H  47.09300 38.78400 32.32200
H  49.19700 35.33300 31.73500
H  48.38300 33.78600 31.42700
H  49.23800 34.66400 33.63500
H  48.00400 33.44200 33.41400
H  50.25400 40.23300 28.45000
H  49.69400 41.23800 27.13800
H  51.41100 40.66000 27.30000
H  50.58700 41.59700 25.06500
H  51.19200 41.44600 23.49800
H  52.21900 40.85800 24.89700
H  50.04500 34.66100 22.17600
H  47.65500 32.82400 22.23400
H  47.59100 34.75000 20.68900
H  49.22100 35.55500 20.57800
H  47.94000 36.28400 21.52200
H  49.19800 31.24700 23.52000
H  50.46000 32.48900 22.95100
H  49.15000 30.11800 21.67000
H  50.62000 31.06300 21.20300
H  49.00700 31.50700 20.62200
H  44.37200 29.97700 27.01500
H  45.96700 29.67000 26.33500
H  44.72900 30.48200 25.34600
H  44.28600 34.00900 30.40400
H  45.29900 32.29800 34.26900
H  44.00100 31.32900 33.49800
H  43.62800 32.91900 34.21900
Mg 6.89500 54.43500 41.22200
C  5.80000 51.18500 41.27400
C  9.89000 53.40600 40.00400
C  7.63300 57.71300 40.52500
C  3.81400 55.54000 42.32500
N  7.67400 52.48700 40.61800
C  7.07200 51.29300 40.69700
C  8.02400 50.23100 40.12500
C  9.45400 50.89500 40.28200
C  8.96000 52.33900 40.23500
C  10.35000 50.63300 41.54200
C  7.67100 49.59300 38.69600
C  6.73300 50.36700 37.75300
H  7.42000 50.83700 36.40400
N  8.56800 55.45200 40.35900
C  9.74100 54.83400 40.07900
C  10.72400 55.83700 39.77600
C  10.08200 57.12600 39.80900
C  8.70500 56.80200 40.25600
C  12.17600 55.58400 39.40600
C  10.70000 58.41100 39.50300
O  11.93400 58.47300 39.43400
C  9.90000 59.71500 39.28600
N  5.82700 56.36800 41.39300
C  6.35600 57.52200 41.03100
C  5.37100 58.73300 41.33600
C  4.33000 58.05100 42.24700
C  4.65700 56.55400 42.06100
C  5.99300 59.98500 42.07600
C  2.90300 58.44400 41.70100
C  2.46800 59.92300 42.00900
N  5.10100 53.58300 41.62700
C  3.92200 54.14300 42.17800
C  2.95200 53.06700 42.51400
C  3.66500 51.92800 42.22700
C  4.98200 52.26900 41.65200
C  1.56000 53.22500 43.07400
C  3.66700 50.49900 42.23300
O  2.84900 49.61200 42.54800
C  4.99400 49.94100 41.68500
C  4.62600 49.01300 40.57100
O  4.08100 49.33400 39.54200
O  5.04400 47.71500 40.74900
C  4.65600 46.70500 39.68200
H  10.89400 53.17000 39.64800
H  7.91200 58.76800 40.56100
H  2.79000 55.75200 42.64000
H  7.86100 49.45000 40.86700
H  9.99700 50.69900 39.35700
H  9.75900 50.01600 42.21900
H  10.49900 51.56500 42.08700
H  11.34600 50.24100 41.33800
H  7.38500 48.57700 38.96600
H  8.58600 49.45500 38.11900
H  6.43500 51.23800 38.33600
H  5.83700 49.78100 37.54800
H  12.34200 55.80600 38.35200
H  12.40700 54.52200 39.49000
H  12.93500 56.09600 39.99600
H  9.07300 59.61700 38.58300
H  10.44400 60.52400 38.80000
H  9.55300 60.04800 40.26400
H  4.97700 59.04800 40.37000
H  4.45700 58.28800 43.30400
H  5.55600 60.22600 43.04500
H  5.87100 60.81100 41.37500
H  7.05200 59.87700 42.30700
H  2.21000 57.74200 42.16400
H  2.78700 58.32200 40.62400
H  1.48200 59.95200 42.47300
H  2.41200 60.60300 41.15900
H  3.15900 60.42000 42.68900
H  1.72400 53.89800 43.91600
H  1.25000 52.27600 43.51100
H  0.95000 53.70100 42.30600
H  5.40900 49.22800 42.39800
H  5.36900 45.91000 39.90300
H  5.02400 47.07600 38.72500
H  3.59000 46.48100 39.66300

