158

Mg 1.22800 7.48500 25.22000
C  1.94600 9.54000 27.88100
C  1.29400 4.72600 27.26200
C  0.68600 5.60700 22.43400
C  1.57600 10.33500 23.08800
N  1.52600 7.23900 27.31100
C  1.79200 8.20100 28.25700
C  1.69900 7.63900 29.68900
C  1.97900 6.09100 29.39800
C  1.54000 5.95700 27.92100
C  3.51600 5.70100 29.76700
C  0.37200 7.89300 30.32600
C  0.45600 8.31700 31.78700
H  1.59600 7.76500 32.67400
N  0.84900 5.45500 24.92100
C  0.95500 4.50400 25.87000
C  0.63900 3.19600 25.31700
C  0.56900 3.41500 23.89200
C  0.70800 4.88400 23.69100
C  0.33200 2.12400 26.24000
C  0.37000 2.38300 22.81500
O  0.17000 2.70400 21.65200
C  0.43700 0.93900 23.11300
N  0.96300 7.95900 23.05500
C  0.77200 6.96000 22.15600
C  0.81200 7.51600 20.76600
C  1.15800 9.07200 20.94400
C  1.30200 9.14500 22.46000
C  1.78400 6.79600 19.83300
C  0.07200 10.07900 20.35200
C  -1.26500 10.12800 21.06400
N  1.75400 9.47600 25.38400
C  1.69900 10.49600 24.48500
C  1.94500 11.77800 25.16100
C  2.07100 11.40400 26.45700
C  1.94600 10.00300 26.52800
C  2.05100 13.19600 24.54900
C  2.32200 11.94800 27.77600
O  2.64200 13.06200 28.12500
C  2.15500 10.80000 28.71900
C  3.22900 10.81100 29.68300
O  4.22800 10.08100 29.62400
O  2.77800 11.40900 30.81100
C  3.31200 11.34900 32.11300
H  1.32500 3.95000 28.03000
H  0.59400 4.98900 21.53800
H  1.53500 11.19900 22.42100
H  2.51800 8.15300 30.19200
H  1.28000 5.48800 29.97800
H  3.87000 6.51000 30.40600
H  4.20700 5.75200 28.92500
H  3.64000 4.79700 30.36400
H  -0.29700 7.03200 30.30400
H  -0.13600 8.74400 29.87100
H  -0.47800 8.10000 32.30500
H  0.57900 9.39800 31.85400
H  -0.68800 2.16700 26.62100
H  1.03100 2.14300 27.07600
H  0.59500 1.16500 25.79400
H  -0.34500 0.66500 23.82200
H  1.35300 0.81100 23.68900
H  0.42900 0.25200 22.26700
H  -0.19300 7.47300 20.34600
H  2.12600 9.32100 20.50700
H  2.67400 7.41200 19.70200
H  1.34700 6.75900 18.83500
H  2.08000 5.82000 20.21500
H  -0.17000 9.85800 19.31300
H  0.50900 11.07400 20.43600
H  -1.35400 9.16000 21.55600
H  -2.03800 10.27000 20.30900
H  -1.31200 10.96700 21.75900
H  1.63900 13.18800 23.54000
H  3.03000 13.67200 24.59400
H  1.35600 13.67900 25.23700
H  1.26700 11.01300 29.31500
H  4.15900 10.66400 32.15300
H  2.63300 10.95600 32.87000
H  3.61800 12.36200 32.37500
Mg 0.86000 41.66300 26.65100
C  3.09800 42.27100 29.33500
C  -1.21500 40.27400 28.98100
C  -1.06500 40.75600 24.09700
C  3.52000 42.38100 24.44900
N  0.83100 41.51900 28.91500
C  1.80700 41.88300 29.76400
C  1.27000 41.89200 31.16500
C  0.03200 40.96600 31.06500
C  -0.18300 40.96900 29.58700
C  0.34000 39.59200 31.67300
C  1.10900 43.39500 31.60500
C  1.48500 43.71500 33.07700
H  1.36000 42.61300 34.15700
N  -0.93700 40.66600 26.51300
C  -1.56300 40.05000 27.59500
C  -2.73100 39.30700 27.07700
C  -2.74600 39.49600 25.69000
C  -1.56400 40.30800 25.35200
C  -3.58500 38.52600 28.03300
C  -3.65400 38.87100 24.62600
O  -3.46300 38.88500 23.41000
C  -4.74800 37.98900 25.07100
N  1.09300 41.82100 24.62300
C  0.13200 41.48200 23.72500
C  0.56900 41.72000 22.22600
C  1.95900 42.26600 22.41000
C  2.20000 42.26600 23.90000
C  0.26700 40.50700 21.34300
C  2.14800 43.59300 21.70000
C  1.78300 44.99800 22.38300
N  2.87400 42.29400 26.77800
C  3.79700 42.48200 25.82800
C  5.08300 42.71500 26.42600
C  4.82700 42.63500 27.82400
C  3.47400 42.40500 27.98500
C  6.43900 42.87900 25.77600
C  5.50100 42.64600 29.10600
O  6.66100 42.69900 29.49000
C  4.32800 42.56300 30.11000
C  4.60000 41.44400 31.04300
O  4.72200 40.25000 30.77800
O  4.87600 41.89900 32.26200
C  5.29400 40.92800 33.26300
H  -1.76900 39.77300 29.77700
H  -1.74400 40.72800 23.24200
H  4.41500 42.48000 23.83200
H  2.07200 41.41600 31.72700
H  -0.78200 41.48900 31.56700
H  0.96000 39.72400 32.56000
H  0.96200 39.17400 30.88200
H  -0.60000 39.05900 31.81600
H  0.08500 43.64600 31.33000
H  1.59300 44.06600 30.89500
H  0.85600 44.53400 33.42800
H  2.54200 43.94100 33.21400
H  -3.39000 37.46600 27.86900
H  -4.63600 38.74300 27.84100
H  -3.44600 38.80400 29.07800
H  -5.60700 38.56700 25.41200
H  -4.39900 37.23200 25.77400
H  -5.12200 37.41000 24.22600
H  -0.02700 42.51500 21.77800
H  2.64000 41.59200 21.89000
H  -0.28300 40.87800 20.47800
H  -0.40100 39.78800 21.81800
H  1.11200 40.02900 20.84700
H  1.48200 43.55600 20.83800
H  3.07000 43.66200 21.12200
H  1.50300 45.67000 21.57200
H  2.58900 45.48500 22.93100
H  0.86100 44.69300 22.87800
H  6.85900 41.99200 25.30100
H  7.25800 43.38800 26.28300
H  6.24200 43.60900 24.99000
H  4.15200 43.53300 30.57700
H  4.53100 40.15900 33.38300
H  5.51300 41.37400 34.23300
H  6.26800 40.49100 33.04200

