158

Mg 16.41000 -1.45100 27.98900
C  15.09500 0.64500 30.39600
C  18.27000 -3.05900 30.48500
C  17.68700 -3.44100 25.68000
C  14.86800 0.48700 25.54100
N  16.68800 -1.16500 30.20700
C  16.02600 -0.21600 30.97000
C  16.35100 -0.50300 32.49200
C  17.59100 -1.45200 32.47900
C  17.52200 -1.92100 30.93300
C  18.95400 -0.72800 32.93600
C  15.12600 -1.11100 33.22100
C  15.16400 -1.23500 34.73900
H  16.39600 -0.67400 35.43300
N  17.76000 -3.09400 28.10800
C  18.40900 -3.55400 29.19700
C  19.23400 -4.72800 28.79100
C  18.97300 -4.94900 27.39600
C  18.11700 -3.78700 27.00100
C  20.16900 -5.51500 29.66200
C  19.48100 -6.11900 26.46800
O  19.14500 -6.05700 25.29900
C  20.22800 -7.27000 27.00300
N  16.23800 -1.49600 25.89200
C  16.95600 -2.35100 25.14200
C  17.07900 -2.00500 23.61300
C  16.21800 -0.63900 23.60100
C  15.75000 -0.50700 25.05400
C  18.57000 -1.85600 23.22900
C  14.97600 -0.68500 22.66700
C  15.22500 -0.35200 21.17100
N  15.34800 0.24500 27.90500
C  14.61800 0.85800 26.85800
C  13.79400 1.88600 27.36400
C  13.97600 1.82300 28.75000
C  14.89100 0.78600 29.01500
C  12.94100 2.68700 26.46600
C  13.43600 2.40700 29.99300
O  12.71100 3.34000 30.29100
C  14.17900 1.61200 31.11600
C  14.97500 2.69600 31.84500
O  16.06600 3.12600 31.56000
O  14.14500 3.09700 32.90700
C  14.88300 4.00200 33.74200
H  18.74700 -3.66700 31.25700
H  18.34800 -3.98900 25.00500
H  14.47900 1.05500 24.69300
H  16.68700 0.40300 32.99700
H  17.48000 -2.36400 33.06600
H  19.72600 -0.92200 32.19200
H  19.27800 -1.19800 33.86500
H  18.88800 0.35400 33.05500
H  15.10800 -2.11900 32.80500
H  14.14300 -0.74900 32.92100
H  14.96500 -2.29100 34.92400
H  14.31900 -0.60000 35.00500
H  19.62700 -6.33200 30.13700
H  20.38500 -4.90100 30.53600
H  21.05300 -5.73400 29.06300
H  21.18600 -6.92500 27.39200
H  20.37900 -7.89000 26.12000
H  19.54100 -7.64500 27.76100
H  16.58200 -2.86200 23.15800
H  16.84900 0.15000 23.19300
H  19.11600 -1.54400 24.12000
H  18.70500 -1.06600 22.49000
H  19.03900 -2.74300 22.80400
H  14.43400 0.22800 22.91400
H  14.26200 -1.50800 22.70500
H  14.82700 -1.17500 20.57800
H  16.31200 -0.29000 21.11400
H  14.66000 0.53900 20.89700
H  12.33100 3.37600 27.05000
H  12.17100 2.09100 25.97600
H  13.50200 3.35200 25.80900
H  13.41500 1.12200 31.72000
H  15.45700 4.72100 33.15700
H  15.40800 3.43200 34.50800
H  14.17700 4.58900 34.33100
Mg -1.96000 33.35900 26.69500
C  -3.63200 31.76700 29.20800
C  -0.75200 35.68100 28.96300
C  -0.75100 35.11900 24.17300
C  -3.62700 31.25400 24.39400
N  -2.21000 33.76600 28.86300
C  -2.84100 32.87400 29.65500
C  -2.76800 33.34500 31.16500
C  -1.84800 34.67400 31.09400
C  -1.69100 34.84100 29.52000
C  -2.46400 35.92400 31.76400
C  -2.31300 32.19400 32.06600
C  -1.61000 32.53400 33.39600
H  -1.93200 31.62000 34.54300
N  -0.66200 35.05200 26.53200
C  -0.30300 35.83900 27.58700
C  0.63000 36.83400 27.03700
C  0.59000 36.74900 25.66100
C  -0.31800 35.58800 25.39700
C  1.34200 37.71700 28.01600
C  1.26300 37.58700 24.58700
O  1.16700 37.39100 23.35900
C  2.10000 38.81200 25.02300
N  -2.47800 33.43400 24.65100
C  -1.60500 34.14000 23.82300
C  -1.71000 33.70500 22.37000
C  -2.23500 32.21000 22.58000
C  -2.80900 32.27600 23.97300
C  -2.35300 34.66600 21.36400
C  -1.24900 31.03900 22.27600
C  -0.59300 30.25200 23.40500
N  -3.40300 31.78600 26.73900
C  -3.97000 31.03800 25.72700
C  -4.82600 30.09700 26.26900
C  -4.74100 30.29800 27.66200
C  -3.88100 31.41500 27.85200
C  -5.68100 29.07400 25.48200
C  -5.22900 29.94300 28.98800
O  -5.85500 28.98200 29.31900
C  -4.38100 30.79700 30.02300
C  -5.34700 31.45900 30.92600
O  -5.97000 32.47500 30.74500
O  -5.69100 30.57900 31.93600
C  -6.69300 31.19300 32.85200
H  -0.38400 36.48800 29.59900
H  -0.31100 35.67100 23.34000
H  -3.80900 30.42600 23.70600
H  -3.75000 33.72700 31.44400
H  -0.83900 34.37800 31.38300
H  -1.63700 36.35500 32.32800
H  -3.23500 35.47700 32.39200
H  -2.93300 36.59100 31.04100
H  -1.82500 31.34600 31.58600
H  -3.30200 31.85700 32.37800
H  -1.70900 33.55800 33.75500
H  -0.55100 32.37100 33.19500
H  2.35500 37.81800 27.62700
H  1.20800 37.37600 29.04300
H  0.82600 38.67500 27.95900
H  1.39600 39.43000 25.58000
H  2.54400 39.27800 24.14400
H  2.98300 38.49600 25.57900
H  -0.72100 33.66900 21.91300
H  -3.06800 32.22100 21.87700
H  -2.58800 35.57500 21.91700
H  -3.23100 34.27000 20.85300
H  -1.62500 34.83500 20.57100
H  -0.49100 31.40700 21.58500
H  -1.87800 30.29900 21.78000
H  0.49200 30.20400 23.30700
H  -0.85100 29.19600 23.32800
H  -0.84800 30.62500 24.39600
H  -5.20000 28.70500 24.57600
H  -6.59200 29.63400 25.27000
H  -5.79500 28.24400 26.17900
H  -3.64500 30.21800 30.58100
H  -7.24600 30.45000 33.42500
H  -7.55800 31.62900 32.35300
H  -6.29400 31.91100 33.57000

