158

Mg 40.94700 8.88600 29.54700
C  42.91100 9.89400 32.18100
C  38.54800 7.66700 31.73600
C  39.13800 7.63100 26.92300
C  43.71200 9.36500 27.39400
N  40.87400 8.62500 31.70500
C  41.66600 9.40500 32.58300
C  41.00500 9.48200 34.05400
C  39.76400 8.57400 33.85500
C  39.70600 8.24100 32.32500
C  39.53400 7.43700 34.81000
C  40.72000 10.90200 34.54500
C  41.62500 11.39900 35.66300
H  41.03100 12.23400 36.81300
N  39.04800 7.88200 29.36000
C  38.21500 7.46500 30.38400
C  37.00800 7.00500 29.87100
C  37.16400 6.93400 28.44200
C  38.50000 7.44300 28.16500
C  35.85800 6.51300 30.76400
C  36.15400 6.44900 27.36400
O  36.54700 6.10800 26.23500
C  34.68000 6.24700 27.76100
N  41.33700 8.60000 27.50500
C  40.40100 8.14700 26.60500
C  40.90200 8.33300 25.16900
C  42.40500 8.84300 25.37600
C  42.51700 8.86700 26.88200
C  40.85000 7.04000 24.23000
C  42.58000 10.21000 24.60500
C  41.93400 11.41800 25.37100
N  42.98700 9.47800 29.68300
C  43.99000 9.64200 28.72100
C  45.22400 10.12200 29.37400
C  44.81900 10.33400 30.71600
C  43.46300 9.90300 30.85200
C  46.60200 10.29200 28.78000
C  45.20400 10.90500 31.99800
O  46.24600 11.39500 32.33200
C  44.02400 10.56400 32.99900
C  44.52500 9.61200 34.13100
O  44.50400 8.38600 34.13700
O  45.01500 10.43800 35.18700
C  45.44100 9.94600 36.50500
H  37.79700 7.50900 32.51300
H  38.62400 7.31500 26.01200
H  44.49400 9.57600 26.66300
H  41.67600 8.95900 34.73500
H  38.89300 9.20300 34.04000
H  38.64100 7.59600 35.41600
H  40.31700 7.29400 35.55500
H  39.52400 6.48800 34.27500
H  39.73500 10.92200 35.01100
H  40.80200 11.67800 33.78400
H  42.35300 12.14000 35.33100
H  42.31400 10.66400 36.08000
H  36.16500 6.45900 31.80800
H  35.54200 5.52200 30.43900
H  35.15200 7.34400 30.75200
H  34.21300 5.87100 26.85100
H  34.33700 7.26400 27.95300
H  34.55500 5.57200 28.60800
H  40.33700 9.08300 24.61600
H  43.09800 8.07300 25.03700
H  40.21700 7.22500 23.36200
H  40.37300 6.22900 24.78100
H  41.86000 6.67900 24.03700
H  42.02100 10.04000 23.68500
H  43.64600 10.35300 24.42500
H  42.56600 12.29200 25.21600
H  41.77000 11.29900 26.44200
H  40.99700 11.57500 24.83600
H  46.72500 11.34900 28.54300
H  46.50700 9.72500 27.85500
H  47.41400 9.85900 29.36400
H  43.58900 11.47000 33.42100
H  44.89200 9.01900 36.67200
H  45.05900 10.71500 37.17600
H  46.52300 9.87000 36.61100
Mg 49.89100 44.61400 41.46600
C  46.66700 45.09500 40.17200
C  49.92700 41.48200 40.01400
C  53.26000 44.40800 41.82100
C  50.06900 48.05500 42.14300
N  48.44800 43.42800 40.31600
C  47.20000 43.78900 39.96500
C  46.50000 42.72500 39.07000
C  47.49500 41.44200 39.35500
C  48.68600 42.13600 39.88700
C  46.91600 40.39000 40.32900
C  46.47200 43.14900 37.57000
C  45.16200 43.15500 36.69900
H  45.34000 42.55500 35.34600
N  51.38400 43.04500 41.17700
C  51.20000 41.87100 40.54000
C  52.42500 41.09800 40.66500
C  53.44400 42.00000 41.09100
C  52.67600 43.22600 41.39600
C  52.40600 39.66100 40.15700
C  54.87800 41.64100 41.28300
O  55.22400 40.49100 41.03400
C  55.93000 42.56400 41.77800
N  51.38000 46.08000 41.94900
C  52.65200 45.66100 42.08000
C  53.54400 46.83300 42.55000
C  52.60700 48.08500 42.40000
C  51.27800 47.38100 42.21700
C  54.30000 46.62400 43.87600
C  52.95400 49.05700 41.17400
C  53.17800 50.53600 41.53600
N  48.56900 46.20500 41.42800
C  48.77200 47.57000 41.74400
C  47.57300 48.35400 41.41100
C  46.77100 47.37100 40.73900
C  47.38200 46.16500 40.80600
C  47.39600 49.86200 41.50800
C  45.54800 47.24400 39.94700
O  44.79600 48.11100 39.51200
C  45.39300 45.75500 39.52700
C  44.19600 45.23700 40.08600
O  44.10500 44.59500 41.13200
O  43.18600 45.51800 39.19600
C  41.90800 45.00900 39.51300
H  49.93600 40.44000 39.69000
H  54.33800 44.48900 41.97900
H  50.15000 49.12800 42.32800
H  45.50200 42.61100 39.49500
H  47.68600 40.88300 38.43900
H  47.31300 39.40500 40.08100
H  45.84200 40.56800 40.28400
H  47.21400 40.54400 41.36600
H  47.29000 42.60700 37.09500
H  46.93700 44.13300 37.51800
H  44.84500 44.17400 36.47900
H  44.33500 42.67500 37.22300
H  53.30500 39.12800 40.46800
H  52.61000 39.63600 39.08600
H  51.45700 39.17000 40.37200
H  55.62700 43.13300 42.65700
H  56.00800 43.21600 40.90900
H  56.89400 42.08100 41.93900
H  54.36200 46.73800 41.83600
H  52.51800 48.61800 43.34600
H  55.34800 46.78400 43.62200
H  54.00300 45.65800 44.28300
H  53.86500 47.32800 44.58500
H  52.12100 48.93900 40.48000
H  53.86300 48.62400 40.75500
H  54.11200 50.93700 41.14100
H  53.12900 50.69500 42.61300
H  52.33100 51.11700 41.17000
H  47.03300 49.99800 42.52600
H  46.76900 50.32000 40.74200
H  48.35400 50.37300 41.40600
H  45.42400 45.65000 38.44300
H  41.83700 44.77600 40.57600
H  41.59600 44.04400 39.11600
H  41.22100 45.80500 39.22800

