158

Mg 1.68300 7.83400 25.83400
C  2.39300 9.73400 28.68900
C  1.71600 4.97200 27.74200
C  1.10700 6.10800 23.04600
C  2.44700 10.72500 23.94100
N  2.14300 7.47600 27.96700
C  2.26700 8.38600 29.00300
C  2.36900 7.72300 30.38900
C  2.45800 6.14200 29.94100
C  2.02200 6.18100 28.48200
C  3.80400 5.32500 30.16100
C  1.24300 7.89900 31.47300
C  1.90100 8.05200 32.89200
H  2.95100 7.08200 33.35300
N  1.36000 5.78600 25.42000
C  1.30800 4.82400 26.35400
C  0.93900 3.57100 25.76200
C  0.80100 3.84100 24.38600
C  1.03200 5.30700 24.20100
C  0.79700 2.34300 26.58300
C  0.42700 2.93600 23.23800
O  0.04900 3.34100 22.13900
C  0.44800 1.51100 23.44300
N  1.79700 8.38600 23.80500
C  1.40800 7.50500 22.84500
C  1.43600 8.16500 21.46200
C  1.94400 9.59700 21.72400
C  2.04000 9.57700 23.28000
C  2.13700 7.39500 20.38900
C  1.12800 10.77200 21.08400
C  1.82700 11.66300 20.08100
N  2.28000 9.82300 26.18000
C  2.57300 10.88900 25.31300
C  2.74300 12.10300 26.12000
C  2.72000 11.64400 27.40300
C  2.50000 10.29000 27.42000
C  2.83600 13.53800 25.76900
C  2.78000 12.15700 28.75700
O  2.98000 13.31500 29.11000
C  2.56700 10.90600 29.64700
C  3.87600 10.83000 30.45600
O  4.97500 10.32500 30.12400
O  3.57700 11.39500 31.68100
C  4.67100 11.26100 32.64500
H  1.58700 4.09700 28.38400
H  0.82400 5.66800 22.08800
H  2.82200 11.61200 23.42500
H  3.26900 8.07500 30.89200
H  1.71200 5.51700 30.43200
H  4.35800 5.26400 29.22500
H  3.58900 4.35700 30.61300
H  4.39700 5.82800 30.92600
H  0.59000 7.03500 31.59400
H  0.67200 8.79100 31.21400
H  0.93300 8.03800 33.39300
H  2.25700 9.07900 32.96500
H  -0.08700 1.89400 26.12900
H  0.65100 2.53500 27.64600
H  1.71300 1.79900 26.35300
H  -0.46500 1.25100 23.98000
H  1.26500 1.32200 24.13900
H  0.59200 1.00200 22.49000
H  0.36700 8.17200 21.24700
H  2.99200 9.76300 21.47100
H  1.47300 6.58500 20.08600
H  3.09100 6.99700 20.73300
H  2.09000 8.11800 19.57400
H  0.76600 11.29800 21.96800
H  0.23000 10.35900 20.62500
H  2.83400 11.32900 19.83100
H  1.95700 12.68500 20.43600
H  1.12500 11.69800 19.24700
H  1.92900 13.95000 26.21100
H  2.70100 13.76100 24.71000
H  3.67000 13.99800 26.29800
H  1.74500 11.10000 30.33600
H  4.97900 10.21700 32.58300
H  4.33500 11.56600 33.63500
H  5.51100 11.94200 32.50400
Mg 9.29600 47.86600 27.42300
C  7.52000 47.44700 30.35100
C  12.10900 48.49700 29.28800
C  10.88200 48.53600 24.55400
C  6.18300 47.92600 25.58500
N  9.69300 48.13600 29.57700
C  8.87900 47.66100 30.58500
C  9.55900 47.98700 31.93400
C  11.07600 48.09000 31.57400
C  10.94500 48.20700 30.07100
C  11.68000 49.31700 32.26300
C  9.26800 46.92400 32.99600
C  10.33000 46.49300 34.06700
H  9.83800 45.80200 35.35300
N  11.24900 48.54300 26.96600
C  12.27000 48.68800 27.88100
C  13.46500 48.97500 27.20100
C  13.22200 48.90200 25.80400
C  11.75900 48.69500 25.73800
C  14.87500 49.08600 27.85800
C  14.16200 49.01600 24.60600
O  13.80300 48.95700 23.44800
C  15.60700 49.06500 24.89000
N  8.57400 48.14600 25.33000
C  9.52300 48.38700 24.35900
C  8.79000 48.59800 22.98100
C  7.29100 48.33800 23.29600
C  7.33800 48.06800 24.80000
C  9.14700 50.11400 22.49800
C  6.72400 47.18200 22.45600
C  6.66600 47.52600 20.95600
N  7.27400 47.51200 27.83200
C  6.18300 47.62500 26.99700
C  4.97300 47.37900 27.84000
C  5.48200 47.28700 29.13100
C  6.85300 47.38500 29.06800
C  3.51700 47.46400 27.47600
C  5.10500 47.09300 30.48200
O  3.95000 46.89700 30.90700
C  6.42100 47.19800 31.37700
C  6.48700 45.87200 32.11100
O  7.02500 44.86800 31.70300
O  5.66400 46.00500 33.24400
C  5.66500 44.85900 34.19800
H  13.10100 48.54900 29.74000
H  11.48200 48.60900 23.64400
H  5.19200 48.02800 25.13600
H  9.03000 48.90600 32.18500
H  11.56900 47.13000 31.73100
H  12.75200 49.32300 32.46300
H  11.09700 49.43100 33.17700
H  11.53500 50.14100 31.56500
H  9.03700 46.04200 32.39700
H  8.33900 47.23300 33.47500
H  10.70200 47.45900 34.40900
H  11.14100 45.96300 33.56800
H  15.45900 48.24200 27.49300
H  14.93300 49.04600 28.94500
H  15.22400 50.10400 27.68200
H  15.83500 49.88400 25.57200
H  16.09000 49.19900 23.92200
H  15.86300 48.05900 25.22100
H  9.31900 47.94600 22.28600
H  6.82500 49.31500 23.16900
H  9.88800 50.13700 21.69900
H  9.50800 50.70600 23.33900
H  8.23600 50.57800 22.12000
H  5.67500 47.04300 22.71800
H  7.12100 46.21900 22.77900
H  6.84400 46.64300 20.34200
H  7.35500 48.34500 20.74800
H  5.68200 47.81700 20.58700
H  3.11400 48.46100 27.65200
H  2.93400 46.76900 28.08100
H  3.40700 47.27900 26.40800
H  6.36700 48.02500 32.08500
H  5.62300 45.14400 35.24900
H  6.44800 44.10100 34.15800
H  4.64200 44.51100 34.05100

