158

Mg 24.20700 -4.70600 45.63700
C  26.00800 -2.04500 44.43500
C  21.37000 -3.71400 43.82500
C  22.76600 -7.56300 46.45200
C  27.14100 -5.73400 47.37700
N  23.89900 -3.28200 44.01500
C  24.77500 -2.25200 43.79400
C  24.16500 -1.33600 42.72100
C  22.65200 -1.64700 42.88900
C  22.61500 -2.94000 43.63800
C  21.99200 -0.54300 43.70200
C  24.62400 -1.77100 41.32300
C  25.60100 -0.91500 40.46200
H  26.66300 -1.61900 39.59400
N  22.30800 -5.46900 45.24200
C  21.24000 -4.87200 44.57700
C  20.10300 -5.76700 44.74700
C  20.47400 -6.95100 45.45000
C  21.91200 -6.69000 45.71900
C  18.79000 -5.43100 44.10200
C  19.61700 -8.20900 45.68900
O  18.39100 -8.24000 45.40400
C  20.05800 -9.46800 46.41500
N  24.82600 -6.33400 46.73000
C  24.01800 -7.38200 46.95800
C  24.62600 -8.54200 47.84600
C  25.92600 -7.84000 48.32900
C  26.01200 -6.55100 47.40900
C  23.74900 -9.09800 48.99700
C  27.17900 -8.72900 48.19600
C  27.99300 -8.88800 49.48900
N  26.19800 -4.07400 45.92500
C  27.25600 -4.52600 46.70300
C  28.42600 -3.65700 46.52300
C  27.96700 -2.68400 45.61300
C  26.62300 -2.93800 45.36500
C  29.78500 -3.88100 47.22000
C  28.35800 -1.46300 44.96400
O  29.39800 -0.81400 44.98900
C  27.09900 -1.00200 44.07400
C  26.66900 0.33400 44.55600
O  26.28500 0.59900 45.67400
O  26.93100 1.25800 43.62200
C  26.88100 2.66900 43.97900
H  20.44800 -3.31400 43.39900
H  22.43400 -8.56800 46.71900
H  27.98700 -6.16900 47.91200
H  24.36600 -0.29100 42.95300
H  22.14600 -1.85300 41.94600
H  22.61700 -0.18400 44.52000
H  20.99600 -0.78300 44.07400
H  21.95200 0.43400 43.22100
H  23.72400 -1.95300 40.73600
H  25.14600 -2.70500 41.52900
H  26.04000 -0.13300 41.08200
H  24.89700 -0.39100 39.81600
H  18.36300 -6.24600 43.51800
H  18.80200 -4.60900 43.38600
H  18.16200 -5.05200 44.90900
H  20.32000 -9.11700 47.41300
H  20.93300 -9.77600 45.84300
H  19.20200 -10.13700 46.32600
H  24.94200 -9.30300 47.13200
H  25.83600 -7.49300 49.35900
H  23.58600 -10.14600 48.74300
H  22.80000 -8.56900 49.07900
H  24.24400 -9.00600 49.96400
H  27.91900 -8.33200 47.50200
H  26.89200 -9.76800 48.03500
H  29.06400 -9.01400 49.32900
H  27.64500 -9.73500 50.08000
H  27.91500 -7.95800 50.05400
H  30.01900 -4.91600 46.97200
H  29.72400 -3.78300 48.30400
H  30.46400 -3.15200 46.77800
H  27.28300 -1.05900 43.00100
H  27.77700 3.00400 44.50200
H  25.99700 2.85500 44.59000
H  26.73500 3.21000 43.04400
Mg 34.93300 3.33300 30.41600
C  32.62500 4.44600 32.85200
C  37.31400 3.56700 32.61000
C  37.17900 2.92100 27.76100
C  32.36500 3.58000 28.01100
N  34.90200 4.04900 32.37600
C  33.91300 4.22400 33.34100
C  34.28700 4.26900 34.78300
C  35.82200 4.12800 34.63900
C  36.01600 3.91700 33.09900
C  36.66900 5.28100 35.37700
C  33.61800 3.04400 35.48600
C  33.10500 3.38800 36.89100
H  33.74500 4.55200 37.59100
N  36.98100 3.06100 30.21400
C  37.76700 3.30500 31.30600
C  39.09000 2.97200 30.88500
C  39.09900 2.65100 29.48400
C  37.73600 2.86900 29.06400
C  40.26100 3.15700 31.84400
C  40.30800 2.29100 28.55800
O  40.24700 2.14700 27.33700
C  41.68400 1.98200 29.06800
N  34.72000 3.24300 28.17100
C  35.85000 3.05400 27.37500
C  35.35500 3.02500 25.88600
C  33.84600 3.20300 25.96600
C  33.60000 3.26800 27.43600
C  36.04200 3.99600 24.81000
C  33.09500 2.08700 25.13800
C  32.66800 0.70200 25.74100
N  32.87300 3.89300 30.41800
C  31.93100 3.84900 29.30700
C  30.62100 4.29800 29.81300
C  30.83500 4.44100 31.23000
C  32.24300 4.23100 31.52400
C  29.37200 4.54900 28.99500
C  30.22100 4.82600 32.42600
O  29.07500 5.12500 32.68900
C  31.37000 4.73300 33.51800
C  31.26900 5.99600 34.26400
O  31.99800 6.95300 34.19500
O  30.35400 5.78700 35.22900
C  30.34800 6.82000 36.21600
H  38.10900 3.60500 33.35700
H  37.95300 2.89100 26.99100
H  31.53300 3.77100 27.32900
H  34.04300 5.27200 35.13300
H  36.13000 3.15400 35.02000
H  36.90900 6.01000 34.60300
H  37.62200 4.84700 35.67700
H  36.11100 5.64000 36.24200
H  34.27300 2.20200 35.71100
H  32.90900 2.64600 34.76000
H  33.28500 2.46400 37.44000
H  32.02400 3.50800 36.96400
H  41.22800 2.74400 31.55700
H  39.98400 2.67900 32.78300
H  40.49200 4.21000 32.00300
H  41.60700 1.21000 29.83400
H  42.04300 2.95000 29.41800
H  42.23100 1.51000 28.25200
H  35.69300 2.03000 25.59400
H  33.59200 4.17100 25.53400
H  36.78300 3.41300 24.26400
H  36.53100 4.84300 25.28900
H  35.25400 4.50200 24.25100
H  33.54500 1.92700 24.15800
H  32.17700 2.61300 24.87600
H  31.76800 0.98800 26.28500
H  33.41600 0.43900 26.49000
H  32.63200 -0.07200 24.97400
H  29.54500 5.36000 28.28800
H  28.58100 4.76700 29.71300
H  29.15800 3.62100 28.46500
H  31.17200 3.90200 34.19500
H  29.69100 7.64200 35.93200
H  31.33100 7.23500 36.44000
H  29.97600 6.37900 37.14100

