158

Mg 35.05400 49.81600 26.27600
C  35.43900 47.75500 28.98800
C  33.94800 52.26400 28.30200
C  34.05900 51.45400 23.53500
C  36.12800 47.13300 24.16100
N  34.68900 49.97200 28.41800
C  34.90600 48.97200 29.30700
C  34.76800 49.52600 30.74000
C  33.93300 50.83700 30.44500
C  34.14100 51.05000 28.97600
C  32.40500 50.92000 30.98800
C  36.20500 49.87200 31.29500
C  36.42400 49.44400 32.80500
H  36.33800 50.55600 33.88300
N  34.37000 51.73900 25.97200
C  34.00300 52.58900 26.91700
C  33.75500 53.94200 26.30800
C  33.65000 53.61100 24.90100
C  34.06800 52.19900 24.74400
C  33.59800 55.19400 27.08900
C  33.38600 54.58600 23.63300
O  33.42100 54.16900 22.47200
C  32.98800 56.08600 23.89500
N  35.01500 49.24200 24.14700
C  34.55100 50.13100 23.27700
C  34.62000 49.61300 21.82500
C  35.50100 48.26800 21.90100
C  35.61200 48.19700 23.47700
C  33.26700 49.35600 21.01400
C  36.98100 48.32700 21.36700
C  37.46600 47.00100 20.75000
N  35.61600 47.73500 26.44700
C  36.10000 46.84700 25.55100
C  36.47400 45.63500 26.26000
C  36.30300 45.97600 27.62000
C  35.71300 47.26000 27.68200
C  36.98200 44.38100 25.66700
C  36.35800 45.42600 28.94900
O  36.79900 44.38600 29.41400
C  35.86700 46.57500 29.86600
C  34.87900 46.12900 30.87600
O  33.81900 45.53900 30.60300
O  35.39700 46.26700 32.16100
C  34.70700 45.41500 33.17400
H  33.44100 53.08500 28.81300
H  33.57100 51.91800 22.67500
H  36.56300 46.44200 23.43600
H  34.11300 48.83700 31.27300
H  34.35900 51.71700 30.92600
H  31.65000 50.72500 30.22700
H  32.27100 51.99100 31.14400
H  32.19700 50.38100 31.91200
H  36.30700 50.94900 31.16200
H  36.93100 49.37600 30.65100
H  37.42700 49.02400 32.88400
H  35.72000 48.65200 33.05900
H  34.56200 55.69300 27.19200
H  33.38500 54.98400 28.13700
H  32.96600 55.93600 26.60200
H  32.00900 56.21600 24.35600
H  32.92200 56.62900 22.95200
H  33.78800 56.61200 24.41500
H  35.27700 50.17400 21.16100
H  34.86900 47.44600 21.56600
H  33.23700 48.37800 20.53500
H  33.33600 50.08900 20.21000
H  32.35700 49.48900 21.60000
H  37.72100 48.50000 22.14900
H  37.20700 49.12700 20.66200
H  37.67000 47.15000 19.69000
H  36.61900 46.31600 20.80700
H  38.36100 46.64800 21.26200
H  37.96700 44.62000 25.26500
H  36.38100 44.11900 24.79600
H  36.95000 43.53100 26.34900
H  36.77200 46.98800 30.31200
H  34.08800 44.65400 32.69900
H  34.03800 45.97400 33.82800
H  35.32200 44.85000 33.87400
Mg 1.35400 43.02800 25.76400
C  3.50700 42.93100 28.53800
C  -1.36300 42.60300 27.87600
C  -0.82700 42.39000 23.11000
C  3.99900 42.93700 23.72800
N  1.10000 42.76700 27.94600
C  2.19000 42.78000 28.89600
C  1.69400 42.73600 30.30400
C  0.13900 42.29100 30.06000
C  -0.09900 42.58300 28.55100
C  -0.32900 40.92500 30.51200
C  1.88300 44.12900 30.96400
C  2.00100 44.17300 32.46600
H  1.70500 42.85800 33.22300
N  -0.87300 42.75300 25.51400
C  -1.76600 42.63500 26.56100
C  -3.04700 42.42400 26.03300
C  -2.94400 42.29500 24.59800
C  -1.53400 42.48200 24.32800
C  -4.23800 42.24700 26.93200
C  -4.01800 42.15700 23.56100
O  -3.73800 42.19400 22.36100
C  -5.43300 41.91700 23.97400
N  1.55400 42.57000 23.81600
C  0.58000 42.50000 22.87000
C  1.15400 42.44100 21.46700
C  2.45000 43.06900 21.67500
C  2.69900 42.76500 23.21300
C  1.13100 40.94400 20.88700
C  2.63000 44.56900 21.36000
C  3.84900 44.95800 20.46500
N  3.41800 42.95300 26.01100
C  4.36700 43.04200 25.08700
C  5.66200 43.19300 25.74100
C  5.36700 43.10700 27.09300
C  3.99800 42.99500 27.23300
C  6.98600 43.24600 25.12200
C  5.88000 43.19100 28.43900
O  7.03800 43.34500 28.73100
C  4.76100 43.01800 29.47000
C  4.92800 41.82000 30.27300
O  4.62100 40.67200 29.94500
O  5.31400 42.17000 31.48600
C  5.45600 41.06900 32.47900
H  -2.06700 42.36300 28.67600
H  -1.43900 42.31000 22.21000
H  4.82200 42.96400 23.01000
H  2.30500 42.05800 30.90000
H  -0.51200 42.97300 30.60900
H  -0.80900 40.33000 29.73500
H  -0.96400 41.16900 31.36500
H  0.53500 40.36300 30.86600
H  1.03700 44.65800 30.52400
H  2.71500 44.64800 30.48800
H  1.34100 44.88700 32.95800
H  3.03700 44.42700 32.68900
H  -4.67600 43.23900 27.04300
H  -3.86500 41.82600 27.86600
H  -4.96900 41.55900 26.50700
H  -5.61700 40.92900 24.39700
H  -6.08500 42.02000 23.10600
H  -5.89900 42.68500 24.59100
H  0.58700 43.08000 20.78900
H  3.30200 42.54800 21.23900
H  0.81800 40.26700 21.68100
H  2.09000 40.74000 20.41100
H  0.40200 40.91000 20.07700
H  2.85100 45.05600 22.31000
H  1.71800 45.01600 20.96500
H  3.48100 45.53200 19.61600
H  4.40600 44.07300 20.15600
H  4.62000 45.46700 21.04400
H  7.65900 42.41800 25.34800
H  7.49800 44.10200 25.56000
H  7.06000 43.44800 24.05400
H  4.81300 43.90500 30.10200
H  6.46500 40.70600 32.28300
H  4.70100 40.28500 32.42100
H  5.49300 41.56700 33.44700

