158

Mg 49.55500 45.74900 41.86800
C  46.20100 46.26300 41.11900
C  49.42000 42.75800 40.56300
C  52.96800 45.62100 42.32100
C  49.75800 49.22000 42.76900
N  48.09000 44.80000 40.67100
C  46.79500 45.15900 40.48500
C  45.97300 44.07300 39.72300
C  46.93900 42.84400 39.85200
C  48.20600 43.46300 40.48800
C  46.30000 41.70200 40.64600
C  45.59100 44.57100 38.31800
C  44.20100 44.25400 37.66400
H  44.13200 43.21000 36.64300
N  50.97700 44.35100 41.51000
C  50.70600 43.12300 40.99500
C  52.00900 42.31600 40.84000
C  53.05600 43.07000 41.47100
C  52.38600 44.41700 41.86100
C  52.13400 41.04300 40.14900
C  54.46600 42.61600 41.61100
O  54.80300 41.48200 41.21900
C  55.52000 43.48300 42.23500
N  51.14100 47.28600 42.36400
C  52.44000 46.89000 42.58200
C  53.29600 48.06800 43.05800
C  52.27900 49.28900 42.99900
C  50.97300 48.58100 42.67100
C  54.01500 47.95000 44.44200
C  52.61600 50.49600 42.16400
C  51.92400 51.88900 42.61400
N  48.29500 47.39700 42.02400
C  48.48800 48.72200 42.53700
C  47.18400 49.31200 42.66000
C  46.27300 48.37900 42.21800
C  46.98100 47.23500 41.76800
C  46.87300 50.71300 43.12000
C  44.84600 48.05300 42.01100
O  43.87100 48.62900 42.50000
C  44.76200 46.76300 41.18000
C  43.76000 45.76700 41.79600
O  42.86200 45.17800 41.16600
O  43.88900 45.78500 43.20200
C  42.88200 44.91600 43.81200
H  49.20700 41.76300 40.16600
H  54.05700 45.66000 42.39000
H  49.65800 50.25200 43.11100
H  45.07400 43.94300 40.32600
H  47.19900 42.50800 38.84800
H  46.41100 41.69500 41.73100
H  46.62500 40.74800 40.23100
H  45.21300 41.77700 40.65300
H  46.29700 44.20100 37.57400
H  45.78700 45.64200 38.26300
H  43.68400 45.18600 37.43700
H  43.62800 43.85100 38.49900
H  52.90600 40.99700 39.38000
H  51.20100 40.75300 39.66500
H  52.36800 40.25400 40.86300
H  55.12800 43.95500 43.13600
H  55.93800 44.18500 41.51300
H  56.29100 42.77200 42.53100
H  54.10400 48.16000 42.33300
H  52.10200 49.61700 44.02400
H  53.76600 48.82800 45.03700
H  55.09400 47.84000 44.33300
H  53.74900 47.01100 44.92800
H  52.29800 50.23500 41.15500
H  53.68400 50.71100 42.11700
H  52.70600 52.64700 42.65700
H  51.53500 51.76200 43.62400
H  51.13800 52.21200 41.93200
H  47.17400 51.54600 42.48400
H  47.41400 50.81500 44.06100
H  45.80300 50.68200 43.32400
H  44.31900 47.13300 40.25500
H  42.99800 43.93300 43.35500
H  41.88300 45.27200 43.56000
H  43.14600 44.85000 44.86700
Mg -1.94400 35.32100 27.12400
C  -3.98700 34.07600 29.67100
C  -1.02900 37.93900 29.07800
C  -0.34600 36.72500 24.41000
C  -3.15000 32.80400 24.97900
N  -2.46200 35.91400 29.23800
C  -3.27900 35.23100 30.06700
C  -3.30000 35.89400 31.48700
C  -2.40600 37.20700 31.23700
C  -1.95400 37.02100 29.72800
C  -3.13700 38.55900 31.44100
C  -2.68000 35.00000 32.65100
C  -3.30400 35.11300 33.99900
H  -2.70100 36.18700 34.85700
N  -0.93700 37.05400 26.77800
C  -0.67900 38.04100 27.69000
C  0.09500 39.12200 27.12800
C  0.27000 38.80500 25.73500
C  -0.32100 37.46800 25.59000
C  0.43100 40.36200 27.96000
C  0.95800 39.67600 24.66500
O  0.78700 39.46400 23.49400
C  1.82400 40.92700 25.04200
N  -1.76100 34.85600 24.95800
C  -0.97500 35.50600 24.12000
C  -0.86800 34.88200 22.73100
C  -1.91500 33.75300 22.87400
C  -2.28900 33.77700 24.36400
C  -0.93400 35.83800 21.47200
C  -1.42500 32.41700 22.35000
C  -2.14100 32.04600 21.03800
N  -3.14400 33.73100 27.25800
C  -3.59100 32.79100 26.34900
C  -4.54400 31.90400 26.92200
C  -4.64500 32.37800 28.24400
C  -3.81800 33.51200 28.39100
C  -5.28700 30.82100 26.21100
C  -5.23700 31.93700 29.48300
O  -5.92700 31.01200 29.84900
C  -4.75300 33.10000 30.44100
C  -5.95800 33.72700 31.02100
O  -6.53100 34.66900 30.50100
O  -6.28000 33.08300 32.17400
C  -7.46600 33.65800 32.78500
H  -0.81700 38.70400 29.82800
H  0.26700 37.14700 23.61100
H  -3.59300 31.99700 24.39100
H  -4.31200 36.26000 31.65900
H  -1.52700 37.16400 31.88100
H  -2.56900 39.10400 32.19500
H  -4.17300 38.41300 31.74500
H  -3.36900 39.07700 30.51000
H  -1.66200 35.28800 32.91400
H  -2.72200 33.96800 32.30200
H  -3.19800 34.15100 34.50100
H  -4.36600 35.27500 33.81900
H  1.41300 40.33400 28.43100
H  -0.36200 40.52400 28.68900
H  0.52200 41.25000 27.33500
H  2.36900 40.83900 25.98100
H  1.09000 41.72300 25.17100
H  2.55000 41.10700 24.24900
H  0.09900 34.38000 22.72900
H  -2.81300 34.16700 22.41700
H  -1.50000 36.74300 21.69700
H  -1.59600 35.35300 20.75600
H  0.05400 36.04300 21.05900
H  -1.74200 31.63400 23.03900
H  -0.36000 32.18800 22.29700
H  -2.97300 31.39400 21.30600
H  -1.36600 31.55500 20.44900
H  -2.42600 32.95400 20.50600
H  -6.20600 30.58400 26.74600
H  -4.83100 29.85300 26.00000
H  -5.57600 31.32900 25.29100
H  -4.28000 32.61800 31.29700
H  -8.16800 33.80700 31.96500
H  -7.21200 34.53700 33.37700
H  -8.02200 32.99500 33.44700

