158

Mg 8.56400 2.84900 26.62300
C  9.90600 1.36200 29.53500
C  6.71200 4.98800 28.70100
C  7.22800 4.07700 23.97300
C  10.12600 0.21200 24.70700
N  8.27100 3.09600 28.85600
C  9.04100 2.47700 29.86700
C  8.69900 3.08900 31.24000
C  7.55000 4.06700 30.95400
C  7.51400 4.12900 29.37400
C  6.26000 3.74800 31.67000
C  9.96200 3.61100 31.96000
C  9.81800 4.64000 33.11500
H  10.69000 4.19900 34.31900
N  7.24200 4.35800 26.37900
C  6.52800 5.10200 27.31800
C  5.68700 6.05900 26.63300
C  5.85200 5.84900 25.20000
C  6.82800 4.75200 25.15300
C  4.82400 7.09200 27.35900
C  5.17800 6.63000 24.03400
O  5.44700 6.40900 22.89600
C  4.27500 7.75800 24.30900
N  8.72500 2.23300 24.74000
C  8.01100 2.97000 23.77400
C  8.07200 2.32600 22.45300
C  9.06600 1.23600 22.69000
C  9.29100 1.15100 24.11300
C  6.63600 1.81600 22.06000
C  10.45300 1.30600 21.93000
C  10.87000 0.01600 21.15800
N  9.79400 1.14400 26.99000
C  10.39000 0.22800 26.10700
C  11.21900 -0.68100 26.88500
C  11.03000 -0.31900 28.25200
C  10.17000 0.77000 28.25700
C  12.09600 -1.85400 26.36200
C  11.36500 -0.61900 29.65800
O  12.01400 -1.50600 30.16300
C  10.63500 0.40100 30.49500
C  9.70400 -0.34500 31.34500
O  8.64400 -0.86100 30.97300
O  10.16300 -0.28100 32.68300
C  9.33300 -1.00200 33.65200
H  6.20200 5.74400 29.30100
H  6.75200 4.42200 23.05200
H  10.45900 -0.59300 24.04900
H  8.38800 2.21000 31.80500
H  7.83500 5.06100 31.29800
H  6.19200 2.67300 31.83500
H  5.40200 4.00300 31.04800
H  6.00100 4.34000 32.54800
H  10.62500 4.08400 31.23600
H  10.49400 2.72500 32.30700
H  8.76900 4.64500 33.41400
H  10.13800 5.62500 32.77700
H  4.95000 7.27300 28.42700
H  3.74900 6.97600 27.22200
H  4.98200 8.09500 26.96400
H  3.87800 8.04500 23.33600
H  4.73900 8.58400 24.84800
H  3.50500 7.39800 24.99100
H  8.40400 2.97800 21.64500
H  8.58500 0.27700 22.49800
H  6.53200 0.74500 21.88200
H  6.42800 2.37200 21.14600
H  5.85800 1.99500 22.80100
H  11.23900 1.58200 22.63300
H  10.30100 2.04600 21.14500
H  11.18900 0.23700 20.14000
H  10.01200 -0.62000 20.93800
H  11.66700 -0.48400 21.70900
H  11.55800 -2.44400 25.62000
H  12.52300 -2.47500 27.15000
H  13.04700 -1.52300 25.94300
H  11.32700 1.00300 31.08400
H  9.61800 -2.04900 33.55000
H  8.24900 -0.89200 33.65500
H  9.63800 -0.67800 34.64700
Mg 17.25400 -1.54400 28.04800
C  15.99700 0.55300 30.55100
C  19.22100 -3.05400 30.43500
C  18.94100 -3.06600 25.48600
C  15.55900 0.37900 25.64500
N  17.46700 -1.27600 30.27500
C  16.86400 -0.42200 31.10500
C  17.12600 -0.75200 32.62700
C  18.40600 -1.69400 32.51200
C  18.39800 -2.03000 30.94800
C  19.67800 -0.98000 33.00300
C  15.91000 -1.58000 33.15900
C  15.58700 -1.24700 34.54400
H  16.44100 -0.35900 35.49500
N  18.67400 -3.05000 28.00300
C  19.37100 -3.53500 29.10500
C  20.25300 -4.52700 28.62000
C  20.26300 -4.48500 27.17100
C  19.22700 -3.52600 26.82400
C  21.20100 -5.24000 29.53600
C  21.18800 -5.20000 26.16000
O  21.20300 -5.08600 24.97800
C  22.39900 -6.02400 26.70200
N  17.49500 -1.20600 25.82900
C  18.11200 -2.02000 25.00200
C  17.99500 -1.66800 23.53200
C  16.68800 -0.75400 23.65100
C  16.57200 -0.41600 25.13200
C  19.23300 -0.91200 22.95700
C  15.45000 -1.39700 23.06700
C  14.88400 -0.79600 21.72700
N  16.00800 0.05200 28.08900
C  15.31500 0.65700 26.97600
C  14.47000 1.77600 27.52700
C  14.66700 1.68300 28.93600
C  15.69700 0.72100 29.19500
C  13.61700 2.76900 26.72900
C  14.41800 2.37400 30.24200
O  13.75400 3.36300 30.50800
C  15.30300 1.63700 31.29900
C  16.11800 2.62000 32.07100
O  17.23400 2.96200 31.88700
O  15.36200 3.05700 33.14400
C  15.93300 4.14100 33.97800
H  19.79400 -3.55400 31.21800
H  19.50400 -3.60600 24.72300
H  15.01400 0.92300 24.87100
H  17.35900 0.24100 33.00900
H  18.29000 -2.60900 33.09400
H  19.41000 -0.04700 33.49800
H  20.58100 -0.97400 32.39100
H  20.06500 -1.48600 33.88700
H  16.10700 -2.64900 33.08100
H  15.04100 -1.34800 32.54300
H  15.48700 -2.16300 35.12600
H  14.61400 -0.77100 34.43200
H  21.11900 -6.30400 29.31300
H  20.91700 -4.98300 30.55600
H  22.17800 -4.78600 29.37300
H  23.10000 -5.29100 27.10300
H  22.87800 -6.61500 25.92100
H  21.97400 -6.66600 27.47300
H  17.88200 -2.56200 22.91900
H  16.95600 0.15900 23.11900
H  20.17700 -1.12200 23.46100
H  19.08200 0.16700 22.99800
H  19.43900 -1.25300 21.94300
H  14.64500 -1.45000 23.80000
H  15.75400 -2.41200 22.81200
H  15.09200 0.26400 21.57800
H  13.81700 -0.94400 21.56700
H  15.29500 -1.29800 20.85200
H  12.70100 2.18700 26.61700
H  14.13200 3.09600 25.82600
H  13.48600 3.69700 27.28500
H  14.74900 1.18400 32.12100
H  16.25700 4.95300 33.32600
H  16.75800 3.73800 34.56500
H  15.18800 4.58000 34.64100

