158

Mg 46.00900 4.75600 48.21000
C  43.73600 7.20200 47.45100
C  43.37200 2.47300 47.69400
C  48.17000 2.20800 48.12000
C  48.62500 7.06800 47.47100
N  43.71400 4.87800 47.82100
C  43.04800 5.96200 47.40200
C  41.60700 5.67800 46.92300
C  41.45400 4.19100 47.37800
C  42.89500 3.82700 47.72100
C  40.43200 4.03200 48.52200
C  41.68600 5.88400 45.37400
C  40.78100 7.03500 44.78800
H  41.33600 7.92600 43.65300
N  45.81100 2.66700 48.04800
C  44.64800 1.93400 47.84900
C  45.03200 0.54800 47.67400
C  46.38500 0.34300 47.89600
C  46.83800 1.72700 48.11300
C  44.01400 -0.56800 47.31900
C  47.21800 -0.93600 47.71000
O  46.61100 -2.01400 47.52800
C  48.65500 -0.97400 47.73700
N  48.07400 4.60800 47.98200
C  48.77600 3.44300 48.13300
C  50.31300 3.65300 47.96100
C  50.45600 5.22600 47.85400
C  48.98800 5.67800 47.76200
C  50.97900 3.01700 49.21900
C  51.35100 5.80000 46.79500
C  52.56300 6.58500 47.31700
N  46.23100 6.71800 47.77700
C  47.31500 7.51400 47.50700
C  46.92900 8.89500 47.50100
C  45.53600 8.83800 47.43600
C  45.12300 7.48100 47.63100
C  47.89000 10.08400 47.56800
C  44.37300 9.67200 47.34800
O  44.29500 10.90600 47.15900
C  43.13600 8.63900 47.31500
C  42.10000 8.97700 48.33500
O  41.94800 8.32200 49.35300
O  41.15100 9.87000 47.82400
C  40.12400 10.16800 48.76800
H  42.53900 1.77800 47.56900
H  48.96400 1.46200 48.18300
H  49.45300 7.78000 47.47100
H  40.86300 6.38000 47.29800
H  41.10200 3.47500 46.63400
H  40.98400 3.70400 49.40300
H  39.61000 3.34700 48.31300
H  39.85900 4.94700 48.67400
H  41.34800 5.01400 44.81000
H  42.64800 6.20500 44.97600
H  40.58900 7.70200 45.62900
H  39.76800 6.68100 44.59900
H  44.41400 -1.03500 46.41900
H  43.05200 -0.10600 47.09600
H  44.06700 -1.12700 48.25400
H  48.97300 -0.57200 48.69900
H  49.06400 -0.30300 46.98200
H  49.13400 -1.95200 47.69300
H  50.55800 3.16300 47.01900
H  50.89700 5.66100 48.75100
H  51.38300 2.11900 48.75200
H  50.20700 2.65600 49.89900
H  51.78700 3.65100 49.58400
H  50.91100 6.49500 46.08000
H  51.88900 4.98900 46.30400
H  52.36500 7.11700 48.24700
H  52.86000 7.31100 46.56100
H  53.40600 5.93200 47.54400
H  48.69400 9.91500 46.85100
H  48.32700 10.17300 48.56200
H  47.31800 10.98200 47.33500
H  42.61400 8.86000 46.38300
H  39.48500 10.91400 48.29400
H  40.37800 10.47200 49.78300
H  39.45100 9.31800 48.87800
Mg 0.21800 44.11000 26.08200
C  2.24300 44.30700 28.91900
C  -2.55400 43.60200 28.35200
C  -1.76200 43.26100 23.44800
C  2.90500 44.08000 24.10200
N  -0.05400 44.05000 28.33100
C  0.90000 44.12400 29.25600
C  0.32700 44.03700 30.63600
C  -1.13900 43.64600 30.50400
C  -1.30200 43.83700 28.98700
C  -1.47200 42.18600 31.00200
C  0.59100 45.28700 31.55600
C  0.83200 45.11500 33.08900
H  0.46500 43.83100 33.84300
N  -1.83100 43.68800 25.90600
C  -2.83400 43.59200 26.95300
C  -4.15700 43.48200 26.39100
C  -3.90900 43.37200 24.95200
C  -2.47100 43.42000 24.68300
C  -5.45300 43.40700 27.26100
C  -5.02800 43.31900 23.89400
O  -4.75900 43.46600 22.69200
C  -6.46100 43.07000 24.34200
N  0.54800 43.50700 24.10100
C  -0.43300 43.35600 23.12200
C  0.14600 43.31700 21.75800
C  1.49000 44.01600 21.99300
C  1.69600 43.84100 23.51600
C  0.15300 41.90600 21.26800
C  1.52000 45.51900 21.53200
C  2.51600 45.88000 20.47100
N  2.27700 44.19600 26.37800
C  3.24300 44.17400 25.45600
C  4.52000 44.39400 26.13700
C  4.20300 44.50500 27.49900
C  2.80200 44.22900 27.63300
C  5.85900 44.54300 25.42000
C  4.71300 44.64500 28.86600
O  5.86200 44.77300 29.25100
C  3.43200 44.48600 29.87000
C  3.72500 43.26700 30.68300
O  3.81300 42.13600 30.18100
O  4.10000 43.64500 31.95400
C  4.82800 42.52000 32.63900
H  -3.37700 43.41900 29.04600
H  -2.43500 42.99200 22.63100
H  3.73500 44.32000 23.43400
H  0.77600 43.18000 31.13900
H  -1.77500 44.40300 30.96200
H  -2.32000 42.33200 31.67100
H  -0.65900 41.76400 31.59300
H  -1.62800 41.54000 30.13900
H  -0.34000 45.85200 31.50700
H  1.32400 45.99000 31.15900
H  0.27000 45.82300 33.69800
H  1.89400 45.17000 33.32700
H  -6.05300 44.30000 27.08900
H  -5.29000 43.33400 28.33700
H  -5.97400 42.47600 27.03700
H  -6.70600 42.04800 24.63100
H  -7.10800 43.16300 23.47000
H  -6.88500 43.68300 25.13800
H  -0.48800 43.83500 21.03900
H  2.32500 43.54800 21.47100
H  -0.10600 41.11300 21.97000
H  1.18600 41.63100 21.05400
H  -0.41600 41.87400 20.33900
H  1.87500 46.14400 22.35200
H  0.55000 45.99600 21.39200
H  2.02800 46.51600 19.73300
H  2.82700 45.03800 19.85200
H  3.31800 46.48700 20.89100
H  6.57700 45.22300 25.87900
H  5.65600 44.94800 24.42900
H  6.26400 43.53400 25.35100
H  3.32400 45.39200 30.46700
H  5.78500 42.26400 32.18500
H  4.18100 41.64600 32.71600
H  5.05600 42.80200 33.66700

