158

Mg 2.35800 -1.46800 44.29100
C  5.38200 -0.02700 43.26600
C  0.64200 0.83500 42.40700
C  -0.45600 -3.10200 44.97900
C  4.21300 -4.20200 45.57600
N  2.97500 0.22800 43.14500
C  4.25100 0.64900 42.80400
C  4.18300 1.85500 41.86000
C  2.62900 2.21500 41.76600
C  2.02400 0.97700 42.47800
C  2.16300 3.64700 42.40300
C  4.99100 1.72200 40.58000
C  6.03600 2.82600 40.23000
H  5.93800 3.52900 38.85700
N  0.26200 -1.17000 43.82400
C  -0.17900 -0.16900 42.99300
C  -1.59800 -0.32900 42.79400
C  -1.95100 -1.48600 43.51100
C  -0.70500 -1.97400 44.08900
C  -2.38700 0.64700 41.93000
C  -3.34500 -2.09100 43.49400
O  -4.24700 -1.68300 42.78900
C  -3.65200 -3.32800 44.33200
N  1.92900 -3.46400 45.10700
C  0.72300 -3.68200 45.55500
C  0.71500 -4.97000 46.38500
C  2.24000 -5.41600 46.37400
C  2.81300 -4.28600 45.70000
C  0.05800 -5.00300 47.87000
C  2.43400 -6.83700 45.74200
C  3.36400 -7.66600 46.57200
N  4.33300 -2.08800 44.35400
C  4.91300 -3.20500 44.93000
C  6.36800 -3.16900 44.68900
C  6.57200 -1.91000 44.08900
C  5.32600 -1.26100 43.96400
C  7.27600 -4.19300 45.29400
C  7.55600 -0.97900 43.65200
O  8.79500 -1.10100 43.70500
C  6.84700 0.29300 43.07100
C  7.27700 1.47300 43.85900
O  6.85800 1.68300 44.98100
O  8.27100 2.24500 43.25600
C  8.78500 3.38900 44.04500
H  0.02500 1.54700 41.85400
H  -1.36100 -3.53500 45.41200
H  4.71700 -5.03100 46.07800
H  4.65200 2.67700 42.40000
H  2.31200 2.24300 40.72300
H  1.44700 3.61100 43.22500
H  1.67300 4.17800 41.58800
H  2.99200 4.22400 42.81100
H  4.32700 1.68800 39.71600
H  5.42000 0.72400 40.66400
H  6.99000 2.30100 40.17100
H  5.96200 3.52200 41.06500
H  -2.64000 0.24100 40.95100
H  -1.96200 1.63500 41.75300
H  -3.34600 0.86200 42.40100
H  -4.68300 -3.54600 44.05300
H  -3.59100 -3.01800 45.37500
H  -2.98200 -4.12000 43.99900
H  0.12000 -5.69000 45.82300
H  2.53900 -5.41200 47.42200
H  0.09800 -4.12000 48.50700
H  0.68500 -5.63700 48.49700
H  -0.96100 -5.33200 47.66800
H  3.01500 -6.73500 44.82600
H  1.57300 -7.45800 45.49500
H  3.36300 -8.65300 46.11000
H  3.01700 -7.71800 47.60400
H  4.31800 -7.14000 46.60000
H  7.21900 -5.08900 44.67600
H  7.01700 -4.59100 46.27500
H  8.25900 -3.79700 45.03500
H  7.32100 0.58600 42.13500
H  9.49700 3.10400 44.81900
H  7.96600 3.86600 44.58400
H  9.14200 4.22100 43.43800
Mg 24.81500 -6.98500 47.00100
C  26.42100 -4.09900 45.66800
C  22.19500 -6.40100 44.94000
C  23.70000 -9.92000 47.90400
C  27.85400 -7.34400 48.94800
N  24.42400 -5.37900 45.57700
C  25.14600 -4.29900 45.18500
C  24.42100 -3.49000 44.13700
C  22.91700 -4.04700 44.25300
C  23.18300 -5.40200 44.98000
C  21.89000 -3.08900 44.99300
C  24.91500 -3.64600 42.64600
C  25.47400 -2.34200 42.06600
H  25.20100 -2.09100 40.59800
N  23.12900 -7.98600 46.54400
C  22.14500 -7.57200 45.70200
C  21.10200 -8.63500 45.71700
C  21.59000 -9.76700 46.39800
C  22.87000 -9.24800 46.99500
C  19.74200 -8.43800 44.96300
C  20.93000 -11.09000 46.47600
O  19.79900 -11.32900 46.04000
C  21.50900 -12.18900 47.25900
N  25.83900 -8.54900 48.02200
C  25.00400 -9.52900 48.41700
C  25.76800 -10.43500 49.43200
C  27.02900 -9.59300 49.88000
C  26.92800 -8.44100 48.91100
C  24.94100 -10.75400 50.65400
C  28.41200 -10.34900 49.76900
C  28.96200 -10.86700 51.06700
N  26.72900 -5.88900 47.34000
C  27.81500 -6.20600 48.14300
C  28.81700 -5.19000 48.05000
C  28.29200 -4.37800 47.01700
C  27.04600 -4.84100 46.63700
C  30.16000 -5.12200 48.75700
C  28.57600 -3.19600 46.31000
O  29.50000 -2.37600 46.34600
C  27.49100 -3.05200 45.29700
C  27.13000 -1.69000 45.14900
O  27.31900 -1.04200 44.18100
O  26.50400 -1.26200 46.30700
C  25.90000 0.09600 46.28800
H  21.31800 -6.14300 44.34300
H  23.43700 -10.87000 48.37500
H  28.66700 -7.45200 49.66900
H  24.60800 -2.46900 44.46800
H  22.44700 -4.21300 43.28400
H  22.22600 -2.05200 44.96400
H  21.75200 -3.32700 46.04800
H  20.90100 -3.23800 44.55900
H  24.22300 -4.04800 41.90600
H  25.67700 -4.42000 42.73800
H  26.54600 -2.37100 42.26200
H  25.01000 -1.51300 42.60000
H  19.60000 -9.17900 44.17600
H  19.57900 -7.41900 44.61200
H  18.95300 -8.79800 45.62300
H  22.52700 -12.37700 46.91600
H  20.96500 -13.10200 47.01800
H  21.46300 -12.04400 48.33800
H  26.14800 -11.28400 48.86400
H  26.87600 -9.13900 50.85900
H  24.39000 -11.68500 50.52300
H  24.21400 -9.96200 50.82800
H  25.57800 -10.78000 51.53800
H  29.15700 -9.71900 49.28300
H  28.32300 -11.09800 48.98300
H  28.49200 -10.56300 52.00300
H  30.00600 -10.55800 51.11200
H  29.16400 -11.93700 51.02000
H  30.95200 -5.77700 48.39400
H  29.82100 -5.30700 49.77700
H  30.64700 -4.15300 48.85900
H  27.81200 -3.37600 44.30700
H  25.19900 0.21700 45.46200
H  26.59200 0.88900 46.00400
H  25.35500 0.41200 47.17800

