158

Mg -2.59500 16.93400 26.67000
C  -2.92400 14.80600 29.34200
C  -2.53800 19.56300 28.79000
C  -2.57900 18.91400 23.98300
C  -2.65100 14.22400 24.56000
N  -2.85300 17.13500 28.80500
C  -2.94500 16.16000 29.72300
C  -2.83700 16.66500 31.18800
C  -3.01300 18.22600 30.91500
C  -2.69500 18.34100 29.38800
C  -4.43300 18.71300 31.30600
C  -1.58100 16.12000 31.83600
C  -0.77900 16.93400 32.86300
H  -0.36200 16.29100 34.17600
N  -2.58800 18.96500 26.44300
C  -2.57800 19.86400 27.44000
C  -2.66200 21.20400 26.83600
C  -2.55200 21.05800 25.44300
C  -2.55100 19.59800 25.22400
C  -2.67600 22.48300 27.64000
C  -2.39400 22.16700 24.36600
O  -2.31800 21.91100 23.15200
C  -2.30900 23.55100 24.78600
N  -2.83400 16.64100 24.58400
C  -2.72500 17.55500 23.64700
C  -2.80900 17.09800 22.19900
C  -2.58100 15.57100 22.43100
C  -2.69600 15.46800 23.94800
C  -4.15100 17.38600 21.57500
C  -1.19800 15.07800 21.96700
C  -1.13300 13.87300 21.02200
N  -2.94000 14.91300 26.88600
C  -2.86900 13.91500 25.92000
C  -2.86800 12.60300 26.50700
C  -2.95800 12.91100 27.80100
C  -2.94300 14.30800 28.06500
C  -2.86500 11.24600 25.92700
C  -3.01400 12.33100 29.10500
O  -3.06900 11.14700 29.36300
C  -2.91500 13.54700 30.16300
C  -1.74200 13.23700 30.91300
O  -0.63800 13.39000 30.49800
O  -2.18500 12.76900 32.13100
C  -1.21200 12.40300 33.11600
H  -2.48500 20.41100 29.47500
H  -2.55000 19.55800 23.10200
H  -2.45600 13.36100 23.92100
H  -3.64100 16.17900 31.74200
H  -2.24300 18.78500 31.44700
H  -5.04900 18.89800 30.42600
H  -4.29700 19.59500 31.93300
H  -4.99600 17.96900 31.87000
H  -0.94900 15.87200 30.98400
H  -1.78800 15.23800 32.44200
H  -1.36400 17.82100 33.10800
H  0.09900 17.33700 32.35700
H  -2.89300 22.26500 28.68600
H  -3.52900 23.11600 27.39500
H  -1.78200 23.09600 27.52600
H  -3.30300 23.89000 25.07800
H  -1.98000 24.08200 23.89300
H  -1.56200 23.86600 25.51400
H  -1.98900 17.47400 21.58800
H  -3.29000 14.89000 21.96000
H  -4.88600 17.79400 22.26900
H  -4.59000 16.49900 21.11700
H  -4.17600 18.13900 20.78700
H  -0.54600 14.90600 22.82300
H  -0.61000 15.80300 21.40400
H  -0.41300 13.08000 21.22900
H  -0.98000 14.25300 20.01200
H  -2.06300 13.30700 20.96700
H  -3.86900 10.82300 25.87700
H  -2.24100 10.51900 26.44700
H  -2.58400 11.25100 24.87400
H  -3.84200 13.54200 30.73600
H  -1.37600 11.34400 33.31100
H  -1.30400 12.98600 34.03200
H  -0.17400 12.54600 32.81600
Mg -11.23100 37.91900 41.88800
C  -9.67400 35.03800 40.85100
C  -8.64700 39.88600 40.63500
C  -13.08600 40.86900 42.36500
C  -14.02800 36.07300 43.02300
N  -9.35800 37.47400 40.91300
C  -8.93900 36.26400 40.48700
C  -7.53600 36.39100 39.80300
C  -7.10900 37.82400 40.20200
C  -8.44600 38.44900 40.61900
C  -5.96700 37.90500 41.35700
C  -7.53600 35.94400 38.26900
C  -6.45100 34.89100 37.91500
H  -5.47500 35.29400 36.80100
N  -10.90500 40.07000 41.53400
C  -9.79300 40.66200 41.03500
C  -9.95300 42.09200 40.87600
C  -11.19300 42.41800 41.48300
C  -11.80300 41.09700 41.84800
C  -8.83900 42.98300 40.35900
C  -11.67600 43.83300 41.76400
O  -11.06500 44.83600 41.39400
C  -12.95000 44.20400 42.40600
N  -13.36400 38.35700 42.46600
C  -13.75700 39.66500 42.65600
C  -15.00600 39.74200 43.45300
C  -15.42600 38.19900 43.71600
C  -14.29100 37.47500 42.97500
C  -14.91400 40.56000 44.81700
C  -16.83600 37.83900 43.17000
C  -17.62400 37.06200 44.21500
N  -11.78700 35.94700 42.06100
C  -12.95000 35.31000 42.45500
C  -12.65700 33.87600 42.34700
C  -11.40500 33.70600 41.77800
C  -10.95900 35.04000 41.61000
C  -13.64100 32.81200 42.70300
C  -10.46900 32.76600 41.26900
O  -10.45500 31.56800 41.36300
C  -9.36700 33.56900 40.58300
C  -8.04000 33.11100 41.08000
O  -7.12500 32.82500 40.32600
O  -7.98100 33.09800 42.45800
C  -6.67100 32.83200 43.02500
H  -7.73800 40.36300 40.26300
H  -13.73400 41.74400 42.45300
H  -14.71700 35.52200 43.66600
H  -6.91800 35.64600 40.30500
H  -6.73600 38.25000 39.27100
H  -6.38500 38.50400 42.16500
H  -5.05400 38.43600 41.08900
H  -5.76700 36.86900 41.63300
H  -7.46400 36.77400 37.56600
H  -8.53700 35.54000 38.11800
H  -6.97800 33.95800 37.71600
H  -5.84700 34.73600 38.80900
H  -8.67200 43.85600 40.99100
H  -8.95000 43.26000 39.31100
H  -7.86300 42.50400 40.44300
H  -12.97500 45.26800 42.64600
H  -13.06100 43.86700 43.43700
H  -13.81600 43.95700 41.79200
H  -15.67800 40.25700 42.76700
H  -15.37900 37.87800 44.75700
H  -15.38400 41.53300 44.67600
H  -13.88500 40.88000 44.97500
H  -15.41600 40.01700 45.61900
H  -16.62200 37.32200 42.23400
H  -17.36500 38.70600 42.77600
H  -17.30000 37.23500 45.24100
H  -17.27500 36.04400 44.04500
H  -18.69400 37.16900 44.03200
H  -13.25200 31.82000 42.47200
H  -14.58100 32.98800 42.17900
H  -13.72900 32.89300 43.78600
H  -9.44200 33.31800 39.52500
H  -5.99500 33.68700 42.99600
H  -6.24100 32.05200 42.39600
H  -6.77100 32.53600 44.06900

