158

Mg 16.83300 51.84700 26.45600
C  18.70400 50.68200 29.13200
C  14.51600 52.89500 28.94200
C  14.93200 52.83500 24.08100
C  19.13200 50.55300 24.23000
N  16.72100 51.94700 28.75500
C  17.58800 51.37100 29.60900
C  17.28700 51.71500 31.10300
C  15.75800 52.17000 31.01600
C  15.62500 52.31700 29.49600
C  14.68600 51.07900 31.47300
C  18.27200 52.80100 31.69900
C  18.65300 52.62000 33.24800
H  17.69800 51.77500 34.13200
N  15.05000 52.81900 26.45100
C  14.28900 53.23200 27.56400
C  13.11900 53.99600 26.99700
C  13.14600 53.90300 25.56600
C  14.40600 53.18100 25.29000
C  12.10000 54.61000 27.96400
C  12.09600 54.23600 24.54200
O  12.19200 53.91400 23.37000
C  10.89000 54.97300 25.01000
N  16.97000 51.67000 24.38400
C  16.11100 52.32300 23.58400
C  16.48000 52.10600 22.12100
C  17.94900 51.62500 22.24900
C  18.07700 51.36100 23.69700
C  15.63700 50.98300 21.43700
C  18.97500 52.64100 21.72500
C  20.25600 52.06300 21.13400
N  18.54800 50.87500 26.64300
C  19.38200 50.38900 25.64300
C  20.56100 49.82400 26.24400
C  20.25300 49.88500 27.61200
C  19.07700 50.57100 27.78200
C  21.79200 49.35900 25.56800
C  20.89800 49.51700 28.86100
O  21.98700 49.00900 29.09400
C  19.74800 50.05400 29.89200
C  19.20200 48.96900 30.77900
O  18.17100 48.31600 30.53400
O  19.90600 48.95400 32.01400
C  19.36100 48.02900 33.01700
H  13.76000 53.23300 29.65400
H  14.31000 53.26500 23.29300
H  19.95800 50.32100 23.55400
H  17.51800 50.83600 31.70500
H  15.46700 53.13600 31.42800
H  14.07300 51.48900 32.27600
H  15.12500 50.18300 31.91100
H  13.98500 50.90600 30.65700
H  17.83200 53.79400 31.60900
H  19.11800 52.95400 31.02900
H  18.50200 53.63600 33.61200
H  19.71100 52.37900 33.35000
H  11.73500 55.62000 27.77400
H  12.62900 54.70600 28.91200
H  11.25200 53.94800 28.14200
H  11.12700 55.89000 25.54900
H  10.36800 54.32400 25.71400
H  10.20800 55.18900 24.18700
H  16.43100 53.08700 21.64800
H  18.05600 50.62700 21.82500
H  15.18700 50.42500 22.25800
H  16.14900 50.31400 20.74600
H  14.83500 51.41300 20.83800
H  19.29400 53.27600 22.55200
H  18.35600 53.22800 21.04700
H  21.12400 52.32300 21.74000
H  20.39700 52.47500 20.13500
H  20.17500 50.97600 21.15200
H  22.05800 50.17500 24.89600
H  21.42400 48.64000 24.83600
H  22.63800 49.13500 26.21800
H  20.30200 50.72800 30.54600
H  18.30900 47.90000 32.76100
H  19.36000 48.32600 34.06600
H  19.84600 47.05900 32.90700
Mg -11.83900 16.73100 41.68000
C  -8.15900 16.33000 41.39700
C  -11.23500 20.02700 40.91400
C  -14.99200 16.89000 41.01300
C  -12.01800 13.14900 41.67700
N  -9.88100 17.95800 41.12900
C  -8.55900 17.64900 41.23900
C  -7.70200 18.91100 41.08800
C  -8.69600 20.07100 41.35100
C  -10.04100 19.30500 41.22000
C  -8.38100 20.74200 42.67800
C  -7.07100 19.02900 39.61800
C  -5.52100 18.82000 39.49400
H  -5.13800 17.92600 38.34200
N  -12.93100 18.35800 41.12800
C  -12.51000 19.59900 40.78900
C  -13.70500 20.37500 40.45100
C  -14.87600 19.54800 40.53100
C  -14.34700 18.20700 40.88700
C  -13.68100 21.87900 40.19100
C  -16.29400 19.94500 40.35500
O  -16.58600 21.10700 40.08500
C  -17.40000 18.95700 40.54500
N  -13.31800 15.21500 41.42900
C  -14.52200 15.59300 41.32900
C  -15.52900 14.38600 41.57800
C  -14.54700 13.16800 41.64500
C  -13.21600 13.87500 41.48000
C  -16.43800 14.60600 42.78900
C  -14.86600 12.11300 40.59400
C  -14.53800 10.66200 40.99100
N  -10.44600 15.15700 41.75200
C  -10.73100 13.77400 41.84800
C  -9.42900 13.11900 42.13600
C  -8.45800 14.06100 42.04500
C  -9.08300 15.29600 41.74800
C  -9.31000 11.69100 42.46000
C  -7.01400 14.22800 42.01400
O  -6.12500 13.43700 42.16900
C  -6.73800 15.77400 41.59700
C  -6.17100 16.41300 42.77800
O  -6.78100 16.73200 43.81800
O  -4.78900 16.51100 42.62500
C  -3.97000 17.15800 43.68300
H  -11.09100 21.08200 40.67300
H  -16.07600 17.01800 40.96800
H  -12.01300 12.06400 41.55400
H  -6.88500 18.82900 41.80400
H  -8.61800 20.86600 40.60800
H  -7.62200 21.51700 42.57600
H  -8.12600 19.94200 43.37200
H  -9.25700 21.26100 43.06800
H  -7.28100 20.07200 39.38500
H  -7.51400 18.34800 38.89100
H  -5.12400 18.36400 40.40100
H  -5.04000 19.77700 39.29300
H  -14.46900 22.21500 39.51600
H  -12.67800 22.01100 39.78500
H  -13.77100 22.45500 41.11300
H  -18.38300 19.41500 40.43900
H  -17.35200 18.56100 41.55900
H  -17.33400 18.11100 39.86100
H  -16.17500 14.55600 40.71700
H  -14.49900 12.69200 42.62500
H  -16.20700 15.58000 43.21900
H  -16.30500 13.89100 43.60100
H  -17.46300 14.61600 42.42000
H  -14.32100 12.39000 39.69200
H  -15.91000 12.23000 40.30500
H  -13.77600 10.58800 41.76600
H  -14.20100 10.09400 40.12400
H  -15.44500 10.29800 41.47400
H  -8.69800 11.25500 41.67000
H  -10.31900 11.27900 42.43800
H  -8.83300 11.48600 43.41900
H  -6.05200 15.86300 40.75500
H  -3.82000 16.35700 44.40700
H  -4.51800 17.95900 44.17800
H  -2.96100 17.43500 43.37900

