158

Mg -12.02800 37.66800 42.48300
C  -9.49600 35.21700 41.66600
C  -10.06000 39.97400 40.97400
C  -14.52400 39.87200 42.59700
C  -14.11700 35.01000 43.30900
N  -10.16900 37.49500 41.23600
C  -9.26000 36.44500 41.05600
C  -8.21000 36.80600 40.11300
C  -8.25600 38.35100 40.01400
C  -9.57100 38.64100 40.85400
C  -6.99100 39.12000 40.56000
C  -8.38200 35.97100 38.74500
C  -7.21200 35.02700 38.45000
H  -6.12500 35.54900 37.55400
N  -12.21900 39.69000 42.05100
C  -11.29700 40.43300 41.48800
C  -11.79500 41.83900 41.35300
C  -13.05800 41.83200 41.97000
C  -13.33600 40.44600 42.25200
C  -10.90200 43.07600 40.92500
C  -13.96100 43.00300 42.24500
O  -13.54200 44.14200 41.94900
C  -15.07600 42.89400 43.21300
N  -14.00800 37.52900 42.97300
C  -14.83500 38.59400 42.99700
C  -16.26500 38.11600 43.36600
C  -16.13700 36.62200 43.73300
C  -14.67300 36.34400 43.30200
C  -16.97400 38.92300 44.51400
C  -17.17300 35.70900 43.09000
C  -17.86800 34.63200 43.92600
N  -11.82400 35.54100 42.52400
C  -12.75500 34.62800 43.06200
C  -12.01300 33.41500 43.30500
C  -10.74900 33.58400 42.75900
C  -10.70800 34.89900 42.32600
C  -12.60100 32.20300 43.91000
C  -9.43400 32.95900 42.58600
O  -8.93200 31.87500 42.87700
C  -8.57800 34.02000 41.79600
C  -7.28300 34.33800 42.49300
O  -7.24500 34.78800 43.64500
O  -6.22000 33.90200 41.75300
C  -4.91900 34.03800 42.43100
H  -9.34800 40.74000 40.66100
H  -15.38800 40.53700 42.66400
H  -14.71200 34.14700 43.61500
H  -7.27800 36.44700 40.54800
H  -8.35000 38.46100 38.93400
H  -6.62000 39.71400 39.72500
H  -6.23000 38.37100 40.77900
H  -7.26200 39.71800 41.42900
H  -8.33800 36.66600 37.90600
H  -9.31700 35.44500 38.55000
H  -7.64500 34.12500 38.01700
H  -6.84000 34.75400 39.43800
H  -11.13200 43.46100 39.93100
H  -9.82700 42.94000 41.04600
H  -11.05700 43.84500 41.68200
H  -15.97300 42.72500 42.61800
H  -15.13200 43.81200 43.79800
H  -14.87100 42.09500 43.92600
H  -16.93700 38.24700 42.51700
H  -16.15800 36.44300 44.80800
H  -16.27600 39.64000 44.94700
H  -17.61300 38.31500 45.15500
H  -17.73500 39.59300 44.11300
H  -16.59300 35.18300 42.33100
H  -18.07000 36.23500 42.76300
H  -18.89900 34.87700 44.18000
H  -17.37400 34.58000 44.89700
H  -17.95000 33.67700 43.40600
H  -13.38500 32.34800 44.65300
H  -11.74100 31.69000 44.34000
H  -13.10500 31.67900 43.09800
H  -8.49200 33.58900 40.79800
H  -5.04100 33.78500 43.48400
H  -4.59500 35.07600 42.36500
H  -4.22700 33.34000 41.95700
Mg -12.08600 15.41400 42.67900
C  -8.98500 13.82000 41.99400
C  -10.72500 18.07200 40.87700
C  -15.13100 16.63200 42.30800
C  -13.33200 12.34900 43.71800
N  -10.03200 15.92800 41.66300
C  -9.03700 15.05900 41.43200
C  -7.89300 15.66100 40.66700
C  -8.27400 17.09400 40.48200
C  -9.74200 17.09600 41.08800
C  -7.43400 18.14800 41.21800
C  -7.53100 14.87600 39.31200
C  -6.02500 14.72400 39.01000
H  -5.33400 15.45300 37.74500
N  -12.77000 17.15800 41.78100
C  -12.08200 18.18900 41.26700
C  -13.05500 19.24700 40.90300
C  -14.33100 18.81900 41.33000
C  -14.13800 17.47000 41.86300
C  -12.70700 20.49500 40.13400
C  -15.55400 19.72700 41.38300
O  -15.51100 20.91200 40.98200
C  -16.86000 19.26600 41.93600
N  -13.90300 14.71900 43.21100
C  -15.07800 15.41800 42.98800
C  -16.27100 14.60600 43.36400
C  -15.72000 13.28000 43.83500
C  -14.18400 13.40900 43.50200
C  -17.17800 15.30400 44.48100
C  -16.36700 11.99500 43.42500
C  -16.63300 10.90300 44.50900
N  -11.27800 13.60400 43.16400
C  -11.92300 12.43100 43.54000
C  -10.89500 11.45100 43.78000
C  -9.71600 11.97200 43.15800
C  -10.07300 13.23400 42.68200
C  -11.04200 10.05200 44.35100
C  -8.35200 11.65400 42.83100
O  -7.70800 10.68700 43.12300
C  -7.79200 12.84600 42.09600
C  -6.66900 13.47600 42.89500
O  -6.76500 13.94500 44.02600
O  -5.53200 13.48600 42.11700
C  -4.62100 14.38900 42.78100
H  -10.30500 18.90900 40.31700
H  -16.16600 16.86000 42.04300
H  -13.74900 11.36900 43.96100
H  -7.12800 15.73400 41.44000
H  -8.33800 17.26300 39.40700
H  -6.40200 17.87400 40.99600
H  -7.51800 18.05300 42.30000
H  -7.75000 19.14800 40.92200
H  -8.06300 15.32600 38.47500
H  -7.95200 13.87400 39.22300
H  -5.84400 13.65000 39.04700
H  -5.38800 15.15300 39.78400
H  -12.03400 20.15100 39.34800
H  -12.18700 21.20300 40.77900
H  -13.51800 20.96200 39.57500
H  -17.52000 20.08800 42.21200
H  -16.56900 18.79900 42.87700
H  -17.29600 18.56100 41.22800
H  -16.87200 14.41700 42.47500
H  -15.77000 13.32300 44.92300
H  -16.81500 16.30000 44.73600
H  -17.43200 14.69800 45.35000
H  -18.01700 15.59900 43.84900
H  -15.73900 11.68500 42.59000
H  -17.27700 12.26900 42.89100
H  -15.74000 10.30400 44.69100
H  -17.42200 10.23000 44.17500
H  -16.97300 11.30100 45.46400
H  -10.31900 9.83300 45.13600
H  -10.74400 9.39600 43.53300
H  -12.09700 10.05100 44.62400
H  -7.46200 12.69800 41.06800
H  -5.17700 15.32600 42.74400
H  -3.80100 14.56700 42.08500
H  -4.32000 14.01200 43.75800

