158

Mg 47.71600 24.88400 28.60100
C  48.43200 27.11400 31.22900
C  47.27100 22.41800 31.09900
C  47.21200 22.59100 26.17500
C  49.04800 27.08200 26.33300
N  47.91200 24.70400 30.85400
C  48.01500 25.86100 31.70100
C  47.87800 25.46600 33.17700
C  47.58200 23.93500 33.12200
C  47.72000 23.60200 31.60000
C  48.59000 23.07700 33.97800
C  46.76600 26.31600 33.91500
C  47.23100 26.87800 35.26200
H  46.16300 26.89600 36.31800
N  47.12300 22.80000 28.64800
C  46.99100 21.96200 29.73200
C  46.55500 20.57800 29.24100
C  46.44200 20.65800 27.86000
C  46.97600 22.00700 27.49300
C  46.26200 19.47100 30.13100
C  45.92100 19.55400 26.93200
O  45.88800 19.72800 25.73100
C  45.31700 18.25000 27.41600
N  47.95200 24.90200 26.54500
C  47.74800 23.82400 25.78300
C  48.26600 24.04200 24.36500
C  48.53300 25.55100 24.33600
C  48.66800 25.83500 25.82500
C  49.55300 23.26400 23.90700
C  47.53600 26.48200 23.54800
C  47.39700 26.21100 22.09900
N  48.67600 26.70300 28.71900
C  49.16800 27.48500 27.72000
C  49.79700 28.68400 28.27500
C  49.58300 28.57800 29.66200
C  48.77900 27.41200 29.86400
C  50.69700 29.64200 27.60900
C  49.80000 29.14800 30.94700
O  50.53600 30.08500 31.23000
C  49.02500 28.33500 32.02400
C  50.08100 27.90300 33.02900
O  51.01800 27.20900 32.87000
O  49.85100 28.67400 34.15500
C  50.80600 28.48400 35.22500
H  47.13700 21.56300 31.76500
H  47.19300 21.90300 25.32700
H  49.36100 27.86600 25.64000
H  48.83700 25.56100 33.68600
H  46.56000 23.65700 33.37700
H  49.37200 22.60700 33.38200
H  48.07400 22.27100 34.49800
H  49.01800 23.74200 34.72900
H  45.77900 25.89200 34.10400
H  46.48300 27.19500 33.33700
H  47.63300 27.89100 35.28100
H  48.06300 26.28200 35.63700
H  46.37700 19.66800 31.19600
H  46.99400 18.70500 29.87100
H  45.25900 19.05800 30.02300
H  46.06300 17.69500 27.98500
H  45.11300 17.70600 26.49400
H  44.45400 18.23000 28.08300
H  47.38200 23.82900 23.76400
H  49.52500 25.68300 23.90300
H  49.69800 22.42400 24.58600
H  50.46000 23.86000 23.81200
H  49.37200 22.64800 23.02600
H  47.76600 27.53600 23.70400
H  46.50800 26.37400 23.89300
H  46.54100 25.58900 21.83800
H  48.33600 25.76000 21.77800
H  47.32500 27.23500 21.73400
H  50.68900 29.60700 26.51900
H  51.71300 29.37400 27.90100
H  50.42000 30.65900 27.88300
H  48.25900 28.96100 32.48100
H  50.66100 29.08100 36.12500
H  51.84000 28.72000 34.97500
H  50.72700 27.42400 35.46700
Mg 42.45600 41.06200 26.66900
C  41.73800 43.58700 29.02600
C  43.85200 39.21700 29.25000
C  43.21700 38.85200 24.39100
C  41.72400 43.41100 24.18000
N  42.77800 41.34300 28.94000
C  42.28500 42.43800 29.66100
C  42.39900 42.17100 31.17600
C  43.39900 40.91800 31.15200
C  43.38700 40.44800 29.66700
C  44.93500 41.18800 31.63000
C  40.92900 41.93000 31.80600
C  40.61000 42.90400 32.90700
H  39.98200 42.44700 34.28000
N  43.38500 39.24500 26.73800
C  43.84800 38.64300 27.92900
C  44.33800 37.27800 27.59500
C  44.07700 37.10400 26.19700
C  43.55700 38.43100 25.69400
C  45.03500 36.33500 28.57200
C  44.33500 35.84400 25.30700
O  44.21900 35.90100 24.09600
C  44.60500 34.59900 25.89400
N  42.50600 41.24200 24.62000
C  42.76300 40.09600 23.87400
C  42.53000 40.25500 22.37000
C  41.95800 41.68300 22.32900
C  42.13200 42.20400 23.76600
C  43.85000 40.03900 21.52300
C  40.48400 41.76300 21.79000
C  40.00200 43.18400 21.36200
N  41.68900 43.00700 26.60700
C  41.42500 43.87000 25.55200
C  40.99700 45.16800 25.97400
C  41.00300 45.05400 27.37900
C  41.52100 43.76100 27.65900
C  40.68900 46.36800 25.18700
C  40.61900 45.76400 28.68100
O  40.10300 46.83200 28.97500
C  41.17900 44.78100 29.74300
C  42.28500 45.51700 30.35500
O  43.23100 45.93500 29.75500
O  42.12400 45.69300 31.71700
C  43.10600 46.57400 32.46500
H  44.15100 38.56700 30.07600
H  43.22500 38.04800 23.65200
H  41.43500 44.15000 23.43000
H  42.96800 42.99900 31.59800
H  43.00800 40.06300 31.70200
H  44.85600 42.16100 32.11400
H  45.50900 41.18200 30.70300
H  45.27900 40.46200 32.36700
H  40.90200 40.96000 32.30200
H  40.05500 41.92500 31.15500
H  39.84600 43.58500 32.53000
H  41.46900 43.53500 33.13700
H  46.09700 36.47000 28.77800
H  44.86100 35.26700 28.44400
H  44.61800 36.55200 29.55600
H  43.89900 34.49100 26.71800
H  45.61300 34.53900 26.30300
H  44.34900 33.80600 25.19100
H  41.76400 39.56000 22.02700
H  42.57700 42.30300 21.68000
H  44.62300 40.80500 21.58900
H  43.51000 40.03600 20.48700
H  44.21200 39.04500 21.78500
H  39.94700 41.46800 22.69100
H  40.31900 40.96300 21.06800
H  39.40600 43.54700 22.19900
H  39.35800 43.28200 20.48900
H  40.92100 43.76800 21.30300
H  41.22100 47.20100 25.64600
H  39.63000 46.61300 25.26500
H  41.10400 46.26400 24.18500
H  40.45400 44.59100 30.53400
H  43.51700 45.93300 33.24500
H  42.71400 47.53500 32.79800
H  43.99900 46.81500 31.88800

