158

Mg -2.36500 16.96600 26.15800
C  -2.28000 14.63300 28.75400
C  -2.93500 19.27200 28.50700
C  -2.63500 19.17500 23.70500
C  -2.16900 14.55100 23.80000
N  -2.97300 16.88000 28.42600
C  -2.59600 15.84700 29.26900
C  -2.83200 16.31000 30.71700
C  -3.00700 17.89100 30.63900
C  -2.83100 18.06400 29.10000
C  -4.41700 18.40100 31.15000
C  -1.61700 16.06700 31.65000
C  -1.47400 16.76100 33.03200
H  -1.71000 16.07300 34.36700
N  -2.70600 18.92100 26.06600
C  -2.89900 19.77200 27.18100
C  -3.10700 21.12300 26.73000
C  -3.07200 21.08900 25.28000
C  -2.84300 19.66900 24.96000
C  -3.33100 22.22000 27.78900
C  -3.13700 22.20500 24.25400
O  -3.14700 22.09700 23.03700
C  -3.26100 23.57300 24.84500
N  -2.46800 16.85400 23.98700
C  -2.56000 17.88800 23.20200
C  -2.40400 17.55500 21.67400
C  -2.27700 15.95600 21.73700
C  -2.32700 15.72100 23.26700
C  -3.55700 18.02400 20.85800
C  -0.93200 15.44700 21.06500
C  0.36900 15.85100 21.78100
N  -2.26000 15.08600 26.26800
C  -2.09700 14.19600 25.14200
C  -1.90200 12.89900 25.67400
C  -2.01200 13.07700 27.07400
C  -2.26200 14.34800 27.40300
C  -1.83400 11.64700 25.01700
C  -1.80700 12.25800 28.27600
O  -1.40200 11.09200 28.43800
C  -2.10700 13.26600 29.49100
C  -0.97400 13.04400 30.40300
O  0.08100 13.62300 30.19700
O  -1.31700 12.26800 31.43500
C  -0.23200 11.83200 32.27900
H  -3.01400 20.06700 29.25200
H  -2.72900 19.93800 22.93000
H  -1.88400 13.74200 23.12400
H  -3.72800 15.80900 31.08300
H  -2.18200 18.35800 31.17500
H  -4.33900 18.96000 32.08300
H  -5.01900 17.51600 31.35600
H  -4.95300 19.03900 30.44700
H  -0.70700 15.96500 31.05900
H  -1.86300 15.06500 32.00200
H  -1.99000 17.71000 33.17500
H  -0.42000 17.03100 33.09700
H  -3.77900 23.08100 27.29300
H  -2.34600 22.52300 28.14500
H  -3.96200 21.94700 28.63500
H  -4.32200 23.71500 25.05200
H  -2.95900 24.31700 24.10800
H  -2.65300 23.58700 25.74900
H  -1.51000 18.06300 21.31400
H  -3.15000 15.60000 21.19000
H  -3.32300 18.99400 20.42100
H  -4.44800 18.06000 21.48500
H  -3.64900 17.37100 19.99000
H  -0.79600 15.99200 20.13000
H  -0.96000 14.35900 21.00300
H  0.16900 16.53600 22.60400
H  1.02900 16.38900 21.10100
H  0.83800 14.97900 22.23900
H  -1.40000 11.84500 24.03700
H  -2.84000 11.23000 25.05500
H  -1.15300 11.11900 25.68600
H  -2.98800 12.83700 29.97000
H  -0.05800 12.67300 32.95000
H  0.64100 11.54700 31.69000
H  -0.59000 11.02000 32.91200
Mg 36.24600 49.50400 25.78700
C  36.22700 47.43800 28.61500
C  34.95200 52.14300 27.85100
C  35.63400 51.33100 22.98300
C  37.12400 46.68800 23.89900
N  35.58900 49.70700 27.92300
C  35.74300 48.77500 28.88400
C  35.49400 49.29300 30.30700
C  34.82700 50.66800 30.01800
C  35.17200 50.89500 28.53700
C  33.41000 50.96500 30.50800
C  36.74200 49.43200 31.13600
C  36.55600 48.87300 32.57300
H  35.25300 49.13000 33.29300
N  35.54300 51.45400 25.50500
C  35.06800 52.37500 26.42300
C  34.78900 53.60400 25.79000
C  34.89600 53.35300 24.36000
C  35.30800 51.99300 24.28500
C  34.25800 54.81200 26.59200
C  34.65500 54.28400 23.11600
O  34.81300 54.00200 21.96300
C  33.86100 55.56100 23.44500
N  36.56100 49.12200 23.77800
C  36.14100 49.98900 22.81800
C  36.36400 49.39000 21.43400
C  37.15300 48.13600 21.76100
C  36.92700 47.93700 23.23400
C  35.11600 49.22500 20.47900
C  38.65900 48.15700 21.31100
C  39.02100 47.03600 20.31400
N  36.78300 47.58900 26.14000
C  37.02900 46.54700 25.30800
C  37.26100 45.32000 25.96700
C  36.98800 45.61500 27.29000
C  36.67600 46.97800 27.37000
C  37.61800 44.02200 25.28100
C  36.91300 45.08500 28.61700
O  37.13400 44.00800 29.05200
C  36.43200 46.32800 29.56500
C  35.26400 45.77700 30.40000
O  34.12100 45.74800 30.01600
O  35.67500 45.30900 31.67200
C  34.56100 44.78500 32.51900
H  34.63400 52.91900 28.55100
H  35.52400 51.86800 22.03900
H  37.43600 45.86400 23.25500
H  34.77100 48.61000 30.75300
H  35.31200 51.44400 30.61000
H  32.97400 50.03400 30.87000
H  32.74500 51.23500 29.68800
H  33.32700 51.78500 31.22100
H  37.17000 50.43400 31.16500
H  37.62700 48.96000 30.70700
H  37.11600 49.56700 33.19900
H  36.83100 47.82100 32.64900
H  34.45100 55.75700 26.08400
H  34.77800 54.99500 27.53200
H  33.21000 54.69100 26.86500
H  33.13500 55.29000 24.21100
H  33.42100 55.81700 22.48100
H  34.49600 56.41300 23.68800
H  36.97000 50.09900 20.86900
H  36.61200 47.27400 21.37100
H  34.25400 49.46700 21.10100
H  34.94100 48.18100 20.22000
H  35.26400 49.85400 19.60200
H  39.27200 47.88200 22.16900
H  38.97200 49.17400 21.07500
H  39.14000 47.59900 19.38800
H  38.15800 46.38200 20.18500
H  39.91000 46.54900 20.71400
H  38.67300 43.99500 25.00900
H  36.96600 43.92500 24.41300
H  37.45000 43.15400 25.91900
H  37.24700 46.55900 30.25100
H  34.82300 45.09100 33.53100
H  34.36800 43.71300 32.54100
H  33.63100 45.28400 32.24400

