158

Mg 24.73300 -5.54700 45.42400
C  26.81300 -3.10300 43.90900
C  22.18100 -4.50200 43.42000
C  23.00600 -8.31200 46.29800
C  27.55500 -6.73500 47.19500
N  24.57500 -3.98500 43.86400
C  25.50700 -3.06400 43.45500
C  24.97100 -2.25200 42.25200
C  23.36800 -2.40700 42.39500
C  23.37200 -3.72800 43.26800
C  22.63800 -1.16600 43.12600
C  25.56400 -2.88700 40.86000
C  26.47900 -1.93200 39.97900
H  26.08200 -2.03400 38.51500
N  22.90000 -6.29100 44.97400
C  21.98200 -5.75900 44.10700
C  20.82100 -6.53100 44.12500
C  20.92800 -7.60000 45.03100
C  22.28300 -7.40400 45.58100
C  19.65100 -6.05200 43.25700
C  19.92300 -8.57400 45.38000
O  18.87000 -8.69100 44.71600
C  20.10500 -9.41800 46.64100
N  25.25700 -7.31900 46.56900
C  24.36700 -8.37900 46.71000
C  25.00200 -9.50200 47.51800
C  26.31700 -8.87000 48.02700
C  26.38300 -7.51700 47.27700
C  24.20800 -10.08800 48.72700
C  27.57000 -9.82600 47.85800
C  28.30600 -10.14100 49.11300
N  26.78200 -5.02400 45.61100
C  27.77500 -5.60700 46.37000
C  29.02500 -4.96600 46.10200
C  28.71900 -3.95600 45.18100
C  27.33300 -4.06900 44.89600
C  30.31100 -5.33100 46.71600
C  29.26200 -2.83200 44.36700
O  30.32100 -2.26400 44.39100
C  28.02400 -2.27200 43.50200
C  27.84300 -0.83400 43.71200
O  27.27400 -0.34000 44.64300
O  28.28500 -0.14700 42.57200
C  28.00600 1.25900 42.40500
H  21.33600 -4.10500 42.85400
H  22.50100 -9.18800 46.71100
H  28.42800 -6.95600 47.81300
H  25.03300 -1.18300 42.45500
H  22.95600 -2.58800 41.40200
H  22.05700 -1.45700 44.00200
H  21.92100 -0.65300 42.48600
H  23.36700 -0.44400 43.49400
H  24.79900 -3.23000 40.16400
H  26.15100 -3.75600 41.15800
H  27.47800 -2.33200 40.15000
H  26.34700 -0.90100 40.30900
H  18.89300 -6.80800 43.05300
H  20.07300 -5.66600 42.32900
H  19.18000 -5.27000 43.85100
H  20.82900 -10.21200 46.46000
H  19.14500 -9.79200 46.99600
H  20.55400 -8.79300 47.41300
H  25.25800 -10.33000 46.85700
H  26.20800 -8.56300 49.06700
H  23.18300 -9.72900 48.81800
H  24.71500 -10.08200 49.69200
H  24.05200 -11.14100 48.49500
H  28.34800 -9.39400 47.22800
H  27.24300 -10.78000 47.44500
H  27.73200 -9.65800 49.90300
H  29.18000 -9.51400 48.94000
H  28.46500 -11.20500 49.29100
H  31.01200 -4.53300 46.47000
H  30.65100 -6.29800 46.34500
H  30.25500 -5.36500 47.80400
H  28.07300 -2.37600 42.41800
H  27.13000 1.53900 42.99000
H  27.84200 1.48500 41.35200
H  28.86000 1.85700 42.72400
Mg 16.98200 51.68900 26.13000
C  19.20000 50.25100 28.57200
C  15.11900 52.93300 28.79600
C  15.01600 52.97200 23.88700
C  19.07300 50.23700 23.72800
N  17.08000 51.46900 28.42600
C  18.11700 50.91200 29.11700
C  17.92000 51.15100 30.64300
C  16.30800 51.57600 30.64600
C  16.13900 52.03600 29.17000
C  15.38900 50.44100 31.15800
C  18.79700 52.17200 31.26200
C  18.85800 52.22000 32.77400
H  17.59500 51.80800 33.64500
N  15.25500 52.77400 26.28500
C  14.68200 53.22100 27.46000
C  13.47500 53.99900 27.10900
C  13.37500 54.03400 25.67300
C  14.54600 53.23500 25.20000
C  12.62300 54.56400 28.23300
C  12.35100 54.70500 24.76800
O  12.36000 54.65400 23.53700
C  11.30300 55.58600 25.47600
N  16.96200 51.51800 24.07700
C  16.19100 52.30300 23.34600
C  16.39700 52.08600 21.83500
C  17.68000 51.29100 21.83600
C  17.94400 51.02700 23.29600
C  15.22700 51.36200 21.15000
C  18.90100 51.88200 21.10900
C  19.86300 50.90000 20.38700
N  18.86200 50.54300 26.11700
C  19.50600 49.98400 25.04200
C  20.60600 49.11900 25.51800
C  20.59400 49.31300 26.89300
C  19.46500 50.10600 27.18800
C  21.62000 48.37200 24.67700
C  21.24900 48.94200 28.10400
O  22.23400 48.22500 28.25500
C  20.42000 49.61900 29.27500
C  20.10900 48.53200 30.24800
O  19.30900 47.61900 30.02700
O  20.79500 48.79800 31.45700
C  20.33300 48.02100 32.61400
H  14.54500 53.30200 29.64900
H  14.51900 53.58700 23.13300
H  19.65300 49.68600 22.98400
H  17.99700 50.18300 31.13800
H  16.11700 52.43400 31.29000
H  14.61900 50.10300 30.46500
H  14.86500 50.82900 32.03100
H  15.94500 49.60900 31.59100
H  18.27400 53.10900 31.07200
H  19.74900 52.00300 30.75900
H  19.21200 53.18400 33.14000
H  19.56200 51.42000 33.00400
H  12.16500 55.51700 27.96500
H  13.03000 54.70800 29.23400
H  11.79700 53.85500 28.28100
H  10.75400 56.11900 24.69900
H  11.76600 56.39100 26.04600
H  10.60900 54.96700 26.04400
H  16.52300 53.09700 21.44900
H  17.55800 50.26000 21.50300
H  15.39800 50.38900 20.68900
H  14.96500 52.13000 20.42300
H  14.35800 51.25700 21.80000
H  19.48700 52.50400 21.78600
H  18.56300 52.55600 20.32200
H  19.58300 49.90900 20.74300
H  20.86700 51.20700 20.68000
H  19.72600 50.96800 19.30700
H  21.62200 48.69400 23.63600
H  21.61400 47.28200 24.65400
H  22.60500 48.59900 25.08600
H  21.05700 50.38700 29.71400
H  19.24900 48.02200 32.71900
H  20.81700 48.25900 33.56200
H  20.49900 46.95700 32.44500

