158

Mg 24.41300 -5.14200 46.05600
C  26.43500 -2.74700 44.36900
C  21.87500 -4.46000 43.85400
C  22.96700 -8.21600 46.70500
C  27.48000 -6.38800 47.45600
N  24.17500 -3.72900 44.38000
C  25.12000 -2.78000 43.93900
C  24.63200 -2.02000 42.67300
C  23.11200 -2.43600 42.76500
C  23.01100 -3.66500 43.70700
C  22.07100 -1.34000 43.10000
C  25.25200 -2.36900 41.32300
C  26.00800 -1.22800 40.54300
H  25.56400 -1.14100 39.03800
N  22.57200 -6.10900 45.49400
C  21.66100 -5.61000 44.63200
C  20.52900 -6.46300 44.69600
C  20.81600 -7.49900 45.63600
C  22.19700 -7.29700 46.00200
C  19.35900 -6.22000 43.78400
C  19.78400 -8.62700 46.11000
O  18.62300 -8.62300 45.66500
C  20.09900 -9.63300 47.19900
N  25.01500 -6.91600 47.00100
C  24.25900 -8.05700 47.16600
C  24.95400 -9.12600 47.99200
C  26.35800 -8.53000 48.25200
C  26.28800 -7.16700 47.54700
C  24.13200 -9.29500 49.28500
C  27.53200 -9.48700 47.71500
C  28.83300 -9.73500 48.43800
N  26.45200 -4.48100 46.23400
C  27.53500 -5.12400 46.78900
C  28.76900 -4.35200 46.54500
C  28.39900 -3.36500 45.51100
C  27.01400 -3.54500 45.37700
C  30.02300 -4.66200 47.19000
C  28.81700 -2.39100 44.67300
O  29.95700 -1.94600 44.46200
C  27.56400 -1.89300 43.78600
C  27.38400 -0.49100 44.19000
O  26.92400 -0.08400 45.25500
O  27.92100 0.31100 43.16800
C  27.72000 1.81900 43.21500
H  21.02000 -3.99200 43.36100
H  22.53300 -9.19500 46.92100
H  28.40400 -6.72700 47.92800
H  24.82400 -0.95700 42.82100
H  22.76500 -2.85400 41.82000
H  21.62200 -0.77900 42.28100
H  22.61500 -0.61800 43.70800
H  21.15700 -1.69800 43.57400
H  24.43600 -2.84300 40.77800
H  25.90400 -3.21800 41.52700
H  27.08200 -1.38500 40.63600
H  25.87200 -0.24700 40.99900
H  19.68100 -6.36400 42.75200
H  18.98700 -5.21400 43.97900
H  18.54400 -6.90100 44.02600
H  20.67300 -9.17200 48.00300
H  20.65600 -10.42800 46.70300
H  19.20800 -10.05200 47.66600
H  24.98800 -9.99600 47.33700
H  26.68400 -8.36300 49.27800
H  24.72400 -9.16100 50.19000
H  23.68400 -10.28900 49.29300
H  23.28200 -8.61300 49.30000
H  27.77400 -9.11200 46.72100
H  27.22400 -10.53300 47.68700
H  28.67900 -9.44700 49.47800
H  29.51900 -9.01200 47.99600
H  29.29500 -10.71700 48.33700
H  30.78300 -3.98600 46.80000
H  30.18100 -5.69500 46.87700
H  30.00500 -4.57500 48.27700
H  27.61700 -2.01700 42.70500
H  28.66800 2.23900 43.55200
H  26.98000 2.19300 43.92300
H  27.37200 2.06300 42.21100
Mg 17.03300 52.26900 25.87000
C  18.80300 51.20800 28.60600
C  14.43600 52.94100 27.92600
C  15.40600 53.42500 23.21100
C  19.73000 51.30000 23.84300
N  16.65000 52.06300 28.02800
C  17.57400 51.66700 28.94000
C  17.08900 51.98300 30.40200
C  15.52300 52.29200 30.17200
C  15.46300 52.45600 28.62900
C  14.57700 51.19300 30.78900
C  17.85200 53.11800 31.11500
C  18.18200 52.89900 32.62500
H  17.13600 51.92200 33.38900
N  15.12400 53.21100 25.66300
C  14.20100 53.29600 26.65300
C  13.13500 53.95600 26.06300
C  13.33200 54.12900 24.68400
C  14.66500 53.61200 24.45200
C  11.93700 54.41800 26.90400
C  12.46900 54.55100 23.51700
O  12.80300 54.89500 22.40400
C  11.03700 54.86300 23.77800
N  17.55600 52.54900 23.80300
C  16.69400 52.91100 22.92300
C  17.24600 52.88600 21.49100
C  18.67900 52.23400 21.71800
C  18.72600 52.07000 23.21500
C  16.29500 52.12200 20.52900
C  19.81300 53.17200 21.21100
C  21.00600 52.50000 20.46700
N  18.78700 51.22900 26.05100
C  19.84900 50.98700 25.17700
C  20.89500 50.28500 25.81900
C  20.55600 50.40400 27.18900
C  19.34100 50.98100 27.28800
C  22.19400 49.70300 25.27500
C  21.03300 50.21000 28.52100
O  22.07300 49.74800 28.91000
C  19.97400 50.78300 29.48000
C  19.63000 49.59100 30.20200
O  18.82000 48.72500 29.82600
O  20.33000 49.53900 31.36300
C  19.54200 49.12800 32.49500
H  13.61600 53.17300 28.60800
H  14.82300 53.65000 22.31600
H  20.50400 50.93400 23.16600
H  17.14300 51.01800 30.90600
H  15.27300 53.14400 30.80600
H  14.13400 50.66300 29.94600
H  13.75100 51.57900 31.38600
H  15.12800 50.55100 31.47600
H  17.24900 54.02600 31.12500
H  18.69700 53.25000 30.43900
H  18.24200 53.86800 33.12100
H  19.19800 52.50400 32.66400
H  11.70500 55.48000 26.82500
H  11.99800 54.26800 27.98200
H  11.13700 53.81000 26.48200
H  10.86700 55.77200 24.35600
H  10.48700 54.04300 24.23800
H  10.53900 55.07100 22.83100
H  17.40200 53.91200 21.15600
H  18.63800 51.25500 21.23900
H  15.35200 52.59100 20.24600
H  16.16200 51.16800 21.03800
H  16.74400 51.85300 19.57400
H  20.26400 53.76700 22.00500
H  19.40500 53.77000 20.39700
H  21.98900 52.76500 20.85500
H  21.01700 52.59100 19.38100
H  20.91000 51.41600 20.52900
H  23.02500 50.05000 25.88800
H  22.36300 50.09300 24.27100
H  21.97200 48.63600 25.27100
H  20.51000 51.49400 30.10900
H  20.04100 48.21600 32.82400
H  18.45900 49.00700 32.45600
H  19.56100 49.89600 33.26800

