158

Mg 16.50400 51.66700 24.82200
C  18.01300 50.49000 27.70900
C  13.74000 52.60000 26.64500
C  14.80300 51.92500 21.94100
C  19.00000 50.03000 23.04100
N  15.90500 51.40400 26.99400
C  16.78400 51.07000 28.02600
C  16.17200 51.42700 29.37700
C  14.75800 51.93700 29.05800
C  14.75800 52.00200 27.47800
C  13.48500 51.15600 29.66500
C  17.12600 52.40100 30.13400
C  17.31900 52.30800 31.66100
H  16.53100 51.30700 32.50000
N  14.53400 52.26300 24.32900
C  13.53900 52.62100 25.25400
C  12.38900 52.95200 24.54400
C  12.64400 52.74200 23.16400
C  13.99300 52.28400 23.02400
C  11.12800 53.38200 25.26900
C  11.68800 52.91700 22.01700
O  12.05600 52.66700 20.86500
C  10.36400 53.59500 22.30100
N  16.83100 50.94900 22.80500
C  16.01100 51.34300 21.76800
C  16.58800 51.02300 20.40200
C  17.96600 50.53800 20.75200
C  17.98900 50.53700 22.25200
C  15.64000 50.05700 19.55500
C  19.22100 51.13900 20.06100
C  19.63500 52.55600 20.49800
N  18.19600 50.69700 25.24900
C  19.08100 50.06700 24.44200
C  20.12300 49.35300 25.11300
C  19.74000 49.50900 26.43200
C  18.61800 50.34200 26.47700
C  21.35500 48.77600 24.62500
C  20.04300 49.15800 27.80000
O  20.94900 48.52900 28.31300
C  18.94000 49.81500 28.69100
C  18.31300 48.67900 29.44700
O  17.27600 48.13400 29.22400
O  19.16600 48.31200 30.48700
C  18.83500 47.11400 31.29100
H  12.95900 53.03000 27.27500
H  14.31000 52.10000 20.98200
H  19.85900 49.54400 22.57500
H  16.02500 50.50600 29.94000
H  14.58100 52.93800 29.45000
H  12.82700 51.95900 29.99700
H  13.69100 50.41200 30.43500
H  13.00500 50.63100 28.83900
H  16.85300 53.40600 29.81300
H  18.12600 52.25700 29.72600
H  17.08300 53.29600 32.05600
H  18.35700 52.30900 31.99500
H  10.24700 52.89300 24.85400
H  11.12800 54.45600 25.08000
H  11.13700 53.07100 26.31300
H  10.52700 54.42000 22.99500
H  9.68700 52.81000 22.63900
H  9.92900 54.04900 21.41100
H  16.74700 51.96300 19.87300
H  17.87200 49.52200 20.36900
H  15.00500 50.49600 18.78500
H  14.87300 49.60800 20.18600
H  16.16500 49.33300 18.93200
H  19.05000 51.17900 18.98500
H  20.10600 50.54400 20.28300
H  19.67300 53.20700 19.62500
H  20.64100 52.45700 20.90600
H  18.91200 52.95900 21.20700
H  21.20600 48.10500 23.77900
H  21.99600 48.29200 25.36100
H  21.97300 49.51600 24.11600
H  19.32700 50.44900 29.48900
H  18.44900 46.26400 30.72700
H  18.13000 47.55300 31.99700
H  19.72700 46.83700 31.85200
Mg -3.21500 35.03600 27.22800
C  -4.14000 32.87300 29.85000
C  -1.72300 37.14100 29.65300
C  -2.54800 37.15700 24.86100
C  -4.90200 32.93100 24.97400
N  -3.14400 35.01600 29.54400
C  -3.50600 33.97100 30.30900
C  -3.23200 34.30800 31.72500
C  -2.62700 35.76200 31.68200
C  -2.38100 35.99600 30.19600
C  -3.57800 36.84500 32.29200
C  -2.29600 33.21800 32.39800
C  -2.74700 32.40600 33.66500
H  -1.93100 32.62200 34.94400
N  -2.13300 36.80500 27.24800
C  -1.56500 37.46100 28.34800
C  -1.04000 38.73100 27.78400
C  -1.16900 38.74500 26.39700
C  -2.00300 37.53600 26.10900
C  -0.28100 39.70000 28.75800
C  -0.75000 39.70700 25.30500
O  -0.80200 39.62400 24.07800
C  -0.03700 40.93700 25.89400
N  -3.69600 35.08500 25.16500
C  -3.23100 36.06900 24.39100
C  -3.50900 35.81500 22.92300
C  -4.34700 34.54000 22.96800
C  -4.33000 34.14900 24.45900
C  -4.10000 36.94700 22.06900
C  -3.76900 33.36600 22.10900
C  -2.41500 32.68400 22.52000
N  -4.33300 33.29800 27.36300
C  -4.83600 32.50200 26.35700
C  -5.40700 31.29800 26.92000
C  -5.13100 31.44800 28.24800
C  -4.47000 32.60900 28.50800
C  -6.19500 30.27800 26.16800
C  -5.42300 30.76800 29.46800
O  -6.07800 29.75900 29.75300
C  -4.70500 31.70200 30.63000
C  -5.87300 32.05300 31.51500
O  -6.73200 32.85500 31.18700
O  -5.79500 31.33700 32.71400
C  -6.70200 31.80000 33.71200
H  -1.27500 37.82500 30.37600
H  -2.47600 37.93300 24.09700
H  -5.16900 32.14800 24.26100
H  -4.16100 34.27300 32.29300
H  -1.64400 35.88000 32.13900
H  -3.04300 37.33300 33.10700
H  -4.50700 36.43300 32.68500
H  -3.84400 37.70400 31.67600
H  -1.33800 33.72900 32.49100
H  -2.16200 32.50800 31.58300
H  -2.66600 31.35600 33.38300
H  -3.78000 32.69700 33.86000
H  -0.18800 39.36500 29.79100
H  -0.59800 40.73900 28.66700
H  0.71600 39.65600 28.31900
H  0.86300 40.61000 26.41600
H  -0.73300 41.34500 26.62700
H  0.28300 41.56300 25.06100
H  -2.56000 35.68400 22.40100
H  -5.35500 34.68300 22.58100
H  -5.17300 36.80200 21.94200
H  -3.53200 37.14300 21.15900
H  -4.01800 37.93500 22.52300
H  -3.61100 33.72800 21.09300
H  -4.55000 32.61300 22.00000
H  -2.48400 31.60300 22.39300
H  -2.19300 32.90300 23.56400
H  -1.61000 33.10600 21.91900
H  -5.63600 29.41400 25.81000
H  -6.48800 30.81200 25.26300
H  -7.01700 29.89800 26.77400
H  -3.94200 31.11500 31.14100
H  -6.10200 32.53200 34.25200
H  -7.00000 30.97100 34.35500
H  -7.63300 32.18100 33.29500

