158

Mg 30.35100 57.69000 40.49800
C  27.74400 55.80900 38.96200
C  32.64200 55.46400 39.04100
C  32.81800 59.80200 41.12000
C  27.84200 60.10900 41.22400
N  30.14900 55.90000 38.99400
C  28.94500 55.26900 38.65200
C  29.26700 53.76800 38.22800
C  30.87700 53.69600 38.21000
C  31.27300 55.10900 38.84100
C  31.54300 52.49400 39.01700
C  28.61100 53.42400 36.81600
C  28.55000 54.62400 35.79700
H  29.09900 54.36300 34.42200
N  32.50500 57.66200 40.22300
C  33.20200 56.59800 39.68200
C  34.59200 57.03700 39.65200
C  34.73800 58.33200 40.14600
C  33.38100 58.63000 40.51800
C  35.65800 56.11500 39.10700
C  35.98000 59.10600 40.32400
O  37.10200 58.62900 40.15900
C  35.85700 60.55900 40.66800
N  30.30500 59.74600 41.09900
C  31.55000 60.30000 41.39200
C  31.19300 61.76400 41.87700
C  29.71600 61.69300 42.27200
C  29.18600 60.49000 41.46800
C  32.01100 62.12000 43.12200
C  28.95100 62.96300 41.85500
C  28.42200 63.75900 43.00800
N  28.19300 57.91600 40.24200
C  27.32400 58.90500 40.73500
C  26.01900 58.40400 40.62100
C  26.12600 57.21500 39.93300
C  27.48000 56.96700 39.69000
C  24.74600 59.11300 41.13900
C  25.33300 56.22800 39.32600
O  24.06500 56.02800 39.27800
C  26.32400 55.17100 38.70300
C  26.15400 53.89800 39.42200
O  26.48400 53.63400 40.59200
O  25.60400 52.94000 38.62100
C  25.26200 51.67800 39.15700
H  33.30600 54.66300 38.71100
H  33.58300 60.51700 41.43000
H  27.16000 60.80700 41.71500
H  28.97000 53.08600 39.02400
H  31.19900 53.67700 37.16800
H  32.35600 52.81700 39.66800
H  31.86600 51.79700 38.24300
H  30.81200 51.99800 39.65600
H  27.57000 53.13100 36.95300
H  29.01200 52.48700 36.43100
H  29.04900 55.50000 36.20900
H  27.49500 54.89900 35.81400
H  35.88700 56.48600 38.10800
H  35.36500 55.07100 39.00100
H  36.63100 56.16200 39.59600
H  36.83300 60.98700 40.44300
H  35.57800 60.59600 41.72100
H  35.10100 61.08500 40.08600
H  31.47500 62.47800 41.10400
H  29.52500 61.54300 43.33400
H  32.52200 62.99700 42.72300
H  32.73200 61.37400 43.45300
H  31.44800 62.34500 44.02800
H  28.02700 62.81700 41.29400
H  29.56100 63.67500 41.29900
H  27.46900 64.28600 42.95900
H  29.07000 64.61900 43.17900
H  28.46300 63.35100 44.01700
H  24.11500 58.45600 41.73800
H  24.19700 59.61900 40.34500
H  25.07800 59.90400 41.81200
H  26.05800 54.99800 37.66000
H  25.95500 50.85200 38.99400
H  24.30300 51.35200 38.75200
H  25.07000 51.83900 40.21700
Mg 1.96500 42.03200 24.29900
C  3.52900 42.07000 27.68900
C  -0.89300 41.16200 25.81200
C  0.81400 41.83000 21.33700
C  5.19600 42.67900 23.04000
N  1.41100 41.51400 26.49500
C  2.16500 41.69600 27.69000
C  1.27600 41.45500 28.95200
C  -0.11100 41.18500 28.34100
C  0.11300 41.24200 26.78700
C  -0.75600 39.90300 28.77900
C  1.32400 42.69000 29.87800
C  1.24000 42.41600 31.43300
H  -0.16400 42.10000 31.96000
N  0.28100 41.36000 23.67400
C  -0.86200 41.16500 24.45800
C  -2.04400 41.14300 23.57700
C  -1.55500 41.21100 22.21200
C  -0.09300 41.50300 22.38400
C  -3.46700 41.06100 24.13200
C  -2.28900 41.12400 20.91100
O  -1.76600 41.13600 19.77700
C  -3.76300 40.86100 21.01600
N  2.86700 42.04200 22.50000
C  2.15600 42.07100 21.36700
C  2.99200 42.33900 20.13200
C  4.38400 42.66800 20.77000
C  4.12100 42.47100 22.23200
C  2.97500 41.11500 19.10700
C  4.98900 44.06300 20.45100
C  4.37200 45.21900 21.16600
N  3.92300 42.39800 25.16000
C  5.12200 42.63800 24.47400
C  6.23100 42.69300 25.42800
C  5.60300 42.55900 26.70600
C  4.20600 42.35000 26.51400
C  7.71000 42.72700 25.15100
C  5.86800 42.47500 28.12400
O  6.94100 42.50700 28.64100
C  4.52000 42.15700 28.86100
C  4.68300 40.89900 29.64400
O  4.44600 39.74300 29.24700
O  5.31400 41.18100 30.82800
C  5.80800 39.98400 31.61300
H  -1.86300 41.04700 26.30000
H  0.37900 41.79600 20.33600
H  6.20600 42.97200 22.74600
H  1.61400 40.60700 29.54800
H  -0.81800 41.99000 28.54500
H  -0.18600 39.38200 29.54800
H  -0.80700 39.28300 27.88400
H  -1.73700 40.22400 29.12800
H  0.40500 43.25400 29.71500
H  2.10200 43.35700 29.50600
H  1.61200 43.27800 31.98700
H  1.88800 41.55700 31.60600
H  -3.44500 40.89800 25.21000
H  -4.02200 40.19000 23.78300
H  -4.06400 41.94100 23.89300
H  -4.28200 41.74100 21.39400
H  -3.94600 39.95300 21.59100
H  -4.16000 40.68600 20.01600
H  2.64600 43.19000 19.54600
H  5.02800 41.83100 20.49900
H  3.94700 40.68400 18.86600
H  2.71700 41.50600 18.12300
H  2.30200 40.36100 19.51300
H  4.85600 44.27400 19.39000
H  6.05200 44.07300 20.69100
H  3.49500 44.87900 21.71700
H  3.90600 45.86900 20.42500
H  5.09000 45.68100 21.84300
H  8.09500 41.86000 24.61400
H  8.23800 42.84700 26.09700
H  7.84100 43.58400 24.49100
H  4.10900 42.94200 29.49500
H  6.66000 39.48300 31.15500
H  4.98900 39.26400 31.60900
H  6.13200 40.33500 32.59200

