158

Mg 17.28600 -2.43100 28.12500
C  16.54300 -0.40900 30.82300
C  19.37000 -4.42900 30.14000
C  18.54300 -3.95200 25.34000
C  15.52800 -0.22900 26.05400
N  17.84100 -2.40800 30.24600
C  17.32600 -1.53600 31.20200
C  17.91300 -1.88400 32.59500
C  18.92100 -3.00800 32.35600
C  18.68400 -3.38500 30.83100
C  20.39600 -2.77700 32.68900
C  16.70200 -2.15400 33.57200
C  16.90200 -1.46500 34.98200
H  18.23400 -0.83800 35.35800
N  18.71500 -4.03200 27.82900
C  19.45100 -4.69600 28.74500
C  20.24500 -5.72800 28.07600
C  20.10200 -5.53500 26.67800
C  19.02000 -4.50600 26.52900
C  20.93300 -6.79100 28.84500
C  20.86100 -6.27400 25.47800
O  20.43100 -6.20800 24.32900
C  22.03800 -7.06200 25.69500
N  17.12000 -2.02700 25.93800
C  17.73200 -2.86000 25.04400
C  17.32400 -2.32800 23.57100
C  16.11200 -1.41600 23.84500
C  16.28900 -1.22400 25.37000
C  18.47500 -1.82800 22.73600
C  14.77000 -2.00300 23.51500
C  13.80500 -1.08500 22.71600
N  16.34100 -0.63100 28.27300
C  15.57700 0.12100 27.37400
C  14.80400 1.16100 28.03600
C  15.25500 0.98200 29.39600
C  16.25300 -0.02900 29.45800
C  13.92200 2.18400 27.37000
C  15.05400 1.51000 30.68700
O  14.27100 2.35800 31.05400
C  15.83800 0.67500 31.69100
C  16.80900 1.59800 32.32300
O  17.91800 1.73200 31.88600
O  16.32600 2.05500 33.45200
C  17.22600 2.94000 34.21000
H  19.78500 -5.18500 30.80900
H  18.94400 -4.40700 24.43200
H  14.75800 0.32900 25.51600
H  18.39400 -0.92200 32.77600
H  18.64000 -3.78500 33.06600
H  20.99100 -3.06900 31.82400
H  20.76600 -3.28500 33.58000
H  20.63000 -1.73800 32.92500
H  16.66600 -3.22900 33.75100
H  15.76300 -1.85600 33.10400
H  16.63900 -2.24400 35.69700
H  16.13000 -0.69600 35.02700
H  20.92100 -7.73500 28.30000
H  20.32600 -7.02700 29.71900
H  21.94200 -6.43200 29.04700
H  22.91000 -6.41200 25.78100
H  22.22000 -7.57900 24.75300
H  21.91700 -7.81100 26.47800
H  16.96300 -3.24300 23.10200
H  16.28300 -0.37200 23.58100
H  18.35200 -0.93700 22.12100
H  18.80800 -2.54400 21.98500
H  19.28600 -1.48400 23.37700
H  14.06000 -2.12700 24.33200
H  14.86900 -2.95900 23.00200
H  12.81200 -0.86200 23.10500
H  13.60200 -1.64000 21.80100
H  14.39900 -0.19800 22.49400
H  13.30700 2.66600 28.13000
H  13.28800 1.71600 26.61700
H  14.44500 2.95700 26.80700
H  15.25000 0.19000 32.47000
H  16.77400 3.92800 34.30200
H  18.27200 3.03100 33.91700
H  17.27000 2.45200 35.18400
Mg 8.67200 48.07000 27.62100
C  7.05800 47.44000 30.77100
C  11.62900 48.28600 29.54800
C  10.31800 48.68200 24.81500
C  5.62400 48.03200 26.05400
N  9.14400 47.93600 29.93000
C  8.40200 47.65100 30.98000
C  9.08000 47.75700 32.40000
C  10.56400 48.17600 31.89500
C  10.45700 48.08400 30.37100
C  11.21300 49.48000 32.42200
C  9.11400 46.64900 33.45000
C  8.84300 47.02000 34.93600
H  9.57900 46.12900 36.00500
N  10.63500 48.37300 27.20300
C  11.72600 48.40500 28.14600
C  12.90600 48.63900 27.48400
C  12.59700 48.83800 26.09800
C  11.13800 48.64600 25.96100
C  14.30400 48.71000 28.06400
C  13.56200 49.12800 24.89600
O  13.14100 49.23500 23.77300
C  15.10500 49.18400 25.09300
N  8.05500 48.22700 25.74900
C  8.87900 48.48900 24.76100
C  8.17600 48.58700 23.33600
C  6.66700 48.49600 23.76300
C  6.74600 48.22900 25.25600
C  8.46300 49.85700 22.58500
C  5.87000 47.42300 23.05300
C  5.86100 47.55800 21.53000
N  6.79600 47.77700 28.17800
C  5.66300 47.82700 27.45000
C  4.53800 47.65000 28.24700
C  5.05100 47.47700 29.54300
C  6.42300 47.57400 29.47000
C  3.09800 47.70700 27.87900
C  4.62300 47.21400 30.86700
O  3.52900 47.08700 31.41200
C  5.98700 47.15500 31.70800
C  6.09300 45.81300 32.22000
O  6.48300 44.87300 31.57300
O  5.82500 45.68200 33.61500
C  5.90900 44.28700 34.05900
H  12.53400 48.51200 30.11700
H  10.72000 49.03000 23.86100
H  4.64900 48.11000 25.56800
H  8.62800 48.67600 32.77100
H  11.23600 47.37700 32.20600
H  10.53100 49.88900 33.16700
H  11.32100 50.18400 31.59700
H  12.19700 49.30600 32.85900
H  10.06600 46.13600 33.31700
H  8.41000 45.88100 33.13100
H  7.77700 46.95200 35.15400
H  9.11800 48.05500 35.13900
H  14.75400 47.80400 27.65700
H  14.36600 48.66900 29.15100
H  14.90600 49.58400 27.81800
H  15.48200 50.02400 25.67600
H  15.54500 49.26800 24.09900
H  15.43600 48.20300 25.43600
H  8.52000 47.78400 22.68400
H  6.12300 49.42300 23.58700
H  8.79900 50.71200 23.17100
H  7.58300 50.16700 22.02200
H  9.28400 49.64900 21.89800
H  4.84200 47.46300 23.41500
H  6.23500 46.42200 23.28600
H  6.80800 47.33500 21.03700
H  5.65800 48.61000 21.32800
H  5.06600 46.93900 21.11500
H  2.86800 46.84400 27.25400
H  2.93700 48.70700 27.47700
H  2.50600 47.75300 28.79400
H  5.99800 48.02000 32.37000
H  6.85500 43.81400 33.79500
H  5.05600 43.71300 33.69700
H  5.77000 44.24900 35.14000

