158

Mg 48.41200 35.25200 27.71600
C  46.14500 33.67700 29.90600
C  48.49700 38.03100 29.99100
C  50.16300 37.10200 25.43000
C  47.48500 33.02200 25.23900
N  47.45500 35.71500 29.71000
C  46.70900 34.90900 30.45300
C  46.70400 35.28700 31.88300
C  46.84300 36.89000 31.63600
C  47.69000 36.92500 30.39800
C  45.44400 37.65700 31.52800
C  47.75700 34.62600 32.81300
C  47.63100 34.78900 34.32600
H  46.80400 35.98400 34.84300
N  49.41900 37.15800 27.82400
C  49.33200 38.12300 28.81500
C  50.25800 39.17500 28.48500
C  50.81300 38.91500 27.17000
C  50.16300 37.65900 26.72200
C  50.41100 40.37000 29.35200
C  51.74900 39.75100 26.32900
O  52.19100 39.33300 25.24800
C  52.31100 41.05500 26.79600
N  48.79800 35.09500 25.58400
C  49.59500 35.90600 24.91100
C  49.77300 35.41100 23.47500
C  49.03500 34.07000 23.47100
C  48.38300 34.07300 24.87600
C  49.34300 36.44400 22.47700
C  49.89300 32.86800 23.13100
C  49.97900 32.41700 21.60700
N  47.06600 33.68800 27.52900
C  46.80500 32.85700 26.49500
C  45.86600 31.80000 26.87200
C  45.54100 32.12700 28.20300
C  46.28700 33.34300 28.54700
C  45.40700 30.69200 26.04900
C  44.77900 31.71700 29.42800
O  44.06600 30.74800 29.59600
C  45.00400 32.85200 30.46300
C  45.11100 32.35900 31.80700
O  45.92400 31.55700 32.19300
O  44.26000 32.93100 32.68900
C  44.16300 32.46600 34.06600
H  48.43400 38.86800 30.69000
H  50.74300 37.65100 24.68500
H  47.33500 32.21000 24.52400
H  45.71700 35.08000 32.29600
H  47.47600 37.28900 32.42900
H  44.58700 37.04100 31.80000
H  45.40600 37.95500 30.48000
H  45.37700 38.49400 32.22200
H  48.72700 35.07900 32.60900
H  47.83000 33.61500 32.41100
H  48.63400 34.90900 34.73400
H  47.20400 33.85400 34.69100
H  51.38400 40.31300 29.84000
H  49.68800 40.34400 30.16700
H  50.45500 41.35100 28.87900
H  53.02400 41.39200 26.04400
H  52.78200 41.02500 27.77800
H  51.61300 41.89200 26.83000
H  50.86200 35.36700 23.44700
H  48.15300 34.11800 22.83300
H  48.35700 36.84900 22.70800
H  49.29400 36.13100 21.43400
H  49.94900 37.34500 22.56000
H  49.75500 31.94200 23.69000
H  50.95400 33.07600 23.26900
H  49.35800 33.14000 21.07900
H  49.71200 31.38500 21.37700
H  50.90900 32.38200 21.03800
H  44.60600 31.17900 25.49200
H  45.10900 29.89000 26.72300
H  46.22600 30.41100 25.38600
H  44.09200 33.44800 30.50000
H  44.85600 31.67100 34.34200
H  43.11500 32.17200 34.10600
H  44.25400 33.27700 34.78900
Mg -4.24400 25.45300 26.31800
C  -3.01900 26.29600 29.35800
C  -6.46400 23.14200 27.93800
C  -5.03500 23.92400 23.34400
C  -1.90900 27.46000 24.82400
N  -4.58800 24.77700 28.45300
C  -3.98100 25.32500 29.48800
C  -4.51900 24.68900 30.83400
C  -5.44300 23.53800 30.25900
C  -5.52400 23.81200 28.76900
C  -4.87800 22.14900 30.68100
C  -5.34700 25.82900 31.57200
C  -5.37200 25.90700 33.10800
H  -4.64600 24.76300 33.83300
N  -5.67700 23.87300 25.75100
C  -6.55400 23.16100 26.52400
C  -7.39300 22.30800 25.67700
C  -6.94800 22.42300 24.34400
C  -5.82500 23.38500 24.44400
C  -8.37700 21.39900 26.34900
C  -7.33600 21.69100 23.10600
O  -6.75400 21.90100 21.99500
C  -8.38000 20.60300 23.18800
N  -3.70000 25.71300 24.40100
C  -4.10600 24.96600 23.31000
C  -3.37500 25.33700 22.05500
C  -2.61100 26.71700 22.54100
C  -2.68900 26.59400 24.02400
C  -2.52800 24.19400 21.43200
C  -3.10700 28.12000 21.97800
C  -1.98400 29.28300 21.69000
N  -2.72200 26.66500 26.85600
C  -1.90800 27.44200 26.20100
C  -1.07600 28.23000 27.11000
C  -1.48300 27.82300 28.33900
C  -2.49500 26.92500 28.18500
C  0.02200 29.19900 26.85600
C  -1.21900 27.98300 29.73000
O  -0.39300 28.64000 30.38700
C  -2.21600 26.99200 30.46300
C  -1.35100 26.19600 31.35900
O  -0.87300 25.13500 30.99500
O  -1.12700 26.77800 32.55900
C  -0.33300 25.83600 33.43100
H  -7.05200 22.37800 28.45100
H  -5.15000 23.69700 22.28200
H  -1.21000 28.20300 24.43400
H  -3.69200 24.28600 31.42000
H  -6.42700 23.73800 30.68400
H  -3.96600 22.13300 31.27800
H  -4.83500 21.58900 29.74700
H  -5.65500 21.72300 31.31500
H  -6.37600 25.76200 31.21900
H  -5.11800 26.83300 31.21700
H  -6.44400 25.95200 33.29700
H  -4.90200 26.86800 33.31800
H  -9.21100 21.38600 25.64800
H  -8.73300 21.66600 27.34400
H  -7.78300 20.49800 26.50200
H  -9.31600 20.92100 23.64800
H  -8.01700 19.74300 23.75100
H  -8.52100 20.18100 22.19300
H  -4.16800 25.37400 21.30800
H  -1.55400 26.55500 22.33200
H  -1.56400 24.68800 21.31900
H  -3.00300 24.00500 20.46900
H  -2.47500 23.23400 21.94600
H  -3.78500 28.54600 22.71800
H  -3.58300 27.85400 21.03300
H  -0.99300 28.84200 21.79800
H  -2.24700 30.07800 22.38800
H  -2.06500 29.77000 20.71800
H  -0.18400 29.68200 25.90000
H  0.96100 28.64600 26.84900
H  0.01100 29.86700 27.71700
H  -2.85300 27.58600 31.11900
H  0.63700 25.64000 32.97300
H  -0.96600 24.95500 33.53900
H  -0.09200 26.26800 34.40200

