158

Mg 46.37800 24.48600 28.44300
C  46.72300 26.86500 31.15900
C  46.04200 22.11000 30.98600
C  46.24100 22.32400 26.04300
C  47.57500 26.92700 26.24800
N  46.16900 24.49200 30.80800
C  46.51100 25.57100 31.66400
C  46.46900 25.10500 33.16100
C  46.18400 23.54800 32.99200
C  46.22900 23.36600 31.47400
C  47.19000 22.66400 33.90100
C  45.45500 25.86600 34.02900
C  45.01000 25.19900 35.37500
H  45.80700 25.62900 36.59900
N  46.08600 22.51500 28.47300
C  45.93700 21.73300 29.61100
C  45.74100 20.33900 29.15600
C  45.70900 20.40100 27.69800
C  45.97400 21.80000 27.35800
C  45.66200 19.16100 30.10900
C  45.43100 19.25100 26.76100
O  45.58300 19.34900 25.58400
C  44.99800 18.01400 27.30900
N  46.79000 24.70100 26.39200
C  46.64100 23.61100 25.58800
C  47.03700 23.91000 24.21500
C  47.54000 25.42300 24.24600
C  47.32900 25.72700 25.70400
C  48.04500 22.89900 23.55400
C  46.84100 26.43600 23.30300
C  45.34300 26.79800 23.64100
N  46.93900 26.43000 28.55800
C  47.38500 27.26300 27.61900
C  47.58400 28.58400 28.13100
C  47.34900 28.43100 29.53500
C  46.95700 27.11000 29.75600
C  48.01400 29.84500 27.33000
C  47.41400 29.16100 30.79000
O  47.66500 30.32900 31.06300
C  46.92900 28.20700 31.93000
C  48.06400 27.95200 32.85400
O  49.01300 27.23900 32.59900
O  47.87000 28.70500 33.99900
C  48.92600 28.61700 35.03500
H  46.07700 21.32100 31.74100
H  46.18000 21.55500 25.27100
H  48.06800 27.62300 25.56600
H  47.42000 25.30100 33.65800
H  45.18100 23.35000 33.37000
H  47.95100 23.20200 34.46500
H  47.77300 21.92500 33.35100
H  46.52300 22.17100 34.60900
H  44.61900 26.22100 33.42700
H  45.95100 26.75800 34.40900
H  45.31000 24.15300 35.32400
H  43.94700 25.31600 35.58700
H  45.87800 18.24500 29.56000
H  44.65700 19.10200 30.52700
H  46.41200 19.36700 30.87300
H  45.88800 17.51700 27.69700
H  44.65800 17.42600 26.45700
H  44.20500 18.20400 28.03300
H  46.12500 23.90500 23.61900
H  48.60700 25.56500 24.07800
H  48.72600 23.27600 22.79100
H  47.55000 22.09700 23.00700
H  48.73400 22.46600 24.27800
H  46.82200 26.06200 22.28000
H  47.43000 27.34600 23.42200
H  45.30400 27.87300 23.81400
H  45.02000 26.14300 24.45000
H  44.66600 26.61200 22.80800
H  47.57200 30.68600 27.86300
H  47.54700 29.76300 26.34800
H  49.10200 29.87200 27.28700
H  46.08300 28.60400 32.49100
H  48.59800 29.36700 35.75400
H  49.89300 28.82600 34.57700
H  49.12100 27.61600 35.42100
Mg -2.26300 35.03300 26.69200
C  -3.87600 32.94900 29.16500
C  -0.77600 36.64600 29.25500
C  -1.12400 37.04800 24.39300
C  -3.95900 33.05200 24.25400
N  -2.48500 34.80100 28.99000
C  -3.08500 33.89200 29.79800
C  -2.77300 34.06500 31.24500
C  -1.76600 35.27600 31.27400
C  -1.63200 35.61500 29.73700
C  -2.28200 36.44200 32.14400
C  -2.07400 32.89700 31.87900
C  -2.72100 32.20800 33.09000
H  -1.81500 31.93800 34.26400
N  -1.11800 36.72300 26.83700
C  -0.57500 37.17500 27.95400
C  0.39700 38.20500 27.61300
C  0.33900 38.32500 26.21000
C  -0.72500 37.42300 25.75100
C  1.15300 39.09900 28.62400
C  1.14900 39.12600 25.32200
O  0.95500 39.10100 24.10900
C  2.21700 40.11100 25.81200
N  -2.59800 35.10100 24.69700
C  -1.95500 36.05100 23.90900
C  -2.13500 35.78100 22.39400
C  -2.83000 34.33900 22.32200
C  -3.07900 34.08400 23.88800
C  -2.92000 36.93900 21.64300
C  -1.90800 33.27100 21.70400
C  -0.75400 32.85700 22.54600
N  -3.74500 33.40800 26.67500
C  -4.28000 32.69200 25.61100
C  -5.07400 31.60200 26.08900
C  -4.96300 31.68000 27.49000
C  -4.09500 32.75200 27.75500
C  -5.80700 30.64100 25.25600
C  -5.31400 31.00000 28.73800
O  -6.03400 30.02700 28.99400
C  -4.64400 31.81100 29.82400
C  -5.67800 32.28000 30.77300
O  -6.24100 33.37000 30.68200
O  -5.95700 31.32800 31.76700
C  -6.72000 31.87300 32.93700
H  -0.11600 37.07600 30.01100
H  -0.64000 37.56300 23.56000
H  -4.20900 32.28900 23.51400
H  -3.74200 34.30300 31.68500
H  -0.76200 35.02400 31.61500
H  -1.76300 37.36100 31.87400
H  -1.94100 36.08900 33.11700
H  -3.37100 36.49900 32.17000
H  -1.09300 33.12900 32.29500
H  -1.87000 32.05100 31.22400
H  -3.11800 31.21500 32.87700
H  -3.59600 32.75100 33.44800
H  0.68500 40.07300 28.76700
H  2.20000 39.30600 28.40100
H  1.09500 38.62200 29.60200
H  2.62500 40.76500 25.04200
H  3.04100 39.63900 26.34800
H  1.75700 40.80900 26.51100
H  -1.09000 35.65400 22.11200
H  -3.65300 34.48000 21.62200
H  -2.99600 37.78200 22.33000
H  -3.95700 36.65900 21.45800
H  -2.39000 37.45300 20.84200
H  -1.45200 33.57900 20.76400
H  -2.59300 32.43700 21.55200
H  -0.81900 31.77600 22.66300
H  -0.81400 33.43900 23.46600
H  0.20200 33.00200 22.04300
H  -5.19600 30.35300 24.40100
H  -6.69400 31.20500 24.96800
H  -6.04300 29.75800 25.84900
H  -3.91800 31.22300 30.38700
H  -6.18100 32.70200 33.39500
H  -6.91100 31.02700 33.59700
H  -7.73600 32.23300 32.77400

