158

Mg 16.46100 -1.56100 27.82900
C  15.28500 0.37600 30.43700
C  18.40900 -3.30900 30.00600
C  17.64300 -3.13100 25.18000
C  14.75800 0.76400 25.60400
N  16.95400 -1.42900 29.94500
C  16.25800 -0.61900 30.84400
C  16.82000 -0.69700 32.24500
C  17.95500 -1.76600 32.07300
C  17.80600 -2.19200 30.60200
C  19.36000 -1.34100 32.46000
C  15.77800 -1.19100 33.24200
C  15.87000 -0.60400 34.65100
H  17.25800 -0.18300 35.18800
N  17.78000 -3.09600 27.62100
C  18.45300 -3.79400 28.65200
C  19.26100 -4.91200 28.07800
C  19.03900 -4.79900 26.58700
C  18.11800 -3.63400 26.41500
C  20.08100 -5.80500 28.96200
C  19.60400 -5.68900 25.44300
O  19.51600 -5.52000 24.23500
C  20.45500 -7.00400 25.85400
N  16.25000 -1.20400 25.57900
C  16.81200 -2.09100 24.77000
C  16.59300 -1.64400 23.29700
C  15.51100 -0.51000 23.44400
C  15.48000 -0.26100 24.93400
C  17.84400 -1.25600 22.42800
C  14.02800 -0.85200 22.96800
C  13.82200 -0.79500 21.46800
N  15.15000 0.08900 27.91100
C  14.52900 0.92600 26.93300
C  13.70300 1.91900 27.58400
C  14.00000 1.73400 28.97100
C  14.79700 0.54500 29.09200
C  12.98100 3.02800 26.94200
C  13.85900 2.40300 30.22000
O  13.37100 3.49500 30.53700
C  14.67700 1.49200 31.23800
C  15.67900 2.30000 32.05000
O  16.88100 2.59100 31.80500
O  14.94700 2.72300 33.15000
C  15.59500 3.74600 33.88600
H  18.90900 -3.87900 30.79200
H  18.13600 -3.65100 24.35600
H  14.12900 1.39100 24.96700
H  17.31400 0.22600 32.54700
H  17.72800 -2.64500 32.67600
H  19.39600 -0.32700 32.85700
H  20.01000 -1.41700 31.58800
H  19.76700 -2.05400 33.17700
H  15.68800 -2.27500 33.30900
H  14.78200 -0.83200 32.98400
H  15.53200 -1.40500 35.30900
H  15.19900 0.24000 34.81300
H  20.17200 -5.38800 29.96500
H  21.04400 -5.91400 28.46200
H  19.67400 -6.81500 28.91800
H  19.81500 -7.68400 26.41600
H  21.34800 -6.69900 26.40100
H  20.80300 -7.46100 24.92800
H  16.05500 -2.38100 22.70200
H  15.87900 0.42500 23.02200
H  17.92800 -0.21100 22.12900
H  17.86600 -1.85900 21.51900
H  18.75300 -1.53900 22.95900
H  13.29300 -0.17400 23.40200
H  13.80500 -1.82800 23.39800
H  14.16800 0.15200 21.05300
H  12.73700 -0.84300 21.37600
H  14.22500 -1.65600 20.93400
H  13.53800 3.36700 26.06900
H  12.88100 3.86600 27.63100
H  12.00900 2.69500 26.57700
H  13.89800 1.12000 31.90300
H  14.97800 3.96400 34.75800
H  15.75800 4.63700 33.28100
H  16.63000 3.51800 34.14100
Mg 48.53100 35.33600 28.60400
C  46.55200 33.60500 30.80100
C  48.42100 37.94700 30.77400
C  49.57500 37.33100 26.00400
C  48.14400 32.76200 26.25800
N  47.87100 35.59400 30.64200
C  47.00200 34.79900 31.36500
C  46.90900 35.23500 32.85900
C  47.12200 36.77200 32.54500
C  47.88600 36.79700 31.27800
C  45.86500 37.78400 32.52500
C  48.14500 34.64900 33.60300
C  47.93800 34.39300 35.09100
H  47.00500 35.43700 35.72300
N  49.09900 37.43200 28.46600
C  49.00900 38.33300 29.50800
C  49.47200 39.58500 28.97500
C  49.89700 39.38200 27.60500
C  49.55600 37.97200 27.29000
C  49.58500 40.84200 29.90200
C  50.51000 40.36500 26.68900
O  50.75700 40.14700 25.50500
C  50.90400 41.77900 27.20200
N  48.77000 35.11500 26.38800
C  49.25600 36.06600 25.60700
C  49.21400 35.60900 24.06600
C  48.91800 34.02700 24.19900
C  48.74500 33.92000 25.73300
C  48.33700 36.28800 23.01100
C  49.99200 33.19500 23.49300
C  49.95500 33.28300 21.97400
N  47.81000 33.54700 28.58300
C  47.72000 32.57600 27.57600
C  46.87600 31.47200 28.03000
C  46.42300 31.83400 29.25800
C  46.99300 33.10900 29.55400
C  46.57400 30.22700 27.31100
C  45.55300 31.40100 30.33400
O  44.91300 30.38800 30.53500
C  45.43100 32.63500 31.30000
C  45.57600 32.21500 32.69600
O  46.59500 31.64900 33.04200
O  44.51300 32.63300 33.51200
C  44.62400 32.34500 34.99500
H  48.21400 38.78500 31.44300
H  50.01700 37.87500 25.16600
H  47.97300 31.89500 25.61700
H  45.95700 35.03400 33.35200
H  47.84400 37.09300 33.29500
H  44.98100 37.24800 32.87100
H  45.76000 38.11800 31.49300
H  46.20100 38.65200 33.09300
H  49.07200 35.21200 33.49100
H  48.24700 33.64500 33.19100
H  48.80700 34.46400 35.74500
H  47.56000 33.37900 35.21900
H  50.60400 41.22800 29.94400
H  49.38900 40.49900 30.91800
H  48.81200 41.57600 29.67300
H  50.01200 42.15300 27.70500
H  51.26200 42.39200 26.37400
H  51.73200 41.65400 27.89900
H  50.25700 35.76400 23.78800
H  47.97700 33.68200 23.77100
H  47.53700 35.58800 22.77100
H  48.90700 36.64200 22.15200
H  47.88000 37.17600 23.44800
H  49.73700 32.17900 23.79600
H  50.94900 33.48300 23.92700
H  48.98200 33.61700 21.61500
H  50.22100 32.33100 21.51400
H  50.66200 34.04700 21.65100
H  47.29500 29.98000 26.53100
H  45.69300 30.49800 26.72900
H  46.36000 29.38300 27.96600
H  44.54300 33.24200 31.12500
H  43.86300 31.59300 35.19900
H  44.43700 33.27800 35.52700
H  45.63400 31.98500 35.19100

