158

Mg 47.25600 25.18500 28.77000
C  48.08800 27.31100 31.52900
C  46.24200 22.83100 31.09500
C  47.04200 23.07900 26.25100
C  48.85400 27.46300 26.71500
N  47.57300 24.93600 31.09200
C  47.56500 26.07900 31.97200
C  47.16300 25.62400 33.50400
C  46.86700 24.10500 33.30600
C  46.86900 23.91600 31.70900
C  47.93700 23.17600 34.06600
C  46.04000 26.45400 34.15500
C  46.32000 27.06800 35.52000
H  45.11100 27.22400 36.46200
N  46.59300 23.36100 28.60100
C  46.14000 22.52800 29.68900
C  45.59900 21.27600 29.14600
C  45.90000 21.20900 27.75000
C  46.51100 22.59200 27.46700
C  44.84600 20.23200 30.04700
C  45.83700 19.97500 26.81200
O  46.19000 20.08900 25.64400
C  45.22100 18.73000 27.26800
N  47.91500 25.23200 26.82200
C  47.65300 24.30600 25.89900
C  47.80400 24.77700 24.47400
C  48.17900 26.27200 24.68700
C  48.35300 26.37300 26.18500
C  48.82100 23.99200 23.59100
C  47.06500 27.32900 24.21200
C  47.56100 28.75600 23.82300
N  48.24300 27.03700 29.03600
C  48.85600 27.80200 28.07900
C  49.25000 29.02600 28.63300
C  48.98000 28.91400 30.00700
C  48.37900 27.64600 30.20400
C  49.90400 30.13200 27.90300
C  48.98700 29.60600 31.29500
O  49.21200 30.74600 31.61800
C  48.53300 28.48600 32.39500
C  49.55000 28.13600 33.35900
O  50.63700 27.58800 33.15100
O  49.18100 28.75700 34.57000
C  50.05000 28.31600 35.64900
H  45.87800 22.02800 31.73900
H  46.90100 22.38000 25.42400
H  49.34300 28.13600 26.00800
H  47.94100 25.75100 34.25700
H  45.86000 23.88000 33.65700
H  47.54700 22.84600 35.02900
H  48.88200 23.71900 34.08700
H  48.23000 22.29100 33.50000
H  45.20400 25.80100 34.40700
H  45.61200 27.20400 33.49000
H  46.76900 28.05800 35.43500
H  47.09400 26.48200 36.01800
H  43.99400 19.82300 29.50400
H  44.36700 20.75000 30.87700
H  45.41600 19.39200 30.44400
H  45.83800 18.40700 28.10700
H  45.28300 17.95700 26.50200
H  44.20300 19.02500 27.52100
H  46.82800 24.78700 23.98900
H  49.11900 26.49700 24.18400
H  49.31200 23.15100 24.08000
H  49.62800 24.67400 23.32000
H  48.34400 23.77500 22.63500
H  46.29000 27.35900 24.97800
H  46.59400 26.87300 23.34200
H  47.31000 29.57100 24.50100
H  47.18700 29.07200 22.84900
H  48.64700 28.68500 23.77500
H  49.20800 30.64400 27.23900
H  50.80600 29.76300 27.41500
H  50.33900 30.80900 28.63900
H  47.65700 28.86000 32.92600
H  49.50300 27.50100 36.12200
H  50.31800 29.00900 36.44600
H  51.01400 27.87600 35.39200
Mg -4.87600 24.93800 26.44200
C  -3.35400 26.66900 29.10400
C  -5.82000 22.65800 28.75100
C  -6.34700 23.54700 23.90500
C  -3.30700 27.32300 24.18600
N  -4.69000 24.80100 28.68100
C  -4.18000 25.65900 29.53300
C  -4.51500 25.35200 30.96000
C  -4.75800 23.77900 30.95300
C  -5.13500 23.74600 29.39500
C  -3.45200 22.99700 31.23600
C  -5.74100 26.17100 31.50900
C  -5.49400 26.94800 32.83800
H  -4.96000 26.18800 34.03400
N  -5.99200 23.31500 26.28500
C  -6.25900 22.45000 27.38900
C  -7.11300 21.40400 26.88300
C  -7.32200 21.69100 25.46800
C  -6.50500 22.89700 25.15700
C  -7.55000 20.27400 27.70100
C  -8.15300 21.00800 24.38400
O  -8.23900 21.27300 23.20200
C  -9.12000 19.96800 24.88300
N  -4.62400 25.28100 24.33300
C  -5.53700 24.68100 23.56400
C  -5.40200 25.13400 22.09600
C  -4.30600 26.21000 22.11100
C  -4.07800 26.33500 23.64300
C  -5.05500 23.94000 21.15400
C  -4.71700 27.56100 21.43100
C  -3.82600 28.01200 20.27500
N  -3.55400 26.59400 26.57100
C  -3.04900 27.44100 25.58800
C  -2.18700 28.40400 26.22800
C  -2.27100 28.13400 27.59300
C  -3.13700 27.06400 27.72900
C  -1.36300 29.59500 25.71500
C  -1.74400 28.58100 28.92600
O  -0.95700 29.45500 29.27600
C  -2.62300 27.69000 29.90900
C  -1.69000 27.10200 30.91500
O  -0.69900 26.44900 30.65700
O  -1.97300 27.40000 32.17100
C  -1.04600 26.95500 33.20500
H  -6.06400 21.86100 29.45700
H  -6.92400 23.25300 23.02500
H  -2.88800 28.12700 23.57700
H  -3.69800 25.63400 31.62400
H  -5.53800 23.57200 31.68600
H  -3.53400 22.35500 32.11400
H  -2.63100 23.69100 31.41400
H  -3.22800 22.38500 30.36200
H  -6.67500 25.61400 31.58000
H  -5.99500 26.92800 30.76700
H  -6.41900 27.33500 33.26400
H  -4.86600 27.83200 32.73400
H  -8.63900 20.24400 27.73900
H  -7.13700 20.29800 28.70900
H  -7.15300 19.35900 27.26200
H  -8.56500 19.06300 25.13000
H  -9.72600 19.71000 24.01500
H  -9.75000 20.35800 25.68200
H  -6.32000 25.51300 21.64500
H  -3.32200 25.84800 21.81300
H  -5.80100 23.88400 20.36100
H  -5.05400 22.98100 21.67300
H  -4.04700 24.07500 20.76200
H  -4.78200 28.34500 22.18400
H  -5.69100 27.34400 20.99200
H  -2.89500 28.53200 20.50000
H  -4.42300 28.66200 19.63600
H  -3.61400 27.23100 19.54400
H  -1.48300 29.71200 24.63800
H  -0.28400 29.45200 25.76800
H  -1.62000 30.43200 26.36500
H  -3.29000 28.31500 30.50200
H  -0.82200 25.89100 33.12400
H  -1.61500 27.21800 34.09600
H  -0.08900 27.47300 33.25700

