158

Mg 46.68600 24.95700 28.62300
C  47.39700 27.13500 31.29200
C  45.36900 22.75300 30.80200
C  46.55700 22.65300 26.11600
C  48.12100 27.19800 26.48000
N  46.45800 24.95400 30.82100
C  46.76300 25.98200 31.69900
C  46.21100 25.59800 33.11000
C  45.49200 24.19200 32.89600
C  45.79700 23.88300 31.43200
C  45.85800 23.13300 33.91000
C  45.27400 26.63900 33.84100
C  45.80500 27.19400 35.16400
H  44.82400 27.29400 36.32500
N  46.21400 22.93300 28.48800
C  45.54800 22.24400 29.47700
C  45.35700 20.85400 29.02200
C  45.76900 20.80500 27.67500
C  46.20900 22.15300 27.33600
C  44.62600 19.87200 29.91500
C  45.80800 19.65000 26.63900
O  46.12200 19.77700 25.44500
C  45.34200 18.26700 27.16600
N  47.25500 24.94700 26.55600
C  47.10000 23.87800 25.75900
C  47.64700 24.18800 24.36100
C  47.80700 25.74200 24.39500
C  47.68200 26.02600 25.87800
C  49.00500 23.41100 24.14800
C  46.76100 26.46600 23.61400
C  46.93200 26.66000 22.13900
N  47.56600 26.78300 28.78800
C  48.06800 27.63200 27.81900
C  48.50300 28.90000 28.35800
C  48.29500 28.70900 29.70800
C  47.69500 27.39700 29.97200
C  49.20300 30.00100 27.71400
C  48.45000 29.37200 31.02000
O  48.88500 30.46400 31.39300
C  47.81700 28.40200 32.00700
C  48.78300 28.25500 33.13100
O  49.78200 27.50000 33.14000
O  48.48300 29.10300 34.17400
C  49.14100 28.70300 35.42800
H  44.90600 22.17300 31.60400
H  46.64000 21.99300 25.24900
H  48.48000 27.91400 25.73800
H  47.08200 25.45400 33.75000
H  44.40300 24.14300 32.92400
H  45.22500 22.24800 33.84400
H  45.74700 23.57300 34.90200
H  46.89500 22.82700 33.77200
H  44.40200 26.09100 34.19800
H  45.03400 27.44200 33.14400
H  46.29000 28.16800 35.10200
H  46.57400 26.48500 35.47300
H  43.57000 19.86200 29.64600
H  44.74100 20.17600 30.95500
H  45.00500 18.85100 29.95900
H  45.42000 17.60000 26.30800
H  44.35900 18.14700 27.62300
H  46.07300 18.08700 27.95400
H  47.03700 23.85200 23.52200
H  48.78200 26.08400 24.04600
H  49.86100 24.07200 24.01100
H  49.04300 22.58200 23.44200
H  49.19200 22.93800 25.11200
H  46.75900 27.47100 24.03600
H  45.75300 26.06000 23.69500
H  47.76200 26.04200 21.79600
H  47.21000 27.69500 21.93800
H  46.07500 26.33000 21.55200
H  49.43500 29.56200 26.74400
H  50.11000 30.33400 28.21700
H  48.51900 30.84600 27.63700
H  46.95700 28.93400 32.41400
H  50.16300 29.07600 35.37500
H  49.10000 27.63700 35.65100
H  48.66900 29.20200 36.27500
Mg 0.24600 42.79100 26.06200
C  2.56800 42.20700 28.66000
C  -2.28500 41.88200 28.29200
C  -2.01900 42.42700 23.53500
C  2.77100 43.07900 23.80700
N  0.22400 42.10600 28.21300
C  1.24400 42.08900 29.14800
C  0.73000 41.88200 30.60800
C  -0.82000 41.85300 30.35000
C  -1.02100 42.03600 28.89000
C  -1.45400 40.52400 30.87900
C  1.25800 42.97700 31.54000
C  1.89300 42.50500 32.83900
H  1.28800 41.21400 33.46700
N  -1.84300 42.35400 25.94600
C  -2.69400 42.01700 26.99100
C  -4.04300 41.75700 26.52600
C  -3.95200 41.86800 25.11200
C  -2.54200 42.24200 24.80700
C  -5.24600 41.34700 27.51600
C  -5.10000 41.67700 24.12400
O  -4.96700 42.04700 22.97800
C  -6.56100 41.34700 24.57300
N  0.36800 42.77100 23.93200
C  -0.70000 42.67100 23.12700
C  -0.24000 42.67700 21.62100
C  1.26800 43.09400 21.77800
C  1.49900 43.09300 23.28900
C  -0.47200 41.33000 20.86000
C  1.81900 44.31900 21.06100
C  1.63200 45.71400 21.71000
N  2.27900 42.76100 26.16800
C  3.16500 42.83600 25.09200
C  4.51700 42.67500 25.64600
C  4.35100 42.49000 27.02000
C  2.93800 42.42600 27.32700
C  5.73300 42.71000 24.89700
C  5.04300 42.34700 28.26200
O  6.25300 42.29400 28.49000
C  3.91300 42.25900 29.38600
C  4.13700 40.93600 30.08100
O  3.62400 39.87300 29.80600
O  4.90400 41.18500 31.15300
C  5.13900 40.02900 32.02000
H  -2.97400 41.64500 29.10600
H  -2.71100 42.45000 22.69000
H  3.63800 43.26200 23.16900
H  1.20400 40.94100 30.88900
H  -1.34000 42.71700 30.76500
H  -0.76500 39.94900 31.49700
H  -1.58600 39.77700 30.09600
H  -2.31600 40.74000 31.51100
H  0.45800 43.60800 31.92700
H  1.94400 43.69700 31.09300
H  1.73400 43.22200 33.64500
H  2.92200 42.39800 32.49600
H  -5.46900 40.29000 27.37300
H  -6.11100 41.99400 27.37400
H  -5.01100 41.40200 28.57900
H  -6.62500 40.45700 25.20000
H  -7.23800 41.29300 23.72000
H  -6.87000 42.26700 25.06900
H  -0.85100 43.49600 21.24300
H  1.94600 42.26000 21.59800
H  -1.09000 40.64000 21.43600
H  0.35300 40.67300 20.58700
H  -1.05100 41.58500 19.97200
H  1.49700 44.36300 20.02100
H  2.89300 44.14600 20.99300
H  2.53700 45.99400 22.25000
H  0.81500 45.59600 22.42200
H  1.29700 46.44600 20.97500
H  6.55800 43.14200 25.46300
H  5.56300 43.35900 24.03800
H  5.88700 41.68200 24.56800
H  3.96900 43.13100 30.03700
H  5.85800 40.31200 32.78900
H  5.55600 39.16600 31.50000
H  4.18100 39.76600 32.46900

