158

Mg -2.12500 17.14300 27.06900
C  -2.79400 14.94100 29.61700
C  -2.85100 19.73500 29.25500
C  -2.31500 19.18300 24.46600
C  -2.36300 14.34400 24.79900
N  -2.76500 17.27100 29.23100
C  -2.75600 16.22600 30.08900
C  -3.02900 16.74800 31.56300
C  -3.40600 18.25400 31.25200
C  -2.96300 18.44600 29.80000
C  -4.83500 18.74100 31.60300
C  -1.83000 16.45700 32.49400
C  -1.52600 17.45600 33.56700
H  -1.02300 16.99700 34.93100
N  -2.24700 19.19900 26.93300
C  -2.55500 20.06900 27.95500
C  -2.43700 21.41100 27.43200
C  -2.23800 21.29100 25.98200
C  -2.25400 19.81900 25.71700
C  -2.61200 22.82400 28.25200
C  -2.06800 22.35700 24.91100
O  -1.90800 22.06300 23.73100
C  -2.00100 23.73100 25.30700
N  -2.39000 16.79200 24.91000
C  -2.27500 17.85700 24.08100
C  -2.24400 17.37000 22.61700
C  -1.96100 15.88100 22.74400
C  -2.30300 15.61400 24.21700
C  -3.57900 17.69100 21.86600
C  -0.51500 15.41200 22.42600
C  0.62400 16.01600 23.25900
N  -2.37200 15.01400 27.10000
C  -2.52900 14.04600 26.15000
C  -2.88200 12.81600 26.75700
C  -2.94400 13.08700 28.09700
C  -2.73000 14.47900 28.24800
C  -3.21000 11.49300 26.09300
C  -3.15600 12.51700 29.43100
O  -3.28900 11.33200 29.74900
C  -3.19100 13.76300 30.46200
C  -2.28000 13.33300 31.60400
O  -1.04000 13.19900 31.47400
O  -3.04700 13.02300 32.76700
C  -2.30900 12.43500 33.87600
H  -2.93200 20.56600 29.95900
H  -2.31800 19.91000 23.65000
H  -2.41900 13.58200 24.01900
H  -3.84800 16.17600 32.00100
H  -2.77500 18.95000 31.80600
H  -5.57500 17.98900 31.87700
H  -5.09900 19.30600 30.70900
H  -4.76700 19.53700 32.34600
H  -0.93800 16.38000 31.87200
H  -2.15400 15.50200 32.90600
H  -2.44100 17.97100 33.85800
H  -0.80200 18.18800 33.20700
H  -1.97800 23.62200 27.86600
H  -2.49800 22.63400 29.31900
H  -3.59000 23.16300 27.90900
H  -2.90700 24.02500 25.83600
H  -2.07100 24.21900 24.33400
H  -1.13500 24.01600 25.90400
H  -1.43500 17.87800 22.09100
H  -2.51800 15.23100 22.06900
H  -4.18600 18.35300 22.48300
H  -4.27300 16.85800 21.74700
H  -3.37400 18.23000 20.94100
H  -0.35400 15.66300 21.37700
H  -0.57300 14.32400 22.46400
H  0.22900 16.56200 24.11500
H  1.20000 16.74000 22.68300
H  1.30100 15.22300 23.57500
H  -3.21900 11.66300 25.01600
H  -4.23400 11.31000 26.41600
H  -2.46300 10.84400 26.55000
H  -4.23400 13.80400 30.77500
H  -2.20800 13.32500 34.49600
H  -1.39800 11.88900 33.63200
H  -2.94900 11.68000 34.33200
Mg -12.41200 37.71400 42.00200
C  -10.46200 35.01300 40.98300
C  -10.09100 39.72200 40.52900
C  -14.88100 40.18700 41.82200
C  -14.89500 35.36600 43.06100
N  -10.44500 37.44500 40.97000
C  -9.95300 36.24100 40.57400
C  -8.65200 36.40000 39.79200
C  -8.39100 37.96100 39.95200
C  -9.68800 38.40200 40.57000
C  -7.10700 38.31600 40.74800
C  -8.65600 35.83100 38.39900
C  -7.49400 34.94900 37.96300
H  -6.45400 35.53000 36.97100
N  -12.50700 39.75300 41.36400
C  -11.36700 40.39600 40.78300
C  -11.73800 41.73400 40.46500
C  -13.08600 41.93500 40.76600
C  -13.60900 40.62900 41.36400
C  -10.85100 42.72900 39.72600
C  -13.97900 43.22800 40.57200
O  -13.49000 44.15100 39.91000
C  -15.38600 43.34300 41.12100
N  -14.59200 37.72200 42.23700
C  -15.32800 38.86000 42.24200
C  -16.81500 38.63300 42.68500
C  -16.72200 37.12600 43.23200
C  -15.30600 36.68000 42.81600
C  -17.43400 39.71800 43.63700
C  -17.76000 36.08500 42.65700
C  -18.64500 35.40400 43.72500
N  -12.56300 35.62000 42.30200
C  -13.56700 34.82300 42.77900
C  -13.15700 33.43300 42.71000
C  -11.92500 33.50700 42.08400
C  -11.66900 34.84800 41.72600
C  -13.92000 32.26500 43.36600
C  -10.80800 32.69900 41.62300
O  -10.59200 31.48900 41.62900
C  -9.89600 33.58600 40.63700
C  -8.55500 33.37100 41.09000
O  -7.62800 32.79800 40.49100
O  -8.27500 33.90500 42.33900
C  -6.91100 33.81100 42.93700
H  -9.36800 40.42500 40.10700
H  -15.68500 40.92600 41.81200
H  -15.61800 34.66700 43.48700
H  -7.87400 35.87600 40.34700
H  -8.26800 38.36600 38.94800
H  -6.64600 37.43500 41.19400
H  -7.31700 38.82600 41.68800
H  -6.32900 38.85000 40.20200
H  -8.61100 36.71900 37.76800
H  -9.58700 35.33400 38.12400
H  -7.96100 34.04700 37.56700
H  -6.92900 34.66500 38.85000
H  -11.05300 42.59300 38.66400
H  -9.81100 42.44000 39.87400
H  -10.94200 43.76100 40.06500
H  -15.99900 42.59600 40.61600
H  -15.95200 44.24900 40.90700
H  -15.26300 43.21600 42.19600
H  -17.43600 38.64000 41.78900
H  -16.81000 37.22500 44.31400
H  -18.28200 40.26100 43.21800
H  -16.62800 40.43100 43.81300
H  -17.68300 39.35700 44.63500
H  -17.25100 35.33500 42.05100
H  -18.44000 36.64200 42.01300
H  -18.73300 34.36300 43.41700
H  -19.58600 35.94300 43.61400
H  -18.24100 35.57400 44.72300
H  -13.61100 31.27600 43.02600
H  -14.94800 32.46400 43.06200
H  -13.82800 32.26900 44.45200
H  -9.94800 33.23000 39.60800
H  -6.25800 33.06900 42.47800
H  -7.16000 33.55200 43.96700
H  -6.42900 34.78800 42.92000

