158

Mg 24.50500 -5.74400 46.05500
C  26.51900 -3.52800 44.25100
C  21.83500 -4.73700 44.12100
C  22.77800 -8.43900 47.17200
C  27.36500 -6.75700 47.91100
N  24.31700 -4.35500 44.30800
C  25.22300 -3.54400 43.77400
C  24.56300 -2.68700 42.66100
C  23.02600 -3.00300 42.84200
C  23.03400 -4.11500 43.81900
C  21.99700 -1.90100 43.32800
C  25.13800 -3.02000 41.24400
C  25.71000 -1.83100 40.37000
H  25.21100 -1.69800 38.89800
N  22.57900 -6.50600 45.62900
C  21.65700 -5.96400 44.83300
C  20.44100 -6.79500 44.91800
C  20.76400 -7.93400 45.71300
C  22.05900 -7.62000 46.25000
C  19.30600 -6.58900 44.05800
C  19.85500 -9.14400 45.93600
O  18.75600 -9.25200 45.34600
C  20.38000 -10.35600 46.74700
N  24.97200 -7.33200 47.40600
C  24.02900 -8.31600 47.72500
C  24.62800 -9.27200 48.77400
C  26.08300 -8.83100 48.92900
C  26.18800 -7.56900 48.06000
C  23.81600 -9.25200 50.11300
C  27.07900 -10.00600 48.63200
C  27.56800 -10.75300 49.88800
N  26.58000 -5.15000 46.21800
C  27.59100 -5.72300 46.98900
C  28.79900 -5.07000 46.63300
C  28.46300 -4.22600 45.56500
C  27.09100 -4.32200 45.33700
C  30.13300 -5.20300 47.29400
C  28.89000 -3.28300 44.56900
O  30.05300 -2.87000 44.41000
C  27.68300 -2.83400 43.71300
C  27.51500 -1.33400 43.81400
O  26.84500 -0.65600 44.58000
O  28.30500 -0.85000 42.80600
C  28.56300 0.57800 42.63400
H  20.98800 -4.36600 43.54100
H  22.39000 -9.39800 47.52200
H  28.22500 -7.14600 48.46000
H  24.72000 -1.61400 42.76600
H  22.65200 -3.41800 41.90500
H  21.17800 -1.78200 42.61800
H  22.48600 -0.92700 43.31700
H  21.62800 -2.10300 44.33300
H  24.37500 -3.40200 40.56600
H  25.87100 -3.81400 41.38200
H  26.77800 -2.01000 40.24500
H  25.68200 -0.88200 40.90500
H  19.20300 -5.54000 43.78000
H  18.41900 -6.92400 44.59400
H  19.40800 -7.25600 43.20200
H  20.54800 -9.95400 47.74600
H  21.35900 -10.63100 46.35300
H  19.67500 -11.18800 46.77000
H  24.45300 -10.27900 48.39600
H  26.20900 -8.35400 49.90100
H  24.45300 -8.99200 50.95800
H  23.42900 -10.24000 50.36400
H  22.95400 -8.59500 49.99000
H  27.92600 -9.59900 48.07900
H  26.55500 -10.66700 47.94200
H  26.95100 -11.63600 50.05300
H  27.51300 -10.12300 50.77600
H  28.55900 -11.12000 49.62200
H  30.84200 -4.65700 46.67200
H  30.26900 -6.28200 47.21700
H  30.13600 -4.82000 48.31400
H  27.78700 -3.17400 42.68300
H  29.64400 0.68800 42.54600
H  28.13100 1.32100 43.30500
H  28.22700 0.84900 41.63300
Mg 41.23400 41.16300 26.88000
C  40.27200 43.58400 29.12100
C  42.06300 38.97500 29.36200
C  42.25200 38.75300 24.59100
C  40.71000 43.42900 24.26800
N  41.13700 41.28900 28.94100
C  40.61700 42.34300 29.70200
C  40.66900 41.92700 31.24500
C  41.40100 40.57100 31.30500
C  41.55600 40.25800 29.77200
C  42.65700 40.28800 32.17200
C  39.32000 42.05100 32.01300
C  39.44200 42.66900 33.38900
H  38.65200 42.11900 34.65000
N  41.96800 39.07900 26.95100
C  42.27400 38.45800 28.08900
C  42.66800 37.12000 27.73400
C  42.77600 37.00300 26.32500
C  42.29700 38.27300 25.86900
C  43.14500 36.21800 28.80000
C  43.29300 35.85200 25.48300
O  43.36800 35.91800 24.27700
C  43.75000 34.56400 26.10400
N  41.54100 41.17100 24.76900
C  41.81500 39.98900 24.09000
C  41.78700 40.29700 22.48200
C  41.21300 41.73400 22.46200
C  41.16200 42.16600 23.94600
C  43.17900 40.17700 21.88300
C  39.84900 41.82400 21.68400
C  38.60300 41.39000 22.54100
N  40.69800 43.17700 26.65200
C  40.49300 43.94800 25.54700
C  40.10800 45.30900 25.89200
C  39.97100 45.22000 27.34000
C  40.40700 43.92800 27.74800
C  39.91900 46.47300 24.94400
C  39.59400 45.91000 28.61600
O  39.14200 47.02100 28.85700
C  39.75600 44.87200 29.75500
C  40.78000 45.41200 30.59300
O  41.88200 45.92700 30.27900
O  40.19200 45.50000 31.82500
C  41.01600 46.32700 32.75700
H  42.31100 38.32900 30.20700
H  42.51600 38.13200 23.73200
H  40.23600 44.03500 23.49300
H  41.35700 42.65200 31.68000
H  40.65600 39.84400 31.62900
H  42.64200 40.93100 33.05300
H  43.61800 40.45800 31.68700
H  42.51200 39.32800 32.66700
H  38.94200 41.05100 32.22500
H  38.55600 42.48500 31.36800
H  39.12800 43.71300 33.39000
H  40.48900 42.64200 33.69200
H  43.18800 36.63400 29.80700
H  44.14200 35.85000 28.55900
H  42.41300 35.41100 28.83000
H  43.01400 33.97200 26.65000
H  44.71600 34.75600 26.57200
H  44.17100 34.01000 25.26500
H  41.17900 39.51900 22.02000
H  41.93600 42.40800 22.00100
H  43.38200 40.98900 21.18500
H  43.26700 39.23300 21.34600
H  43.92800 40.06900 22.66900
H  39.81600 41.24000 20.76400
H  39.74100 42.87700 21.42300
H  38.78000 41.19600 23.59900
H  38.20300 40.46200 22.13400
H  37.92100 42.23400 22.43400
H  38.88300 46.62400 24.64300
H  40.50900 46.34200 24.03600
H  40.37900 47.33800 25.42200
H  38.84100 44.71100 30.32500
H  42.08500 46.43700 32.57000
H  40.80200 46.08400 33.79800
H  40.67200 47.36100 32.73200

