158

Mg 24.08200 -4.63500 45.96200
C  26.38600 -2.48000 44.35200
C  21.72500 -3.53200 43.83200
C  22.13400 -7.33000 46.86800
C  26.81400 -6.11100 47.68900
N  24.10600 -3.17800 44.25700
C  25.08400 -2.38000 43.82700
C  24.74300 -1.67200 42.63100
C  23.13600 -1.77000 42.59800
C  22.89200 -2.86000 43.64700
C  22.19000 -0.54800 42.97400
C  25.42500 -2.27600 41.34900
C  26.22600 -1.33300 40.50100
H  25.84700 -1.27400 39.02500
N  22.13600 -5.28700 45.51200
C  21.34200 -4.66300 44.64400
C  20.05800 -5.30900 44.64400
C  20.08500 -6.41000 45.56600
C  21.45300 -6.36500 46.10000
C  19.00300 -5.04800 43.59700
C  19.03000 -7.43000 45.78800
O  18.02500 -7.46100 45.05700
C  19.01900 -8.43200 46.89700
N  24.45800 -6.60000 47.06600
C  23.47600 -7.51400 47.24300
C  24.03000 -8.65600 48.11400
C  25.33200 -8.08900 48.66400
C  25.58600 -6.85000 47.76600
C  23.22000 -9.33200 49.23900
C  26.50300 -9.09300 48.57800
C  27.20600 -9.31400 49.93800
N  26.16800 -4.27400 46.12800
C  27.10200 -4.95800 46.88500
C  28.43000 -4.32500 46.71500
C  28.16300 -3.36400 45.73800
C  26.76000 -3.32200 45.48500
C  29.77900 -4.71500 47.25500
C  28.80700 -2.36200 44.91000
O  29.95100 -2.11600 44.76200
C  27.66000 -1.81700 43.95000
C  27.59200 -0.33000 44.02600
O  27.41400 0.30400 45.07700
O  27.70900 0.26300 42.85000
C  27.73000 1.74300 42.91600
H  20.96600 -3.16000 43.14000
H  21.49900 -8.10600 47.30100
H  27.67600 -6.34000 48.31800
H  24.97000 -0.61600 42.77000
H  22.82000 -2.06200 41.59600
H  22.49200 0.34200 42.42100
H  22.18000 -0.33900 44.04400
H  21.23500 -0.99500 42.69900
H  24.64000 -2.70500 40.72500
H  26.02100 -3.12700 41.68000
H  27.28700 -1.52900 40.65800
H  25.97000 -0.32000 40.80900
H  18.63800 -5.96300 43.13100
H  19.28800 -4.44100 42.73800
H  18.09000 -4.61000 43.99900
H  19.27900 -8.01100 47.86900
H  19.77800 -9.15500 46.59700
H  18.02200 -8.84700 47.04700
H  24.29100 -9.47500 47.44300
H  25.20300 -7.64500 49.65200
H  23.03000 -10.38200 49.01300
H  22.21400 -8.91600 49.18000
H  23.66800 -9.24300 50.22900
H  27.19400 -8.80800 47.78600
H  26.10500 -10.08600 48.36700
H  27.53600 -8.37700 50.38700
H  28.09700 -9.85200 49.61500
H  26.63500 -9.99700 50.56700
H  30.56200 -4.32300 46.60600
H  29.89100 -5.79300 47.13700
H  29.97000 -4.32600 48.25500
H  27.91500 -2.04700 42.91600
H  28.76000 2.06100 43.07900
H  27.06000 2.15200 43.67200
H  27.34800 1.99000 41.92600
Mg 0.29400 43.85700 26.16500
C  2.73500 43.35500 28.72800
C  -2.17300 43.53400 28.43500
C  -1.71100 43.15300 23.60000
C  3.11100 43.79300 23.92000
N  0.36800 43.43600 28.29600
C  1.41600 43.40300 29.17300
C  0.91900 43.50100 30.66300
C  -0.62300 43.38200 30.56800
C  -0.88600 43.47500 28.97700
C  -1.32400 42.15200 31.18800
C  1.29600 44.83700 31.37000
C  1.51400 44.97800 32.86100
H  1.12600 43.70600 33.67300
N  -1.71400 43.51300 26.03000
C  -2.57400 43.43900 27.06400
C  -3.84600 43.27900 26.56600
C  -3.70900 43.07000 25.14100
C  -2.35300 43.17800 24.88600
C  -5.08300 43.27700 27.33700
C  -4.86900 42.75400 24.11100
O  -4.58900 42.72100 22.89100
C  -6.24000 42.39900 24.59600
N  0.67300 43.29200 24.03800
C  -0.39600 43.34300 23.22700
C  -0.13200 43.52800 21.73900
C  1.39000 44.06300 21.89200
C  1.81200 43.71000 23.34000
C  -0.35800 42.38700 20.67600
C  1.66600 45.56300 21.61300
C  2.95000 45.85700 20.80700
N  2.43200 43.66500 26.24900
C  3.37500 43.69500 25.32200
C  4.67200 43.61000 25.83000
C  4.53000 43.50500 27.16700
C  3.07600 43.54900 27.37100
C  5.95100 43.73800 25.06200
C  5.17700 43.37000 28.52700
O  6.34900 43.23000 28.82800
C  4.00000 43.41600 29.51200
C  4.11100 42.47200 30.68000
O  3.83700 41.31800 30.68400
O  4.69200 43.15500 31.72800
C  5.20200 42.26800 32.75500
H  -3.03500 43.55200 29.10600
H  -2.37900 43.08100 22.73900
H  3.91000 43.94900 23.19300
H  1.23500 42.72800 31.36400
H  -1.08600 44.20300 31.11500
H  -1.76200 42.48400 32.12900
H  -0.57300 41.48000 31.60200
H  -1.99500 41.68200 30.47000
H  0.45000 45.48100 31.12900
H  2.20200 45.24700 30.92300
H  1.01800 45.87900 33.22200
H  2.58400 45.11200 33.01800
H  -5.89900 43.83100 26.87400
H  -4.87600 43.89400 28.21200
H  -5.32100 42.23200 27.53500
H  -6.20300 41.55900 25.29000
H  -6.91100 42.20200 23.76000
H  -6.56200 43.32100 25.08200
H  -0.75400 44.36700 21.42700
H  1.96300 43.41800 21.22600
H  0.22700 42.65100 19.79500
H  -1.42300 42.41300 20.44600
H  -0.10200 41.47100 21.21000
H  1.83800 46.04200 22.57700
H  0.76300 45.99400 21.18100
H  2.55700 46.07500 19.81400
H  3.59700 44.98000 20.83100
H  3.33400 46.68500 21.40200
H  5.85600 44.28600 24.12500
H  6.42500 42.85700 24.63000
H  6.69700 44.20800 25.70200
H  4.17500 44.42000 29.90100
H  4.34900 41.84200 33.28500
H  5.97000 42.70500 33.39400
H  5.74600 41.39000 32.40500

