158

Mg -0.06800 7.76000 27.37500
C  0.83800 9.88600 29.89900
C  0.20100 5.14700 29.46600
C  -0.44900 5.73000 24.66400
C  0.01000 10.63200 25.25400
N  0.43800 7.52600 29.41100
C  0.71900 8.50000 30.25300
C  0.77400 7.92900 31.71100
C  0.81100 6.42000 31.51900
C  0.50200 6.36100 30.06100
C  2.13000 5.71600 31.92000
C  -0.44700 8.37600 32.57500
C  -0.73100 7.67700 33.90000
H  0.32900 6.90500 34.68000
N  -0.18800 5.68600 27.10100
C  -0.09700 4.83500 28.13100
C  -0.47200 3.49400 27.61300
C  -0.49000 3.61000 26.18700
C  -0.33600 5.06900 25.87400
C  -0.85000 2.38500 28.56200
C  -0.64300 2.47500 25.14800
O  -0.54100 2.65900 23.94000
C  -1.03300 0.99900 25.61000
N  -0.21300 8.18800 25.30900
C  -0.38500 7.14000 24.43800
C  -0.39600 7.70900 23.01900
C  -0.73600 9.26700 23.17000
C  -0.36800 9.42000 24.70100
C  1.02800 7.48400 22.31000
C  -2.26000 9.77100 22.87600
C  -2.37000 10.62000 21.61300
N  0.28900 9.88200 27.59700
C  0.37500 10.85700 26.64800
C  0.88600 12.17800 27.24800
C  1.05100 11.80000 28.57700
C  0.62500 10.45500 28.70900
C  1.20600 13.45900 26.43200
C  1.56400 12.18300 29.83900
O  2.00600 13.26300 30.24300
C  1.20400 11.05100 30.83300
C  2.22700 10.84200 31.85600
O  3.38000 10.65200 31.61800
O  1.73800 11.21300 33.05200
C  2.61700 11.54500 34.21300
H  0.12700 4.27200 30.11600
H  -0.66400 5.17700 23.74700
H  0.10800 11.42700 24.51200
H  1.60600 8.32500 32.29300
H  -0.01400 5.95100 32.05600
H  1.96600 5.24200 32.88800
H  2.85200 6.53200 31.95300
H  2.48400 4.92900 31.25500
H  -1.38400 8.13600 32.07300
H  -0.38000 9.45200 32.73200
H  -1.63300 7.10600 33.68300
H  -1.03200 8.54600 34.48500
H  -1.86600 2.18300 28.22600
H  -0.87000 2.40700 29.65200
H  -0.19800 1.52400 28.41100
H  -0.18000 0.66900 26.20300
H  -1.14800 0.35800 24.73500
H  -1.98300 1.06800 26.13800
H  -1.26300 7.35600 22.46000
H  0.03600 9.76000 22.57900
H  1.74100 8.29300 22.46600
H  0.87100 7.21900 21.26500
H  1.53700 6.65200 22.79800
H  -2.62600 10.38100 23.70200
H  -2.99600 8.97600 22.75900
H  -1.54800 10.27500 20.98600
H  -2.45200 11.65400 21.94800
H  -3.28600 10.38000 21.07400
H  1.68100 13.03500 25.54700
H  1.80300 14.01000 27.15800
H  0.27800 13.95500 26.14900
H  0.25300 11.34900 31.27600
H  2.13300 11.32900 35.16600
H  2.95200 12.57400 34.08300
H  3.50400 10.92400 34.08600
Mg 1.15600 41.02500 26.20900
C  2.32800 41.85800 29.44000
C  -1.60800 39.84900 27.74900
C  0.04200 40.58400 23.10900
C  4.19400 42.47400 24.94300
N  0.37300 41.09300 28.36000
C  0.99500 41.52000 29.46700
C  0.14400 41.36700 30.67400
C  -1.16200 40.58100 30.15000
C  -0.81500 40.43000 28.66000
C  -1.50600 39.30600 30.97600
C  -0.10900 42.74400 31.29500
C  0.58700 42.92300 32.65300
H  -0.38100 43.06100 33.87400
N  -0.40000 40.12000 25.51300
C  -1.48600 39.61800 26.28900
C  -2.33700 38.91200 25.40500
C  -1.96000 39.19800 24.07200
C  -0.72500 39.95300 24.16600
C  -3.62000 38.29700 25.98300
C  -2.71800 38.92500 22.75200
O  -2.29600 39.30400 21.65600
C  -4.07100 38.24900 22.73700
N  2.12500 41.36300 24.31600
C  1.29600 41.17800 23.17800
C  2.09200 41.59900 21.91000
C  3.21300 42.47800 22.60600
C  3.23300 42.09500 24.01000
C  2.68900 40.50600 21.00200
C  2.99300 44.10100 22.38400
C  4.13400 44.94100 21.83100
N  2.96700 41.90700 27.03300
C  4.09300 42.36800 26.38600
C  5.05600 42.70400 27.40400
C  4.38600 42.53900 28.60500
C  3.11400 42.08700 28.32600
C  6.39800 43.16900 27.15900
C  4.58800 42.53700 30.01900
O  5.55600 42.89400 30.71100
C  3.23700 42.08300 30.64600
C  3.51300 40.77100 31.53100
O  3.34300 39.60400 31.18600
O  3.77300 41.20800 32.81900
C  3.40000 40.35700 33.92200
H  -2.56800 39.57200 28.18900
H  -0.36500 40.48400 22.10000
H  5.11900 42.96500 24.63400
H  0.75400 40.73600 31.32000
H  -1.99100 41.28700 30.18200
H  -2.00700 38.53600 30.38800
H  -2.21100 39.55300 31.77000
H  -0.68200 38.75300 31.42700
H  -1.17800 42.91300 31.42300
H  0.23400 43.45900 30.54700
H  1.07800 43.89600 32.61200
H  1.31900 42.15200 32.89400
H  -4.44500 38.96600 25.73900
H  -3.63500 38.26600 27.07200
H  -3.90800 37.27900 25.71900
H  -4.78500 38.99100 23.09200
H  -3.94300 37.42900 23.44400
H  -4.38900 37.95400 21.73700
H  1.47800 42.22900 21.26600
H  4.15500 42.09500 22.21500
H  2.80700 39.56200 21.53400
H  3.68300 40.74100 20.62000
H  2.04200 40.33900 20.14200
H  2.79500 44.44500 23.39900
H  2.13600 44.36200 21.76300
H  4.65200 45.55700 22.56700
H  3.68000 45.51900 21.02600
H  4.88400 44.29200 21.37800
H  7.01700 42.27200 27.15200
H  6.68300 43.92100 27.89500
H  6.46200 43.72500 26.22400
H  3.07400 42.85800 31.39500
H  3.49500 40.95200 34.83000
H  4.24000 39.67800 34.06300
H  2.43300 39.89000 33.73500

