158

Mg -12.26100 16.57600 40.99500
C  -8.99100 15.14700 40.45600
C  -11.19300 19.47300 39.59400
C  -15.47300 17.41600 40.60000
C  -13.26000 13.22400 41.72300
N  -10.28300 17.17200 39.85300
C  -9.12900 16.47300 39.87300
C  -7.94600 17.39700 39.36400
C  -8.66500 18.86900 39.25800
C  -10.14800 18.55000 39.58300
C  -8.15000 19.97300 40.16800
C  -7.25300 16.91500 38.06900
C  -5.68700 16.92100 38.15500
H  -4.96500 16.97100 36.83000
N  -13.19500 18.27400 40.40800
C  -12.54900 19.33500 39.86200
C  -13.49500 20.43100 39.54300
C  -14.75700 19.91600 39.89800
C  -14.56800 18.47400 40.26700
C  -13.16700 21.83600 39.21800
C  -16.05400 20.69600 39.85200
O  -16.08400 21.87400 39.66500
C  -17.35700 20.07500 40.35400
N  -14.11400 15.49400 41.15400
C  -15.32400 16.09000 40.96500
C  -16.53800 15.15800 41.12000
C  -15.85400 13.92900 41.76700
C  -14.34700 14.16700 41.55900
C  -17.70600 15.92300 41.95300
C  -16.40800 12.53600 41.25800
C  -16.85000 11.58300 42.42600
N  -11.36100 14.62200 41.09100
C  -11.89100 13.42200 41.44500
C  -10.83100 12.44600 41.68700
C  -9.68200 13.07900 41.21300
C  -10.03500 14.44300 40.89200
C  -10.97300 11.08900 42.19700
C  -8.24200 12.86800 41.04100
O  -7.56600 11.88200 41.17600
C  -7.73700 14.28000 40.52800
C  -6.86200 14.75300 41.59800
O  -7.09000 15.38300 42.63900
O  -5.58000 14.27600 41.32300
C  -4.55700 14.44300 42.42100
H  -10.87800 20.47100 39.28300
H  -16.52300 17.66500 40.43700
H  -13.49200 12.20600 42.04300
H  -7.21200 17.29400 40.16200
H  -8.63700 19.21100 38.22300
H  -8.80400 20.16400 41.01800
H  -8.02300 20.91200 39.63000
H  -7.20600 19.64400 40.60500
H  -7.42500 17.53500 37.19000
H  -7.52800 15.87700 37.88200
H  -5.28500 16.06600 38.69900
H  -5.41800 17.85800 38.64300
H  -13.60700 22.17400 38.28000
H  -12.10300 22.02400 39.07600
H  -13.44100 22.55800 39.98800
H  -17.76100 19.60600 39.45700
H  -17.89900 20.98600 40.60600
H  -17.17500 19.44200 41.22300
H  -16.91800 14.82900 40.15300
H  -15.96000 13.96200 42.85100
H  -17.51100 16.99500 41.98000
H  -17.64700 15.69400 43.01700
H  -18.71400 15.73100 41.58400
H  -15.51800 12.00000 40.93000
H  -17.14800 12.65500 40.46700
H  -16.83400 12.03900 43.41500
H  -16.16400 10.74100 42.52000
H  -17.84000 11.18300 42.20600
H  -10.47300 11.05900 43.16600
H  -10.40200 10.40400 41.57200
H  -11.95700 10.62000 42.20900
H  -7.17500 14.03300 39.62700
H  -4.83200 14.17400 43.44100
H  -4.28100 15.49600 42.36200
H  -3.74600 13.82300 42.04000
Mg -6.17300 25.51300 26.13500
C  -4.64300 26.68800 28.94900
C  -8.33500 23.84800 28.00500
C  -7.18300 23.85300 23.32100
C  -3.62900 27.10800 24.16100
N  -6.22400 25.10300 28.21100
C  -5.64300 25.82500 29.25000
C  -6.28700 25.42400 30.58800
C  -7.26000 24.24600 30.23800
C  -7.30400 24.38600 28.72400
C  -6.75800 22.83100 30.63300
C  -6.89900 26.62100 31.43000
C  -6.74500 26.60900 32.93600
H  -6.12400 25.33500 33.61600
N  -7.60900 24.03700 25.67800
C  -8.41000 23.51600 26.58700
C  -9.26400 22.57200 26.04300
C  -8.88300 22.46300 24.66800
C  -7.83300 23.44100 24.47100
C  -10.35700 21.81500 26.90400
C  -9.47900 21.58700 23.60400
O  -9.06500 21.70200 22.43700
C  -10.71500 20.83500 23.88800
N  -5.57900 25.58900 24.10600
C  -6.06900 24.68500 23.13300
C  -5.33600 24.74300 21.80800
C  -4.29500 25.87800 22.03000
C  -4.53100 26.27200 23.49900
C  -4.71200 23.38700 21.42800
C  -4.30600 27.02000 20.92200
C  -3.02400 27.38700 20.17600
N  -4.59600 26.79800 26.42000
C  -3.69200 27.35100 25.55500
C  -2.87500 28.32200 26.30400
C  -3.22400 28.05600 27.65900
C  -4.15000 27.06100 27.69700
C  -1.74600 29.21100 25.84300
C  -2.89500 28.42800 29.02800
O  -2.07500 29.27400 29.48000
C  -3.89300 27.55600 29.94100
C  -3.14600 26.80300 30.92500
O  -2.74700 25.63000 30.83300
O  -2.89100 27.51300 32.05900
C  -1.96400 27.00800 33.06600
H  -9.13600 23.49100 28.65600
H  -7.55600 23.34800 22.42800
H  -2.89300 27.70500 23.61900
H  -5.44100 25.12100 31.20600
H  -8.19100 24.42800 30.77500
H  -6.02100 23.08800 31.39400
H  -6.30200 22.40500 29.73900
H  -7.58500 22.23000 31.01000
H  -7.97800 26.64200 31.27700
H  -6.53100 27.53500 30.96400
H  -7.70800 26.77100 33.42100
H  -6.23100 27.54300 33.16300
H  -10.30700 22.14600 27.94200
H  -10.11300 20.75700 26.81400
H  -11.33100 22.09300 26.50300
H  -10.53800 19.92700 24.46500
H  -11.11300 20.55400 22.91300
H  -11.50200 21.45100 24.32200
H  -5.98400 25.11700 21.01500
H  -3.26900 25.51200 22.08400
H  -5.03500 22.64900 22.16100
H  -3.63200 23.27300 21.33400
H  -5.09100 23.13600 20.43700
H  -4.54600 27.96700 21.40400
H  -5.06600 26.83400 20.16300
H  -2.17700 26.79500 20.52200
H  -2.74000 28.43500 20.07900
H  -3.11200 27.28400 19.09400
H  -2.23800 30.16900 25.67100
H  -1.38500 28.94000 24.85100
H  -1.09800 29.34500 26.70900
H  -4.50600 28.23700 30.53000
H  -1.66600 25.96300 32.97700
H  -2.50600 27.12200 34.00500
H  -1.09100 27.64200 33.22200

