158

Mg 0.25600 7.87900 26.21600
C  1.09300 9.91600 29.05900
C  0.25500 5.16500 28.33700
C  -0.33400 6.10500 23.54400
C  0.45600 10.82800 24.20300
N  0.73400 7.62900 28.51500
C  0.81900 8.60900 29.48100
C  0.75200 7.87500 30.90900
C  0.83200 6.31000 30.48600
C  0.59900 6.34100 29.00600
C  2.21300 5.58200 30.75900
C  -0.55200 8.25100 31.71700
C  -0.40000 9.03800 33.05900
H  0.85800 8.70100 33.86200
N  -0.20800 5.94200 26.02200
C  -0.03500 4.98300 26.96700
C  -0.39100 3.72700 26.35800
C  -0.76300 3.98500 25.03900
C  -0.50700 5.42400 24.79100
C  -0.39800 2.43000 27.09600
C  -1.38300 2.97400 24.00700
O  -1.94000 3.40100 23.01100
C  -1.45900 1.54100 24.22200
N  0.07000 8.46100 24.20000
C  -0.12600 7.46900 23.28200
C  -0.06000 8.04800 21.85600
C  -0.13000 9.57500 22.14100
C  0.16700 9.61800 23.59400
C  1.27100 7.50500 21.25200
C  -1.36200 10.39400 21.88600
C  -1.18100 11.73100 21.06800
N  0.76800 9.81000 26.43400
C  0.71400 10.98500 25.62800
C  1.13300 12.17400 26.30400
C  1.36700 11.69700 27.64200
C  0.99200 10.37100 27.73500
C  1.19900 13.56300 25.76500
C  1.64400 12.27000 28.84600
O  2.00300 13.40500 29.21000
C  1.45700 11.11100 29.83000
C  2.61700 10.95900 30.77200
O  3.62800 10.29800 30.54300
O  2.43600 11.83600 31.86300
C  3.67700 12.11300 32.59000
H  0.25400 4.33000 29.04100
H  -0.61700 5.60800 22.61400
H  0.60800 11.74300 23.62600
H  1.68100 8.13900 31.41500
H  0.07300 5.70700 30.98500
H  2.26400 5.15700 31.76200
H  3.09500 6.21300 30.64500
H  2.33100 4.72300 30.09900
H  -1.03200 7.31200 31.99400
H  -1.29100 8.81800 31.15200
H  -1.23300 8.76600 33.70700
H  -0.33300 10.09300 32.79300
H  -1.36900 1.93400 27.09200
H  0.01700 2.49200 28.10200
H  0.28100 1.85000 26.47200
H  -1.91400 1.10500 23.33300
H  -2.01900 1.43200 25.15100
H  -0.42500 1.19900 24.25200
H  -0.96100 7.78900 21.30100
H  0.69000 10.17100 21.73900
H  2.02900 8.23200 20.96100
H  1.02400 6.95400 20.34400
H  1.80400 6.86100 21.95100
H  -1.85900 10.76300 22.78300
H  -2.05000 9.72000 21.37500
H  -0.22500 12.25100 21.12100
H  -1.90900 12.45900 21.42500
H  -1.55700 11.52900 20.06500
H  0.45300 13.68500 24.98100
H  2.22400 13.71700 25.42600
H  0.86300 14.37200 26.41300
H  0.59500 11.45900 30.39700
H  3.58200 13.01000 33.20100
H  4.47900 12.23100 31.86100
H  4.01800 11.26000 33.17800
Mg 16.40600 52.71500 26.52700
C  18.28600 50.80200 28.85200
C  14.19400 53.41100 29.10700
C  14.75000 54.52100 24.31800
C  18.76300 51.60300 24.00300
N  16.14300 51.89500 28.64700
C  17.12300 51.27500 29.42300
C  16.80900 51.42400 30.89100
C  15.37700 51.88800 30.84400
C  15.19400 52.42900 29.47700
C  14.33800 50.75900 31.13700
C  17.78700 52.38300 31.65800
C  18.13800 51.82100 33.05300
H  17.15500 52.30000 34.18100
N  14.65900 53.73300 26.66000
C  13.96500 53.99300 27.81000
C  12.93100 54.96700 27.52600
C  13.06000 55.27500 26.07700
C  14.23300 54.51500 25.62300
C  12.00700 55.39500 28.62200
C  12.19600 56.31200 25.31900
O  12.50200 56.58600 24.17000
C  11.09800 57.02400 25.93100
N  16.63000 52.95500 24.46700
C  15.79700 53.74700 23.73200
C  16.13000 53.89800 22.20900
C  17.54600 53.08700 22.22800
C  17.68800 52.44400 23.65400
C  15.02900 53.21800 21.33300
C  18.74500 53.87100 21.73000
C  19.09600 55.24100 22.29200
N  18.10200 51.49300 26.41000
C  18.90100 51.08200 25.33200
C  19.96900 50.22000 25.78100
C  19.70100 50.11800 27.15100
C  18.52900 50.85200 27.44100
C  21.01100 49.58400 24.96800
C  20.20100 49.45800 28.28700
O  21.13900 48.63900 28.38800
C  19.44100 50.06500 29.48600
C  19.05500 48.98800 30.47100
O  18.12900 48.17600 30.44800
O  19.91300 49.04400 31.53600
C  19.66200 48.12700 32.63900
H  13.53500 53.63400 29.94900
H  14.16900 55.02100 23.54000
H  19.46000 51.30500 23.21700
H  16.71400 50.41500 31.29200
H  15.24300 52.73700 31.51400
H  13.80500 51.13000 32.01200
H  14.77700 49.78000 31.33100
H  13.74300 50.61300 30.23500
H  17.37800 53.37900 31.82600
H  18.69200 52.49800 31.06100
H  19.19400 51.99100 33.26400
H  17.95500 50.74900 32.99100
H  11.86300 56.44400 28.36300
H  12.25200 55.30900 29.68100
H  11.10700 54.83900 28.36000
H  11.50000 57.70900 26.67700
H  10.32600 56.37400 26.34300
H  10.62800 57.77900 25.30100
H  16.35300 54.91800 21.89500
H  17.48700 52.17000 21.64200
H  14.73300 54.00100 20.63500
H  14.09300 52.91200 21.80000
H  15.50800 52.33000 20.92100
H  18.47600 54.03300 20.68600
H  19.59200 53.18500 21.74300
H  18.82400 56.03800 21.60000
H  20.17100 55.40800 22.36200
H  18.73600 55.54700 23.27500
H  21.74300 50.32800 24.65400
H  20.64700 49.10000 24.06200
H  21.61000 48.90100 25.57000
H  20.14200 50.75500 29.95500
H  19.97000 47.13100 32.32100
H  18.62600 48.16900 32.97300
H  20.24900 48.46900 33.49200

