158

Mg 49.73400 44.86100 42.00300
C  46.28400 44.54200 41.12200
C  49.91400 41.36800 41.51200
C  53.03700 45.11400 42.03100
C  49.31600 48.20900 42.44000
N  48.27000 43.21700 41.31800
C  46.93400 43.32200 41.10300
C  46.35800 41.94200 40.72100
C  47.38800 40.93400 41.22800
C  48.62100 41.89500 41.40700
C  47.06900 40.12600 42.57400
C  46.00800 41.83200 39.24000
C  44.60500 41.36900 38.91700
H  44.22300 41.53300 37.46700
N  51.28500 43.43100 41.88500
C  51.12900 42.06600 41.65100
C  52.46400 41.45500 41.77900
C  53.40100 42.51300 41.93300
C  52.58000 43.76100 41.92600
C  52.77600 39.94900 41.57300
C  54.92600 42.41500 41.85600
O  55.55300 41.30900 41.75500
C  55.87300 43.59400 41.90100
N  50.97800 46.44200 42.06500
C  52.32200 46.29300 42.17800
C  52.94800 47.70200 42.51800
C  51.74300 48.65700 42.70300
C  50.61600 47.71100 42.45200
C  53.97400 47.86100 43.68800
C  51.79500 49.89700 41.67800
C  52.30700 51.15700 42.31700
N  48.17900 46.15700 41.78100
C  48.15400 47.49200 42.10000
C  46.70900 48.02300 41.95600
C  46.00700 46.86600 41.54100
C  46.92700 45.77100 41.40600
C  46.17600 49.36300 42.22100
C  44.69100 46.44100 40.95700
O  43.67100 47.09800 40.72200
C  44.84800 44.84100 40.77700
C  43.79400 44.21200 41.61400
O  42.60600 43.97400 41.27300
O  44.27000 43.96500 42.83300
C  43.48100 43.12400 43.74600
H  49.91200 40.27600 41.48400
H  54.08300 45.36800 42.21900
H  49.21600 49.25000 42.75200
H  45.45500 41.83800 41.32300
H  47.60200 40.17400 40.47600
H  48.03000 40.21400 43.08100
H  46.91800 39.05000 42.49400
H  46.37400 40.59800 43.26900
H  46.53600 41.04800 38.69700
H  46.19000 42.82800 38.83600
H  43.95100 41.91600 39.59600
H  44.46600 40.30000 39.08400
H  53.49100 39.84800 40.75600
H  51.85300 39.39800 41.39200
H  53.43900 39.64700 42.38300
H  55.62200 44.17700 41.01500
H  56.87000 43.15300 41.89600
H  55.53700 44.03900 42.83800
H  53.49100 47.95900 41.60900
H  51.69300 49.08100 43.70600
H  54.84400 48.45300 43.40400
H  54.32500 46.84000 43.84200
H  53.59900 48.28300 44.62000
H  50.80200 50.06300 41.26100
H  52.37900 49.69600 40.77900
H  53.12200 51.54300 41.70400
H  52.77100 50.72800 43.20500
H  51.40700 51.75100 42.47400
H  45.36900 49.49200 41.50100
H  46.96300 50.06600 41.94900
H  45.78700 49.76100 43.15800
H  44.59400 44.73300 39.72300
H  42.88200 42.38900 43.20800
H  42.82600 43.75000 44.35100
H  44.20100 42.65000 44.41300
Mg -6.43900 26.04700 25.68700
C  -4.80700 27.33000 28.44600
C  -8.00600 23.80600 27.84300
C  -7.19100 24.08800 23.00300
C  -4.54900 28.18800 23.55600
N  -6.24400 25.48100 27.87100
C  -5.58700 26.28800 28.76600
C  -6.12800 25.91800 30.21500
C  -6.91800 24.64200 29.94700
C  -7.11500 24.64400 28.47900
C  -6.41000 23.30900 30.59000
C  -6.99100 27.00100 30.95900
C  -7.08300 27.07800 32.52900
H  -6.34400 26.07300 33.43200
N  -7.62700 24.30900 25.35400
C  -8.23100 23.61100 26.38600
C  -9.01600 22.57800 25.84900
C  -8.73400 22.56200 24.42800
C  -7.81000 23.68300 24.16500
C  -9.89900 21.72700 26.70300
C  -9.16300 21.53500 23.35700
O  -8.66900 21.54600 22.22200
C  -10.20300 20.57400 23.68500
N  -5.83500 26.03800 23.62100
C  -6.32500 25.15200 22.72600
C  -6.07900 25.64200 21.27800
C  -5.33000 27.03200 21.40300
C  -5.25000 27.13300 22.96500
C  -5.30800 24.64800 20.41500
C  -6.06100 28.31600 20.70000
C  -7.00200 29.16100 21.59000
N  -5.05400 27.57900 25.94800
C  -4.38600 28.37600 24.97800
C  -3.48200 29.22700 25.68100
C  -3.58200 28.87300 27.03300
C  -4.54300 27.83600 27.12900
C  -2.61700 30.30800 25.14300
C  -3.09400 29.13200 28.41700
O  -2.33300 30.05600 28.82500
C  -3.92700 28.18500 29.35700
C  -2.92700 27.46500 30.24800
O  -2.44900 26.37800 29.99000
O  -2.85900 28.16900 31.34500
C  -2.49300 27.35000 32.51400
H  -8.48800 23.08500 28.50800
H  -7.54000 23.59400 22.09400
H  -4.05500 28.89100 22.88100
H  -5.29800 25.68700 30.88200
H  -7.87400 24.65100 30.47100
H  -6.34400 22.59900 29.76600
H  -7.10500 23.02900 31.38200
H  -5.43300 23.53000 31.02000
H  -8.04000 26.87300 30.69400
H  -6.83400 27.96700 30.47800
H  -8.12200 26.87500 32.79200
H  -6.94100 28.08300 32.92800
H  -9.58200 20.68600 26.63600
H  -10.93000 21.92300 26.40800
H  -10.04200 21.98700 27.75100
H  -10.55000 19.90800 22.89600
H  -11.10600 21.05100 24.06700
H  -9.73800 19.81000 24.30900
H  -7.09100 25.82100 20.91300
H  -4.34000 26.94400 20.95500
H  -5.79000 24.68500 19.43800
H  -5.46500 23.67300 20.87600
H  -4.22800 24.78500 20.47000
H  -6.69000 27.94000 19.89200
H  -5.32000 28.97500 20.24800
H  -6.58900 30.16600 21.67500
H  -7.28700 28.69100 22.53100
H  -7.93400 29.24200 21.03100
H  -1.64400 30.45000 25.61400
H  -3.18200 31.23500 25.23900
H  -2.53700 30.25600 24.05700
H  -4.59000 28.87300 29.88100
H  -2.79400 27.86600 33.42600
H  -1.40300 27.36700 32.53800
H  -3.00700 26.38800 32.50500

