158

Mg -2.16000 17.44400 27.21800
C  -2.40600 15.41800 30.09000
C  -2.56200 20.14500 29.14400
C  -1.75700 19.17400 24.35800
C  -1.76500 14.44500 25.15700
N  -2.36900 17.73300 29.42200
C  -2.52200 16.77700 30.39700
C  -2.73100 17.37400 31.83000
C  -2.90200 18.93200 31.44900
C  -2.65400 18.97700 29.91200
C  -4.22900 19.57800 31.92400
C  -1.54200 16.99700 32.73200
C  -1.09600 18.05400 33.72900
H  -0.32000 17.51800 34.94500
N  -2.20600 19.43300 26.78000
C  -2.31200 20.44000 27.73700
C  -2.23300 21.75200 27.06600
C  -2.04500 21.47800 25.67800
C  -1.88500 19.96100 25.55400
C  -2.35700 23.10700 27.84800
C  -1.91700 22.42700 24.48000
O  -1.79100 22.08800 23.29500
C  -1.94100 23.96700 24.69400
N  -1.96900 16.93500 24.94800
C  -1.82100 17.88300 24.07100
C  -1.86000 17.31200 22.63400
C  -1.53200 15.78600 23.01600
C  -1.79500 15.61500 24.45200
C  -3.18800 17.45700 21.85000
C  -0.15900 15.43600 22.46400
C  0.95300 16.15800 23.24700
N  -2.06400 15.37800 27.50400
C  -2.00100 14.24300 26.57300
C  -2.29200 13.04800 27.34100
C  -2.41200 13.37100 28.64400
C  -2.29200 14.83900 28.75900
C  -2.36600 11.68200 26.69900
C  -2.56400 12.90100 29.94600
O  -2.82300 11.71700 30.27500
C  -2.51700 14.17700 30.93200
C  -1.25200 14.05600 31.73900
O  -0.14300 14.32800 31.40200
O  -1.60600 13.61300 33.01500
C  -0.51000 13.77500 34.02700
H  -2.54000 21.11200 29.65100
H  -1.65900 19.75300 23.43700
H  -1.43900 13.61500 24.52700
H  -3.65800 17.04300 32.29900
H  -2.14300 19.57700 31.89300
H  -4.88100 19.67900 31.05600
H  -3.97600 20.54900 32.35200
H  -4.74600 18.96100 32.65900
H  -0.71700 16.75700 32.06000
H  -1.87800 16.13800 33.31300
H  -1.97500 18.61000 34.05300
H  -0.51400 18.83600 33.24100
H  -1.53900 23.76200 27.54900
H  -2.22000 22.99300 28.92300
H  -3.22000 23.68100 27.51000
H  -1.70100 24.35200 23.70300
H  -1.17100 24.16700 25.44000
H  -2.98000 24.22100 24.90400
H  -1.11500 17.75400 21.97400
H  -2.29900 15.17000 22.54600
H  -3.78200 18.04100 22.55200
H  -3.71000 16.55200 21.54000
H  -2.99900 18.07600 20.97200
H  -0.21100 15.70600 21.41000
H  -0.04500 14.35300 22.44400
H  0.62600 16.19200 24.28600
H  1.09600 17.16800 22.86300
H  1.84200 15.54900 23.07900
H  -3.12100 11.77700 25.91900
H  -2.70500 10.93300 27.41500
H  -1.41000 11.36700 26.28000
H  -3.38500 14.12400 31.58900
H  -0.45800 14.72200 34.56400
H  0.49100 13.59400 33.63500
H  -0.62100 13.08200 34.86100
Mg 49.47600 35.64500 27.40800
C  47.58400 34.02400 29.90000
C  49.88700 38.27400 29.52300
C  50.88100 37.35100 24.84100
C  48.47400 33.10500 25.23300
N  48.81000 36.03300 29.48200
C  48.21600 35.21700 30.36700
C  48.26400 35.78500 31.77500
C  48.68600 37.24800 31.47900
C  49.20900 37.19300 30.11100
C  47.61600 38.31100 31.78500
C  49.30800 35.04900 32.66700
C  49.03100 34.97100 34.15900
H  48.01400 35.91100 34.82300
N  50.37400 37.45000 27.23900
C  50.41100 38.46500 28.23000
C  51.04200 39.64300 27.67400
C  51.41800 39.39400 26.36000
C  50.88000 38.03600 26.09900
C  51.15500 40.82900 28.56300
C  52.09400 40.21300 25.37900
O  52.42400 39.90300 24.19800
C  52.42700 41.65000 25.81500
N  49.66400 35.28400 25.37000
C  50.24700 36.14800 24.50100
C  50.17800 35.65400 23.05200
C  49.51300 34.27500 23.18100
C  49.27300 34.15200 24.73600
C  49.35900 36.67400 22.15300
C  50.36800 33.09800 22.63300
C  51.87600 33.05400 23.04000
N  48.38500 33.81500 27.56100
C  48.06500 32.94800 26.57900
C  47.11200 31.94200 27.07900
C  46.80500 32.42400 28.34600
C  47.68800 33.44400 28.61900
C  46.34900 30.95700 26.23000
C  45.93100 32.13400 29.45500
O  45.00300 31.28800 29.62200
C  46.47600 33.23200 30.57000
C  46.92600 32.35100 31.63100
O  48.03200 31.91200 31.75900
O  45.84000 32.12500 32.44300
C  46.10000 31.23000 33.56800
H  50.12800 39.08600 30.21200
H  51.39500 37.73900 23.95900
H  47.99600 32.43800 24.51200
H  47.28600 35.67500 32.24500
H  49.54100 37.53100 32.09200
H  46.68500 37.74500 31.82800
H  47.45000 38.90900 30.88900
H  47.77800 38.94200 32.65900
H  50.27200 35.53200 32.50600
H  49.45600 34.00100 32.40800
H  49.93000 35.17000 34.74300
H  48.87500 33.92800 34.43400
H  52.04400 40.84000 29.19300
H  50.37700 40.90900 29.32300
H  51.02100 41.74300 27.98400
H  53.00700 41.51100 26.72700
H  51.59800 42.34400 25.95500
H  52.95600 42.04800 24.94900
H  51.18000 35.55600 22.63300
H  48.50800 34.24800 22.76000
H  50.09700 36.94000 21.39600
H  49.08900 37.56700 22.71600
H  48.45800 36.29000 21.67600
H  50.36100 33.15800 21.54400
H  49.80100 32.19500 22.85600
H  52.04900 33.54400 23.99800
H  52.53200 33.63900 22.39600
H  52.32600 32.06200 23.01100
H  45.39400 30.63900 26.64700
H  46.96600 30.21200 25.72900
H  45.93000 31.59000 25.44700
H  45.75700 33.97600 30.91300
H  46.48300 30.28700 33.17800
H  45.21700 31.20400 34.20600
H  46.86300 31.65200 34.22200

