158

Mg 9.08300 3.15000 27.62200
C  9.92800 1.40400 30.59200
C  6.85600 5.03200 29.47500
C  8.01300 4.54500 24.75700
C  10.75400 0.68600 25.78900
N  8.64600 3.34000 29.79600
C  9.12500 2.52200 30.77900
C  8.61100 2.97400 32.13200
C  7.48300 4.06900 31.72900
C  7.67400 4.19000 30.23300
C  6.00600 3.69500 32.19100
C  9.69100 3.54700 33.10200
C  9.08000 4.37100 34.19200
H  9.61400 3.96300 35.57000
N  7.58100 4.56800 27.21500
C  6.79400 5.30900 28.08600
C  5.96700 6.28800 27.33000
C  6.38900 6.14400 25.93800
C  7.35500 5.02400 25.93300
C  4.99100 7.17400 28.00800
C  5.90400 6.91000 24.73100
O  6.18200 6.69100 23.57100
C  4.87400 7.86800 25.02900
N  9.30900 2.69300 25.55800
C  8.82600 3.43600 24.55500
C  9.20700 2.93600 23.11500
C  9.95900 1.62100 23.50900
C  10.03400 1.62200 25.05800
C  8.05600 2.61400 22.15800
C  11.35500 1.57000 22.84000
C  11.58300 0.53300 21.72200
N  10.16800 1.40700 28.03900
C  10.75600 0.49700 27.15300
C  11.30400 -0.53400 27.98800
C  11.13600 -0.11600 29.36500
C  10.35500 0.98200 29.32200
C  11.94400 -1.77400 27.50500
C  11.44100 -0.53100 30.67100
O  12.10200 -1.45000 31.03700
C  10.66100 0.47100 31.57800
C  9.78600 -0.38300 32.39800
O  8.65800 -0.82600 32.10000
O  10.38300 -0.49300 33.68100
C  9.53200 -1.10600 34.73300
H  6.22100 5.70700 30.05200
H  7.75700 5.07100 23.83400
H  11.07300 -0.06100 25.06000
H  8.21700 2.07700 32.61000
H  7.69100 5.04300 32.17200
H  6.10000 2.75900 32.74200
H  5.21600 3.50800 31.46300
H  5.52600 4.39100 32.87800
H  10.51200 3.96600 32.52000
H  10.12100 2.66100 33.56800
H  8.02800 4.13500 34.34700
H  9.33800 5.43000 34.16200
H  5.42200 8.17500 27.99000
H  4.90900 7.09500 29.09200
H  4.02300 7.16200 27.50800
H  3.97500 7.29200 25.25100
H  4.76100 8.44500 24.11100
H  5.29400 8.46100 25.84100
H  9.86500 3.72000 22.74100
H  9.26300 0.80100 23.33200
H  7.12000 2.73300 22.70400
H  8.14700 1.59500 21.78200
H  8.03700 3.28800 21.30100
H  12.10000 1.44100 23.62600
H  11.64500 2.54000 22.43800
H  10.65600 0.42000 21.16100
H  11.92200 -0.43200 22.10000
H  12.37500 0.94800 21.09800
H  12.29500 -2.42900 28.30200
H  12.89700 -1.44100 27.09300
H  11.42400 -2.39300 26.77400
H  11.16500 1.03800 32.36100
H  10.15300 -1.81900 35.27400
H  8.76300 -1.61000 34.14600
H  8.96400 -0.31900 35.22900
Mg -1.71700 34.83100 26.81300
C  -3.21600 32.93500 29.38500
C  -0.67600 37.08300 29.13200
C  -0.57000 36.69500 24.25900
C  -3.25000 32.65800 24.46400
N  -1.91800 34.99200 28.98700
C  -2.52300 34.07100 29.83300
C  -2.37000 34.52100 31.34900
C  -1.67300 35.88700 31.16700
C  -1.42900 36.00400 29.65400
C  -2.45900 37.04600 31.75000
C  -1.41900 33.51300 32.07000
C  -1.90200 32.88200 33.37300
H  -0.85800 32.79500 34.48900
N  -0.66500 36.61600 26.66500
C  -0.29500 37.39100 27.77100
C  0.44800 38.51900 27.32800
C  0.46500 38.41200 25.87900
C  -0.28800 37.22600 25.49600
C  0.99400 39.59500 28.18000
C  1.13300 39.45400 24.87200
O  1.19000 39.18300 23.64800
C  1.92300 40.61100 25.38000
N  -1.94000 34.78300 24.60400
C  -1.31100 35.63900 23.80100
C  -1.53400 35.24000 22.34900
C  -2.33200 33.88000 22.41600
C  -2.52500 33.75200 23.94700
C  -2.31200 36.38300 21.53200
C  -1.81100 32.54600 21.73600
C  -0.50800 32.08600 22.29400
N  -3.03300 33.21300 26.81400
C  -3.58800 32.44500 25.81600
C  -4.38600 31.37500 26.40600
C  -4.27900 31.52700 27.78600
C  -3.42400 32.58200 28.06100
C  -5.18900 30.32600 25.60000
C  -4.68900 30.92500 29.11400
O  -5.38200 29.99400 29.37300
C  -3.87200 31.81400 30.18800
C  -4.96500 32.23900 31.12900
O  -5.52700 33.35300 31.08000
O  -5.10800 31.31700 32.17300
C  -6.08700 31.59400 33.20000
H  -0.50600 37.88400 29.85400
H  -0.05200 37.13400 23.40300
H  -3.73500 31.97400 23.76500
H  -3.39600 34.57600 31.71100
H  -0.65200 35.96500 31.54200
H  -3.31900 36.60400 32.25300
H  -2.88400 37.58300 30.90200
H  -1.80700 37.60500 32.42000
H  -0.42000 33.89900 32.27300
H  -1.25100 32.69200 31.37300
H  -2.05200 31.82300 33.16600
H  -2.83500 33.30200 33.75200
H  2.06000 39.65500 27.95900
H  0.88400 39.34500 29.23500
H  0.53700 40.54900 27.91900
H  1.14300 41.27200 25.75800
H  2.48000 40.96100 24.51100
H  2.61000 40.28600 26.16100
H  -0.56500 34.90600 21.97900
H  -3.31700 34.14600 22.03300
H  -2.73900 37.01800 22.30800
H  -3.07100 35.87000 20.94100
H  -1.55600 36.93300 20.97200
H  -1.67000 32.65300 20.66100
H  -2.57700 31.78700 21.89700
H  0.26200 32.08000 21.52200
H  -0.54100 31.06300 22.66900
H  -0.15800 32.73600 23.09600
H  -6.04300 30.70500 25.04000
H  -5.55300 29.51200 26.22700
H  -4.47500 29.87400 24.91100
H  -3.13300 31.23700 30.74400
H  -5.76200 32.43400 33.81500
H  -6.13600 30.73600 33.87100
H  -7.05300 31.90700 32.80300

