158

Mg 54.29800 24.84900 45.38100
C  51.56200 26.94200 44.36000
C  52.70200 22.24300 43.63500
C  57.05600 23.20200 45.65400
C  55.79100 27.84700 46.75300
N  52.39700 24.76200 43.92200
C  51.39100 25.69600 43.80400
C  50.31000 25.09700 42.83000
C  50.52600 23.55000 43.00600
C  51.99700 23.45300 43.57400
C  49.48000 22.89600 43.95800
C  50.13100 25.58600 41.32600
C  51.44800 26.09700 40.65500
H  52.24700 25.09100 39.74700
N  54.80000 22.90400 44.78900
C  54.01900 22.02300 44.14200
C  54.88700 20.72800 43.89900
C  56.15300 21.03700 44.47500
C  56.02600 22.42500 45.03000
C  54.39800 19.51800 43.20400
C  57.32000 19.95000 44.37600
O  57.22100 18.98700 43.57900
C  58.63600 20.12200 45.09800
N  56.14400 25.49700 45.94000
C  57.12200 24.54500 46.04000
C  58.32000 25.12400 46.91400
C  58.03800 26.59800 47.03900
C  56.55000 26.66800 46.60800
C  58.48600 24.44400 48.29300
C  58.86400 27.58400 46.12500
C  58.26400 28.10600 44.75600
N  53.76500 26.89800 45.69700
C  54.40300 27.98800 46.30200
C  53.53700 29.16200 46.31600
C  52.46600 28.79700 45.51800
C  52.61700 27.42900 45.15800
C  53.73900 30.44600 46.99900
C  51.26600 29.30400 44.96100
O  50.80200 30.40100 44.99400
C  50.68000 28.14400 44.08700
C  50.65800 28.57700 42.65900
O  51.65100 28.93000 42.06800
O  49.40400 28.72400 42.16700
C  49.25900 29.19300 40.74500
H  52.28000 21.35200 43.16600
H  57.97600 22.69100 45.94900
H  56.22800 28.74200 47.20000
H  49.33700 25.33600 43.26100
H  50.65200 22.99300 42.07800
H  48.74800 23.52500 44.46500
H  50.00900 22.30100 44.70100
H  49.03100 22.07400 43.40000
H  49.27300 26.24500 41.19200
H  49.78700 24.67700 40.83300
H  52.23300 26.24300 41.39800
H  51.38500 27.11200 40.26400
H  55.00800 19.45400 42.30300
H  53.35200 19.52900 42.89800
H  54.45200 18.57100 43.74200
H  59.28500 19.31000 44.76900
H  58.52700 20.12300 46.18200
H  59.03200 21.08100 44.76500
H  59.25600 24.94500 46.38600
H  58.13600 26.90500 48.08000
H  59.56200 24.26900 48.26100
H  58.09900 23.42700 48.35000
H  58.16000 25.05600 49.13400
H  59.83100 27.12200 45.92800
H  59.07100 28.44600 46.76000
H  57.60800 27.38300 44.27100
H  59.13200 28.29800 44.12500
H  57.78600 29.05800 44.98900
H  53.57200 31.25900 46.29300
H  54.65800 30.69500 47.52900
H  52.92800 30.53100 47.72200
H  49.66000 27.93900 44.41000
H  50.08700 29.87000 40.53600
H  48.30200 29.71500 40.74800
H  49.06900 28.35100 40.07900
Mg 48.47100 34.97500 27.70500
C  46.42500 33.61700 30.10300
C  48.47900 37.94000 29.51000
C  50.27300 36.44600 25.23000
C  47.72000 32.21400 25.58500
N  47.69800 35.64300 29.69500
C  46.87200 34.88900 30.48900
C  46.68600 35.58200 31.82100
C  46.89800 37.07500 31.41000
C  47.73100 36.90100 30.09900
C  45.52900 37.84400 31.10800
C  47.54300 35.09900 33.03100
C  48.69000 35.97200 33.57200
H  48.33200 36.88800 34.71700
N  49.45900 36.86500 27.53600
C  49.32700 37.89100 28.37000
C  50.19100 39.04600 27.83000
C  50.81700 38.51200 26.65200
C  50.20600 37.20300 26.43800
C  50.17500 40.47700 28.25600
C  51.80100 39.18500 25.71000
O  52.27800 38.71900 24.65200
C  52.45800 40.44100 26.22300
N  48.92900 34.44300 25.68800
C  49.71500 35.21900 24.85600
C  49.96300 34.50900 23.45600
C  49.15200 33.15200 23.61400
C  48.54400 33.21200 25.06700
C  49.50800 35.45500 22.24300
C  49.89600 31.87000 23.36500
C  50.35200 31.55400 21.89200
N  47.41300 33.18000 27.75500
C  47.16500 32.16100 26.89100
C  46.28800 31.13300 27.46500
C  45.99800 31.66000 28.74300
C  46.68200 32.87500 28.86700
C  45.92700 29.84900 26.76500
C  45.33200 31.40700 29.98900
O  44.67300 30.42600 30.21500
C  45.51400 32.71200 30.89700
C  45.90900 32.27800 32.28500
O  46.91300 31.72300 32.64600
O  44.97600 32.75300 33.15200
C  45.12000 32.60500 34.58100
H  48.41400 38.93600 29.95300
H  50.85700 36.85900 24.40500
H  47.48400 31.42200 24.87000
H  45.64300 35.43900 32.10400
H  47.36800 37.74400 32.13100
H  44.57200 37.32200 31.07100
H  45.71100 38.24900 30.11300
H  45.43400 38.56100 31.92300
H  47.94600 34.09300 32.91500
H  46.92500 35.07400 33.92900
H  49.16000 36.52800 32.76000
H  49.44300 35.25900 33.90800
H  49.93900 41.14500 27.42800
H  51.06600 40.66000 28.85800
H  49.22500 40.57200 28.78000
H  52.84900 40.13300 27.19200
H  51.80600 41.31400 26.26600
H  53.29400 40.61300 25.54500
H  51.04800 34.43500 23.53200
H  48.26500 33.31500 23.00200
H  50.46200 35.84000 21.88400
H  48.94700 36.34300 22.53300
H  48.97100 34.92300 21.45800
H  49.32200 31.01800 23.72900
H  50.73700 32.09300 24.02200
H  49.96200 30.59200 21.55900
H  51.42800 31.52400 21.71900
H  50.04800 32.34500 21.20700
H  46.85900 29.38200 26.44500
H  45.36700 30.05000 25.85200
H  45.29000 29.18300 27.34600
H  44.53300 33.18600 30.86300
H  44.50000 31.81100 34.99800
H  44.77000 33.48700 35.11700
H  46.13700 32.38800 34.90800

