158

Mg 47.33300 15.91300 28.27700
C  45.18400 15.78400 30.96100
C  49.63300 17.41800 30.38800
C  49.06800 16.58400 25.56200
C  44.79600 14.57500 26.25100
N  47.32000 16.71900 30.39900
C  46.33000 16.41600 31.31600
C  46.70000 16.99900 32.67500
C  48.05900 17.72700 32.37100
C  48.40200 17.25900 30.97000
C  47.90600 19.31300 32.38800
C  46.91100 15.89100 33.71000
C  46.66400 16.32000 35.23900
H  46.28100 17.71300 35.56200
N  49.11300 16.74300 28.08200
C  49.95500 17.19100 29.08000
C  51.22300 17.55700 28.40200
C  51.06500 17.40400 26.98100
C  49.75000 16.85700 26.82000
C  52.39900 18.04600 29.23100
C  52.04500 17.76700 25.81700
O  51.81000 17.56500 24.66400
C  53.39100 18.41500 26.07600
N  46.86600 15.78300 26.09600
C  47.80400 16.07100 25.22900
C  47.42200 15.70400 23.79500
C  46.01600 15.01900 24.03500
C  45.88400 15.10400 25.54600
C  47.38400 16.88900 22.83300
C  45.93700 13.54000 23.53100
C  44.96900 13.46200 22.38600
N  45.45100 15.24300 28.53600
C  44.51200 14.71900 27.62400
C  43.29300 14.27700 28.27400
C  43.50700 14.66000 29.63700
C  44.82100 15.26700 29.70900
C  41.99000 13.83100 27.58500
C  42.95300 14.73000 30.96400
O  41.86200 14.35900 31.42600
C  43.99300 15.42000 31.87400
C  43.23300 16.55800 32.44200
O  43.06100 17.62900 31.86400
O  42.67200 16.33800 33.65600
C  41.84600 17.43900 34.23200
H  50.43100 17.82900 31.01000
H  49.68700 16.69300 24.67000
H  44.06900 13.99700 25.67700
H  45.81600 17.59800 32.89400
H  48.76100 17.44500 33.15700
H  48.79300 19.89500 32.63900
H  47.18000 19.71400 33.09500
H  47.63700 19.61100 31.37500
H  47.96900 15.64700 33.61600
H  46.31000 14.98400 33.64100
H  47.65500 16.09100 35.62900
H  46.00700 15.58400 35.70100
H  52.82100 18.89600 28.69500
H  53.04500 17.16900 29.18800
H  52.22900 18.39900 30.24900
H  53.29100 19.49700 25.98600
H  54.13700 18.19200 25.31400
H  53.89200 18.17600 27.01400
H  48.08600 14.89900 23.47900
H  45.17600 15.61700 23.68300
H  47.39500 17.83100 23.38200
H  46.42900 16.83900 22.31100
H  48.24800 16.91400 22.16900
H  45.70800 12.81700 24.31400
H  46.90000 13.20600 23.14500
H  45.58600 12.94000 21.65500
H  44.59000 14.42300 22.03900
H  44.05700 12.90700 22.60700
H  41.96500 12.78800 27.26900
H  41.94000 14.44600 26.68600
H  41.12600 13.97400 28.23400
H  44.20100 14.67800 32.64400
H  42.04000 18.47900 33.96900
H  41.91400 17.27300 35.30700
H  40.79000 17.40300 33.96300
Mg 16.83000 52.29200 26.56100
C  18.74400 50.95300 29.00800
C  14.40200 53.20200 28.83100
C  14.90900 53.54700 24.10800
C  19.24700 51.36100 24.13700
N  16.58700 52.04800 28.68300
C  17.54900 51.53800 29.49900
C  17.09500 51.72200 30.94100
C  15.63800 52.28600 30.83000
C  15.54400 52.55800 29.35200
C  14.46800 51.37700 31.37700
C  18.04900 52.73600 31.62000
C  17.90900 52.94400 33.16800
H  17.05300 51.98900 33.91100
N  14.88400 53.18600 26.46400
C  14.07200 53.51700 27.46400
C  12.94800 54.24500 27.00500
C  13.05000 54.40200 25.58200
C  14.31300 53.65900 25.31900
C  11.80100 54.59000 27.98100
C  12.13800 54.94300 24.60700
O  12.29500 54.87100 23.39200
C  10.84900 55.60500 25.10400
N  17.00200 52.22300 24.35300
C  16.06200 52.85800 23.62800
C  16.54800 52.95800 22.16800
C  18.05600 52.44800 22.24100
C  18.06200 51.88300 23.64500
C  15.66700 52.20300 21.15300
C  19.12900 53.46500 21.94100
C  20.00800 53.22300 20.76100
N  18.64300 51.27800 26.49800
C  19.48000 50.95600 25.49500
C  20.64400 50.29700 26.02600
C  20.43800 50.25200 27.42700
C  19.19900 50.92400 27.65000
C  21.82200 49.72700 25.29700
C  20.98700 49.78600 28.68500
O  21.93700 48.99300 28.97200
C  19.89400 50.31600 29.78100
C  19.54600 49.25500 30.77700
O  18.76600 48.36600 30.63200
O  20.33400 49.42500 31.94200
C  19.91500 48.54000 33.00400
H  13.64300 53.49800 29.55900
H  14.47500 53.98500 23.20600
H  20.06100 51.18300 23.43100
H  17.08700 50.73700 31.40900
H  15.47000 53.17700 31.43600
H  14.73300 50.73400 32.21600
H  13.94400 50.76100 30.64600
H  13.68300 51.96200 31.85700
H  17.85000 53.67700 31.10700
H  19.09900 52.60700 31.35600
H  17.45300 53.93400 33.17300
H  18.90900 53.14700 33.55100
H  10.86200 54.17300 27.61700
H  11.71600 55.63900 28.26400
H  11.84900 54.09700 28.95200
H  9.99900 55.46800 24.43600
H  11.13500 56.65700 25.10800
H  10.42400 55.26300 26.04700
H  16.47200 53.99400 21.83700
H  18.18800 51.56600 21.61400
H  16.04500 51.22200 20.86400
H  15.43400 52.81200 20.27900
H  14.72800 51.99300 21.66600
H  19.65300 53.65000 22.87900
H  18.61100 54.40600 21.76000
H  19.62400 53.79900 19.91900
H  20.03700 52.16000 20.52100
H  21.06800 53.45500 20.86400
H  22.59300 49.64300 26.06300
H  22.08000 50.48600 24.55900
H  21.62900 48.75600 24.84200
H  20.42100 51.12300 30.29000
H  20.39100 48.80500 33.94800
H  20.15900 47.50300 32.77300
H  18.83600 48.53000 33.15600

