158

Mg 1.06800 -1.70700 45.05000
C  4.51900 -0.91300 44.17400
C  0.18400 1.15400 43.35500
C  -2.09200 -2.63000 45.21200
C  2.22500 -4.83200 46.12000
N  2.25100 -0.08100 44.04100
C  3.62700 0.05400 43.85500
C  3.92600 1.29700 43.06200
C  2.48800 2.09600 43.02300
C  1.55400 0.98700 43.57300
C  2.33900 3.41700 43.83100
C  4.51800 1.02300 41.63300
C  5.92700 1.66300 41.35500
H  6.81000 0.92100 40.31000
N  -0.74000 -0.82100 44.49900
C  -0.88600 0.36600 43.79500
C  -2.28800 0.64400 43.56800
C  -2.98900 -0.35500 44.30700
C  -1.94400 -1.35900 44.71300
C  -2.88800 1.81200 42.80200
C  -4.46600 -0.37400 44.75800
O  -5.26200 0.48000 44.29600
C  -5.00200 -1.40200 45.78700
N  0.14100 -3.47000 45.79800
C  -1.17900 -3.62800 45.67700
C  -1.62900 -5.03900 46.01200
C  -0.25100 -5.72100 46.45400
C  0.81100 -4.64400 46.05700
C  -2.86500 -5.06400 47.07800
C  -0.17800 -7.16000 45.73900
C  -0.48200 -8.40000 46.58500
N  2.99500 -2.69000 45.28900
C  3.18700 -3.92200 45.71000
C  4.70600 -4.07300 45.82100
C  5.21300 -2.88100 45.20100
C  4.13300 -2.14200 44.80800
C  5.38400 -5.28700 46.31600
C  6.39400 -2.24300 44.84400
O  7.55300 -2.61700 45.03700
C  6.04300 -1.00800 43.98000
C  6.71100 0.17100 44.69700
O  6.40000 0.52400 45.80700
O  7.80500 0.63200 43.92600
C  8.36100 1.72100 44.70700
H  0.03200 2.10400 42.83800
H  -3.11000 -3.02600 45.19300
H  2.60600 -5.78000 46.50600
H  4.55600 1.96700 43.64700
H  2.28800 2.37200 41.98700
H  1.91900 4.16600 43.16000
H  3.35300 3.65800 44.15000
H  1.72400 3.35200 44.72900
H  3.80700 1.17900 40.82200
H  4.66200 -0.05700 41.60100
H  6.43400 1.84100 42.30400
H  5.59600 2.61500 40.93900
H  -3.93600 1.53500 42.68300
H  -2.22100 2.02500 41.96600
H  -2.71500 2.59400 43.54100
H  -4.19000 -1.73000 46.43600
H  -5.47300 -2.20900 45.22500
H  -5.77500 -0.97900 46.42900
H  -2.09800 -5.46300 45.12400
H  -0.35100 -5.72200 47.53900
H  -2.52400 -5.51100 48.01300
H  -3.63700 -5.73900 46.70900
H  -3.29200 -4.11600 47.40400
H  0.87700 -7.22100 45.47300
H  -0.78000 -7.13900 44.83100
H  0.40500 -8.69800 47.14400
H  -0.88900 -9.22100 45.99500
H  -1.29000 -8.23700 47.29800
H  5.50200 -5.99300 45.49400
H  4.90400 -5.57400 47.25200
H  6.37600 -4.91300 46.56800
H  6.41700 -1.15700 42.96700
H  9.21600 2.11600 44.15800
H  8.87600 1.33300 45.58600
H  7.72800 2.56900 44.96800
Mg 24.06100 -5.70100 44.83700
C  26.41900 -3.47000 43.59600
C  21.66600 -4.32400 42.85200
C  22.08800 -8.47400 45.31100
C  26.63300 -7.39100 46.44300
N  24.14800 -4.22400 43.30300
C  25.16900 -3.36600 42.95400
C  24.71900 -2.30000 41.92500
C  23.19100 -2.38200 42.12000
C  22.94700 -3.72800 42.82800
C  22.57600 -1.22200 42.91100
C  25.22900 -2.70700 40.50200
C  26.03400 -1.65600 39.68300
H  25.97600 -1.64900 38.13000
N  22.11500 -6.29300 44.21300
C  21.28100 -5.53600 43.48700
C  19.95900 -6.16900 43.44400
C  20.04200 -7.43200 44.11600
C  21.43500 -7.46000 44.58000
C  18.86600 -5.48200 42.68900
C  18.88900 -8.47800 44.37200
O  17.77600 -8.27700 43.93700
C  19.10300 -9.85200 45.10000
N  24.32800 -7.66700 45.63400
C  23.37200 -8.64900 45.70700
C  23.77000 -9.88800 46.50500
C  25.21500 -9.47000 46.99600
C  25.47800 -8.11300 46.25200
C  22.73000 -10.40600 47.59600
C  26.23000 -10.60300 46.58200
C  27.35100 -10.74600 47.65800
N  26.12900 -5.40700 45.17700
C  26.97400 -6.05800 45.97100
C  28.28500 -5.42100 45.94600
C  28.09400 -4.44700 44.99500
C  26.75600 -4.43900 44.59400
C  29.43200 -5.93400 46.77600
C  28.76900 -3.33600 44.18900
O  29.93600 -2.91300 44.18600
C  27.69100 -2.67500 43.30500
C  27.48000 -1.26600 43.54800
O  26.48600 -0.78600 44.09500
O  28.56100 -0.58100 43.03500
C  28.27600 0.82200 43.09100
H  20.95400 -3.72700 42.27800
H  21.43400 -9.34500 45.38300
H  27.38200 -7.90000 47.05400
H  25.14300 -1.33100 42.19100
H  22.70800 -2.31500 41.14500
H  23.35100 -0.51200 43.20000
H  22.00200 -1.48100 43.80100
H  21.99600 -0.65700 42.18100
H  24.36200 -2.89200 39.86800
H  25.76900 -3.65000 40.58400
H  27.08100 -1.78000 39.96200
H  25.71200 -0.67900 40.04200
H  17.96800 -5.79700 43.22000
H  18.71200 -5.71700 41.63600
H  18.90900 -4.39800 42.79800
H  18.20700 -10.47200 45.11800
H  19.38500 -9.65900 46.13600
H  19.88900 -10.45600 44.64600
H  23.85600 -10.59300 45.67800
H  25.32500 -9.23000 48.05400
H  22.46100 -11.43000 47.33700
H  21.79700 -9.85000 47.49900
H  23.24000 -10.26900 48.55000
H  26.74700 -10.36400 45.65300
H  25.67100 -11.53700 46.52400
H  26.98900 -11.32100 48.51000
H  27.62200 -9.78000 48.08400
H  28.25100 -11.12100 47.16900
H  29.86100 -6.82900 46.32600
H  29.07300 -6.30600 47.73600
H  30.15400 -5.12500 46.88400
H  28.00800 -2.80400 42.27000
H  28.25900 1.06500 44.15300
H  27.28000 1.03100 42.70100
H  29.08600 1.36100 42.60000

