158

Mg 49.66100 35.20800 28.01000
C  47.68100 33.65500 30.53600
C  49.86800 37.98900 30.01700
C  51.41900 36.70600 25.50400
C  48.98900 32.46800 25.90500
N  48.89200 35.64700 30.13100
C  48.27700 34.86500 31.00600
C  48.37200 35.41300 32.42400
C  48.78300 36.91900 32.13900
C  49.24800 36.87300 30.67300
C  47.75900 38.05900 32.63000
C  49.51500 34.58400 33.10700
C  49.48800 34.36800 34.61600
H  48.56800 35.21600 35.48700
N  50.57000 37.06600 27.86600
C  50.44700 38.08900 28.75100
C  51.12300 39.32200 28.19400
C  51.71400 38.92800 26.95100
C  51.20700 37.50000 26.67500
C  51.23500 40.66100 29.06500
C  52.73900 39.62700 26.03800
O  53.33800 39.08700 25.14100
C  53.28200 41.00200 26.43300
N  49.89000 34.75700 25.87000
C  50.90000 35.42700 25.17700
C  51.50100 34.57700 24.01100
C  50.68200 33.26700 24.04700
C  49.78900 33.45900 25.32000
C  51.45200 35.40500 22.66600
C  51.57400 31.98500 24.07900
C  50.98000 30.78900 23.36700
N  48.57500 33.44000 28.11000
C  48.35800 32.46900 27.16400
C  47.37200 31.59900 27.68000
C  47.08800 32.03300 29.02600
C  47.86100 33.15400 29.18100
C  46.91900 30.29600 26.95300
C  46.30400 31.71800 30.13400
O  45.50000 30.81100 30.30300
C  46.72800 32.73700 31.24300
C  47.48000 32.04600 32.34100
O  48.38600 31.25800 32.05700
O  47.02600 32.26400 33.57500
C  47.37500 31.21200 34.58000
H  49.93600 38.86600 30.66500
H  51.97700 37.13000 24.66600
H  48.78800 31.59200 25.28500
H  47.43300 35.25100 32.95400
H  49.66800 37.15500 32.73100
H  48.08700 38.43000 33.60100
H  46.74800 37.66200 32.73200
H  47.80800 38.88500 31.92100
H  50.40800 35.20600 33.04700
H  49.60600 33.63900 32.57200
H  50.49400 34.51100 35.01200
H  49.17500 33.34200 34.81200
H  50.65300 40.72200 29.98400
H  50.81100 41.41400 28.40000
H  52.26700 40.84600 29.36300
H  52.50700 41.71100 26.72400
H  53.78700 41.39600 25.55100
H  53.80300 40.70300 27.34200
H  52.54300 34.49400 24.32000
H  50.02800 33.21100 23.17600
H  50.88300 34.78800 21.97000
H  52.48500 35.60500 22.38100
H  50.98000 36.38200 22.76600
H  51.68200 31.75900 25.14000
H  52.58300 32.10400 23.68400
H  51.75700 30.24700 22.82900
H  50.11700 31.09200 22.77300
H  50.60100 30.16400 24.17500
H  47.72100 29.93200 26.31100
H  45.97000 30.53000 26.46900
H  46.74800 29.56700 27.74400
H  45.85000 33.28700 31.58300
H  47.08100 30.21100 34.26500
H  46.99200 31.47200 35.56800
H  48.45400 31.14200 34.71300
Mg 1.39700 42.61600 25.83500
C  3.54100 42.74200 28.51200
C  -1.22400 42.40800 28.05900
C  -0.71500 42.31900 23.22200
C  4.06900 42.66000 23.63300
N  1.19900 42.61800 28.06100
C  2.24900 42.67900 28.94100
C  1.66600 42.71700 30.39000
C  0.18800 42.41800 30.26500
C  0.00800 42.53600 28.72400
C  -0.14800 40.98400 30.65500
C  2.06000 44.08600 31.12300
C  2.03600 43.95800 32.63200
H  0.74100 44.00200 33.38800
N  -0.73500 42.60500 25.65100
C  -1.59000 42.44300 26.70400
C  -2.97100 42.31800 26.17300
C  -2.84800 42.35800 24.71800
C  -1.40500 42.38800 24.46400
C  -4.10700 42.01200 27.13000
C  -3.95600 42.38400 23.67600
O  -3.69700 42.35200 22.42200
C  -5.42300 42.37000 24.05500
N  1.57100 42.62900 23.70700
C  0.61400 42.36900 22.86900
C  1.15800 41.99300 21.51800
C  2.60300 42.55000 21.59400
C  2.77600 42.68000 23.07300
C  1.04300 40.45800 21.11100
C  2.90900 43.85500 20.79200
C  2.95700 43.94300 19.29900
N  3.42400 42.67000 25.98800
C  4.38700 42.79000 25.02900
C  5.67100 42.97200 25.62000
C  5.40200 42.87000 27.04900
C  4.01600 42.73400 27.19400
C  7.02400 43.13800 25.08400
C  6.04900 42.78900 28.30000
O  7.20900 42.67400 28.56700
C  4.89700 42.72100 29.35400
C  4.95100 41.49000 30.28000
O  4.71100 40.35900 30.02200
O  5.49300 41.87000 31.45500
C  5.86200 40.74300 32.24700
H  -2.04300 42.41300 28.78100
H  -1.35000 42.07700 22.36700
H  4.89000 42.66300 22.91200
H  2.13900 41.87400 30.89400
H  -0.32600 43.21900 30.79600
H  -0.36700 40.31600 29.82200
H  -1.04300 40.87800 31.26800
H  0.65900 40.53000 31.23000
H  1.19500 44.73600 30.99400
H  2.97000 44.51300 30.70100
H  2.63800 44.79900 32.97600
H  2.64000 43.14700 33.03900
H  -3.97900 41.02700 27.57800
H  -4.99700 41.85300 26.52200
H  -4.19700 42.73900 27.93800
H  -6.05600 42.51800 23.18000
H  -5.52200 43.13100 24.83000
H  -5.84700 41.47900 24.51700
H  0.57400 42.61900 20.84300
H  3.26400 41.77200 21.21100
H  0.69800 40.36700 20.08200
H  0.29800 39.94000 21.71500
H  2.00400 39.95800 21.23300
H  3.95300 44.10200 20.98600
H  2.33800 44.68600 21.20600
H  2.24300 44.68600 18.94500
H  2.71500 42.96400 18.88600
H  3.95100 44.13800 18.89600
H  7.51700 43.77000 25.82200
H  6.99200 43.74100 24.17700
H  7.59700 42.23500 24.87300
H  4.88900 43.67700 29.87700
H  5.08000 40.00400 32.42500
H  6.20400 40.96300 33.25800
H  6.74900 40.30000 31.79500

