158

Mg 40.62900 9.69000 29.71000
C  42.39200 11.10000 32.34400
C  38.40500 8.45000 31.96800
C  38.89000 8.30000 27.08600
C  42.99200 10.99400 27.44500
N  40.48800 9.76700 31.99200
C  41.23000 10.45400 32.83200
C  40.60400 10.38700 34.24000
C  39.48300 9.34000 34.17000
C  39.45900 9.15400 32.60000
C  39.66200 8.11000 35.01100
C  40.16400 11.76500 34.80700
C  39.89700 11.83400 36.36800
H  40.73100 12.70300 37.28000
N  38.91500 8.63900 29.52400
C  38.17000 8.19900 30.61400
C  37.00100 7.42200 30.17500
C  37.04200 7.55600 28.75100
C  38.32800 8.12000 28.40500
C  35.96800 6.80100 31.09200
C  36.00700 7.16800 27.65500
O  36.18000 7.31800 26.42000
C  34.67000 6.72300 28.16200
N  40.96700 9.57300 27.62900
C  39.99200 9.08100 26.77200
C  40.38200 9.33500 25.28200
C  41.70800 10.18700 25.39200
C  41.87100 10.29600 26.90900
C  40.41900 8.15100 24.32000
C  41.69300 11.55800 24.72400
C  40.57200 12.63100 25.10900
N  42.36500 10.62100 29.81000
C  43.18600 11.16600 28.85400
C  44.28200 11.89400 29.43300
C  43.97200 11.91800 30.77100
C  42.79700 11.16200 30.96500
C  45.42100 12.47100 28.64100
C  44.44300 12.38300 32.02600
O  45.37100 13.03600 32.35200
C  43.44500 11.83500 33.08400
C  44.03300 10.82000 34.01700
O  44.35700 9.68300 33.68600
O  44.14900 11.30500 35.33200
C  44.31700 10.33400 36.41300
H  37.64400 8.18500 32.70600
H  38.34900 7.89700 26.22700
H  43.64600 11.51300 26.74100
H  41.42600 10.07700 34.88600
H  38.56100 9.79900 34.52400
H  39.47200 7.20900 34.42700
H  38.97000 8.21800 35.84700
H  40.66400 8.06800 35.43800
H  39.24000 12.01400 34.28700
H  40.94700 12.48800 34.57700
H  39.93200 10.80600 36.73000
H  38.85500 12.09400 36.55500
H  35.22800 7.57500 31.29400
H  36.45700 6.39400 31.97700
H  35.52200 5.89700 30.67500
H  34.68000 5.63600 28.24000
H  34.06500 6.98300 27.29300
H  34.30500 7.15200 29.09500
H  39.65300 10.07600 24.95200
H  42.54200 9.63700 24.95500
H  40.31800 7.27200 24.95700
H  41.37600 8.07800 23.80400
H  39.66800 8.24100 23.53500
H  41.51400 11.23900 23.69700
H  42.68000 12.01900 24.75200
H  40.01100 12.24100 25.95900
H  39.86900 12.69600 24.27800
H  40.93700 13.60600 25.43200
H  45.44000 13.49600 29.01300
H  45.32500 12.43200 27.55600
H  46.29000 11.93200 29.01800
H  43.21600 12.74700 33.63500
H  45.37000 10.05300 36.41200
H  43.79800 9.37800 36.34000
H  43.82800 10.78200 37.27800
Mg 53.56500 24.85800 44.33200
C  51.15400 27.26300 43.40900
C  51.37900 22.53100 43.02900
C  56.12800 22.73900 44.03400
C  55.78400 27.47600 45.11300
N  51.60400 24.93700 43.12400
C  50.74100 25.99000 43.03800
C  49.39300 25.61000 42.43300
C  49.31300 24.04000 42.61700
C  50.83800 23.80500 42.86400
C  48.32700 23.49400 43.65600
C  49.35400 26.08600 40.98900
C  47.91100 26.09300 40.48600
H  47.77200 25.17000 39.25500
N  53.71400 22.84600 43.80000
C  52.70600 22.05900 43.29600
C  53.21200 20.73200 43.02300
C  54.60800 20.65200 43.41300
C  54.87600 22.12000 43.75600
C  52.32800 19.58200 42.54100
C  55.50500 19.50000 43.31300
O  55.16900 18.44800 42.84400
C  56.87300 19.58600 43.93300
N  55.65700 25.17200 44.37500
C  56.48700 24.11300 44.30700
C  57.94300 24.47500 44.63100
C  57.89300 25.99000 44.76700
C  56.40100 26.25200 44.90400
C  58.47200 23.66100 45.84900
C  58.56900 26.75700 43.56200
C  60.04400 27.27600 43.65300
N  53.49100 26.91800 44.46900
C  54.40700 27.80900 44.89100
C  53.74600 29.10900 45.10200
C  52.50500 28.95900 44.47900
C  52.33600 27.60400 44.09100
C  54.30100 30.32000 45.74900
C  51.27900 29.68000 44.15000
O  50.92500 30.82200 44.41300
C  50.41600 28.65400 43.38700
C  50.22700 29.27400 42.03100
O  51.14200 29.60400 41.27400
O  48.91300 29.43000 41.76300
C  48.49600 29.84800 40.46800
H  50.68700 21.82400 42.56600
H  57.01300 22.10000 43.99700
H  56.36900 28.27400 45.57500
H  48.59800 26.08700 43.00600
H  48.98300 23.55900 41.69600
H  47.50200 22.88000 43.29500
H  47.99200 24.39500 44.17000
H  48.96400 23.01800 44.40100
H  49.88400 25.30400 40.44500
H  49.84200 27.02200 40.71900
H  47.57300 27.07000 40.13900
H  47.16200 25.79800 41.22000
H  52.34200 19.42300 41.46200
H  51.29800 19.77600 42.84100
H  52.64300 18.62100 42.94700
H  57.62000 19.95700 43.23100
H  57.13900 18.53600 44.05900
H  56.76500 20.07000 44.90300
H  58.60400 24.20800 43.80700
H  58.33500 26.39900 45.67500
H  58.96000 22.74200 45.52300
H  57.68900 23.34700 46.53900
H  59.19700 24.28500 46.37200
H  57.87400 27.54100 43.26300
H  58.55300 26.03600 42.74400
H  60.30900 27.29600 44.71000
H  60.02300 28.23900 43.14300
H  60.67700 26.71000 42.97100
H  54.24000 31.11600 45.00700
H  55.26500 30.10800 46.21200
H  53.53400 30.48000 46.50600
H  49.47400 28.51300 43.91800
H  49.17400 29.49200 39.69200
H  48.47800 30.93700 40.45900
H  47.50900 29.61200 40.07000

