158

Mg 30.68900 59.03800 40.14400
C  27.70300 57.44800 39.37500
C  32.33000 56.15300 39.30700
C  33.48000 60.85800 39.92300
C  28.82100 62.10700 40.38800
N  30.03900 57.02800 39.56600
C  28.79500 56.58100 39.39600
C  28.76800 55.12800 38.88500
C  30.18300 54.68900 39.23800
C  30.91700 56.03000 39.37100
C  30.29400 53.98400 40.67300
C  28.51200 55.18900 37.26400
C  27.51000 54.16300 36.59300
H  26.61600 54.68300 35.42800
N  32.64100 58.58400 39.77100
C  33.10000 57.32000 39.47800
C  34.55900 57.45200 39.24900
C  34.95500 58.79900 39.53500
C  33.66300 59.46500 39.73000
C  35.39100 56.19800 39.06100
C  36.34300 59.35600 39.71200
O  37.27900 58.60300 39.39200
C  36.79200 60.64800 40.34400
N  31.15300 61.14500 40.16600
C  32.32200 61.66100 40.12800
C  32.36700 63.15000 40.17300
C  30.88000 63.57000 40.37800
C  30.19100 62.17000 40.24800
C  33.39400 63.72200 41.16500
C  30.38800 64.61200 39.36900
C  29.75400 65.86500 39.93400
N  28.72300 59.66100 39.98000
C  28.12100 60.98800 40.08300
C  26.72700 60.81500 39.75200
C  26.62100 59.50300 39.45700
C  27.78200 58.81900 39.59300
C  25.58200 61.81400 39.57800
C  25.62300 58.55900 39.04200
O  24.44500 58.77500 38.89400
C  26.29100 57.20700 38.93800
C  25.54300 56.19000 39.78100
O  25.44100 56.11100 41.04000
O  25.10100 55.17700 38.94500
C  24.93100 53.85300 39.52200
H  32.90900 55.24300 39.13500
H  34.42800 61.39900 39.88500
H  28.26700 63.04800 40.33600
H  27.97300 54.51100 39.30500
H  30.66400 54.02400 38.52100
H  29.33500 53.70000 41.10700
H  30.73000 54.63100 41.43400
H  31.00600 53.17100 40.52500
H  29.49000 54.86600 36.90800
H  28.37900 56.18700 36.84600
H  26.79700 53.74500 37.30500
H  28.16600 53.36500 36.24600
H  34.88100 55.64400 38.27300
H  35.14600 55.63500 39.96200
H  36.36900 56.44200 38.64600
H  37.81700 60.46400 40.66500
H  36.11600 60.93500 41.14900
H  36.77300 61.46100 39.61800
H  32.66200 63.53800 39.19800
H  30.74300 63.96900 41.38300
H  33.86900 62.87200 41.65600
H  32.95000 64.39700 41.89700
H  34.15800 64.31600 40.66500
H  29.58100 64.17100 38.78500
H  31.03700 64.92800 38.55200
H  30.09900 66.61100 39.21800
H  30.14600 66.21000 40.89100
H  28.67000 65.77500 39.85900
H  24.80700 61.57200 40.30600
H  25.22000 61.81200 38.55000
H  25.96700 62.79000 39.87200
H  26.20000 56.81000 37.92700
H  25.91300 53.43700 39.74400
H  24.56300 53.21400 38.71900
H  24.26800 53.89600 40.38600
Mg 0.27900 43.67000 26.30300
C  2.39400 43.09400 29.08700
C  -2.26800 42.35300 28.12800
C  -1.60400 43.67700 23.48000
C  3.14000 44.25200 24.40100
N  0.10100 42.89500 28.37100
C  1.03500 42.90300 29.41100
C  0.29700 42.82100 30.77000
C  -1.03700 42.08800 30.41000
C  -1.11200 42.46500 28.85300
C  -0.98600 40.50300 30.69400
C  0.19200 44.22200 31.30900
C  -0.20100 44.34200 32.75300
H  -0.54900 43.07300 33.60000
N  -1.75000 43.18800 25.89000
C  -2.63800 42.74900 26.83200
C  -3.93800 42.59900 26.14700
C  -3.76500 42.99800 24.78600
C  -2.34000 43.29400 24.67800
C  -5.11500 42.19800 26.97000
C  -4.71600 42.95000 23.65600
O  -4.46000 43.27100 22.52500
C  -6.14100 42.35400 23.82500
N  0.62800 43.81300 24.22000
C  -0.30500 43.96100 23.26100
C  0.27800 44.44100 21.95100
C  1.76200 44.74900 22.30000
C  1.87000 44.30300 23.75100
C  0.01200 43.42300 20.77700
C  2.24800 46.16900 22.01000
C  2.14600 47.16700 23.22900
N  2.37400 43.64600 26.61000
C  3.40700 43.84000 25.71500
C  4.66000 43.67900 26.42600
C  4.29900 43.42300 27.73800
C  2.89800 43.31900 27.78300
C  6.06900 43.77000 25.82800
C  4.84200 43.15400 29.04000
O  5.97300 42.98700 29.36000
C  3.63000 43.10400 29.95300
C  3.72400 41.97000 30.86200
O  3.75800 40.80500 30.55400
O  3.86400 42.44900 32.08500
C  3.88500 41.47600 33.16800
H  -3.10600 41.92000 28.67800
H  -2.09000 43.75400 22.50400
H  3.96200 44.56200 23.75300
H  0.89500 42.21300 31.44900
H  -1.97400 42.47700 30.80900
H  -0.12700 40.23100 31.30700
H  -0.85000 40.07800 29.69900
H  -1.91300 40.10800 31.10800
H  -0.51700 44.75400 30.67500
H  1.19500 44.64200 31.22900
H  -1.07600 44.98900 32.69200
H  0.56100 44.88400 33.31300
H  -5.06900 42.40200 28.04000
H  -5.24200 41.12900 26.80000
H  -5.97800 42.71200 26.54600
H  -6.77200 43.07100 24.35200
H  -5.94400 41.52600 24.50500
H  -6.52600 41.99000 22.87300
H  -0.23300 45.31000 21.53500
H  2.27600 44.09500 21.59600
H  -0.42000 42.49600 21.15300
H  0.86800 43.17400 20.15000
H  -0.66500 43.85100 20.03800
H  1.55600 46.61300 21.29400
H  3.29300 46.17600 21.70000
H  2.58900 46.75300 24.13400
H  1.12300 47.45900 23.46600
H  2.80900 48.02100 23.09000
H  6.70700 43.60100 26.69600
H  5.85600 44.82300 25.64100
H  6.33000 43.26800 24.89600
H  3.68200 44.03600 30.51600
H  3.23500 41.97200 33.88900
H  4.92600 41.46100 33.49100
H  3.54100 40.45700 32.98700

