158

Mg 49.78800 45.81600 42.80600
C  46.35600 45.89100 42.45100
C  49.73800 42.29800 42.15700
C  53.14400 45.87200 42.16500
C  49.77000 49.38400 42.90400
N  48.20900 44.32000 42.27100
C  46.87500 44.60800 42.17000
C  46.06700 43.34400 41.84200
C  47.14400 42.26100 41.96400
C  48.49100 42.96600 42.09900
C  46.85500 41.14400 42.97800
C  45.34900 43.36000 40.51200
C  46.18900 43.81900 39.26400
H  45.99700 43.04400 37.98200
N  51.24300 44.28500 42.46200
C  51.02000 42.89200 42.30700
C  52.28000 42.25200 42.38800
C  53.30600 43.22100 42.21700
C  52.59300 44.54800 42.23200
C  52.30800 40.74200 42.36500
C  54.80000 42.88200 41.90200
O  55.14400 41.71600 41.86500
C  55.77500 43.98400 41.85000
N  51.20500 47.41900 42.41800
C  52.49400 47.15500 42.29000
C  53.40600 48.43000 42.27500
C  52.31400 49.52200 42.42100
C  51.00900 48.73400 42.59900
C  54.54300 48.38400 43.30700
C  52.17000 50.50600 41.20000
C  52.05000 52.02500 41.36200
N  48.34800 47.30900 42.79100
C  48.51900 48.71100 42.94900
C  47.14400 49.25200 43.13000
C  46.30800 48.17700 42.83000
C  47.06300 47.07500 42.70100
C  46.70900 50.61100 43.58200
C  44.92300 47.76800 42.53100
O  43.91200 48.45700 42.52600
C  44.97100 46.27300 42.17900
C  43.99800 45.56400 43.00100
O  42.98100 45.04500 42.57500
O  44.33000 45.51100 44.32600
C  43.32000 44.82000 45.20300
H  49.70700 41.21000 42.06000
H  54.22200 45.85400 41.99200
H  49.67100 50.47100 42.94400
H  45.32300 43.20200 42.62600
H  47.12200 41.78300 40.98500
H  47.66400 41.12700 43.70800
H  46.89800 40.19700 42.44000
H  45.97400 41.32800 43.59300
H  44.50100 44.04000 40.59600
H  44.93200 42.36800 40.33900
H  47.25200 43.86700 39.49900
H  45.90900 44.84700 39.03500
H  53.28700 40.31300 42.58200
H  52.06700 40.26300 41.41600
H  51.59900 40.27200 43.04600
H  55.59100 44.57900 42.74500
H  55.57800 44.51900 40.92100
H  56.76500 43.52900 41.88500
H  53.78200 48.35900 41.25500
H  52.43800 50.10300 43.33400
H  54.62700 49.26700 43.94200
H  55.50900 48.01800 42.96100
H  54.22300 47.55000 43.93100
H  51.27500 50.23700 40.63900
H  53.03200 50.32700 40.55700
H  52.91300 52.59400 41.01500
H  52.02600 52.30200 42.41600
H  51.10000 52.33500 40.92600
H  46.50600 51.17800 42.67300
H  47.46200 51.07700 44.21800
H  45.71600 50.56900 44.02900
H  44.83700 46.20800 41.09900
H  43.27700 45.12900 46.24800
H  43.76900 43.82700 45.16600
H  42.29200 44.80500 44.84200
Mg 29.60800 57.54500 41.01900
C  26.65400 55.71100 39.91500
C  31.45100 55.16800 39.58400
C  32.00400 59.65200 41.38300
C  27.20100 60.12100 41.97900
N  29.03400 55.76400 39.70900
C  27.78100 55.19800 39.41700
C  28.00400 53.87200 38.67100
C  29.52700 53.57700 38.89900
C  30.03400 54.90800 39.41600
C  29.83700 52.37100 39.91500
C  27.59600 53.68400 37.13100
C  27.13800 54.95600 36.38900
H  27.50300 55.08700 34.86200
N  31.49600 57.45200 40.52300
C  32.12100 56.33900 40.00700
C  33.48800 56.72800 39.76100
C  33.72500 58.04100 40.35800
C  32.38900 58.44200 40.86100
C  34.44000 55.84900 39.01400
C  35.03300 58.77100 40.43600
O  36.01500 58.17700 40.03200
C  35.22500 60.19800 40.99200
N  29.54700 59.54500 41.61900
C  30.73400 60.22300 41.73400
C  30.55400 61.72100 41.86000
C  29.15600 61.77600 42.33100
C  28.57500 60.40800 42.03700
C  31.69000 62.39900 42.75900
C  28.32500 63.03100 41.81800
C  28.37400 64.12000 42.89700
N  27.42100 57.83700 41.16700
C  26.60800 58.92200 41.61600
C  25.15300 58.62800 41.50000
C  25.21200 57.36400 40.86800
C  26.58500 56.94800 40.69500
C  23.97900 59.37300 41.81600
C  24.28400 56.32400 40.37400
O  23.07600 56.14600 40.51800
C  25.20300 55.23800 39.75500
C  24.78400 53.95100 40.43400
O  24.79500 53.73000 41.64800
O  24.38200 53.18000 39.41900
C  24.14300 51.75700 39.58300
H  32.12900 54.37900 39.25200
H  32.72600 60.45400 41.21700
H  26.54000 60.94400 42.26100
H  27.54500 53.05100 39.22200
H  30.11200 53.39400 37.99800
H  28.94600 51.75700 40.04900
H  30.26100 52.86700 40.78800
H  30.65700 51.80800 39.47000
H  26.63700 53.16700 37.16800
H  28.34000 53.12300 36.56600
H  27.66300 55.77400 36.88200
H  26.06200 54.99600 36.55700
H  35.13000 55.62100 39.82600
H  34.95300 56.42300 38.24200
H  34.15600 54.87300 38.62000
H  34.88000 60.82800 40.17200
H  36.28000 60.39900 41.18200
H  34.73800 60.37900 41.95000
H  30.54300 62.22800 40.89500
H  29.06400 61.62300 43.40700
H  32.07900 61.68600 43.48500
H  31.30100 63.24700 43.32200
H  32.43300 62.91000 42.14500
H  27.26000 62.85600 41.66700
H  28.70100 63.49700 40.90700
H  27.37400 64.07600 43.32900
H  28.78000 65.07000 42.55100
H  29.09000 63.91700 43.69400
H  23.95100 60.34100 41.31500
H  24.10300 59.55700 42.88300
H  23.05500 58.86100 41.54600
H  24.93700 55.13300 38.70300
H  24.42200 51.17000 38.70800
H  23.05400 51.72600 39.56800
H  24.58800 51.37800 40.50400

