158

Mg 48.78800 35.08500 26.47200
C  46.84500 33.51100 28.96900
C  48.91100 37.85200 28.60200
C  50.12100 36.72800 23.95500
C  48.24200 32.30800 24.33700
N  48.06800 35.52200 28.62200
C  47.33000 34.72100 29.38300
C  47.34600 35.24200 30.79800
C  47.68900 36.68700 30.63800
C  48.31000 36.75000 29.22200
C  46.45900 37.69700 30.88800
C  48.44700 34.41800 31.62300
C  48.13600 33.94900 33.07100
H  47.72900 34.97000 34.11700
N  49.36400 37.02800 26.30500
C  49.31700 38.05700 27.24900
C  49.91200 39.29300 26.66100
C  50.27700 38.95700 25.31200
C  49.93300 37.54500 25.12700
C  50.07400 40.58400 27.45400
C  50.91900 39.79300 24.26600
O  51.29600 39.38400 23.16700
C  51.35900 41.16900 24.68000
N  48.99500 34.63100 24.32800
C  49.78800 35.42000 23.63700
C  50.16300 34.82700 22.26600
C  49.68700 33.29400 22.45200
C  48.94400 33.41600 23.78700
C  49.48400 35.47600 21.11300
C  50.71500 32.15700 22.61000
C  50.40200 30.75700 22.05500
N  47.78800 33.27700 26.55700
C  47.65100 32.22800 25.65700
C  46.82700 31.14300 26.20400
C  46.45100 31.63300 27.48900
C  47.08000 32.93300 27.69900
C  46.34700 29.87000 25.56600
C  45.70000 31.33800 28.65300
O  44.94600 30.42500 28.94600
C  45.72700 32.61700 29.47600
C  45.79600 32.34100 30.95200
O  46.52500 31.54500 31.45500
O  44.82700 32.98500 31.54500
C  44.64500 32.81900 32.99200
H  48.97800 38.79000 29.15600
H  50.61800 37.12700 23.06800
H  48.09400 31.41900 23.72000
H  46.41400 35.10200 31.34500
H  48.58300 36.92900 31.21200
H  46.34300 38.42300 30.08300
H  46.66700 38.39000 31.70300
H  45.50800 37.19700 31.07200
H  49.44000 34.86700 31.62000
H  48.63300 33.46700 31.12500
H  49.01500 33.64800 33.64100
H  47.44000 33.11500 33.16800
H  49.28900 40.46900 28.20100
H  49.84900 41.39400 26.75900
H  51.13400 40.72800 27.66600
H  50.62300 41.97200 24.73200
H  52.06300 41.58800 23.96000
H  51.84600 41.07800 25.65100
H  51.22000 34.87800 22.00700
H  48.90900 32.97600 21.75800
H  48.64600 36.07800 21.46600
H  49.15100 34.74500 20.37600
H  50.24300 36.10900 20.65200
H  50.91100 31.98000 23.66700
H  51.71000 32.47500 22.29800
H  50.42100 30.09500 22.92000
H  51.12500 30.42200 21.31100
H  49.37900 30.66900 21.68900
H  45.27000 29.92000 25.40400
H  46.60100 29.00800 26.18400
H  46.84800 29.89500 24.59900
H  44.82600 33.18000 29.23200
H  43.75500 32.25000 33.26200
H  44.58200 33.82100 33.41500
H  45.48500 32.24200 33.37900
Mg 6.78100 55.10300 41.83400
C  4.05700 52.78200 41.67200
C  8.65400 52.64900 40.40000
C  9.08400 57.42000 41.24800
C  4.43100 57.54600 42.82000
N  6.31000 52.93300 40.88300
C  5.14900 52.30400 40.87900
C  5.25200 51.01600 40.01000
C  6.78000 50.85600 39.88500
C  7.33900 52.17200 40.44100
C  7.43500 49.54300 40.58500
C  4.58600 51.12400 38.64500
C  4.00000 49.72100 38.12800
H  4.60100 49.20500 36.78400
N  8.72800 55.02900 41.04900
C  9.34400 53.91500 40.59400
C  10.67100 54.27000 40.14700
C  10.81300 55.64900 40.45300
C  9.51600 56.10200 40.93200
C  11.59500 53.38400 39.45900
C  12.02200 56.43800 40.12700
O  13.11300 55.93800 39.77300
C  12.09600 57.91700 40.36800
N  6.69300 57.27300 41.79900
C  7.81500 57.92900 41.61800
C  7.69200 59.38700 42.15800
C  6.20900 59.55300 42.47500
C  5.75200 58.05300 42.42200
C  8.71000 59.78200 43.25600
C  5.47400 60.48000 41.51800
C  5.87600 61.92100 41.63300
N  4.70100 55.16600 42.21400
C  3.95300 56.24700 42.68200
C  2.69600 55.78100 43.17500
C  2.69200 54.44100 42.78800
C  3.93300 54.09600 42.18300
C  1.58200 56.54700 43.78700
C  1.91300 53.20100 42.89500
O  0.83000 52.99200 43.48300
C  2.68500 52.10300 42.04800
C  1.78700 51.65400 40.87700
O  1.30200 52.37500 40.02600
O  1.65600 50.25600 40.90300
C  0.69800 49.70100 39.96000
H  9.16400 51.85400 39.85300
H  9.73900 58.28900 41.16100
H  3.80300 58.25500 43.36200
H  4.86200 50.22500 40.64900
H  7.05200 50.79500 38.83100
H  6.67200 48.86100 40.95900
H  8.08000 49.97800 41.34900
H  8.13200 49.02000 39.92900
H  5.30700 51.59700 37.97800
H  3.84100 51.91900 38.61100
H  2.92800 49.68900 37.93600
H  4.17400 48.87200 38.79000
H  11.09600 52.64600 38.83100
H  12.08900 52.86800 40.28200
H  12.27300 53.87500 38.76200
H  13.02200 58.37400 40.01900
H  11.89500 58.05100 41.43100
H  11.35900 58.57900 39.91400
H  7.90400 60.13900 41.39800
H  6.00300 59.87600 43.49600
H  8.25300 60.28100 44.11000
H  9.48800 60.41700 42.83400
H  9.23000 58.93400 43.70100
H  4.39400 60.45300 41.66600
H  5.49500 60.20300 40.46400
H  6.63900 62.01000 42.40700
H  5.04200 62.54400 41.95500
H  6.14100 62.22400 40.62000
H  1.90100 57.17700 44.61800
H  0.93800 55.82000 44.28200
H  0.90400 57.09200 43.13100
H  2.95600 51.31600 42.75200
H  -0.30300 49.88000 40.35100
H  0.80000 48.61700 39.90200
H  0.81600 50.18400 38.99000

