158

Mg 44.24500 4.43000 46.87500
C  42.51200 7.55800 46.63200
C  41.38400 2.83100 45.89100
C  46.15800 1.77900 46.14700
C  47.30800 6.31500 47.07400
N  42.19100 5.13400 46.17300
C  41.71600 6.43700 46.24000
C  40.19400 6.45200 45.89000
C  39.79400 4.94800 45.74700
C  41.17900 4.22900 46.00000
C  38.59400 4.43600 46.64900
C  39.71700 7.51700 44.78800
C  40.68800 7.60700 43.53800
H  39.98800 7.85900 42.19700
N  43.85200 2.52400 46.26200
C  42.56900 2.09600 45.87800
C  42.70700 0.70200 45.60200
C  44.05100 0.43800 45.42500
C  44.81000 1.62500 45.94800
C  41.59100 -0.21500 45.41300
C  44.57600 -0.82400 44.86300
O  43.80000 -1.76200 44.56600
C  46.04100 -1.18700 44.77600
N  46.37700 4.10500 46.74600
C  46.88900 2.86300 46.66200
C  48.45300 2.83900 46.76100
C  48.77600 4.35300 46.87500
C  47.39500 5.01500 46.89100
C  49.03500 2.00400 47.92900
C  49.70200 4.91900 45.75800
C  50.95900 5.52600 46.29100
N  44.81300 6.48100 46.87900
C  46.11300 7.09700 47.01000
C  45.95200 8.55800 47.06300
C  44.52700 8.75400 47.02900
C  43.92400 7.50300 46.89000
C  47.06500 9.50800 47.05200
C  43.53500 9.79300 46.96400
O  43.70900 11.01100 47.09700
C  42.13300 9.09500 46.86300
C  41.35900 9.19500 48.12700
O  41.54200 8.57200 49.14300
O  40.47200 10.16000 47.94900
C  39.57900 10.36300 49.07100
H  40.47800 2.38800 45.47400
H  46.84100 0.97300 45.86800
H  48.24100 6.87100 47.19600
H  39.81800 6.75700 46.86600
H  39.57100 4.73400 44.70200
H  39.01400 3.70800 47.34300
H  37.85200 4.04500 45.95300
H  38.14200 5.24500 47.22200
H  39.36400 8.43900 45.24900
H  38.75700 7.18300 44.39700
H  41.21700 6.65400 43.54500
H  41.38300 8.42200 43.74300
H  41.50100 -0.54300 44.37800
H  40.67800 0.32600 45.66300
H  41.59800 -1.09000 46.06300
H  46.24300 -2.21200 44.46700
H  46.30600 -1.05800 45.82500
H  46.42500 -0.45500 44.06500
H  48.89800 2.46400 45.84000
H  49.21800 4.36200 47.87100
H  49.93000 1.49800 47.56800
H  48.18200 1.41500 48.26700
H  49.29600 2.62000 48.79000
H  49.14600 5.71700 45.26600
H  49.90200 4.07500 45.09900
H  50.78500 5.99800 47.25900
H  51.19100 6.27200 45.53200
H  51.77600 4.80600 46.34400
H  46.71900 10.44100 46.60900
H  48.05700 9.28500 46.66000
H  47.25200 9.78300 48.09000
H  41.47300 9.50700 46.10000
H  40.14300 10.65700 49.95600
H  38.86400 9.54200 49.13500
H  39.01000 11.24500 48.77500
Mg 9.79900 47.36900 26.29200
C  7.60700 47.71900 28.92100
C  12.33300 48.35300 28.43000
C  11.86400 47.43500 23.68400
C  7.07000 47.27800 24.03900
N  9.85600 48.16500 28.32600
C  8.87200 48.06700 29.24900
C  9.41800 48.23400 30.70300
C  10.81200 48.87400 30.43600
C  11.04700 48.43700 28.97800
C  10.77200 50.42600 30.57400
C  9.47400 46.93400 31.53600
C  10.47800 46.96200 32.75800
H  10.08400 46.08100 34.00800
N  11.89000 47.64500 26.10000
C  12.75600 47.98500 27.10500
C  14.08300 48.11300 26.58200
C  13.95900 47.71200 25.18700
C  12.53400 47.60700 24.94300
C  15.34400 48.56000 27.35800
C  15.06300 47.47500 24.23200
O  14.87500 47.01300 23.13800
C  16.49300 47.50900 24.69100
N  9.47800 47.40000 24.19200
C  10.51600 47.39700 23.31800
C  10.14500 47.38000 21.87000
C  8.60200 47.12600 21.97500
C  8.35200 47.22000 23.46600
C  10.47000 48.61200 21.06100
C  8.13800 45.79200 21.27300
C  7.48500 45.92600 19.86100
N  7.72300 47.49700 26.35100
C  6.66800 47.51000 25.40300
C  5.41500 47.39800 26.09300
C  5.72200 47.34900 27.47900
C  7.16200 47.51500 27.58400
C  4.18200 47.43300 25.35600
C  5.18700 47.27000 28.76600
O  4.03400 47.24300 29.19800
C  6.37700 47.39400 29.78500
C  6.61700 46.04900 30.42200
O  7.11200 45.10000 29.81300
O  6.18300 46.01100 31.80600
C  6.49700 44.71400 32.51300
H  13.17100 48.54100 29.10400
H  12.57700 47.44200 22.85800
H  6.17300 47.07200 23.45100
H  8.85000 48.96800 31.27500
H  11.60000 48.42200 31.03800
H  10.10200 50.72000 31.38200
H  10.46500 51.00100 29.70000
H  11.76600 50.72600 30.90400
H  9.63400 46.05500 30.91200
H  8.49200 46.67200 31.93100
H  10.47400 47.99600 33.10400
H  11.42200 46.65200 32.31000
H  15.13800 48.82600 28.39500
H  15.75900 49.44000 26.86600
H  16.12100 47.80300 27.25300
H  16.65700 48.51000 25.09000
H  17.01200 47.30000 23.75500
H  16.73000 46.67500 25.35100
H  10.57900 46.46400 21.46900
H  7.97500 47.93400 21.59900
H  9.58000 49.22000 20.89900
H  11.04300 48.46000 20.14600
H  11.05800 49.25200 21.71900
H  7.35300 45.42200 21.93300
H  8.94600 45.06400 21.34800
H  7.44800 46.97600 19.57000
H  6.50700 45.45300 19.76900
H  8.13300 45.49400 19.09900
H  3.75100 46.43300 25.31000
H  4.31900 47.66200 24.29900
H  3.46000 48.01800 25.92600
H  6.14000 48.24700 30.42100
H  6.45300 44.75900 33.60100
H  7.50500 44.31800 32.39100
H  5.72900 43.98800 32.24600

