158

Mg -2.36700 17.43500 26.54800
C  -3.18300 15.15400 29.17600
C  -2.45500 19.95700 28.79500
C  -2.20200 19.47800 23.92800
C  -2.92900 14.64100 24.22200
N  -2.77500 17.52700 28.76300
C  -3.03000 16.50500 29.62100
C  -3.00000 17.09200 31.03600
C  -2.82200 18.64800 30.83500
C  -2.75100 18.72100 29.40400
C  -3.98900 19.57300 31.40300
C  -1.96300 16.45400 31.99800
C  -1.57700 17.19100 33.23300
H  -1.11200 16.34100 34.43900
N  -2.23700 19.47400 26.38100
C  -2.28000 20.34300 27.42500
C  -2.06700 21.65500 26.85300
C  -1.99100 21.56700 25.39900
C  -2.17300 20.14000 25.20100
C  -1.97100 22.97200 27.75600
C  -1.77500 22.62200 24.42100
O  -1.71000 22.40800 23.22700
C  -1.72700 24.08200 24.79200
N  -2.73200 17.07100 24.36200
C  -2.48000 18.15700 23.55500
C  -2.53600 17.77300 22.05500
C  -2.67200 16.20800 22.13500
C  -2.76800 15.92400 23.69000
C  -3.70800 18.53200 21.32400
C  -1.50000 15.47500 21.54400
C  -0.16000 15.70000 22.30100
N  -2.97000 15.31900 26.61200
C  -3.04400 14.32000 25.59800
C  -3.33800 13.09400 26.25900
C  -3.41500 13.31500 27.66500
C  -3.20900 14.71300 27.82400
C  -3.46300 11.76700 25.55300
C  -3.56200 12.72800 28.97600
O  -3.78300 11.61300 29.36200
C  -3.54000 13.90700 30.01100
C  -2.34200 13.53400 30.85800
O  -1.17200 13.58100 30.50100
O  -2.72400 12.87400 32.01100
C  -1.70900 12.37800 32.90300
H  -2.35200 20.76000 29.52800
H  -2.00200 20.05600 23.02400
H  -2.98800 13.79900 23.53000
H  -4.00600 17.00900 31.44700
H  -1.96400 19.12000 31.31300
H  -4.51000 19.86000 30.48900
H  -3.55500 20.42300 31.92800
H  -4.69600 19.06900 32.06200
H  -1.00200 16.41600 31.48400
H  -2.35800 15.49200 32.32500
H  -2.33300 17.93500 33.48600
H  -0.71900 17.78900 32.92500
H  -1.04000 23.52900 27.64700
H  -1.93600 22.67100 28.80300
H  -2.80200 23.62800 27.49400
H  -2.60500 24.21700 25.42400
H  -1.79600 24.67300 23.87900
H  -0.80000 24.25500 25.33900
H  -1.55500 18.03300 21.65800
H  -3.53300 15.85900 21.56500
H  -4.51200 17.79600 21.32700
H  -3.51600 18.76000 20.27600
H  -4.03400 19.36400 21.94900
H  -1.36800 15.84000 20.52500
H  -1.75000 14.43400 21.34000
H  -0.06300 16.60900 22.89600
H  0.44800 15.93600 21.42800
H  0.26000 14.90200 22.91300
H  -4.12400 11.87300 24.69300
H  -3.79600 10.99200 26.24400
H  -2.62100 11.26700 25.07400
H  -4.44300 13.94200 30.62100
H  -2.11100 11.90000 33.79600
H  -1.20800 13.29900 33.20200
H  -0.97100 11.70600 32.46500
Mg 7.94200 2.40900 27.38700
C  9.58000 1.16100 30.04700
C  6.14800 4.50200 29.46300
C  6.15700 3.46900 24.72000
C  9.38700 -0.11200 25.29100
N  7.75600 2.64500 29.53600
C  8.65300 2.15400 30.41300
C  8.36500 2.63600 31.80600
C  7.15800 3.60800 31.56600
C  7.02500 3.62100 30.04200
C  5.81400 3.13100 32.25000
C  9.60800 3.29000 32.53400
C  9.30500 4.22500 33.68100
H  10.29000 4.20600 34.93700
N  6.46200 3.90800 27.08600
C  5.87600 4.67000 28.06200
C  4.87900 5.63100 27.50900
C  4.84600 5.30600 26.07100
C  5.91400 4.23500 25.92500
C  4.17900 6.66700 28.37500
C  4.04400 5.95700 24.97200
O  4.33200 5.86200 23.80800
C  2.91900 6.79600 25.33700
N  7.92500 1.87900 25.28100
C  7.00800 2.42600 24.43400
C  7.16800 1.80000 23.05600
C  8.24600 0.70600 23.21000
C  8.54000 0.77100 24.71800
C  5.84900 1.41700 22.29500
C  9.59700 0.95000 22.44800
C  10.15500 -0.29000 21.67700
N  9.18000 0.75300 27.60200
C  9.77300 -0.13000 26.72400
C  10.76200 -0.90200 27.38500
C  10.71000 -0.39200 28.70300
C  9.77300 0.58700 28.76200
C  11.63900 -1.92500 26.78400
C  11.32200 -0.47000 30.00600
O  12.26300 -1.18500 30.28600
C  10.53200 0.47500 30.96500
C  9.74800 -0.35100 31.90500
O  8.90200 -1.13700 31.61400
O  10.21600 -0.24300 33.19200
C  9.62000 -0.94700 34.31100
H  5.71400 5.22400 30.15800
H  5.55000 3.80000 23.87500
H  9.77100 -0.89100 24.62900
H  7.96800 1.79500 32.37300
H  7.40000 4.63500 31.83800
H  5.22200 2.50600 31.58200
H  5.21400 3.98000 32.57900
H  5.95000 2.51300 33.13700
H  10.12300 3.88000 31.77700
H  10.23500 2.52000 32.98500
H  8.33100 3.96000 34.09200
H  9.20500 5.23800 33.29100
H  3.13400 6.36400 28.42700
H  4.10900 7.60700 27.82700
H  4.55500 6.79700 29.39000
H  2.19700 6.85600 24.52300
H  3.34900 7.76700 25.58100
H  2.42700 6.35000 26.20200
H  7.58400 2.61800 22.46900
H  7.84500 -0.27100 22.94200
H  5.91300 0.33800 22.15200
H  5.82000 1.87600 21.30700
H  4.91700 1.72200 22.77000
H  10.43100 1.31600 23.04700
H  9.38100 1.71700 21.70400
H  9.81000 -0.18200 20.64900
H  9.87400 -1.29300 21.99900
H  11.21900 -0.10500 21.82300
H  11.51800 -2.76500 27.46800
H  12.67600 -1.61000 26.89700
H  11.29300 -2.26100 25.80700
H  11.19100 1.18600 31.46300
H  8.65400 -1.42700 34.15500
H  9.36400 -0.38200 35.20700
H  10.31600 -1.69300 34.69800

