158

Mg 26.05600 -0.25400 29.56600
C  28.19500 -0.52700 32.37400
C  23.53100 0.32300 31.70400
C  24.15100 -0.11200 26.89300
C  28.72000 -1.52100 27.62300
N  25.90900 -0.16600 31.77500
C  26.91200 -0.11600 32.68800
C  26.43900 0.33800 34.08100
C  24.90200 0.41200 33.91500
C  24.76200 0.21900 32.37000
C  24.05800 -0.65200 34.71800
C  27.14300 1.67800 34.45300
C  28.07300 1.56300 35.71600
H  27.88900 2.57900 36.87400
N  24.08900 0.11100 29.33300
C  23.16100 0.32900 30.31400
C  21.88500 0.57300 29.74700
C  21.97600 0.40000 28.36300
C  23.43600 0.10000 28.09200
C  20.69800 1.02800 30.62100
C  20.89300 0.44100 27.25600
O  21.17800 0.12500 26.08900
C  19.59900 1.09400 27.54000
N  26.41300 -0.66000 27.51500
C  25.46800 -0.45800 26.63100
C  26.00500 -0.69500 25.12300
C  27.44200 -1.12100 25.41400
C  27.59500 -1.11600 26.90500
C  25.13400 -1.69400 24.19600
C  28.52400 -0.26000 24.66200
C  28.56500 1.26800 24.86900
N  28.04100 -0.84500 29.89000
C  28.98100 -1.33500 29.01200
C  30.28600 -1.49500 29.69700
C  30.00400 -1.12700 31.03300
C  28.63900 -0.82900 31.07300
C  31.52300 -1.94700 29.10700
C  30.58200 -0.96400 32.35600
O  31.65400 -1.25400 32.82100
C  29.47000 -0.57600 33.24900
C  29.41200 -1.58100 34.31900
O  28.88000 -2.67300 34.25700
O  30.09800 -1.17100 35.43200
C  30.23600 -2.01800 36.64500
H  22.74200 0.58100 32.41400
H  23.47800 -0.00600 26.04000
H  29.63800 -1.71700 27.06600
H  26.76800 -0.40400 34.80800
H  24.55100 1.34800 34.35000
H  24.64700 -1.05700 35.54100
H  23.70900 -1.48800 34.11200
H  23.13000 -0.22300 35.09600
H  26.42700 2.48200 34.62500
H  27.75900 2.03200 33.62700
H  29.10200 1.70900 35.39000
H  28.07400 0.50900 35.99100
H  20.45200 2.07000 30.42000
H  20.88300 1.07700 31.69400
H  19.86700 0.35800 30.39500
H  19.55200 2.10200 27.95200
H  19.01300 0.45000 28.19600
H  19.05000 1.17500 26.60200
H  25.98900 0.25200 24.58200
H  27.60900 -2.15100 25.09800
H  24.21100 -1.84900 24.75500
H  25.58000 -2.67300 24.02500
H  24.80200 -1.22500 23.26900
H  28.22300 -0.26000 23.61400
H  29.48700 -0.72200 24.88000
H  27.87000 1.63400 25.62500
H  28.15000 1.75400 23.98600
H  29.61200 1.56100 24.94400
H  32.33200 -1.64400 29.77100
H  31.55400 -1.60200 28.07300
H  31.56500 -3.03600 29.14900
H  29.85100 0.40700 33.52500
H  29.64900 -1.53800 37.42700
H  31.25400 -2.08700 37.02900
H  29.95000 -3.05000 36.44400
Mg 48.34100 14.67800 28.03400
C  46.52000 14.96700 31.08300
C  50.63900 16.75200 29.43200
C  50.17500 14.38000 25.19000
C  45.77400 12.82000 26.76900
N  48.57700 15.72600 29.97000
C  47.74700 15.68900 31.08000
C  48.26900 16.39600 32.31700
C  49.35100 17.24000 31.63400
C  49.58400 16.53900 30.31700
C  48.89600 18.74800 31.37000
C  48.68200 15.40600 33.45600
C  47.94100 15.58800 34.78000
H  48.68400 15.39100 36.09400
N  50.19600 15.33500 27.49100
C  51.01500 16.18000 28.16900
C  52.31100 16.35500 27.45800
C  52.12100 15.78500 26.18300
C  50.75100 15.13400 26.23000
C  53.46900 17.11500 28.05800
C  53.07100 15.65100 24.93800
O  52.90000 14.93200 23.98100
C  54.30500 16.50800 24.96300
N  47.91900 13.83100 26.20800
C  48.86600 13.78400 25.16100
C  48.30600 13.01800 23.93500
C  47.00000 12.41400 24.53700
C  46.85700 13.04400 25.90000
C  48.13900 13.92800 22.63900
C  47.01300 10.84500 24.48600
C  48.18300 10.14600 25.17700
N  46.52800 14.06600 28.69300
C  45.58200 13.26400 28.04500
C  44.39800 13.10600 28.91700
C  44.72700 13.67800 30.09100
C  46.01600 14.23700 29.95300
C  43.31600 12.19500 28.60000
C  44.27200 13.94200 31.51100
O  43.26500 13.53100 32.13900
C  45.50600 14.68600 32.23900
C  44.80600 15.84900 32.79600
O  44.64200 16.90400 32.23900
O  44.53000 15.62300 34.09900
C  44.05700 16.84700 34.76400
H  51.34300 17.45100 29.88700
H  50.53400 14.38900 24.15800
H  44.99800 12.19600 26.32000
H  47.48600 17.02600 32.73900
H  50.29400 17.16300 32.17700
H  48.53300 18.75300 30.34200
H  49.74800 19.41100 31.51200
H  48.11400 19.06700 32.05900
H  49.76600 15.49700 33.53000
H  48.47100 14.34800 33.29800
H  47.19200 14.81800 34.96700
H  47.37000 16.51600 34.77900
H  53.36000 18.19800 28.11800
H  54.43900 16.89800 27.61100
H  53.45200 16.82800 29.10900
H  54.88600 16.54400 24.04100
H  54.99500 16.04400 25.66700
H  54.01800 17.53800 25.17600
H  48.98300 12.18100 23.76300
H  46.10400 12.61800 23.95100
H  48.51700 13.41800 21.75300
H  48.72000 14.84600 22.72500
H  47.10800 14.22800 22.45100
H  46.91900 10.54200 23.44300
H  46.09800 10.54300 24.99500
H  47.93900 9.47800 26.00300
H  48.88800 10.75700 25.74100
H  48.87600 9.72500 24.44900
H  42.73400 11.85500 29.45600
H  43.58000 11.28800 28.05600
H  42.66700 12.83200 27.99900
H  45.86900 14.02400 33.02500
H  43.29400 17.35200 34.17200
H  44.82500 17.61900 34.70500
H  43.77900 16.79600 35.81700

