158

Mg 1.94000 -1.04400 43.68400
C  5.44800 -0.54200 43.47200
C  1.48100 1.87800 42.06300
C  -1.04600 -2.17300 43.05100
C  2.84500 -4.45800 44.89300
N  3.29000 0.48000 42.84100
C  4.66100 0.49000 42.91900
C  5.13000 1.76300 42.23000
C  3.91800 2.61900 41.95600
C  2.77200 1.64800 42.27800
C  3.94900 3.91500 42.80300
C  5.86600 1.30700 40.84800
C  7.23100 1.94800 40.61200
H  7.23700 3.07300 39.62400
N  0.38700 -0.23100 42.79100
C  0.31900 1.00300 42.20800
C  -0.93200 1.20200 41.72500
C  -1.73400 0.09300 42.20600
C  -0.82200 -0.89600 42.63400
C  -1.36700 2.43000 40.97200
C  -3.29900 0.06300 42.06400
O  -3.90800 1.07000 41.62900
C  -4.07100 -1.13100 42.54200
N  1.06300 -3.04300 44.07300
C  -0.25900 -3.14900 43.70400
C  -0.83500 -4.60200 44.10000
C  0.43700 -5.41100 44.57100
C  1.52800 -4.22900 44.49100
C  -1.96000 -4.54900 45.15800
C  0.77700 -6.68400 43.74300
C  1.33400 -7.91500 44.50500
N  3.71500 -2.23700 44.24500
C  3.91200 -3.50500 44.77200
C  5.34700 -3.66600 45.06800
C  5.93600 -2.51700 44.66500
C  4.90900 -1.70000 44.08400
C  5.99400 -4.87400 45.71600
C  7.22100 -1.75900 44.64300
O  8.28000 -1.90300 45.20100
C  6.94000 -0.44400 43.79200
C  7.32300 0.71500 44.55100
O  6.90600 1.16000 45.60700
O  8.24000 1.40000 43.76100
C  8.52100 2.72400 44.17800
H  1.29800 2.83100 41.56200
H  -2.04400 -2.57000 42.85700
H  3.00700 -5.48800 45.21400
H  5.81700 2.39900 42.78800
H  3.85800 2.79500 40.88200
H  4.79400 4.04700 43.47900
H  2.99800 3.94200 43.33500
H  3.98000 4.81900 42.19400
H  5.20800 1.47400 39.99600
H  5.97900 0.22300 40.86400
H  7.98800 1.20600 40.35900
H  7.65000 2.39700 41.51300
H  -0.49500 2.91100 40.53000
H  -1.80900 3.07300 41.73300
H  -2.07600 2.18400 40.18100
H  -5.12900 -0.93000 42.37400
H  -3.94800 -1.20100 43.62300
H  -3.78800 -1.96900 41.90600
H  -1.25100 -5.02000 43.18300
H  0.41200 -5.75700 45.60400
H  -1.47400 -4.91600 46.06200
H  -2.86400 -5.15200 45.06800
H  -2.33100 -3.52600 45.20400
H  1.46600 -6.28300 43.00000
H  -0.17900 -7.00700 43.33000
H  2.37900 -8.10300 44.25800
H  0.79200 -8.80600 44.19000
H  1.25800 -7.73800 45.57800
H  5.22200 -5.49300 46.17400
H  6.77300 -4.60300 46.42900
H  6.56400 -5.39000 44.94400
H  7.49000 -0.50700 42.85300
H  7.96100 3.41300 43.54700
H  9.57700 2.92500 44.00000
H  8.31100 2.94600 45.22400
Mg 25.96100 2.12500 29.85600
C  27.91800 1.92500 32.77500
C  23.17200 2.57600 31.83100
C  24.24600 2.03900 27.16100
C  28.88400 1.19400 28.04400
N  25.60800 2.26600 32.14900
C  26.58300 2.23200 33.11900
C  25.98300 2.50800 34.56200
C  24.47100 2.61700 34.22200
C  24.36600 2.42500 32.65300
C  23.56800 1.78700 35.11800
C  26.62300 3.75200 35.26100
C  27.20500 3.51800 36.78300
H  26.77700 4.49500 37.93000
N  24.00300 2.40300 29.51600
C  23.01100 2.52000 30.39700
C  21.78400 2.80300 29.69600
C  22.04000 2.61800 28.31300
C  23.45600 2.32400 28.25800
C  20.46500 3.18600 30.38000
C  21.07700 2.68300 27.19700
O  21.38800 2.69600 25.95900
C  19.62700 2.68800 27.54400
N  26.52800 1.80300 27.87500
C  25.58600 1.88600 26.92300
C  26.18200 1.52500 25.53500
C  27.77700 1.50000 25.89900
C  27.74200 1.45400 27.34500
C  25.65000 0.11000 25.17400
C  28.52500 2.72500 25.20000
C  29.78400 2.30800 24.33300
N  27.92200 1.58800 30.27200
C  29.01000 1.31600 29.48700
C  30.14400 0.96300 30.27700
C  29.77100 1.23700 31.54200
C  28.45000 1.59700 31.51600
C  31.51100 0.40200 29.80000
C  30.29900 1.23500 32.90700
O  31.41400 0.93100 33.33600
C  29.02200 1.61200 33.80300
C  28.66100 0.44800 34.71700
O  28.02900 -0.53800 34.41500
O  29.00300 0.78300 36.02000
C  28.33500 -0.04200 36.99900
H  22.25700 2.85500 32.35700
H  23.71100 1.92500 26.21600
H  29.83700 1.06700 27.52500
H  26.26000 1.65200 35.17700
H  24.21900 3.64000 34.50000
H  22.97800 2.39500 35.80400
H  24.14000 1.09800 35.74000
H  22.90100 1.25100 34.44300
H  25.91600 4.57600 35.17100
H  27.52000 3.90900 34.66200
H  28.29100 3.56300 36.86400
H  26.92600 2.49400 37.03400
H  20.22100 4.18700 30.02200
H  20.60400 3.17400 31.46100
H  19.67400 2.44800 30.24900
H  19.27900 1.98200 28.29800
H  19.03100 2.60000 26.63500
H  19.32900 3.62600 28.01300
H  25.84600 2.26600 24.81000
H  28.19500 0.60000 25.44900
H  24.73300 -0.12100 25.71500
H  26.26200 -0.75400 25.43200
H  25.38200 0.06800 24.11800
H  28.90700 3.40700 25.96000
H  27.85700 3.30600 24.56300
H  30.65900 2.67300 24.87000
H  29.77000 2.85200 23.38900
H  29.94400 1.23500 24.22500
H  31.62900 -0.53900 30.33800
H  32.27100 1.15500 30.00800
H  31.42500 0.01700 28.78400
H  29.29600 2.48400 34.39600
H  28.64200 -1.08400 37.08800
H  27.26900 0.07200 36.80300
H  28.34500 0.47900 37.95600

