158

Mg 25.11600 1.43000 29.35100
C  27.40600 1.34300 32.00100
C  22.63900 1.38800 31.57200
C  22.85800 1.68100 26.82100
C  27.71500 0.95600 27.14100
N  25.15400 1.52500 31.54400
C  26.07600 1.50000 32.43400
C  25.60100 1.54900 33.93100
C  24.12200 1.39900 33.70000
C  23.88700 1.46700 32.15600
C  23.40900 0.27000 34.49500
C  26.18100 2.67600 34.77100
C  25.21500 3.21500 35.86000
H  25.98900 3.68100 37.05000
N  23.00900 1.48300 29.23600
C  22.17000 1.44500 30.26100
C  20.77900 1.42200 29.76600
C  20.81700 1.58100 28.38900
C  22.22000 1.70500 28.06300
C  19.56500 1.35900 30.67000
C  19.68500 1.62900 27.39900
O  19.97100 1.78400 26.24700
C  18.15600 1.44600 27.71200
N  25.28100 1.28000 27.35600
C  24.23800 1.57500 26.51600
C  24.70600 1.67100 25.01900
C  26.24000 1.57800 25.19200
C  26.44600 1.25000 26.63700
C  24.02600 0.62100 23.99500
C  27.12200 2.64900 24.56400
C  27.34800 3.99400 25.40100
N  27.15500 1.15900 29.48100
C  28.10700 1.03400 28.49400
C  29.38200 0.85800 29.06900
C  29.19300 1.05700 30.42200
C  27.78000 1.19100 30.65400
C  30.56500 0.45200 28.28000
C  29.78000 1.14500 31.72200
O  30.95300 0.87300 31.97700
C  28.66800 1.29900 32.79000
C  28.76700 0.16700 33.84300
O  28.16000 -0.87200 33.69400
O  29.47800 0.59100 34.92900
C  29.52300 -0.35800 36.07400
H  21.82400 1.30500 32.29400
H  22.26900 1.60600 25.90400
H  28.41000 0.97300 26.29800
H  25.97600 0.62400 34.37000
H  23.53200 2.24200 34.06000
H  22.81200 0.72700 35.28400
H  24.18800 -0.36400 34.91800
H  22.75700 -0.31500 33.84700
H  26.41300 3.46000 34.05100
H  27.17500 2.49700 35.17900
H  24.46800 2.49000 36.18200
H  24.61700 4.07300 35.55300
H  19.20000 2.35500 30.92000
H  19.96000 0.88100 31.56700
H  18.77900 0.72700 30.25800
H  17.99100 0.48800 28.20500
H  17.56300 1.57500 26.80700
H  17.96400 2.24900 28.42400
H  24.62900 2.69500 24.65200
H  26.54800 0.61700 24.77900
H  24.87800 0.09600 23.56400
H  23.42400 1.22500 23.31700
H  23.39600 -0.08900 24.53100
H  26.58300 2.94900 23.66500
H  28.14500 2.32800 24.37000
H  26.87700 3.85800 26.37500
H  26.81900 4.76600 24.84100
H  28.38000 4.27000 25.61700
H  31.17700 1.35300 28.26900
H  30.39400 0.04500 27.28300
H  31.13200 -0.35600 28.74400
H  28.71900 2.27000 33.28100
H  29.64200 -1.37100 35.68900
H  28.63600 -0.23600 36.69500
H  30.36600 -0.18500 36.74300
Mg 43.95000 5.08700 46.82500
C  42.10900 7.99100 46.90900
C  41.20000 3.20100 46.65600
C  45.95200 2.35800 46.32000
C  46.91900 7.08300 46.99900
N  41.88500 5.59300 46.75800
C  41.34400 6.83500 46.79400
C  39.78600 6.74200 46.76800
C  39.48200 5.19800 46.75100
C  40.87000 4.59600 46.73400
C  38.49400 4.69700 47.86000
C  39.04000 7.62800 45.69300
C  39.74300 7.40300 44.25000
H  38.96200 6.74400 43.12800
N  43.61900 3.04500 46.49600
C  42.42100 2.41900 46.47700
C  42.56600 1.00900 46.21700
C  43.92200 0.74600 46.00600
C  44.56300 2.11500 46.21600
C  41.37600 0.01200 46.02600
C  44.54000 -0.50800 45.45400
O  43.84600 -1.42700 45.22200
C  45.91700 -0.72100 45.15900
N  46.12900 4.77200 46.76000
C  46.61100 3.56300 46.49700
C  48.17600 3.61100 46.43000
C  48.48000 5.00300 47.01800
C  47.10500 5.68000 46.93700
C  48.92000 2.48900 47.03000
C  49.64700 5.77300 46.23300
C  50.93400 6.10400 46.98900
N  44.43900 7.09800 46.74000
C  45.67400 7.76100 46.92100
C  45.51500 9.16700 47.11700
C  44.12600 9.32400 47.15300
C  43.50300 8.07600 46.83700
C  46.64000 10.20500 47.33600
C  43.01300 10.26300 47.35300
O  42.98000 11.47000 47.59800
C  41.72500 9.42800 47.10100
C  40.83700 9.56400 48.23100
O  40.89700 8.98500 49.31300
O  39.95000 10.55800 47.96200
C  38.99100 10.99700 48.96200
H  40.26600 2.63600 46.63200
H  46.36800 1.36800 46.11900
H  47.83600 7.64500 47.18500
H  39.48700 7.14000 47.73700
H  39.22000 4.80100 45.77000
H  37.51200 4.53500 47.41600
H  38.40400 5.48700 48.60600
H  38.84600 3.87400 48.48200
H  39.02500 8.65100 46.07100
H  38.05100 7.17300 45.73200
H  40.78400 7.08600 44.31100
H  39.86400 8.40200 43.83100
H  41.53800 -0.57600 45.12200
H  40.40000 0.49600 46.00700
H  41.44200 -0.79200 46.75900
H  46.06200 -1.72700 44.76600
H  46.44900 -0.58100 46.10000
H  46.26200 -0.00800 44.40900
H  48.39600 3.42600 45.37900
H  48.70400 4.99900 48.08400
H  48.28400 1.99300 47.76200
H  49.75800 2.91800 47.57900
H  49.20300 1.82700 46.21200
H  49.28000 6.66500 45.72500
H  49.78200 5.05800 45.42000
H  51.00000 7.19200 46.95600
H  51.71700 5.56800 46.45300
H  50.91800 5.75800 48.02200
H  46.37300 11.26100 47.28800
H  47.40500 10.08800 46.56900
H  47.09400 10.07900 48.31900
H  41.27400 10.01300 46.29900
H  38.05100 10.73100 48.47900
H  38.97800 12.07200 49.14600
H  39.07100 10.54000 49.94800

