158

Mg 27.91200 56.66200 39.46400
C  25.38300 54.23000 39.04600
C  30.15100 54.25000 38.60300
C  30.27600 58.96700 39.08900
C  25.48600 59.15100 39.81300
N  27.67500 54.50800 38.56300
C  26.63400 53.67900 38.63900
C  27.04100 52.27900 38.13900
C  28.56800 52.30200 38.22400
C  28.82300 53.79000 38.50100
C  29.19900 51.42300 39.40900
C  26.51300 52.02800 36.64000
C  26.65400 53.23300 35.66400
H  27.03900 53.06500 34.20200
N  29.98900 56.62200 39.00300
C  30.70900 55.49400 38.82300
C  32.08800 55.88400 38.82600
C  32.14500 57.29000 38.91900
C  30.78700 57.69300 38.99900
C  33.33700 54.90200 38.79300
C  33.43800 58.11900 39.00300
O  34.56000 57.62300 38.95800
C  33.51300 59.62000 39.21000
N  27.78900 58.78700 39.26100
C  28.97100 59.46500 39.26200
C  28.76700 61.00000 39.28900
C  27.19300 61.03200 39.66400
C  26.78000 59.58100 39.47400
C  29.63400 61.64500 40.40300
C  26.36700 62.14900 38.93300
C  26.00200 63.42800 39.82200
N  25.87000 56.72800 39.47900
C  24.96600 57.75600 39.66800
C  23.67600 57.24200 39.85300
C  23.83900 55.87500 39.67900
C  25.18700 55.56300 39.40500
C  22.38900 57.98900 40.16600
C  23.05300 54.62300 39.70600
O  21.84300 54.38000 39.79300
C  24.03000 53.52000 39.09300
C  23.83300 52.21200 39.85900
O  23.19400 51.24400 39.45800
O  24.46700 52.39500 40.99900
C  24.76300 51.14900 41.79800
H  30.87900 53.44200 38.51800
H  30.97400 59.78500 38.89800
H  24.84200 60.00400 40.03700
H  26.70800 51.43300 38.74000
H  28.90300 52.07800 37.21200
H  30.21200 51.12800 39.13600
H  28.50500 50.58600 39.49200
H  29.23400 52.02400 40.31700
H  25.46300 51.74900 36.72700
H  26.96500 51.08700 36.32300
H  27.35400 53.92900 36.12700
H  25.70300 53.76500 35.69500
H  33.84600 54.88200 37.82900
H  33.01000 53.87100 38.93300
H  33.95700 55.14300 39.65700
H  32.94100 59.95900 40.07400
H  33.09700 60.15700 38.35800
H  34.50700 60.01900 39.41600
H  28.99300 61.31200 38.27000
H  27.20500 61.26500 40.72800
H  29.86800 60.94100 41.20100
H  29.00300 62.45400 40.77400
H  30.54900 62.08300 40.00300
H  25.45600 61.78200 38.45900
H  26.90000 62.53200 38.06300
H  26.45000 63.34900 40.81200
H  24.94400 63.56900 40.04200
H  26.33400 64.29300 39.24700
H  21.61100 57.26000 40.39700
H  22.32000 58.58400 39.25500
H  22.60700 58.71500 40.94800
H  23.65000 53.42100 38.07600
H  25.75200 51.05600 42.24500
H  24.63100 50.22600 41.23300
H  24.06600 51.12900 42.63600
Mg -2.27500 34.78900 27.03700
C  -3.87700 33.33400 29.78300
C  -0.80900 37.16500 29.26700
C  -0.79500 36.21600 24.39700
C  -3.86500 32.48400 24.87300
N  -2.50200 35.28000 29.24400
C  -3.15300 34.48600 30.18600
C  -2.71600 34.94200 31.63700
C  -1.83500 36.28300 31.33700
C  -1.70800 36.32500 29.83300
C  -2.34900 37.64100 31.97700
C  -1.91300 33.87400 32.44700
C  -1.41400 34.30100 33.93900
H  -1.67500 33.37900 35.06400
N  -0.92400 36.45600 26.86000
C  -0.43700 37.22500 27.87300
C  0.50800 38.13700 27.27400
C  0.47200 37.96800 25.85900
C  -0.47800 36.81900 25.64200
C  1.19900 39.20900 28.02000
C  1.28000 38.76500 24.72100
O  0.92800 38.69900 23.51400
C  2.31800 39.82500 25.03700
N  -2.15800 34.28300 24.89500
C  -1.60300 35.11200 24.01100
C  -1.93200 34.67300 22.60000
C  -2.51800 33.19200 22.88100
C  -2.97600 33.35700 24.26500
C  -2.84600 35.59700 21.83400
C  -1.50900 32.03800 22.60400
C  -0.53500 31.63800 23.70200
N  -3.74400 33.29500 27.20500
C  -4.15300 32.36000 26.26300
C  -4.94200 31.33400 27.03700
C  -4.81700 31.69900 28.39400
C  -4.07400 32.86000 28.43600
C  -5.58800 30.09000 26.43600
C  -5.17600 31.30900 29.65600
O  -5.91900 30.37400 30.05100
C  -4.49700 32.20200 30.63100
C  -5.43800 32.62400 31.70100
O  -6.26000 33.48500 31.53100
O  -5.27900 31.97000 32.94600
C  -6.51200 32.11000 33.77800
H  -0.39100 37.94200 29.91100
H  -0.36300 36.67600 23.50600
H  -4.27700 31.84200 24.09100
H  -3.61400 35.13600 32.22300
H  -0.86200 36.19800 31.82000
H  -2.26000 38.61600 31.49800
H  -1.77500 37.72200 32.90000
H  -3.35600 37.47100 32.35500
H  -1.04500 33.68500 31.81400
H  -2.56000 32.99800 32.49900
H  -1.86200 35.25700 34.21100
H  -0.32700 34.31500 33.86800
H  0.67900 40.15300 27.85300
H  2.24300 39.28800 27.71800
H  1.17400 39.05400 29.09800
H  2.08800 40.44700 25.90200
H  2.51300 40.38000 24.11900
H  3.27100 39.33400 25.23500
H  -1.06200 34.63100 21.94400
H  -3.27100 32.95000 22.13100
H  -3.74100 35.13200 21.42000
H  -2.25600 36.02500 21.02300
H  -3.20400 36.38700 22.49300
H  -0.88600 32.20600 21.72500
H  -1.98200 31.13000 22.23000
H  -0.69300 32.13200 24.66100
H  0.45100 31.77400 23.25700
H  -0.67700 30.56500 23.83200
H  -5.44500 29.24500 27.10900
H  -5.05900 29.85000 25.51300
H  -6.63300 30.39900 26.45700
H  -3.70000 31.61000 31.08000
H  -6.25900 32.05200 34.83700
H  -7.19400 31.27900 33.59600
H  -7.10200 33.02500 33.71900

