158

Mg 41.99300 41.47600 26.35700
C  40.90900 43.76900 28.73900
C  43.37500 39.55500 28.78400
C  43.08300 39.33200 23.93900
C  40.94800 43.62500 23.87200
N  42.19100 41.77800 28.54700
C  41.53000 42.67900 29.36900
C  41.85000 42.41000 30.82200
C  42.87300 41.17300 30.76500
C  42.81400 40.75000 29.27600
C  44.32000 41.44000 31.36600
C  40.46000 42.16400 31.75300
C  40.44400 43.02000 33.07700
H  39.83800 42.37800 34.33500
N  42.97600 39.64400 26.44500
C  43.44300 39.00700 27.53400
C  44.08800 37.77100 27.14200
C  43.97000 37.64600 25.74900
C  43.27400 38.89000 25.29000
C  44.52900 36.70500 28.19700
C  44.43200 36.49500 24.82700
O  44.15200 36.48300 23.69100
C  45.38200 35.40800 25.28100
N  42.04100 41.47600 24.22100
C  42.54600 40.51700 23.41400
C  42.35800 40.75400 21.96900
C  41.47600 42.07300 22.00000
C  41.47900 42.42700 23.47600
C  43.58900 40.80700 21.21000
C  39.95100 41.90600 21.45600
C  39.24200 40.57600 21.87300
N  41.21700 43.38100 26.26100
C  40.82900 44.13800 25.13000
C  40.37400 45.42900 25.57800
C  40.40700 45.33000 26.96400
C  40.93100 44.10100 27.35300
C  39.81000 46.48900 24.68600
C  40.12600 45.99900 28.19800
O  39.71300 47.09900 28.38000
C  40.44300 45.05600 29.39300
C  41.47700 45.71500 30.18500
O  42.60700 45.94100 29.74700
O  40.94500 46.11900 31.39000
C  41.95400 46.60900 32.26800
H  43.81100 38.96900 29.59600
H  43.42700 38.64700 23.16100
H  40.64500 44.22100 23.01000
H  42.36800 43.28800 31.20800
H  42.52000 40.45700 31.50600
H  45.02100 40.97400 30.67400
H  44.33400 40.95800 32.34300
H  44.50600 42.51400 31.37200
H  40.36700 41.11300 32.02600
H  39.54800 42.40400 31.20700
H  39.88100 43.93000 32.87400
H  41.48000 43.32300 33.22700
H  44.03400 35.76300 27.96000
H  44.28100 37.07700 29.19100
H  45.61200 36.59100 28.14500
H  46.36000 35.84200 25.49000
H  45.47100 34.61000 24.54400
H  44.86700 34.78600 26.01300
H  41.78500 39.87200 21.68100
H  42.03400 42.81000 21.42400
H  43.48300 41.69900 20.59300
H  43.69600 39.89700 20.61800
H  44.43300 40.88600 21.89500
H  40.02200 42.06100 20.37900
H  39.29500 42.64900 21.90900
H  39.44400 39.76700 21.17100
H  38.16200 40.71500 21.92900
H  39.49400 40.24200 22.88000
H  39.21500 46.08500 23.86700
H  40.64200 47.11000 24.35300
H  39.13100 47.12100 25.25800
H  39.48500 44.95900 29.90300
H  42.57700 47.34000 31.75300
H  42.38500 45.75800 32.79600
H  41.38500 47.26800 32.92400
Mg -10.83500 38.03800 42.55800
C  -8.70200 35.42700 41.83300
C  -8.67400 40.16500 40.98800
C  -13.27400 40.43300 42.65700
C  -13.24100 35.55700 43.53000
N  -9.09100 37.66800 41.31000
C  -8.33900 36.53600 41.05300
C  -7.24300 36.83100 40.02800
C  -7.05900 38.34500 39.99000
C  -8.36900 38.79500 40.84400
C  -5.60400 38.90800 40.37000
C  -7.74800 36.20700 38.63600
C  -6.84700 35.10100 38.15100
H  -5.77500 35.58200 37.19000
N  -10.89200 40.08100 41.97800
C  -9.86000 40.77900 41.44100
C  -10.25400 42.19000 41.42600
C  -11.65400 42.28000 41.91500
C  -12.02000 40.92400 42.26500
C  -9.23800 43.17100 40.86400
C  -12.52300 43.58600 42.03500
O  -12.04200 44.73000 41.87700
C  -13.93500 43.55400 42.48400
N  -12.90600 38.00600 42.90700
C  -13.66200 39.13500 42.87700
C  -15.21000 38.80400 43.12000
C  -15.14500 37.23400 43.28000
C  -13.60900 36.93300 43.32000
C  -15.69100 39.53500 44.38800
C  -15.88600 36.44800 42.11100
C  -16.76700 35.27500 42.45000
N  -11.01200 35.98500 42.72100
C  -11.97900 35.16200 43.32400
C  -11.48100 33.86300 43.54000
C  -10.21200 33.85600 42.95200
C  -9.98300 35.20800 42.51300
C  -12.18100 32.76800 44.28700
C  -8.99200 33.14200 42.72600
O  -8.62300 32.00000 42.95800
C  -8.09100 34.07800 41.77900
C  -6.64200 34.12600 42.18000
O  -5.86900 33.21100 41.98300
O  -6.31800 35.20500 42.97700
C  -4.87200 35.33500 43.28300
H  -8.00700 40.96300 40.65600
H  -14.14600 41.06500 42.83600
H  -14.03800 34.89400 43.87400
H  -6.30100 36.37200 40.32800
H  -7.32900 38.58200 38.96100
H  -5.13400 39.16600 39.42000
H  -4.99000 38.15800 40.86800
H  -5.67000 39.74700 41.06200
H  -7.69900 36.95300 37.84200
H  -8.75100 35.80900 38.78700
H  -7.56500 34.44800 37.65500
H  -6.22500 34.68900 38.94600
H  -8.31900 43.01300 41.43000
H  -9.53100 44.21400 40.98400
H  -8.92900 42.96800 39.83900
H  -13.85200 43.04700 43.44500
H  -14.69600 43.13700 41.82500
H  -14.30600 44.54800 42.73700
H  -15.66800 39.18900 42.20900
H  -15.47500 36.95800 44.28100
H  -15.93900 40.51800 43.98700
H  -14.76900 39.61900 44.96300
H  -16.46300 39.00400 44.94400
H  -15.08800 36.12100 41.44500
H  -16.61000 37.09700 41.61700
H  -17.77800 35.60600 42.69000
H  -16.45600 34.81200 43.38600
H  -16.76000 34.52800 41.65600
H  -12.78300 33.22900 45.07000
H  -11.41900 32.17000 44.78800
H  -12.65500 32.11200 43.55800
H  -8.15300 33.64100 40.78200
H  -4.37200 35.75200 42.40900
H  -4.54500 34.37400 43.68000
H  -4.81100 36.04500 44.10800

