158

Mg 7.73000 2.70800 28.76600
C  9.23400 1.33000 31.77100
C  5.63900 4.42900 30.89000
C  6.01900 3.61700 26.08300
C  9.36100 0.09800 26.97200
N  7.62700 2.95400 31.13300
C  8.27700 2.29900 32.11200
C  7.85400 2.82000 33.56100
C  6.70300 3.80000 33.22500
C  6.57400 3.69900 31.67700
C  5.35800 3.42600 33.94800
C  8.98800 3.56100 34.37200
C  8.63000 4.08600 35.77200
H  8.88800 3.27100 37.07700
N  6.17900 3.87400 28.48900
C  5.43300 4.47400 29.49000
C  4.40700 5.34800 28.87900
C  4.52900 5.17900 27.44700
C  5.57200 4.19200 27.32000
C  3.49900 6.21500 29.65600
C  3.87100 5.86800 26.29300
O  4.12100 5.65700 25.10000
C  2.65600 6.71400 26.51700
N  7.71400 1.97200 26.78700
C  7.07800 2.67800 25.82300
C  7.43100 2.13700 24.44000
C  8.63100 1.08100 24.70500
C  8.59000 1.04400 26.27200
C  6.16800 1.61700 23.80500
C  10.02500 1.50000 24.12600
C  11.10800 2.16600 25.03900
N  9.14300 1.08700 29.15400
C  9.64100 0.09600 28.36100
C  10.58900 -0.64300 29.14800
C  10.46500 -0.26200 30.44800
C  9.56000 0.84900 30.47500
C  11.37800 -1.85300 28.60900
C  10.91500 -0.51900 31.80700
O  11.67400 -1.35700 32.25700
C  10.15100 0.50100 32.69500
C  9.38000 -0.28800 33.64400
O  8.47900 -1.02400 33.39200
O  9.86000 -0.16600 34.97100
C  9.27200 -0.98400 36.02100
H  5.02400 5.12000 31.47100
H  5.52200 3.86000 25.14200
H  9.81800 -0.71700 26.40800
H  7.42600 2.03600 34.18600
H  6.93200 4.84000 33.46000
H  4.59000 2.94600 33.34100
H  4.89200 4.32400 34.35300
H  5.43400 2.60700 34.66300
H  9.46900 4.36800 33.81900
H  9.84000 2.90700 34.55400
H  7.54700 3.99300 35.85300
H  8.91400 5.12500 35.93900
H  3.74200 6.37300 30.70700
H  2.58800 5.65500 29.86400
H  3.42200 7.17600 29.14600
H  2.22600 6.93100 25.53900
H  2.95000 7.69600 26.89000
H  1.99200 6.21200 27.22100
H  7.87700 2.95700 23.87700
H  8.34700 0.08400 24.36700
H  5.34100 1.54800 24.51200
H  6.30600 0.63400 23.35600
H  5.88400 2.34800 23.04800
H  9.91300 2.30500 23.39900
H  10.58600 0.67400 23.68900
H  10.72600 2.29300 26.05200
H  11.30900 3.19200 24.73100
H  11.98500 1.51900 25.01800
H  12.18000 -1.97400 29.33600
H  11.73100 -1.76200 27.58200
H  10.71300 -2.70700 28.74400
H  10.88300 1.15400 33.17100
H  9.33700 -0.41900 36.95100
H  9.59600 -2.02200 36.09700
H  8.18800 -0.99700 35.90900
Mg 24.93000 -5.71700 46.64300
C  26.93900 -3.52400 44.76100
C  22.33500 -4.87000 44.57300
C  23.52600 -8.55300 47.59200
C  27.94800 -6.69900 48.40200
N  24.68200 -4.28200 44.88300
C  25.58700 -3.47500 44.27000
C  24.98800 -2.49500 43.21200
C  23.46300 -2.80100 43.53300
C  23.47800 -4.04700 44.36400
C  22.71400 -1.60900 44.13100
C  25.52000 -2.62200 41.75800
C  25.93600 -1.33400 41.06200
H  25.40300 -1.01200 39.65100
N  23.11300 -6.57700 46.26500
C  22.22500 -6.03300 45.39400
C  21.07300 -6.92500 45.31500
C  21.37700 -8.07600 46.17300
C  22.69400 -7.76800 46.72700
C  19.76000 -6.70000 44.47500
C  20.46500 -9.28500 46.28800
O  19.40400 -9.30700 45.63400
C  20.77500 -10.41500 47.27600
N  25.61700 -7.32800 48.00200
C  24.81100 -8.35400 48.21300
C  25.48900 -9.35800 49.16500
C  26.81200 -8.55700 49.58800
C  26.85400 -7.52100 48.56900
C  24.62400 -9.95600 50.25200
C  28.12100 -9.43500 49.60300
C  29.09400 -8.99800 50.70700
N  26.88400 -5.06000 46.80100
C  28.00000 -5.58000 47.58100
C  29.21600 -4.83300 47.23300
C  28.81400 -4.06000 46.09400
C  27.46200 -4.21100 45.89100
C  30.62100 -4.96900 47.77900
C  29.38300 -3.21600 45.02600
O  30.51100 -2.84700 44.81600
C  28.10600 -2.72700 44.22300
C  28.05800 -1.27600 44.63700
O  27.74100 -0.86500 45.71100
O  28.42000 -0.43600 43.53200
C  28.41400 1.05900 43.78900
H  21.46900 -4.61400 43.95900
H  23.04200 -9.49100 47.87000
H  28.84500 -6.76600 49.02200
H  25.24800 -1.48100 43.51700
H  22.98600 -2.89200 42.55700
H  23.42600 -0.78300 44.15600
H  22.52600 -1.87000 45.17300
H  21.78300 -1.35000 43.62700
H  24.79200 -3.22000 41.21000
H  26.47600 -3.13700 41.84700
H  27.02500 -1.28400 41.07900
H  25.74200 -0.50800 41.74700
H  19.96800 -7.11400 43.48800
H  19.62000 -5.62000 44.50600
H  18.82500 -7.07400 44.89300
H  20.01400 -11.19300 47.22400
H  20.82100 -9.93000 48.25100
H  21.75900 -10.84300 47.08700
H  25.91700 -10.10100 48.49100
H  26.66300 -8.14000 50.58400
H  25.13500 -9.96800 51.21500
H  24.51400 -10.99300 49.93700
H  23.60000 -9.59700 50.14100
H  28.68600 -9.38600 48.67300
H  27.85400 -10.48700 49.70500
H  28.65300 -8.19600 51.29900
H  30.02300 -8.53100 50.37900
H  29.34000 -9.85200 51.33800
H  30.97900 -5.97400 47.55600
H  30.64500 -4.87600 48.86500
H  31.17500 -4.18700 47.26000
H  28.24200 -2.89100 43.15400
H  29.32100 1.19900 44.37600
H  27.69600 1.47500 44.49600
H  28.32500 1.60900 42.85200

