158

Mg 35.58100 2.37200 30.29300
C  33.31300 3.59900 32.75000
C  37.95700 2.54000 32.72800
C  37.62800 1.30100 28.02700
C  32.99100 2.65200 28.03600
N  35.54400 3.01400 32.50300
C  34.49700 3.37800 33.30100
C  34.89400 3.47500 34.80200
C  36.50500 3.35200 34.73500
C  36.70700 3.01600 33.25000
C  37.30200 4.59600 35.22500
C  34.13200 2.42400 35.57500
C  33.58500 2.75400 36.92800
H  34.38500 3.86200 37.62600
N  37.50600 2.03100 30.32300
C  38.27200 2.01000 31.47100
C  39.64100 1.54300 31.06500
C  39.59600 1.12900 29.68400
C  38.16700 1.39700 29.31000
C  40.82800 1.50500 32.00000
C  40.63200 0.54400 28.82600
O  40.29000 -0.03800 27.78900
C  42.07200 0.63200 29.18400
N  35.35000 2.21500 28.15800
C  36.40300 1.74000 27.46700
C  35.94400 1.29200 25.98100
C  34.42700 1.80500 26.07500
C  34.19400 2.24600 27.46400
C  36.80500 1.88600 24.90200
C  33.35400 0.85100 25.34900
C  32.56900 1.44500 24.15300
N  33.56500 2.97500 30.29100
C  32.61800 3.04900 29.30800
C  31.38200 3.43300 29.75600
C  31.63300 3.73100 31.07700
C  32.92200 3.40300 31.39600
C  30.19300 3.64300 28.99800
C  30.98400 4.20000 32.32600
O  29.88300 4.71100 32.43700
C  32.03700 4.16800 33.43300
C  32.18300 5.52900 34.18100
O  32.40500 6.63800 33.72200
O  31.89100 5.29100 35.51200
C  31.82500 6.58500 36.28700
H  38.77900 2.32100 33.41200
H  38.32800 0.97100 27.25600
H  32.13000 2.68500 27.36600
H  34.61900 4.46400 35.16800
H  36.80800 2.51200 35.36100
H  36.61800 5.43000 35.38800
H  37.96700 4.93300 34.43000
H  37.92700 4.35700 36.08600
H  34.71600 1.50700 35.64700
H  33.24400 2.11800 35.02400
H  33.44000 1.86600 37.54400
H  32.58300 3.14900 36.76400
H  41.41900 2.38200 31.73500
H  41.38300 0.58200 31.83300
H  40.65500 1.69500 33.06000
H  42.71800 0.42300 28.33100
H  42.19400 -0.16900 29.91300
H  42.32600 1.63300 29.53200
H  35.88800 0.20700 25.89000
H  34.30600 2.78100 25.60600
H  37.65700 2.49600 25.20100
H  36.22900 2.30700 24.07800
H  37.37200 1.08100 24.43400
H  32.69600 0.53700 26.16000
H  33.74500 -0.08700 24.95600
H  33.03700 2.33700 23.73800
H  31.52000 1.62000 24.39100
H  32.48200 0.63200 23.43200
H  29.78300 2.68700 28.67400
H  30.54300 4.20100 28.12900
H  29.38800 4.14800 29.53200
H  31.80500 3.40900 34.18000
H  30.93500 7.16300 36.03600
H  32.75300 7.15500 36.25300
H  31.70300 6.32900 37.34000
Mg -1.82300 34.17700 25.94000
C  -3.16800 32.58200 28.66300
C  -0.51700 36.65100 28.13900
C  -0.59200 35.89700 23.31900
C  -3.95800 32.48100 23.87300
N  -2.06100 34.68800 28.12200
C  -2.47600 33.73600 29.01000
C  -2.17400 34.18400 30.44900
C  -1.47600 35.57000 30.26200
C  -1.34100 35.67600 28.75000
C  -2.36900 36.68000 30.73200
C  -1.46500 33.06800 31.32300
C  -2.15900 32.58400 32.59500
H  -1.26100 32.53200 33.85100
N  -0.48800 35.87300 25.77200
C  -0.06700 36.71800 26.78700
C  0.98400 37.58200 26.23400
C  1.02800 37.33100 24.87100
C  -0.04700 36.39200 24.57700
C  1.82900 38.53100 27.05200
C  1.96200 38.00100 23.79300
O  1.69500 37.99900 22.57000
C  3.20400 38.68200 24.24300
N  -2.35500 34.34000 23.94700
C  -1.67100 35.05200 23.00700
C  -2.12500 34.75400 21.57600
C  -3.12200 33.54000 21.76300
C  -3.16900 33.41200 23.30800
C  -2.81400 35.93900 20.89200
C  -2.67500 32.21500 21.03600
C  -1.61600 31.32400 21.74700
N  -3.31700 32.82400 26.20700
C  -4.06600 32.14300 25.25200
C  -4.74200 30.97400 25.97300
C  -4.44000 31.16400 27.27000
C  -3.58500 32.24700 27.38700
C  -5.54800 29.86200 25.40500
C  -4.58300 30.55900 28.53100
O  -5.07700 29.51800 28.86800
C  -3.85000 31.53000 29.57600
C  -4.97300 32.00600 30.49300
O  -5.81000 32.88800 30.37200
O  -4.98600 31.15700 31.49600
C  -5.90500 31.24300 32.61500
H  -0.07400 37.28100 28.91300
H  -0.16800 36.47000 22.49100
H  -4.52700 31.77300 23.26800
H  -3.13700 34.42200 30.90000
H  -0.53300 35.63100 30.80400
H  -2.45600 37.47800 29.99500
H  -1.82800 37.15300 31.55100
H  -3.33100 36.47600 31.20200
H  -0.48200 33.39900 31.65800
H  -1.15800 32.20300 30.73500
H  -2.51800 31.57800 32.37800
H  -2.97200 33.27600 32.81600
H  1.43500 38.68600 28.05700
H  1.80200 39.56400 26.70700
H  2.85800 38.17400 27.01100
H  3.78200 38.11100 24.97000
H  2.82900 39.58600 24.72400
H  3.73400 39.08500 23.38000
H  -1.25600 34.55500 20.94900
H  -4.14600 33.78300 21.47900
H  -2.79200 36.72500 21.64700
H  -3.78800 35.72700 20.45100
H  -2.13400 36.31700 20.12900
H  -2.18800 32.69100 20.18500
H  -3.60500 31.78100 20.66800
H  -1.36300 31.55100 22.78300
H  -0.69300 31.32900 21.16800
H  -2.12100 30.35800 21.75600
H  -5.27500 28.93800 25.91600
H  -5.28500 29.77100 24.35200
H  -6.62900 29.92900 25.52200
H  -3.20800 30.89900 30.19000
H  -5.97500 30.26500 33.09200
H  -6.83900 31.72300 32.32100
H  -5.38400 31.92700 33.28500

