158

Mg 1.54200 -1.51700 43.98800
C  5.05200 -0.90500 43.56200
C  1.02100 1.58200 42.46400
C  -1.57700 -2.39800 43.57600
C  2.34000 -4.74700 45.04900
N  2.84900 0.14700 43.14900
C  4.26200 0.16800 42.99300
C  4.76000 1.38600 42.28700
C  3.50500 2.31900 42.42700
C  2.36900 1.27000 42.68900
C  3.57000 3.33000 43.58400
C  5.22100 1.19100 40.89900
C  6.65500 1.68500 40.63600
H  6.83300 2.39800 39.27800
N  -0.12600 -0.46600 43.21200
C  -0.17800 0.75500 42.57900
C  -1.52100 1.10300 42.26800
C  -2.30800 -0.01000 42.63200
C  -1.34200 -1.03200 43.17400
C  -1.84500 2.54600 41.68300
C  -3.81000 -0.11900 42.40600
O  -4.47100 0.79900 41.88900
C  -4.54100 -1.43300 42.68600
N  0.57400 -3.36900 44.00700
C  -0.75200 -3.39800 44.01900
C  -1.31500 -4.67500 44.55000
C  -0.05300 -5.46800 45.02100
C  1.03200 -4.46100 44.70200
C  -2.53200 -4.63300 45.56500
C  0.12200 -6.81700 44.25000
C  0.46400 -8.03400 45.11500
N  3.27900 -2.67500 44.29600
C  3.45500 -3.90900 44.83900
C  4.88500 -4.18800 44.89400
C  5.52800 -3.03600 44.38500
C  4.52300 -2.17300 44.00800
C  5.54000 -5.46800 45.36400
C  6.85100 -2.39700 44.14800
O  7.96600 -2.83100 44.45100
C  6.53000 -1.00900 43.50100
C  7.31200 0.01600 44.24500
O  7.11500 0.34500 45.40700
O  8.28200 0.53900 43.42100
C  9.08500 1.66100 43.94100
H  0.87600 2.62000 42.15800
H  -2.58000 -2.79400 43.40500
H  2.39500 -5.71500 45.55100
H  5.58700 1.79600 42.86800
H  3.26700 2.82600 41.49200
H  3.15600 2.76700 44.42100
H  3.00900 4.22200 43.30500
H  4.57900 3.64400 43.85000
H  4.58000 1.61100 40.12400
H  5.30400 0.12800 40.67200
H  7.26600 0.78200 40.62900
H  7.13700 2.34500 41.35700
H  -2.71700 2.47900 41.03200
H  -0.99700 2.99000 41.16200
H  -2.05900 3.31800 42.42400
H  -5.57800 -1.10200 42.73500
H  -4.15700 -1.81000 43.63400
H  -4.45600 -2.09200 41.82100
H  -1.75100 -5.12600 43.65900
H  0.02600 -5.59800 46.10100
H  -2.24600 -5.33500 46.34900
H  -3.46700 -4.86800 45.05700
H  -2.66900 -3.59700 45.87400
H  0.94700 -6.69500 43.54800
H  -0.84600 -7.04700 43.80700
H  1.18700 -8.75900 44.74300
H  -0.47600 -8.57100 45.24400
H  0.69700 -7.81400 46.15700
H  6.61500 -5.43900 45.18600
H  5.08500 -6.33000 44.87600
H  5.18600 -5.66300 46.37600
H  6.87100 -1.01400 42.46500
H  8.88200 2.56200 43.36200
H  10.15100 1.43600 43.90000
H  8.75300 1.84600 44.96200
Mg 9.70200 47.77700 28.14700
C  7.91000 47.37800 31.20400
C  12.46700 48.42500 29.99400
C  11.21800 48.96900 25.34500
C  6.55900 48.02900 26.45100
N  10.14800 47.70600 30.38200
C  9.28600 47.55500 31.44100
C  10.04500 47.60400 32.76900
C  11.46500 48.06200 32.39800
C  11.38400 48.03000 30.81700
C  11.94400 49.42200 32.97900
C  9.86800 46.28100 33.59900
C  11.01600 45.92000 34.57200
H  10.69900 45.16900 35.91400
N  11.63000 48.24600 27.66000
C  12.61200 48.46000 28.57200
C  13.82400 48.68400 27.81100
C  13.52400 48.82000 26.45400
C  12.03200 48.70400 26.43100
C  15.16400 49.01100 28.51900
C  14.43700 49.21000 25.20200
O  14.08200 49.50700 24.05400
C  15.89000 49.21000 25.48000
N  8.99300 48.39200 26.08400
C  9.80400 48.75300 25.07400
C  9.03800 49.10200 23.75800
C  7.64000 48.75000 24.22600
C  7.66700 48.30900 25.66300
C  9.09300 50.52800 23.31800
C  6.87600 47.73700 23.32800
C  6.33200 48.32500 21.99100
N  7.63700 47.55100 28.62400
C  6.45800 47.68400 27.84700
C  5.30300 47.59100 28.68600
C  5.86000 47.35300 29.94900
C  7.23800 47.48500 29.93600
C  3.91600 47.78400 28.31300
C  5.51900 47.20500 31.37200
O  4.43900 47.13100 31.85200
C  6.80600 47.07100 32.16900
C  6.81900 45.65400 32.54200
O  7.18300 44.73200 31.88100
O  6.31700 45.58000 33.79800
C  6.23600 44.27700 34.40700
H  13.33700 48.51300 30.64800
H  11.62300 49.35000 24.40500
H  5.54900 48.16700 26.05900
H  9.49900 48.32600 33.37600
H  12.20700 47.30400 32.65200
H  11.23100 49.87500 33.66800
H  12.01800 50.23400 32.25600
H  12.86800 49.23100 33.52400
H  9.72700 45.51900 32.83300
H  8.95600 46.27900 34.19600
H  11.40500 46.89500 34.86500
H  11.70300 45.31200 33.98400
H  15.45500 50.01700 28.21700
H  15.96100 48.27900 28.39000
H  14.92800 49.06400 29.58200
H  16.26400 49.10500 24.46200
H  16.20600 48.33000 26.04100
H  15.95100 50.14300 26.04000
H  9.50100 48.44600 23.02100
H  7.00300 49.63500 24.23500
H  8.18600 50.89900 22.84000
H  9.87200 50.35800 22.57400
H  9.49400 51.18700 24.08800
H  5.98900 47.37000 23.84300
H  7.55800 46.93900 23.03200
H  6.83300 47.65200 21.29600
H  6.67900 49.35700 21.94500
H  5.25600 48.16300 21.91800
H  3.23600 47.50600 29.11800
H  3.77100 47.29600 27.34900
H  3.71100 48.83600 28.11400
H  6.78500 47.70900 33.05200
H  5.51000 43.75100 33.78700
H  5.79900 44.33100 35.40400
H  7.20300 43.77900 34.47000

