158

Mg 48.51700 45.52200 42.64300
C  45.10100 45.80700 41.94100
C  48.48800 42.22600 41.51800
C  51.86700 45.57700 42.41700
C  48.56400 48.93800 43.28800
N  47.04900 44.26700 41.85800
C  45.70700 44.58800 41.58200
C  45.03100 43.42400 40.89600
C  45.94700 42.23400 41.23600
C  47.26500 42.95200 41.47000
C  45.75000 41.17200 42.29500
C  44.65100 43.57800 39.44200
C  43.35800 42.79300 38.98200
H  43.49100 41.78600 37.90900
N  50.00200 44.01500 42.21100
C  49.79500 42.70400 41.78200
C  51.07000 42.14800 41.59300
C  52.05800 43.04600 42.01200
C  51.32000 44.26600 42.32300
C  51.26800 40.72500 41.12400
C  53.54300 42.74300 42.07000
O  53.98000 41.66100 41.64700
C  54.51800 43.70700 42.69100
N  49.95600 47.06100 42.66500
C  51.28600 46.82600 42.63000
C  52.09900 48.08800 42.93600
C  51.10200 49.17300 43.27100
C  49.81800 48.39100 43.04200
C  53.33900 47.87600 43.86000
C  51.20500 50.47400 42.43800
C  51.46700 51.70000 43.25200
N  47.15400 47.01800 42.75600
C  47.28800 48.35000 43.06600
C  46.01300 49.03500 43.04000
C  45.14500 48.07400 42.64900
C  45.88300 46.87200 42.46900
C  45.65100 50.45400 43.44100
C  43.78700 47.74900 42.35800
O  42.78200 48.44200 42.41900
C  43.72800 46.38100 41.72000
C  42.60100 45.50200 42.14300
O  41.99100 44.89300 41.32300
O  42.37500 45.48200 43.43900
C  41.40900 44.36700 43.78600
H  48.37600 41.16300 41.29400
H  52.94500 45.60200 42.24900
H  48.57700 49.98000 43.61600
H  44.08800 43.30500 41.43100
H  46.11600 41.68200 40.31100
H  46.46000 41.32200 43.10800
H  45.84000 40.14600 41.93800
H  44.79600 41.35300 42.79100
H  45.46500 43.33100 38.75900
H  44.41900 44.63300 39.30300
H  42.56400 43.49500 38.72600
H  42.99300 42.11800 39.75700
H  51.90700 40.74600 40.24100
H  50.29700 40.31000 40.85600
H  51.62300 40.13000 41.96500
H  55.30500 43.11300 43.15600
H  53.87700 44.00500 43.52100
H  54.90500 44.38400 41.92900
H  52.40100 48.28000 41.90600
H  51.06500 49.50000 44.31000
H  54.12100 47.62900 43.14300
H  53.10800 47.16700 44.65500
H  53.64500 48.84400 44.25700
H  50.30100 50.64100 41.85200
H  52.07700 50.39900 41.78900
H  50.62700 51.55600 43.93100
H  51.29800 52.68000 42.80500
H  52.43400 51.73700 43.75300
H  45.53200 51.11000 42.57900
H  46.34000 50.91400 44.14800
H  44.66800 50.53700 43.90600
H  43.60400 46.58200 40.65600
H  41.81700 43.38300 43.55500
H  40.45100 44.55000 43.29700
H  41.37200 44.45300 44.87200
Mg 27.10500 50.23800 26.66500
C  25.12800 51.29600 29.23200
C  29.58300 49.57200 28.88800
C  29.16100 49.57600 23.99900
C  24.73900 51.46900 24.39500
N  27.30600 50.30300 28.83300
C  26.36200 50.74700 29.64800
C  26.79100 50.55800 31.18000
C  28.31800 50.24400 31.10800
C  28.45300 50.02700 29.59300
C  29.16300 51.40500 31.75100
C  25.90700 49.46500 31.90300
C  25.17900 50.01200 33.15900
H  24.99400 49.05500 34.38000
N  29.00100 49.50200 26.48700
C  29.84400 49.30000 27.53000
C  31.01300 48.60900 26.99900
C  30.97200 48.71700 25.61400
C  29.69900 49.26600 25.29100
C  31.99000 47.91700 27.93200
C  32.04800 48.34500 24.59500
O  32.00200 48.75000 23.44100
C  33.30700 47.70900 25.09300
N  26.91400 50.37800 24.53700
C  27.88000 50.10400 23.63400
C  27.35500 50.19700 22.16400
C  25.86700 50.57400 22.33800
C  25.81000 50.84100 23.83700
C  28.21100 50.97500 21.15200
C  24.78600 49.57500 21.78800
C  24.08700 49.99800 20.47400
N  25.42600 51.34200 26.72800
C  24.53700 51.68400 25.75100
C  23.34700 52.31800 26.33500
C  23.52800 52.18400 27.69800
C  24.84800 51.58200 27.91300
C  22.10600 52.80700 25.55600
C  22.94200 52.35500 28.98800
O  21.85900 52.86000 29.30900
C  23.89100 51.83700 30.05300
C  24.34800 52.96500 30.94400
O  25.36300 53.63500 30.74300
O  23.46900 53.04200 32.04300
C  23.77400 54.20000 32.97100
H  30.40400 49.30800 29.55800
H  29.71000 49.30400 23.09500
H  23.88100 51.75600 23.78400
H  26.68700 51.52300 31.67500
H  28.42200 49.37500 31.75700
H  29.74600 50.97000 32.56300
H  28.55400 52.24700 32.07600
H  29.94500 51.61000 31.01900
H  26.49000 48.62800 32.28500
H  25.06900 49.17800 31.26700
H  24.21400 50.40700 32.84100
H  25.68500 50.88900 33.56200
H  32.98100 48.36900 27.89200
H  32.23500 46.88300 27.68600
H  31.70400 47.95500 28.98300
H  33.89800 47.45000 24.21500
H  33.04500 46.82200 25.67100
H  33.81700 48.40800 25.75600
H  27.49200 49.14900 21.89800
H  25.81300 51.49800 21.76200
H  29.04100 51.48900 21.63700
H  27.76800 51.74300 20.51800
H  28.51400 50.26200 20.38400
H  24.08800 49.33700 22.59100
H  25.31600 48.67100 21.48600
H  23.98700 49.18200 19.75800
H  24.53100 50.85900 19.97500
H  23.08800 50.33900 20.74600
H  22.02700 53.88100 25.72500
H  21.15300 52.35400 25.82900
H  22.18800 52.65200 24.48100
H  23.50600 51.00200 30.63900
H  23.57900 53.85100 33.98500
H  23.20600 55.09500 32.71900
H  24.83600 54.44200 33.01800

