158

Mg 1.63900 -2.08500 44.14900
C  5.14400 -1.58800 43.60000
C  1.07100 0.74400 42.30100
C  -1.46200 -3.08500 43.71900
C  2.56000 -5.17900 45.60400
N  2.95600 -0.60800 43.07100
C  4.36600 -0.57800 43.03000
C  4.83600 0.62900 42.19700
C  3.55500 1.38500 42.05700
C  2.41100 0.49500 42.56600
C  3.53300 2.85100 42.64000
C  5.53000 0.27200 40.85900
C  6.92900 0.91000 40.60300
H  6.99400 1.66200 39.25200
N  -0.06100 -1.25300 43.18800
C  -0.07700 -0.08000 42.48800
C  -1.40900 0.11100 42.04900
C  -2.14800 -1.03300 42.38800
C  -1.23700 -1.85800 43.13300
C  -1.87400 1.27800 41.24600
C  -3.61900 -1.20900 42.13500
O  -4.25600 -0.30200 41.62800
C  -4.39900 -2.42900 42.48800
N  0.74100 -3.88900 44.48300
C  -0.64300 -3.96400 44.42400
C  -1.19900 -5.18200 45.00200
C  0.09900 -5.90800 45.57900
C  1.20700 -4.91600 45.23200
C  -2.27700 -4.92700 46.09700
C  0.39000 -7.25600 44.91500
C  0.17000 -8.36900 45.85900
N  3.45800 -3.21000 44.67400
C  3.68500 -4.38300 45.30600
C  5.11000 -4.59500 45.37800
C  5.68100 -3.51100 44.82100
C  4.67500 -2.70400 44.37600
C  5.63400 -5.91900 45.65600
C  7.01600 -3.00500 44.36900
O  8.15400 -3.44000 44.52200
C  6.66400 -1.67400 43.59900
C  7.19200 -0.57900 44.41500
O  6.83200 -0.28400 45.52300
O  8.25800 0.01000 43.79500
C  8.97900 1.00300 44.66700
H  0.97200 1.73100 41.84500
H  -2.45300 -3.54400 43.69800
H  2.71000 -6.11900 46.14100
H  5.52500 1.22100 42.80100
H  3.28800 1.60000 41.02200
H  3.78200 3.49200 41.79400
H  4.28300 2.95900 43.42400
H  2.57500 3.14300 43.06900
H  4.77100 0.45000 40.09700
H  5.83400 -0.77500 40.89000
H  7.72900 0.16900 40.57500
H  7.23600 1.64900 41.34400
H  -2.59900 1.12800 40.44600
H  -1.08400 1.89200 40.81300
H  -2.38100 1.93100 41.95600
H  -4.15800 -3.37000 41.99200
H  -5.40300 -2.21100 42.12400
H  -4.55000 -2.51800 43.56300
H  -1.70400 -5.73700 44.21100
H  0.11200 -5.85900 46.66800
H  -2.26200 -3.90200 46.46900
H  -2.08200 -5.43800 47.03900
H  -3.31300 -5.12600 45.82000
H  1.44900 -7.27800 44.66000
H  -0.19100 -7.41000 44.00600
H  -0.22100 -7.97500 46.79800
H  1.18800 -8.67700 46.09600
H  -0.40000 -9.14500 45.34800
H  5.64600 -6.10000 46.73000
H  6.68200 -6.03100 45.38000
H  5.04600 -6.68200 45.14500
H  6.96400 -1.63600 42.55200
H  9.34000 0.48000 45.55200
H  8.44600 1.93900 44.83600
H  9.82600 1.21700 44.01400
Mg 36.66800 49.79900 25.06400
C  36.63800 47.79300 28.02600
C  35.73800 52.34200 26.98400
C  36.46900 51.46800 22.33700
C  37.66100 46.87700 23.32900
N  36.02300 49.88900 27.26700
C  36.24400 49.06500 28.32500
C  35.96700 49.69700 29.66500
C  35.48700 51.10700 29.26200
C  35.74900 51.10400 27.70400
C  34.03000 51.49300 29.56800
C  37.16100 49.64300 30.72600
C  36.88000 49.16400 32.14700
H  35.41100 49.22200 32.69400
N  36.15800 51.74000 24.69300
C  35.89600 52.68200 25.60000
C  35.60300 53.89800 25.00600
C  35.78300 53.64400 23.58100
C  36.17200 52.25800 23.42800
C  35.03800 55.10700 25.78600
C  35.69600 54.56500 22.29300
O  35.86100 54.19600 21.16800
C  35.38200 55.98200 22.50600
N  36.72100 49.14200 23.07000
C  36.76900 50.05400 22.11200
C  36.87100 49.34600 20.79200
C  37.39100 47.89600 21.08700
C  37.20000 47.97000 22.60500
C  35.56500 49.42800 20.05200
C  38.87100 47.57900 20.57100
C  40.01700 48.56300 21.03500
N  37.11400 47.75400 25.50800
C  37.53600 46.67000 24.70600
C  37.83500 45.48600 25.50300
C  37.50600 45.90200 26.82800
C  37.06200 47.25500 26.74600
C  38.34700 44.18100 25.02500
C  37.56500 45.56300 28.19500
O  38.07900 44.57000 28.72700
C  36.93700 46.69900 28.97800
C  35.65500 46.22600 29.58400
O  34.59500 46.09600 29.04000
O  35.87000 45.89800 30.92300
C  34.63400 45.38300 31.56000
H  35.58500 53.20300 27.63700
H  36.43000 52.03600 21.40500
H  38.16300 46.12700 22.71400
H  35.09100 49.16400 30.03500
H  36.11600 51.89000 29.68600
H  33.56200 50.89900 30.35200
H  33.44500 51.46200 28.64800
H  34.04000 52.47600 30.03900
H  37.68000 50.59700 30.81800
H  38.01400 49.06600 30.36900
H  37.61300 49.74800 32.70300
H  37.21600 48.12800 32.17400
H  35.68000 55.88900 25.38100
H  35.21200 55.20700 26.85800
H  33.97900 55.30600 25.62200
H  36.25700 56.49800 22.90200
H  34.45900 56.20700 23.04100
H  35.27100 56.38300 21.49800
H  37.61300 49.88500 20.20400
H  36.79200 47.09900 20.64500
H  34.68700 49.36300 20.69500
H  35.53400 48.77900 19.17700
H  35.57000 50.40300 19.56400
H  38.97400 47.56000 19.48600
H  38.87700 46.52300 20.84100
H  40.61900 48.79300 20.15600
H  40.66500 47.88200 21.58500
H  39.68100 49.36500 21.69300
H  39.24800 44.43800 24.46800
H  37.53700 43.70600 24.47000
H  38.64000 43.50900 25.83200
H  37.42300 47.00100 29.90600
H  34.82400 45.27900 32.62900
H  34.33700 44.41900 31.14700
H  33.82100 46.08300 31.37000

