158

Mg 46.80900 15.93000 28.40600
C  44.46200 15.61100 30.96900
C  48.81800 17.68300 30.53300
C  48.57100 16.73800 25.83500
C  44.42600 14.48100 26.20200
N  46.51700 16.81300 30.43400
C  45.63200 16.27300 31.37500
C  45.96600 16.86600 32.80300
C  47.18100 17.76200 32.55300
C  47.52100 17.47500 31.03200
C  46.78000 19.27000 32.73100
C  46.18200 15.66800 33.75900
C  45.52500 15.73500 35.13200
H  45.32200 17.11600 35.77100
N  48.62100 16.95900 28.23100
C  49.30500 17.56900 29.23500
C  50.59500 17.93900 28.76600
C  50.60900 17.62700 27.37600
C  49.27900 17.02700 27.07600
C  51.72900 18.45000 29.68300
C  51.62200 17.89400 26.22700
O  51.40100 17.62200 25.08500
C  53.05400 18.45400 26.58400
N  46.34800 15.90300 26.28000
C  47.36200 16.27300 25.46100
C  46.85400 16.17700 23.94500
C  45.65400 15.23400 24.17400
C  45.44500 15.15100 25.64300
C  46.56000 17.50700 23.27100
C  45.75400 13.79300 23.54100
C  44.46400 13.43200 22.84300
N  44.90000 14.99400 28.52500
C  44.08100 14.39800 27.58600
C  42.83300 14.04000 28.25200
C  42.97200 14.44500 29.57900
C  44.24100 15.06100 29.70800
C  41.64800 13.26000 27.59700
C  42.39300 14.38300 30.80400
O  41.29900 13.93200 31.08500
C  43.33100 15.15300 31.83600
C  42.49900 16.16100 32.47300
O  42.42200 17.33900 32.06700
O  42.10000 15.74000 33.66600
C  41.25400 16.71300 34.40900
H  49.55700 17.99500 31.27500
H  49.14300 17.00300 24.94300
H  43.69600 13.96300 25.57700
H  45.07400 17.39200 33.14400
H  48.06500 17.51600 33.14100
H  45.71500 19.43000 32.89900
H  46.94600 19.70700 31.74600
H  47.34300 19.80900 33.49300
H  47.24900 15.46400 33.84700
H  45.82100 14.72800 33.34100
H  46.11900 15.23200 35.89500
H  44.57500 15.21400 35.01700
H  51.61600 19.51500 29.88400
H  52.73600 18.27800 29.30400
H  51.64100 18.02100 30.68100
H  52.97800 19.38900 27.13800
H  53.60600 18.64300 25.66300
H  53.57400 17.68400 27.15400
H  47.60600 15.70000 23.31500
H  44.74400 15.73200 23.84200
H  46.74100 18.33600 23.95500
H  45.51600 17.41900 22.97000
H  47.07800 17.65800 22.32400
H  45.95600 13.12900 24.38200
H  46.48800 13.77900 22.73600
H  44.62400 13.25600 21.78000
H  43.65300 14.14100 23.01100
H  44.06600 12.51000 23.26700
H  42.14600 12.46500 27.04100
H  41.18300 14.01900 26.96800
H  40.97000 12.76500 28.29200
H  43.64200 14.43700 32.59600
H  40.32500 17.03000 33.93600
H  41.87900 17.55400 34.70800
H  41.04100 16.24600 35.37100
Mg -11.50300 16.56900 40.24900
C  -8.28900 15.00900 39.54300
C  -10.23000 19.43100 38.84600
C  -14.65300 17.60600 39.77000
C  -12.67100 13.42400 41.00200
N  -9.52300 17.05900 39.39300
C  -8.31500 16.33400 39.22100
C  -7.12600 17.20900 38.77400
C  -7.79600 18.59900 38.75800
C  -9.32400 18.38300 38.96500
C  -7.22500 19.60100 39.82000
C  -6.67900 16.85400 37.42000
C  -5.43600 17.62400 36.88300
H  -4.55600 16.89800 35.79400
N  -12.30000 18.43500 39.69100
C  -11.67400 19.48100 39.13800
C  -12.62700 20.61900 38.87800
C  -13.92400 20.07900 39.22400
C  -13.64000 18.64500 39.58100
C  -12.27700 22.00900 38.38800
C  -15.20600 20.85200 39.08700
O  -15.12400 21.95500 38.59500
C  -16.48300 20.13800 39.36200
N  -13.42900 15.62800 40.37900
C  -14.61000 16.26800 40.11500
C  -15.76000 15.34500 40.37800
C  -15.10300 13.99300 40.56300
C  -13.61900 14.36900 40.72600
C  -16.69600 15.83400 41.58600
C  -15.27000 13.06300 39.36900
C  -15.69000 11.65500 39.69300
N  -10.67800 14.64100 40.43300
C  -11.25900 13.49300 40.74700
C  -10.33200 12.43100 40.81400
C  -9.16600 12.97500 40.37400
C  -9.42800 14.27600 40.04600
C  -10.51500 10.95500 40.98200
C  -7.75800 12.66800 40.09200
O  -7.08000 11.65700 40.08700
C  -7.19000 13.96200 39.56600
C  -5.96800 14.18900 40.29700
O  -5.86800 14.76100 41.37300
O  -4.84800 13.77000 39.55000
C  -3.44000 14.31900 39.74600
H  -9.76700 20.31000 38.39200
H  -15.68200 17.81600 39.46800
H  -13.06200 12.44300 41.28100
H  -6.39400 17.05200 39.56600
H  -7.69400 19.13500 37.81500
H  -6.36100 20.11800 39.40200
H  -6.98500 18.91400 40.63100
H  -7.88700 20.31700 40.30800
H  -7.49000 16.90700 36.69400
H  -6.31700 15.82800 37.35000
H  -4.80600 17.92000 37.72200
H  -5.68300 18.54500 36.35500
H  -12.28300 22.31800 37.34300
H  -11.21000 22.02000 38.61200
H  -12.80400 22.69600 39.05000
H  -17.19100 20.96100 39.26300
H  -16.53600 19.73500 40.37300
H  -16.67100 19.36500 38.61700
H  -16.31400 15.33900 39.43900
H  -15.39800 13.60100 41.53600
H  -16.13400 16.71600 41.89200
H  -16.59000 15.16800 42.44200
H  -17.69600 16.10300 41.24600
H  -14.32300 13.05900 38.82900
H  -15.98600 13.47300 38.65700
H  -16.75200 11.41300 39.69800
H  -15.22600 11.24600 40.59000
H  -15.23600 11.00900 38.94100
H  -11.13100 10.74400 41.85600
H  -9.60000 10.36400 41.02900
H  -11.12900 10.56800 40.16900
H  -6.91100 13.67800 38.55100
H  -3.06900 14.88200 38.89000
H  -2.67200 13.54500 39.73600
H  -3.25000 14.86900 40.66800

