158

Mg 9.08900 3.92200 27.59000
C  10.44600 2.42900 30.31600
C  7.36900 6.20600 29.68500
C  8.22400 5.72900 24.92500
C  10.51500 1.52400 25.54200
N  8.73600 4.08300 29.73800
C  9.56300 3.46900 30.71300
C  9.19700 3.96400 32.12400
C  8.13500 5.10800 31.88600
C  8.00500 5.14500 30.31900
C  6.77600 4.83400 32.59900
C  10.42100 4.45600 33.03500
C  10.05900 5.11500 34.31000
H  10.44500 4.46400 35.65200
N  7.93500 5.68700 27.31600
C  7.29600 6.41700 28.24200
C  6.61100 7.59200 27.61500
C  6.96500 7.52200 26.25300
C  7.75900 6.29400 26.13900
C  5.78600 8.66600 28.34900
C  6.73600 8.57000 25.10200
O  7.02000 8.31400 23.95500
C  6.02400 9.84900 25.35100
N  9.20700 3.60400 25.48400
C  8.83700 4.51200 24.57100
C  8.98100 3.98200 23.16700
C  9.69400 2.63000 23.37900
C  9.90800 2.60600 24.89100
C  7.66000 4.04200 22.39500
C  11.06300 2.36700 22.60600
C  11.09300 1.14400 21.69500
N  10.28200 2.23100 27.78000
C  10.82500 1.37500 26.91300
C  11.75800 0.49500 27.62600
C  11.64300 0.82300 28.93000
C  10.75500 1.97700 28.98300
C  12.58000 -0.60900 26.92800
C  12.02900 0.49600 30.24400
O  12.75100 -0.38800 30.60600
C  11.32200 1.50000 31.18300
C  10.55000 0.93700 32.23800
O  9.34400 0.65800 32.18400
O  11.40800 0.66000 33.27500
C  10.75900 0.43700 34.51100
H  6.92200 7.10400 30.11600
H  7.76300 6.21500 24.06200
H  11.06700 0.85700 24.87600
H  8.82800 3.07700 32.63800
H  8.54400 5.98600 32.38700
H  5.96600 4.79800 31.86900
H  6.70500 5.69900 33.25700
H  6.86500 3.90300 33.15900
H  10.98400 5.05300 32.31700
H  11.18500 3.71000 33.25300
H  8.97700 5.21500 34.39600
H  10.59200 6.05200 34.14600
H  6.09700 9.68600 28.12100
H  5.90100 8.60000 29.43100
H  4.70600 8.53900 28.27700
H  5.90800 10.27100 24.35300
H  6.67500 10.51200 25.92200
H  5.06100 9.76400 25.85600
H  9.61600 4.64700 22.58200
H  8.91600 1.92800 23.07800
H  7.62800 4.79500 21.60800
H  6.77400 4.21500 23.00500
H  7.55100 3.11200 21.83700
H  11.93100 2.21400 23.24700
H  11.21000 3.27600 22.02200
H  11.94400 1.23900 21.02100
H  10.21500 0.97300 21.07200
H  11.23100 0.25300 22.30700
H  11.87800 -1.30600 26.47000
H  13.21100 -1.19100 27.60000
H  13.07500 -0.05900 26.12800
H  12.11800 2.13900 31.56400
H  11.27300 1.07000 35.23500
H  10.96600 -0.60900 34.73700
H  9.71500 0.72700 34.62800
Mg 16.53500 51.52300 25.36500
C  18.20400 50.38900 28.20700
C  13.81500 52.47600 27.33000
C  15.06100 52.70100 22.66500
C  19.18500 50.26100 23.50000
N  16.08900 51.37100 27.50500
C  16.92600 50.92500 28.51500
C  16.33700 51.24600 29.92300
C  14.87400 51.70000 29.60700
C  14.93100 51.86900 28.02400
C  13.89700 50.65500 30.10300
C  17.22300 52.25300 30.69900
C  17.61300 51.87600 32.13200
H  17.17300 52.98400 33.16600
N  14.64100 52.42500 25.02000
C  13.70000 52.77300 25.94400
C  12.59100 53.43600 25.26400
C  12.90700 53.50600 23.94800
C  14.28300 52.89000 23.81600
C  11.33600 54.04200 25.98000
C  12.02800 54.01400 22.75200
O  12.31700 53.84200 21.62900
C  10.86200 54.85100 23.08000
N  16.99400 51.36200 23.30900
C  16.26200 52.04900 22.39700
C  17.06300 52.25400 21.09100
C  18.41800 51.48500 21.41000
C  18.18600 50.98100 22.85300
C  16.29600 51.80200 19.85500
C  19.67900 52.35300 21.36400
C  20.93200 51.54800 21.08100
N  18.21600 50.49900 25.76000
C  19.25200 50.03700 24.92700
C  20.26700 49.39600 25.64900
C  19.91500 49.54900 26.94100
C  18.67400 50.18800 26.96000
C  21.54200 48.75800 25.17500
C  20.35000 49.30100 28.24900
O  21.33600 48.71600 28.71300
C  19.21100 49.92000 29.23900
C  18.69300 48.87200 30.21500
O  17.85500 48.02000 29.96200
O  19.44700 48.98000 31.40400
C  19.25800 48.06200 32.48000
H  12.96800 52.83700 27.91800
H  14.59500 53.16700 21.79500
H  19.99700 49.90400 22.86300
H  16.37400 50.27200 30.41100
H  14.78200 52.64600 30.14100
H  12.98900 51.12900 30.47500
H  14.29000 50.04600 30.91700
H  13.66800 50.08700 29.20100
H  16.75300 53.23000 30.80600
H  18.19000 52.40800 30.22000
H  18.70000 51.81100 32.10100
H  17.18600 50.92700 32.45900
H  11.31000 55.11300 25.78100
H  11.42200 53.76800 27.03100
H  10.41700 53.52500 25.70400
H  11.03100 55.82900 23.53000
H  10.07200 54.24600 23.52400
H  10.32000 55.08200 22.16300
H  17.30900 53.31300 21.02300
H  18.53800 50.60600 20.77800
H  16.78700 51.14900 19.13400
H  15.89400 52.68700 19.36000
H  15.36800 51.28100 20.09000
H  19.68500 52.83000 22.34400
H  19.54500 53.16400 20.64900
H  20.65300 50.55800 20.72200
H  21.64600 51.48000 21.90200
H  21.47400 52.02500 20.26400
H  21.29000 47.82800 24.66500
H  22.13100 48.46200 26.04300
H  22.18900 49.33700 24.51700
H  19.72100 50.74800 29.73200
H  18.40400 48.25100 33.13200
H  20.14500 47.84000 33.07300
H  19.04000 47.08600 32.04700

