158

Mg 16.65200 -1.24300 28.10100
C  15.58200 1.02400 30.60800
C  18.40000 -2.75500 30.28500
C  18.03300 -2.88300 25.44800
C  14.81200 0.74500 25.75200
N  17.03700 -0.77800 30.24200
C  16.42900 0.01000 31.06500
C  16.88100 -0.21600 32.55400
C  17.92600 -1.37400 32.43100
C  17.76700 -1.68300 30.91300
C  19.33200 -1.16500 32.93900
C  15.68300 -0.58800 33.44900
C  15.60200 0.03900 34.89700
H  16.98600 0.59300 35.39900
N  17.96800 -2.72600 27.90000
C  18.57400 -3.23300 28.98700
C  19.46500 -4.37300 28.64100
C  19.50700 -4.26500 27.17900
C  18.46400 -3.26600 26.76100
C  20.09600 -5.41300 29.56700
C  20.33500 -5.09600 26.25200
O  20.30400 -4.89500 25.03100
C  21.26300 -6.14800 26.87200
N  16.41600 -1.12900 25.94700
C  17.18700 -1.84700 25.07800
C  16.84300 -1.44900 23.62500
C  15.70400 -0.38300 23.78300
C  15.59200 -0.29400 25.24700
C  18.06500 -1.01900 22.82400
C  14.32700 -0.85700 23.19200
C  14.07400 -0.41000 21.79300
N  15.39900 0.52700 28.11300
C  14.75200 1.18600 27.05200
C  14.04300 2.27800 27.62300
C  14.39300 2.32400 29.00100
C  15.16100 1.22700 29.25100
C  13.08100 3.15000 26.77600
C  14.02600 2.98800 30.17300
O  13.29500 3.98900 30.38200
C  14.75700 2.09400 31.32300
C  15.53000 3.08300 32.18000
O  16.71400 3.25800 32.26500
O  14.65800 3.64200 33.04900
C  15.18000 4.31900 34.22500
H  19.01800 -3.28600 31.01200
H  18.39100 -3.35600 24.53200
H  14.22600 1.28300 25.00400
H  17.41700 0.71200 32.75600
H  17.66100 -2.27500 32.98500
H  19.40600 -0.18500 33.41000
H  19.95500 -1.01300 32.05700
H  19.65800 -1.89500 33.68000
H  15.52000 -1.65800 33.57700
H  14.84200 -0.33000 32.80400
H  15.35500 -0.76600 35.59000
H  14.81800 0.79500 34.84700
H  21.18400 -5.37500 29.60700
H  19.73500 -6.34500 29.13100
H  19.75800 -5.34000 30.60000
H  22.07100 -5.66900 27.42500
H  21.62500 -6.65900 25.97900
H  20.73800 -6.89100 27.47300
H  16.49500 -2.38000 23.17900
H  16.14700 0.51100 23.34500
H  17.76300 -0.18100 22.19500
H  18.45800 -1.81600 22.19300
H  18.85700 -0.79900 23.53900
H  13.50700 -0.50400 23.81800
H  14.39100 -1.94200 23.10900
H  14.93900 0.11900 21.39300
H  13.18400 0.18300 21.58100
H  14.15800 -1.26700 21.12500
H  13.06000 2.72200 25.77400
H  13.46500 4.17000 26.79200
H  12.05600 3.12600 27.14600
H  14.06500 1.60800 32.01200
H  15.95400 3.70600 34.68700
H  14.38200 4.41000 34.96200
H  15.53300 5.32000 33.97400
Mg 29.94900 57.50700 39.75400
C  27.10900 55.61400 38.90900
C  31.93200 54.74300 39.04300
C  32.59700 59.63600 39.53000
C  27.78000 60.45800 39.93000
N  29.57300 55.52100 39.06000
C  28.31300 54.92900 38.90900
C  28.41700 53.47100 38.58000
C  29.91900 53.09800 38.91300
C  30.54100 54.52300 39.01400
C  30.22500 52.22400 40.15600
C  27.98100 53.10900 37.18400
C  28.59800 53.97600 36.03400
H  27.69600 54.74000 35.02600
N  31.95700 57.23200 39.34200
C  32.58500 55.97700 39.10400
C  33.97400 56.24500 39.02000
C  34.19400 57.64100 39.11400
C  32.83900 58.25700 39.40200
C  34.98600 55.05500 38.86100
C  35.58300 58.23900 39.04800
O  36.52700 57.49400 38.90400
C  35.79800 59.71200 39.18000
N  30.16700 59.74800 39.72100
C  31.34500 60.35200 39.75200
C  31.25600 61.80600 40.11200
C  29.68900 62.05800 40.19400
C  29.12400 60.66800 39.95500
C  32.04800 62.23300 41.37400
C  29.11000 63.26200 39.35800
C  29.76500 64.64500 39.67000
N  27.89900 57.93400 39.70300
C  27.19200 59.15800 39.86000
C  25.78800 58.80900 39.83100
C  25.70500 57.42200 39.40800
C  27.02200 56.99200 39.33200
C  24.61000 59.82600 39.92800
C  24.76900 56.41100 38.95000
O  23.51300 56.36100 38.90500
C  25.65300 55.06200 38.75800
C  25.20900 54.08000 39.82700
O  25.54500 54.11500 40.98700
O  24.25700 53.28700 39.27300
C  23.59400 52.40000 40.16700
H  32.47300 53.82400 38.80900
H  33.42100 60.35100 39.47000
H  27.11400 61.32200 39.99100
H  27.78800 52.91800 39.27900
H  30.36600 52.54700 38.08600
H  31.11300 51.63200 39.93300
H  29.39300 51.57200 40.42400
H  30.43300 52.88100 41.00000
H  26.89300 53.05800 37.14700
H  28.32200 52.08400 37.03600
H  29.28400 53.36800 35.44300
H  29.18900 54.82900 36.36700
H  34.64500 54.34400 38.10900
H  35.11900 54.51500 39.79900
H  35.92800 55.34500 38.39600
H  35.14200 60.24900 38.49500
H  36.78800 59.95200 38.79300
H  35.72600 60.00000 40.22900
H  31.55800 62.41300 39.25900
H  29.40500 62.37500 41.19700
H  32.54600 61.36300 41.80100
H  31.38600 62.62200 42.14800
H  32.79700 62.99700 41.16600
H  28.09000 63.45900 39.68900
H  29.28500 63.06000 38.30100
H  30.79100 64.43700 39.97400
H  29.36700 65.20600 40.51600
H  29.77600 65.25300 38.76500
H  25.07100 60.70600 40.37700
H  23.79800 59.44300 40.54500
H  24.20700 60.10400 38.95400
H  25.40000 54.71900 37.75400
H  24.25600 51.88800 40.86600
H  22.99200 51.67900 39.61500
H  22.94500 53.04400 40.76100

