158

Mg -1.63200 17.73700 26.68600
C  -2.15700 15.66200 29.36300
C  -2.40300 20.35400 28.68800
C  -1.55500 19.87300 23.92700
C  -1.37000 15.01900 24.59200
N  -2.30900 17.92000 28.80000
C  -2.35600 16.94100 29.75700
C  -2.83400 17.43300 31.12800
C  -3.13000 19.00400 30.78300
C  -2.52100 19.12200 29.36400
C  -4.57500 19.54300 30.97200
C  -1.70700 17.27900 32.21000
C  -2.04700 16.48800 33.42100
H  -1.13100 16.54600 34.63600
N  -1.95100 19.78900 26.37000
C  -2.19300 20.67800 27.34500
C  -2.08900 22.00300 26.85700
C  -1.79800 21.92700 25.45200
C  -1.77100 20.50400 25.19600
C  -2.36100 23.22800 27.67000
C  -1.63300 23.01100 24.45900
O  -1.44700 22.85900 23.28300
C  -1.58600 24.39100 24.79900
N  -1.53600 17.46400 24.57500
C  -1.53100 18.49000 23.63400
C  -1.47300 17.89600 22.21200
C  -1.08100 16.41100 22.47300
C  -1.27300 16.22100 23.99300
C  -2.78700 18.06300 21.45000
C  0.31200 15.94300 21.90200
C  1.55700 16.49000 22.69600
N  -1.59300 15.71400 26.94300
C  -1.49000 14.73200 26.01000
C  -1.65500 13.43800 26.60400
C  -1.89300 13.74000 27.95100
C  -1.85300 15.15500 28.09700
C  -1.77100 12.16000 25.76800
C  -2.14900 13.15800 29.27400
O  -2.26600 11.96800 29.61200
C  -2.20200 14.40600 30.23800
C  -1.04400 14.20500 31.15900
O  0.10200 14.56300 30.97000
O  -1.39200 13.43600 32.25100
C  -0.42300 13.24900 33.29500
H  -2.53500 21.20300 29.36100
H  -1.46000 20.61400 23.13100
H  -1.25100 14.21600 23.86100
H  -3.74300 16.89200 31.39000
H  -2.57200 19.70000 31.40900
H  -4.85500 19.76100 29.94100
H  -4.45400 20.51100 31.45900
H  -5.37900 18.94100 31.39500
H  -1.35700 18.25400 32.54700
H  -0.90900 16.82300 31.62300
H  -2.27800 15.44600 33.20100
H  -2.92900 16.89100 33.92000
H  -3.36700 23.57600 27.43700
H  -1.51900 23.89100 27.47300
H  -2.23000 23.14100 28.74900
H  -1.49500 25.02800 23.92000
H  -0.77800 24.49100 25.52400
H  -2.58100 24.44200 25.24200
H  -0.69900 18.48700 21.72200
H  -1.80000 15.71700 22.03800
H  -3.41600 18.82500 21.91100
H  -3.29500 17.10200 21.36700
H  -2.57700 18.54100 20.49300
H  0.27800 16.31500 20.87800
H  0.36500 14.86000 21.78700
H  1.33200 17.01600 23.62400
H  2.17400 17.13200 22.06800
H  2.28400 15.72800 22.97700
H  -2.81700 12.02800 25.48700
H  -1.62700 11.23300 26.32400
H  -1.05000 12.15600 24.95100
H  -3.14600 14.38500 30.78300
H  0.28300 14.07900 33.31400
H  0.08800 12.28700 33.23700
H  -1.08900 13.12300 34.14900
Mg 6.89900 53.97800 41.13500
C  6.12100 50.60500 41.08100
C  10.09200 53.21100 39.96900
C  7.42100 57.31400 40.13600
C  3.65800 54.66400 42.00700
N  7.85200 52.14300 40.30200
C  7.36800 50.88300 40.47300
C  8.36100 49.86600 39.90500
C  9.68100 50.59200 40.03800
C  9.20500 52.08500 40.10800
C  10.60800 50.31500 41.30600
C  8.01500 49.27500 38.49000
C  8.21200 50.29200 37.33700
H  6.94000 50.59400 36.57000
N  8.55700 55.10000 40.22400
C  9.76700 54.60500 39.89600
C  10.60400 55.69300 39.48000
C  9.85100 56.85200 39.39600
C  8.50200 56.43900 39.97000
C  12.02200 55.40700 39.17400
C  10.26300 58.25900 38.88300
O  11.43400 58.37700 38.43600
C  9.37000 59.47700 39.03200
N  5.74100 55.75000 41.16700
C  6.17400 57.00200 40.87400
C  4.98500 58.02300 41.03900
C  3.89200 57.15500 41.68100
C  4.41700 55.75100 41.63900
C  5.26700 59.43200 41.64000
C  2.55200 57.30400 40.90400
C  1.38900 57.93700 41.66600
N  5.24700 52.86700 41.63100
C  3.94300 53.26300 41.98900
C  3.13400 52.14400 42.25200
C  4.01200 51.06800 41.97400
C  5.25500 51.56500 41.57800
C  1.68300 52.14800 42.51900
C  4.07500 49.59300 41.93600
O  3.23500 48.79100 42.32100
C  5.51900 49.24700 41.37300
C  5.17100 48.42700 40.15800
O  4.63700 48.87600 39.15900
O  5.53900 47.12100 40.33400
C  5.36000 46.11900 39.24300
H  11.08700 52.92800 39.62000
H  7.38700 58.35200 39.79900
H  2.58800 54.79600 42.18100
H  8.24400 48.95900 40.49700
H  10.32600 50.51900 39.16200
H  11.62700 50.29100 40.91900
H  10.29600 49.38000 41.77100
H  10.45500 51.14900 41.99200
H  7.05700 48.75600 38.52300
H  8.64700 48.43200 38.21200
H  9.05700 49.91300 36.76300
H  8.52500 51.25000 37.75300
H  12.16400 54.81400 38.27100
H  12.38200 54.93200 40.08700
H  12.70400 56.24200 39.01600
H  9.95900 60.28900 38.60500
H  9.13700 59.54100 40.09500
H  8.46600 59.32000 38.44400
H  4.68600 58.21000 40.00700
H  3.74500 57.43100 42.72500
H  4.62600 59.63700 42.49700
H  5.17900 60.13200 40.80900
H  6.28300 59.59900 41.99800
H  2.22100 56.34400 40.50600
H  2.73200 57.92000 40.02300
H  0.76400 57.13100 42.05100
H  0.80000 58.52100 40.95900
H  1.76200 58.50200 42.52000
H  1.24600 52.98600 41.97600
H  1.36500 52.18100 43.56100
H  1.13300 51.26600 42.18900
H  6.02200 48.80000 42.23000
H  6.32900 45.81500 38.84800
H  4.83100 46.52100 38.37900
H  4.86500 45.17300 39.46500

