158

Mg 35.91300 2.04100 30.52900
C  33.24900 3.11000 32.59400
C  38.04800 2.73000 33.10900
C  38.40500 1.02100 28.44900
C  33.61000 2.05100 27.78800
N  35.65400 2.80200 32.60600
C  34.46600 3.15800 33.28000
C  34.70300 3.26700 34.84000
C  36.25100 3.31300 34.89400
C  36.71400 2.92000 33.46400
C  36.89600 4.69100 35.35800
C  34.09000 2.10300 35.63200
C  33.80700 2.24900 37.11300
H  34.21000 3.57800 37.76000
N  37.91100 1.86800 30.72100
C  38.59300 2.09200 31.91400
C  39.90400 1.57100 31.76400
C  40.08700 1.20500 30.36300
C  38.77300 1.39900 29.76500
C  40.96900 1.50400 32.85900
C  41.29400 0.70900 29.65200
O  41.29700 0.66200 28.43700
C  42.71700 0.41200 30.32900
N  36.02200 1.60500 28.48300
C  37.16600 1.11900 27.86900
C  36.81200 0.74500 26.39900
C  35.34500 1.10900 26.21100
C  34.91800 1.60900 27.60600
C  37.76300 1.24800 25.30800
C  34.42600 -0.14100 25.76600
C  33.21400 0.11200 24.89400
N  33.75900 2.43000 30.20500
C  33.02300 2.43600 29.03400
C  31.56300 2.77200 29.37500
C  31.68100 3.02700 30.73300
C  33.01200 2.90800 31.18800
C  30.30000 2.78900 28.47000
C  30.88500 3.33900 31.94500
O  29.68800 3.51900 32.11400
C  31.89400 3.42300 33.08300
C  31.74400 4.75600 33.72200
O  32.19600 5.86000 33.34400
O  31.17900 4.49200 34.95200
C  30.88900 5.69700 35.71400
H  38.77200 2.74000 33.92600
H  39.19000 0.74300 27.74300
H  33.14900 2.18900 26.80800
H  34.39200 4.23500 35.23200
H  36.56300 2.45300 35.48600
H  36.13500 5.44100 35.57500
H  37.50000 5.12700 34.56100
H  37.66000 4.59400 36.12900
H  34.71500 1.22500 35.46700
H  33.10500 2.04300 35.16800
H  34.27500 1.46100 37.70400
H  32.74600 2.00700 37.17500
H  41.54300 0.57900 32.90800
H  40.50600 1.90000 33.76300
H  41.71100 2.25700 32.59300
H  43.39400 0.46800 29.47600
H  42.66000 -0.53600 30.86300
H  43.04500 1.19700 31.01100
H  36.84800 -0.33500 26.53900
H  35.21100 1.97600 25.56500
H  38.73900 1.68100 25.52500
H  37.17900 1.96100 24.72600
H  38.02800 0.39900 24.67800
H  34.06000 -0.67700 26.64100
H  35.09100 -0.77100 25.17600
H  33.39800 -0.37400 23.93500
H  32.95200 1.15500 24.71600
H  32.36800 -0.38900 25.36500
H  30.11500 1.84300 27.96100
H  30.36500 3.59300 27.73700
H  29.45500 2.99000 29.12900
H  31.61100 2.64600 33.79400
H  31.71200 6.41100 35.73300
H  30.63400 5.53300 36.76100
H  29.96700 6.11000 35.30500
Mg 47.90700 16.38600 29.35900
C  45.94800 15.68000 32.10500
C  49.98300 18.18600 31.44900
C  49.63500 17.45100 26.61700
C  45.46400 15.10300 27.21500
N  47.76700 17.00400 31.49800
C  47.03600 16.45900 32.49400
C  47.51200 16.88500 33.92500
C  48.58100 17.92500 33.63700
C  48.79300 17.74500 32.07800
C  48.16200 19.38300 33.93900
C  47.90700 15.69000 34.87500
C  47.12800 15.58000 36.21600
H  46.79800 16.82800 37.01700
N  49.62500 17.57200 29.09700
C  50.46200 18.04600 30.08100
C  51.75600 18.39900 29.51700
C  51.59200 18.21200 28.08800
C  50.23800 17.74600 27.85000
C  52.97400 18.88300 30.28900
C  52.60000 18.50900 27.00400
O  52.43300 18.24200 25.81700
C  53.95400 19.09000 27.44900
N  47.54500 16.26300 27.18500
C  48.39900 16.82700 26.31500
C  48.04300 16.59200 24.84300
C  46.68400 15.77900 25.06100
C  46.55200 15.62000 26.58700
C  47.84100 17.81600 23.99300
C  46.61200 14.40000 24.42000
C  45.13400 13.78100 24.10800
N  46.11800 15.51100 29.58300
C  45.25300 14.97300 28.63300
C  44.18200 14.24000 29.29700
C  44.36000 14.57700 30.65500
C  45.55300 15.37600 30.77800
C  43.02600 13.50100 28.53800
C  43.76800 14.43400 31.96000
O  42.75200 13.83400 32.37300
C  44.78000 15.14800 32.95800
C  43.85300 16.12000 33.78700
O  43.55500 17.23600 33.44900
O  43.55900 15.68600 35.04700
C  42.71400 16.58300 35.86200
H  50.70600 18.69800 32.08700
H  50.20700 17.75200 25.73600
H  44.58300 14.80700 26.64100
H  46.65900 17.46300 34.27800
H  49.55800 17.64500 34.03000
H  48.96100 19.73600 34.59200
H  47.22900 19.53300 34.48200
H  48.04400 19.93500 33.00700
H  48.94400 15.80200 35.19200
H  47.97200 14.76700 34.29900
H  47.75200 14.93900 36.83800
H  46.24700 14.96500 36.02900
H  52.79100 18.94000 31.36200
H  53.23100 19.91100 30.03300
H  53.80000 18.18900 30.13400
H  54.53700 18.43700 28.09900
H  53.83900 20.10400 27.83200
H  54.61000 19.35100 26.61900
H  48.78800 15.86800 24.51100
H  45.79300 16.30900 24.72500
H  48.34700 18.61800 24.53100
H  46.82600 17.94300 23.61600
H  48.49700 17.77200 23.12400
H  47.11200 13.59300 24.95700
H  47.05300 14.50200 23.42900
H  44.98400 12.79100 24.53800
H  44.91400 13.66400 23.04700
H  44.31000 14.34000 24.55200
H  43.15000 12.41900 28.48200
H  42.74700 13.88900 27.55800
H  42.12000 13.57200 29.13800
H  45.08900 14.46500 33.74900
H  41.89100 17.05300 35.32300
H  43.32500 17.33900 36.35400
H  42.28800 15.90900 36.60500

