158

Mg 47.04800 25.79600 29.37200
C  48.32000 27.87900 32.02900
C  45.78700 23.77600 32.02200
C  46.50100 23.33300 27.22800
C  48.65400 27.73100 27.11000
N  46.76400 25.94300 31.72900
C  47.54600 26.81400 32.53700
C  47.18300 26.56100 34.04900
C  46.63500 25.07300 34.05000
C  46.44000 24.84600 32.53300
C  47.63900 24.10400 34.80400
C  46.21400 27.57600 34.70700
C  46.61000 28.17200 36.15400
H  45.48900 28.17400 37.20600
N  45.95700 23.90100 29.54400
C  45.63600 23.20500 30.73800
C  44.92500 21.97100 30.29200
C  44.95500 21.94800 28.86300
C  45.84800 23.06800 28.48900
C  44.29600 21.05100 31.33000
C  44.31400 21.01900 27.82500
O  44.53900 21.21400 26.64500
C  43.55300 19.70500 28.28300
N  47.60300 25.51800 27.49800
C  47.22400 24.43000 26.81400
C  47.77400 24.51700 25.36200
C  48.09200 26.06000 25.19300
C  48.14000 26.45500 26.72000
C  49.02100 23.57700 25.27100
C  47.09300 26.88500 24.41400
C  47.27400 26.85900 22.89500
N  48.15000 27.53700 29.46800
C  48.81900 28.26100 28.37900
C  49.55300 29.34600 28.97200
C  49.34600 29.23000 30.37100
C  48.51000 28.11100 30.63400
C  50.37600 30.37000 28.29500
C  49.72700 29.89100 31.65300
O  50.44900 30.83200 31.86000
C  48.93700 29.07400 32.79800
C  49.93500 28.70800 33.85600
O  50.97600 27.95400 33.72600
O  49.68200 29.36000 35.07000
C  50.70100 29.32300 36.12200
H  45.30300 23.24400 32.84400
H  46.33200 22.55000 26.48500
H  49.10700 28.31100 26.30300
H  48.13400 26.68100 34.56800
H  45.63600 25.09400 34.48600
H  47.23300 23.91900 35.79800
H  48.64500 24.52500 34.81200
H  47.71600 23.15300 34.27800
H  45.15800 27.31000 34.65500
H  46.16800 28.41300 34.01000
H  46.84800 29.22700 36.01400
H  47.44300 27.52700 36.43200
H  44.24900 20.03700 30.93300
H  43.25900 21.31400 31.53900
H  44.91300 21.05700 32.22800
H  44.22900 19.10100 28.88800
H  43.51200 19.23800 27.30000
H  42.59100 20.07300 28.64000
H  46.93400 24.42600 24.67300
H  49.08800 26.18400 24.76800
H  49.86100 24.20700 24.97700
H  48.83000 22.81300 24.51800
H  49.24500 22.97300 26.15000
H  47.29800 27.87800 24.81700
H  46.06700 26.65000 24.69600
H  46.43000 26.87200 22.20500
H  47.90100 26.02100 22.59000
H  47.78800 27.74300 22.51900
H  51.28700 30.45600 28.88800
H  49.91200 31.35300 28.21000
H  50.61700 30.08900 27.27000
H  48.28000 29.80800 33.26400
H  50.24200 28.58300 36.77800
H  50.97500 30.29000 36.54500
H  51.63200 28.85500 35.80000
Mg 7.43300 52.16300 40.92300
C  6.99200 48.64900 40.81800
C  10.81300 51.58000 40.54100
C  7.83000 55.43700 40.39000
C  4.01900 52.45200 41.16300
N  8.74400 50.28600 40.51400
C  8.29300 49.00000 40.50400
C  9.49900 48.10200 40.26400
C  10.71600 49.07800 40.55600
C  10.05100 50.40300 40.47200
C  11.53300 48.85000 41.85000
C  9.56800 47.45400 38.92100
C  9.39100 48.37100 37.64600
H  8.24700 48.28000 36.62600
N  9.07800 53.35900 40.36900
C  10.38500 52.93900 40.38400
C  11.25100 54.13300 40.26600
C  10.44200 55.25900 40.16600
C  9.04000 54.73400 40.30400
C  12.67500 53.90000 40.14400
C  10.84400 56.71900 39.97000
O  12.02600 57.01000 39.92300
C  9.93600 57.86700 39.79500
N  6.08900 53.71400 40.61700
C  6.54200 55.00900 40.45500
C  5.32300 55.96000 40.72000
C  4.10400 55.00800 40.92200
C  4.72600 53.62900 40.81800
C  5.55300 56.94400 41.90300
C  3.00400 55.20800 39.86400
C  2.06400 56.40800 39.99700
N  5.73900 50.86100 41.07500
C  4.43800 51.17800 41.30300
C  3.72300 49.91300 41.56600
C  4.64800 48.92900 41.35200
C  5.91200 49.54000 41.04700
C  2.30000 49.63600 42.14900
C  4.86300 47.57600 41.38000
O  4.09400 46.65400 41.63500
C  6.35500 47.25800 40.99700
C  6.38200 46.40700 39.75400
O  6.22200 46.76700 38.60700
O  6.59700 45.07900 40.11400
C  6.48900 44.21500 38.97500
H  11.89500 51.58200 40.68900
H  7.88600 56.52400 40.30800
H  2.95200 52.56100 41.36800
H  9.45900 47.25700 40.95200
H  11.34000 49.04900 39.66200
H  11.27800 49.44600 42.72600
H  12.60700 48.84100 41.66300
H  11.32400 47.78500 41.94800
H  8.87700 46.61200 38.96800
H  10.56600 47.01600 38.90300
H  10.21700 48.04900 37.01300
H  9.57000 49.41500 37.90300
H  12.87800 53.28300 39.26900
H  13.25600 53.42000 40.93100
H  13.23600 54.81900 39.97500
H  9.65500 58.13100 40.81500
H  9.09400 57.73200 39.11700
H  10.53300 58.65400 39.33500
H  5.36600 56.47200 39.75900
H  3.70100 55.03400 41.93400
H  4.97300 56.53900 42.73100
H  5.20600 57.95200 41.67200
H  6.57800 57.05200 42.25800
H  2.29500 54.38100 39.90100
H  3.48900 55.13100 38.89100
H  0.99000 56.29800 40.14400
H  2.14600 57.00800 39.09100
H  2.57700 56.93500 40.80200
H  1.55800 49.62700 41.35000
H  1.99000 50.44600 42.80900
H  2.40600 48.70200 42.70200
H  6.98300 46.69100 41.68400
H  7.34600 44.28200 38.30600
H  5.54300 44.35800 38.45200
H  6.52900 43.26500 39.50800

