158

Mg 40.43100 9.36600 29.17200
C  42.06100 10.52500 32.12200
C  38.06000 7.85300 31.12600
C  39.01400 7.86600 26.23600
C  43.05900 10.58600 27.35200
N  40.24900 9.07500 31.42500
C  40.91200 9.80300 32.40700
C  40.13200 9.73800 33.79000
C  38.97800 8.76200 33.45000
C  39.08000 8.46500 31.92800
C  38.99700 7.39200 34.27600
C  39.71900 11.15500 34.34600
C  39.61900 11.22500 35.85700
H  40.64100 12.03200 36.58800
N  38.72400 8.10800 28.73000
C  37.89700 7.65700 29.74700
C  36.86400 6.87000 29.12700
C  37.06700 6.94900 27.67200
C  38.26900 7.71600 27.47000
C  35.90900 6.06200 29.96200
C  36.28000 6.39700 26.56500
O  36.47400 6.70500 25.38200
C  35.18200 5.45100 26.87800
N  40.89300 9.28000 27.17000
C  40.26500 8.56300 26.16800
C  41.11000 8.56500 24.82100
C  42.13200 9.66600 25.19000
C  42.08000 9.91200 26.65800
C  41.68300 7.27100 24.24700
C  42.04600 10.88500 24.32600
C  40.88600 11.90900 24.55100
N  42.25300 10.23200 29.61500
C  43.16600 10.78100 28.74700
C  44.11100 11.55000 29.46700
C  43.72700 11.52600 30.78500
C  42.62200 10.64600 30.82500
C  45.31400 12.19300 28.94700
C  44.03500 11.99700 32.13600
O  44.84700 12.80200 32.60700
C  42.90000 11.33900 33.06500
C  43.64100 10.49300 34.10000
O  44.23100 9.40300 33.91300
O  43.46400 11.03300 35.31300
C  43.77500 10.21900 36.48200
H  37.30800 7.38300 31.76300
H  38.68000 7.49100 25.26700
H  43.81500 10.98100 26.67000
H  40.88800 9.41100 34.50400
H  38.03700 9.29400 33.59000
H  39.80500 7.39300 35.00800
H  39.10000 6.56800 33.57000
H  38.04300 7.20800 34.77000
H  38.70400 11.43500 34.06700
H  40.41200 11.91400 33.98200
H  39.59900 10.22800 36.29600
H  38.66700 11.69300 36.11100
H  36.57100 5.22600 30.19100
H  35.08200 5.69800 29.35200
H  35.49200 6.56700 30.83300
H  34.77900 5.15900 25.90800
H  34.42000 6.07300 27.34700
H  35.40900 4.53500 27.42400
H  40.40000 8.87700 24.05600
H  43.15300 9.28300 25.17200
H  41.55000 6.51000 25.01500
H  42.74600 7.28900 24.00600
H  41.19600 6.92500 23.33500
H  41.93100 10.62500 23.27400
H  43.00900 11.39400 24.34800
H  41.33100 12.89600 24.68600
H  40.44400 11.55900 25.48300
H  40.14200 11.97200 23.75800
H  45.80900 11.32200 28.51900
H  45.87300 12.51600 29.82600
H  45.11300 12.98500 28.22600
H  42.42400 12.10900 33.67200
H  44.85800 10.20500 36.60300
H  43.47800 9.17600 36.37500
H  43.31700 10.56500 37.40800
Mg 48.38500 35.26000 27.43900
C  46.40500 33.98400 30.07400
C  49.02200 38.03100 29.39700
C  49.47200 36.83200 24.71400
C  47.60600 32.42500 25.61600
N  47.84100 35.84300 29.52000
C  47.11000 35.13700 30.36000
C  47.38700 35.66700 31.82000
C  47.72700 37.19100 31.52600
C  48.26800 37.04600 30.06200
C  46.55000 38.12400 31.79200
C  48.62900 34.94600 32.51800
C  48.68300 35.18000 34.02000
H  47.60500 36.09600 34.65000
N  49.17800 37.18000 27.08900
C  49.32700 38.10500 27.97300
C  49.85900 39.27200 27.37100
C  50.05400 38.95700 25.98600
C  49.55700 37.63600 25.86100
C  50.19800 40.53200 28.11100
C  50.74200 39.69900 24.93000
O  50.82000 39.25900 23.77600
C  51.29900 40.99100 25.29000
N  48.67500 34.66000 25.55200
C  49.10900 35.46300 24.54000
C  49.44400 34.51800 23.31300
C  49.11400 33.05200 23.75700
C  48.36400 33.38600 25.03600
C  48.82800 34.96000 21.99500
C  50.37400 32.08200 24.08500
C  50.14000 30.64600 23.54400
N  47.29000 33.61300 27.70600
C  47.06600 32.52400 26.90700
C  46.20900 31.57000 27.52200
C  45.91200 32.08700 28.76600
C  46.58600 33.31300 28.79500
C  45.85100 30.23600 27.01400
C  45.18600 31.89800 29.95500
O  44.48200 30.96000 30.27500
C  45.39700 33.10200 30.88100
C  45.67200 32.76600 32.30700
O  46.76300 32.30300 32.72800
O  44.60200 32.97700 33.07800
C  44.65000 32.58300 34.49700
H  49.25300 38.90000 30.01700
H  49.87700 37.21500 23.77500
H  47.43100 31.51700 25.03400
H  46.45200 35.50700 32.35700
H  48.55400 37.50000 32.16500
H  45.87000 37.64600 32.49600
H  46.02200 38.40000 30.87900
H  47.02600 38.96700 32.29400
H  49.56000 35.35700 32.12600
H  48.67300 33.86900 32.35600
H  49.71700 35.45100 34.23300
H  48.56400 34.21200 34.50800
H  51.26700 40.73400 28.04400
H  49.85400 40.52200 29.14500
H  49.75700 41.40200 27.62600
H  50.59200 41.67700 25.75700
H  51.62800 41.45900 24.36200
H  52.16300 40.77700 25.91900
H  50.51900 34.67800 23.23300
H  48.39800 32.56500 23.09400
H  49.64700 34.90300 21.27800
H  48.27900 35.90200 22.01000
H  48.18100 34.29300 21.42500
H  50.80300 32.19000 25.08100
H  51.03400 32.51400 23.33400
H  49.12800 30.52800 23.15800
H  50.18500 29.94000 24.37300
H  50.88600 30.33000 22.81400
H  45.74800 30.14900 25.93200
H  44.87600 30.07700 27.47500
H  46.53700 29.49800 27.43000
H  44.46400 33.66400 30.90300
H  44.28800 33.35600 35.17500
H  45.67300 32.49100 34.86000
H  44.08200 31.66300 34.63200

