158

Mg 9.03500 2.85300 26.97100
C  10.05700 1.47600 30.02500
C  6.79100 4.70300 28.71700
C  7.97300 4.07200 24.06600
C  10.87000 0.25400 25.31800
N  8.44600 3.00200 29.18500
C  9.08500 2.45400 30.21800
C  8.64300 3.14700 31.51500
C  7.43500 4.03100 30.99800
C  7.54200 3.90100 29.53000
C  5.97600 3.59600 31.55400
C  9.78000 3.92600 32.30500
C  9.55200 4.35600 33.77200
H  10.34700 3.82500 34.99900
N  7.57800 4.28000 26.48000
C  6.73300 4.88900 27.31700
C  5.98700 5.91300 26.61800
C  6.29900 5.71100 25.26400
C  7.33700 4.66900 25.20400
C  5.19100 6.99500 27.27300
C  5.82500 6.50800 24.09600
O  6.20700 6.41200 22.96200
C  4.77000 7.62200 24.34500
N  9.23100 2.10600 24.98400
C  8.77300 2.90800 23.93600
C  9.25400 2.35800 22.62600
C  10.06600 1.11300 22.98400
C  10.09200 1.15300 24.51100
C  8.18700 2.14100 21.50300
C  11.50200 1.19600 22.41900
C  11.76000 0.58900 21.05600
N  10.20800 1.25000 27.50400
C  10.93500 0.33800 26.69800
C  11.68200 -0.59000 27.53400
C  11.36000 -0.16000 28.85600
C  10.38500 0.90500 28.75200
C  12.65800 -1.72000 27.12400
C  11.56900 -0.41600 30.23700
O  12.22600 -1.25700 30.79200
C  10.79400 0.68200 31.05800
C  10.05400 -0.06500 32.11700
O  9.22000 -0.94200 31.83300
O  10.38200 0.33200 33.41300
C  9.81600 -0.27200 34.59600
H  6.14700 5.40200 29.25400
H  7.74100 4.62700 23.15500
H  11.48000 -0.43100 24.72600
H  8.24700 2.38100 32.18200
H  7.69500 5.05900 31.24900
H  6.16100 3.08500 32.49800
H  5.40300 2.92200 30.91700
H  5.28200 4.41800 31.73000
H  10.13400 4.71400 31.64100
H  10.59100 3.19800 32.28800
H  8.49900 4.21200 34.01200
H  9.70900 5.43500 33.79500
H  5.72700 7.92000 27.06300
H  4.92600 6.74600 28.30100
H  4.20100 6.96300 26.81800
H  5.15200 8.55100 24.76800
H  3.88000 7.20700 24.81700
H  4.37400 7.87600 23.36200
H  9.96200 3.07100 22.20200
H  9.50000 0.22800 22.69300
H  8.34000 2.89400 20.73000
H  7.22800 2.24300 22.01100
H  8.34200 1.12800 21.13200
H  12.20100 0.62000 23.02500
H  11.89200 2.21100 22.50200
H  10.84900 0.84800 20.51800
H  11.89600 -0.48300 21.19700
H  12.68100 0.91600 20.57300
H  12.62800 -1.78300 26.03600
H  12.46600 -2.59300 27.74700
H  13.62500 -1.30600 27.40800
H  11.55600 1.29500 31.53900
H  10.58800 -0.92700 35.00000
H  8.99600 -0.96800 34.42000
H  9.55600 0.57800 35.22600
Mg 48.27600 44.60900 43.80500
C  44.79700 44.25300 43.39300
C  48.57000 41.14300 43.34800
C  51.59100 44.95300 43.49600
C  47.81400 48.06400 43.78000
N  46.80600 42.87700 43.36600
C  45.43900 42.98600 43.46500
C  44.74500 41.59400 43.38300
C  45.97000 40.63500 43.77800
C  47.22300 41.58000 43.54800
C  46.02100 40.05900 45.17900
C  44.11400 41.08700 42.14300
C  44.32900 41.81900 40.72300
H  45.07800 41.03900 39.67500
N  49.81500 43.25300 43.37400
C  49.74800 41.86200 43.39000
C  51.07200 41.29100 43.25200
C  51.99400 42.40500 43.24900
C  51.11200 43.61700 43.39100
C  51.43600 39.89100 42.96700
C  53.47900 42.28200 42.99100
O  54.03000 41.24100 42.95100
C  54.42100 43.44700 42.87900
N  49.52100 46.20500 43.76100
C  50.89100 46.11800 43.78000
C  51.49700 47.51400 43.79900
C  50.37200 48.51100 44.02500
C  49.14100 47.57100 43.80000
C  52.72600 47.75700 44.67200
C  50.38400 49.88100 43.20200
C  49.79000 51.06300 43.94200
N  46.68100 45.96500 43.66500
C  46.65300 47.32400 43.74200
C  45.29300 47.82600 43.59600
C  44.56400 46.65100 43.44500
C  45.43300 45.51100 43.49400
C  44.90700 49.29900 43.73700
C  43.20900 46.11200 43.39600
O  42.17000 46.70300 43.35800
C  43.30600 44.58300 43.40900
C  42.62700 44.06400 44.66300
O  41.60800 43.37200 44.69900
O  43.23700 44.50600 45.79600
C  42.88700 43.86200 47.04700
H  48.63400 40.05400 43.30800
H  52.67700 45.05800 43.48000
H  47.81100 49.14000 43.96800
H  44.05200 41.66700 44.22100
H  46.08000 39.76100 43.13500
H  45.29000 40.56200 45.81200
H  46.99200 40.15800 45.66300
H  45.66300 39.03400 45.07900
H  43.04800 41.04300 42.36500
H  44.38900 40.06300 41.89100
H  44.93200 42.69500 40.96200
H  43.40400 42.15900 40.25800
H  52.05300 40.00300 42.07600
H  50.56800 39.28800 42.70200
H  51.85100 39.42600 43.86200
H  53.90600 44.13300 42.20600
H  55.26600 43.21100 42.23200
H  54.58600 43.80100 43.89700
H  51.92400 47.64800 42.80500
H  50.43300 48.69400 45.09800
H  53.63600 47.64700 44.08200
H  52.80900 47.26600 45.64100
H  52.75900 48.83100 44.85500
H  49.67500 49.91300 42.37400
H  51.33400 50.11200 42.72000
H  49.56900 50.82900 44.98400
H  48.83900 51.33200 43.48300
H  50.43500 51.93100 43.80900
H  44.93900 49.74800 42.74500
H  45.63800 49.71600 44.43000
H  43.90800 49.27500 44.17200
H  42.61300 44.20000 42.66000
H  43.75500 43.82400 47.70600
H  42.50700 42.84000 47.03900
H  42.15800 44.47100 47.58200

