158

Mg 47.94900 15.38700 28.51000
C  45.71500 14.99000 31.01400
C  50.05300 17.13200 30.56800
C  49.88800 15.94700 25.76600
C  45.44000 14.09600 26.26100
N  47.92800 15.97300 30.47000
C  46.96400 15.54600 31.40400
C  47.28700 16.16500 32.78500
C  48.59000 17.00000 32.58300
C  48.87000 16.68900 31.14400
C  48.48400 18.54100 32.96800
C  47.27900 15.03900 33.90400
C  46.46900 15.42200 35.21800
H  46.50500 16.89800 35.68100
N  49.82400 16.30000 28.27800
C  50.59000 16.92100 29.24900
C  51.83800 17.34600 28.67200
C  51.75900 17.06500 27.26100
C  50.41800 16.43600 27.03400
C  52.98400 17.92500 29.49200
C  52.75400 17.17400 26.05400
O  52.54000 16.78300 24.94300
C  54.03400 17.88900 26.41300
N  47.67700 15.03200 26.30800
C  48.67700 15.38400 25.39800
C  48.32700 15.09000 23.92600
C  46.97100 14.40400 24.11000
C  46.62500 14.51500 25.62800
C  48.29300 16.32600 22.94200
C  46.77900 12.90200 23.76100
C  47.21500 11.82800 24.76800
N  45.97200 14.63300 28.58600
C  45.05600 14.17700 27.65500
C  43.84600 13.75700 28.30800
C  43.98800 14.05000 29.63800
C  45.28500 14.63200 29.76400
C  42.66500 13.21400 27.60100
C  43.37800 14.22200 30.94900
O  42.26600 13.90400 31.27500
C  44.43800 14.81600 31.86400
C  43.91400 16.08500 32.58300
O  43.87500 17.19400 32.08000
O  43.28800 15.62700 33.76900
C  42.31500 16.57700 34.36900
H  50.80400 17.50300 31.26900
H  50.44600 16.15000 24.84900
H  44.67500 13.66100 25.61400
H  46.48600 16.82900 33.11200
H  49.51400 16.50800 32.88800
H  47.44800 18.87600 32.93200
H  49.10600 18.96700 32.18100
H  48.90100 18.73800 33.95600
H  48.30300 14.91600 34.25500
H  46.92500 14.07700 33.53400
H  46.82600 14.80000 36.03900
H  45.42900 15.17800 35.00500
H  53.80900 17.22300 29.36900
H  52.83500 17.94400 30.57100
H  53.36000 18.89000 29.15000
H  54.55000 17.21900 27.10100
H  53.80400 18.83300 26.90600
H  54.73500 18.00800 25.58700
H  49.10600 14.42200 23.56000
H  46.27800 15.04100 23.56000
H  47.26500 16.53700 22.64700
H  48.88600 16.22000 22.03400
H  48.60700 17.16700 23.56000
H  47.31100 12.79700 22.81500
H  45.74100 12.69200 23.50300
H  47.90400 11.12000 24.30800
H  46.41600 11.21600 25.18500
H  47.84300 12.21800 25.56900
H  42.74300 13.45500 26.54100
H  41.78100 13.73900 27.96100
H  42.61300 12.14700 27.81600
H  44.62100 14.17000 32.72300
H  41.36100 16.60400 33.84400
H  42.67500 17.60200 34.46300
H  41.92800 16.15900 35.29800
Mg 48.92900 34.19100 27.02800
C  46.43800 33.00900 29.27900
C  49.42900 36.88200 28.98000
C  50.80200 35.47300 24.61100
C  47.96800 31.50500 24.92900
N  48.01900 34.83500 28.89100
C  47.14400 34.15900 29.71500
C  47.07400 34.81800 31.04400
C  47.76200 36.21900 30.73400
C  48.46200 35.98300 29.43400
C  46.85800 37.50300 30.63400
C  47.81500 33.91700 32.05400
C  47.48900 33.99300 33.54200
H  46.50900 34.94400 34.15600
N  50.11500 35.98200 26.82900
C  50.22200 36.92600 27.79900
C  51.19400 37.93900 27.42600
C  51.65000 37.53900 26.09000
C  50.82400 36.28700 25.74200
C  51.59500 39.11200 28.28100
C  52.80100 38.19000 25.17400
O  53.14100 37.65400 24.10700
C  53.58800 39.37800 25.72600
N  49.07400 33.65100 24.95000
C  50.13200 34.30800 24.28700
C  50.43000 33.63900 22.97600
C  49.68400 32.20100 23.15400
C  48.86800 32.42800 24.45600
C  49.72600 34.32700 21.69000
C  50.64600 30.94500 23.31100
C  52.14400 31.10400 22.99500
N  47.49500 32.55200 27.04200
C  47.18200 31.59100 26.12500
C  46.14900 30.67900 26.62800
C  45.79100 31.26400 27.80500
C  46.61000 32.35800 28.04300
C  45.53300 29.50500 25.86000
C  44.88200 31.13000 28.84900
O  44.01300 30.30900 29.06200
C  45.18300 32.30100 29.88400
C  45.48700 31.65200 31.14000
O  46.28600 30.74000 31.35100
O  44.60600 32.15100 31.99100
C  44.58200 31.53400 33.31000
H  49.62400 37.71300 29.66200
H  51.28700 35.92700 23.74400
H  47.75400 30.63200 24.30800
H  46.02700 34.77400 31.34500
H  48.48700 36.49400 31.50000
H  47.14700 38.20700 31.41500
H  45.87300 37.08700 30.84500
H  46.78700 37.98300 29.65800
H  48.87200 34.16700 31.95900
H  47.63300 32.86100 31.85400
H  48.40900 34.15400 34.10300
H  47.11000 33.00200 33.79200
H  50.87400 39.28500 29.08000
H  51.64200 40.08400 27.78900
H  52.56000 39.02700 28.78000
H  52.95000 40.25400 25.85000
H  54.24600 39.82200 24.97900
H  54.18800 39.22300 26.62300
H  51.50400 33.72900 22.81800
H  48.96400 32.01300 22.35700
H  49.96300 33.74400 20.80000
H  50.21200 35.29900 21.61300
H  48.65000 34.39100 21.85600
H  50.17600 30.06600 22.87000
H  50.68900 30.71400 24.37600
H  52.74900 31.65100 23.71900
H  52.16400 31.46400 21.96700
H  52.48400 30.07300 23.09600
H  44.88400 28.92800 26.51900
H  46.39700 28.92000 25.54600
H  44.95000 29.88700 25.02200
H  44.42200 33.08100 29.91000
H  45.58000 31.59000 33.74300
H  44.33600 30.47400 33.24300
H  43.92600 32.07800 33.98900

