158

Mg 2.74600 -2.41900 45.53200
C  5.81100 -1.02600 44.64900
C  1.26200 -0.04200 43.27800
C  -0.10000 -3.91700 45.60300
C  4.45200 -5.18600 46.79900
N  3.44000 -0.82600 44.05900
C  4.75200 -0.37700 43.97200
C  4.90700 0.80200 43.01300
C  3.42000 1.13100 42.67200
C  2.63600 0.06300 43.36300
C  2.94300 2.50700 43.13000
C  5.76600 0.49000 41.73700
C  7.07300 1.36000 41.59000
H  7.57800 1.59300 40.14000
N  0.76700 -1.90000 44.77100
C  0.40600 -0.93600 43.88600
C  -0.98500 -1.01600 43.60600
C  -1.46000 -2.18800 44.28100
C  -0.29800 -2.68100 44.95600
C  -1.74100 -0.15100 42.57800
C  -2.90000 -2.76900 44.20500
O  -3.76300 -2.26100 43.50300
C  -3.32100 -4.00500 45.04900
N  2.23400 -4.21700 46.23600
C  0.96900 -4.57800 46.19300
C  0.80000 -5.94200 46.86300
C  2.26800 -6.37800 47.22100
C  3.05500 -5.13900 46.78700
C  -0.12500 -6.04700 48.12900
C  2.73500 -7.75900 46.53000
C  2.40100 -8.99000 47.37500
N  4.68800 -2.96000 45.73600
C  5.22600 -4.11100 46.36000
C  6.64900 -3.88900 46.56700
C  6.84700 -2.63000 45.92300
C  5.68800 -2.18100 45.37700
C  7.68800 -4.69500 47.35700
C  7.86600 -1.68300 45.67300
O  9.04700 -1.66600 45.93200
C  7.28800 -0.61900 44.76200
C  7.42700 0.81800 45.33000
O  6.73400 1.34500 46.25400
O  8.47200 1.39700 44.75600
C  8.55400 2.84700 45.03200
H  0.77600 0.69200 42.63200
H  -1.01600 -4.50900 45.65900
H  4.94600 -5.98600 47.35400
H  5.44000 1.60000 43.52900
H  3.28400 1.12800 41.59100
H  2.12800 2.45400 43.85100
H  2.60400 3.07500 42.26400
H  3.83100 2.98600 43.54300
H  5.18800 0.61700 40.82100
H  6.11800 -0.54100 41.71900
H  7.79000 0.93500 42.29200
H  6.97600 2.34100 42.05600
H  -1.18800 0.76600 42.37700
H  -2.68300 0.27300 42.92500
H  -1.98200 -0.73400 41.68900
H  -2.86800 -4.92200 44.67200
H  -4.38500 -4.19800 44.91500
H  -3.03000 -3.85900 46.08900
H  0.32600 -6.59400 46.13000
H  2.37500 -6.56400 48.29000
H  -0.48600 -5.05800 48.41200
H  0.40300 -6.34100 49.03600
H  -0.90500 -6.79700 47.99500
H  3.75000 -7.83100 46.13900
H  1.98300 -7.77900 45.74100
H  1.32400 -9.15600 47.38400
H  2.65100 -8.79700 48.41900
H  2.91700 -9.88300 47.02400
H  7.74800 -5.67900 46.89300
H  7.43800 -4.85100 48.40700
H  8.68200 -4.26300 47.24600
H  7.71800 -0.64600 43.76100
H  7.56100 3.22500 44.78900
H  9.21400 3.30200 44.29300
H  8.90900 3.03100 46.04600
Mg 43.28800 42.81400 26.71500
C  42.10500 44.94700 29.29000
C  44.70900 40.64100 29.26100
C  44.73100 40.88800 24.36600
C  42.45500 45.17000 24.37900
N  43.31100 42.87500 29.02900
C  42.74300 43.76000 29.83500
C  43.05700 43.45500 31.27000
C  43.92800 42.11300 31.21800
C  43.91500 41.78600 29.70300
C  45.37000 42.27400 31.79200
C  41.71000 43.27300 31.98600
C  41.80300 43.04000 33.41600
H  40.82600 43.76400 34.37000
N  44.51800 40.99800 26.76800
C  44.95800 40.27000 27.93100
C  45.60500 39.09400 27.57600
C  45.53200 39.10900 26.16400
C  44.90500 40.32200 25.66700
C  46.12300 38.14500 28.62000
C  45.86800 38.04300 25.17000
O  45.73100 38.12200 23.96300
C  46.38400 36.71700 25.66900
N  43.67100 43.05400 24.63000
C  44.20200 42.07700 23.82500
C  44.37500 42.57800 22.39300
C  43.49400 43.88400 22.38600
C  43.12200 44.01600 23.83500
C  45.78300 42.79700 21.84800
C  42.25400 43.73800 21.47900
C  40.88500 43.31100 22.15900
N  42.34400 44.60400 26.79900
C  42.09600 45.50100 25.73100
C  41.52000 46.74300 26.22700
C  41.43800 46.53400 27.59900
C  41.99100 45.26300 27.88400
C  41.26200 47.95000 25.48400
C  41.04000 47.11700 28.88100
O  40.54700 48.20300 29.12200
C  41.42300 46.11400 29.96300
C  42.33800 46.74100 30.94400
O  43.31500 47.45700 30.61400
O  41.99100 46.42400 32.19700
C  42.88300 46.87500 33.24000
H  45.08500 40.08100 30.11900
H  45.12900 40.22000 23.59900
H  42.17300 45.90100 23.61900
H  43.64600 44.32500 31.55800
H  43.50400 41.37800 31.90300
H  45.26000 42.53100 32.84500
H  45.98500 42.97500 31.22600
H  45.87000 41.30700 31.74500
H  41.44000 42.38800 31.40900
H  40.93000 43.97000 31.67800
H  42.85100 43.24700 33.63100
H  41.49100 42.00000 33.52000
H  47.01900 38.46400 29.15300
H  46.49500 37.19200 28.24300
H  45.44100 37.83200 29.41000
H  45.72300 36.31500 26.43700
H  47.37900 36.79300 26.10800
H  46.37200 35.99200 24.85500
H  43.96800 41.75300 21.80900
H  44.16400 44.73300 22.24600
H  46.48200 42.53800 22.64300
H  46.07800 43.81300 21.58800
H  46.00600 42.20800 20.95800
H  42.46700 43.14200 20.59200
H  42.19800 44.70500 20.98000
H  40.41400 42.67600 21.40900
H  40.20200 44.11300 22.43800
H  41.10300 42.85500 23.12500
H  41.58500 47.78500 24.45600
H  41.80600 48.83100 25.82500
H  40.21700 48.25900 25.50400
H  40.53100 45.71100 30.44200
H  42.97600 47.95500 33.12900
H  43.87200 46.42600 33.14500
H  42.40700 46.61100 34.18500

