158

Mg 40.86700 8.57000 29.98800
C  42.49000 9.87100 32.85300
C  38.28100 7.45100 32.02500
C  39.20000 7.72600 27.27100
C  43.49000 9.81400 28.02400
N  40.47600 8.58700 32.20300
C  41.23300 9.24000 33.09900
C  40.65300 9.08400 34.54700
C  39.23500 8.33800 34.29300
C  39.28300 8.12800 32.75300
C  39.09800 6.91000 34.96400
C  40.58000 10.44600 35.28200
C  39.75200 10.60900 36.54800
H  40.48000 11.66200 37.55600
N  39.14300 7.52300 29.66900
C  38.19500 7.13400 30.63900
C  37.12500 6.43100 29.96800
C  37.27800 6.62900 28.54600
C  38.52900 7.34100 28.45200
C  35.93500 5.90700 30.75000
C  36.43900 6.22400 27.39300
O  36.70600 6.50700 26.25200
C  35.30300 5.33900 27.56300
N  41.28100 8.84500 27.99200
C  40.39900 8.36200 27.03200
C  40.87600 8.68500 25.62800
C  42.23100 9.41400 25.79200
C  42.36200 9.30700 27.36000
C  40.93900 7.48000 24.64600
C  42.23300 10.87100 25.25200
C  43.26400 11.13500 24.27900
N  42.64600 9.57600 30.39300
C  43.64300 10.03000 29.43100
C  44.65700 10.64000 30.11800
C  44.26800 10.65600 31.50400
C  43.00200 10.03000 31.63700
C  45.97600 11.05900 29.52000
C  44.71400 11.00100 32.89300
O  45.76100 11.40700 33.31000
C  43.48300 10.57700 33.78300
C  44.05000 9.63800 34.72000
O  44.10200 8.41600 34.61600
O  44.53200 10.34300 35.80600
C  45.25400 9.52000 36.75400
H  37.41800 7.16100 32.62900
H  38.83400 7.49200 26.26900
H  44.34700 10.17000 27.44800
H  41.31400 8.44400 35.13100
H  38.44600 9.06100 34.50400
H  38.11600 6.59200 35.31400
H  39.89200 6.85500 35.70800
H  39.26200 6.11300 34.23900
H  40.17700 11.16300 34.56700
H  41.56900 10.79500 35.58200
H  39.76700 9.64000 37.04700
H  38.74600 10.89500 36.23900
H  34.98300 6.24800 30.34400
H  36.04100 6.15700 31.80500
H  35.89500 4.81700 30.75600
H  35.64000 4.54900 28.23300
H  35.08300 5.11100 26.52000
H  34.44300 5.90000 27.93000
H  40.08200 9.35500 25.29800
H  42.96900 8.75300 25.33800
H  40.77000 6.53100 25.15400
H  41.90700 7.33400 24.16700
H  40.37300 7.62900 23.72700
H  42.40900 11.48400 26.13600
H  41.23000 10.98400 24.83900
H  44.05100 10.38800 24.17500
H  43.85900 11.95200 24.68800
H  42.86000 11.46100 23.32000
H  46.53000 11.35100 30.41300
H  45.82900 11.94000 28.89600
H  46.39000 10.16600 29.05300
H  43.07200 11.45800 34.27600
H  45.81700 10.18000 37.41300
H  46.07700 9.08200 36.18800
H  44.73900 8.78900 37.37800
Mg 48.27800 34.36500 27.15100
C  46.11400 33.27600 29.72000
C  48.83300 37.11500 29.00800
C  49.51700 35.63700 24.48700
C  46.80900 31.67100 25.10000
N  47.50900 35.06900 29.12700
C  46.83800 34.42300 30.06400
C  46.97900 35.05600 31.45900
C  47.38300 36.50300 31.08700
C  47.98900 36.23200 29.65200
C  46.14700 37.54300 30.98400
C  48.07800 34.33800 32.32200
C  47.90900 34.32500 33.82200
H  46.77800 35.24100 34.45100
N  49.12900 36.13300 26.80500
C  49.26600 37.19900 27.70700
C  50.01700 38.18400 27.02700
C  50.22600 37.73400 25.70700
C  49.62200 36.40500 25.65600
C  50.31500 39.51500 27.70700
C  51.01800 38.46700 24.57400
O  51.26900 37.96000 23.46000
C  51.54200 39.71800 24.83000
N  48.23300 33.59000 25.02700
C  48.94100 34.36600 24.20600
C  48.93800 33.78100 22.81300
C  48.32900 32.29600 23.04700
C  47.78800 32.46400 24.46200
C  48.14700 34.67700 21.79500
C  49.42100 31.17100 22.80100
C  49.52000 30.56000 21.41300
N  46.90300 32.68000 27.32600
C  46.41100 31.73300 26.44300
C  45.56500 30.78100 27.15400
C  45.35700 31.37200 28.42000
C  46.18200 32.51200 28.48000
C  44.88400 29.59000 26.58200
C  44.63400 31.18800 29.63400
O  43.90100 30.27800 29.92000
C  44.99300 32.53000 30.52800
C  45.37300 31.90300 31.82100
O  46.40500 31.30500 31.99900
O  44.30300 31.97000 32.67000
C  44.61600 31.63500 34.01200
H  49.09400 37.98400 29.61600
H  50.02200 36.03800 23.60500
H  46.53900 30.90700 24.36800
H  46.02600 35.12100 31.98500
H  48.14900 36.94000 31.72700
H  45.39400 37.40600 31.75900
H  45.66800 37.33900 30.02700
H  46.43700 38.59400 30.97200
H  49.02900 34.85800 32.21300
H  48.33000 33.29600 32.12300
H  48.85800 34.65600 34.24400
H  47.77200 33.29500 34.15100
H  51.40300 39.57700 27.69800
H  49.92000 39.57600 28.72100
H  49.88900 40.42500 27.28500
H  52.47200 39.62900 25.39100
H  50.78300 40.46100 25.07700
H  51.85100 40.04100 23.83600
H  49.96700 33.82100 22.45500
H  47.50300 32.07500 22.37100
H  47.08800 34.42100 21.81400
H  48.52600 34.44300 20.80000
H  48.27000 35.72400 22.07300
H  49.20200 30.31200 23.43600
H  50.38000 31.50200 23.19900
H  49.21600 29.51700 21.50600
H  50.55700 30.65900 21.09200
H  48.84100 31.06400 20.72400
H  44.29500 29.03900 27.31500
H  45.65200 28.91800 26.19800
H  44.18400 29.84700 25.78700
H  44.04600 33.01500 30.76600
H  45.52800 31.04900 34.13000
H  43.83900 31.04100 34.49200
H  44.74600 32.50700 34.65300

