158

Mg 52.93000 23.95500 45.64100
C  50.79000 26.47900 44.39500
C  51.05800 21.62400 44.14100
C  55.44800 21.99000 45.93500
C  54.84500 26.62800 46.92500
N  51.30800 24.10700 44.16700
C  50.60300 25.23700 43.80600
C  49.67600 24.82400 42.67900
C  49.32500 23.33000 43.08700
C  50.68500 22.98000 43.79500
C  48.13400 23.23100 44.08500
C  50.37300 24.84800 41.27300
C  49.51800 25.34800 40.11700
H  50.18900 26.06400 38.99000
N  53.24100 22.01200 45.12400
C  52.27900 21.20300 44.58100
C  52.80000 19.86700 44.64300
C  54.08400 19.91400 45.23500
C  54.28200 21.33300 45.47700
C  52.08900 18.63100 44.19500
C  54.90500 18.66200 45.58300
O  54.49400 17.50400 45.30100
C  56.29700 18.73900 46.22800
N  54.88700 24.28800 46.31300
C  55.73300 23.28000 46.39400
C  57.18400 23.75100 46.84900
C  56.82500 25.11000 47.40900
C  55.47500 25.43300 46.79300
C  57.76100 22.70000 47.89200
C  57.86000 26.34400 47.27300
C  58.12300 27.20200 48.58900
N  52.83200 26.07400 45.84800
C  53.58700 26.97100 46.52000
C  53.00800 28.28000 46.54800
C  51.93400 28.13700 45.61800
C  51.81300 26.78300 45.30100
C  53.59800 29.60600 47.10100
C  50.93200 28.90200 44.93400
O  50.80700 30.12700 44.85500
C  50.06700 27.80800 44.15700
C  49.88700 28.25600 42.74200
O  50.80700 28.64700 42.04200
O  48.59300 28.25300 42.45200
C  48.12600 28.66500 41.17100
H  50.42800 20.83700 43.72100
H  56.34500 21.38800 46.09200
H  55.49400 27.40200 47.34300
H  48.71600 25.32500 42.79600
H  49.11500 22.55000 42.35500
H  47.39700 23.89900 43.63900
H  48.47500 23.67700 45.01900
H  47.83800 22.18800 44.20100
H  50.76700 23.84300 41.12000
H  51.32500 25.35000 41.44600
H  48.67200 25.91600 40.50600
H  48.99000 24.48700 39.70800
H  52.81200 17.93300 43.77300
H  51.42600 19.02000 43.42300
H  51.50700 18.16700 44.99100
H  56.78200 17.77000 46.34200
H  56.14500 19.16200 47.22100
H  57.00500 19.18000 45.52700
H  57.86000 23.81000 45.99700
H  56.52900 25.00700 48.45200
H  56.92800 22.05800 48.17700
H  58.16800 23.29500 48.71000
H  58.56300 22.06200 47.52100
H  57.45600 26.99300 46.49500
H  58.80900 25.94100 46.92100
H  59.19400 27.29800 48.76700
H  57.68200 26.80700 49.50400
H  57.79500 28.20900 48.33100
H  53.02500 29.90800 47.97700
H  53.61400 30.38800 46.34200
H  54.61300 29.42200 47.45300
H  49.06500 27.82300 44.58600
H  47.92500 29.73200 41.27200
H  47.14800 28.22600 40.97200
H  48.82200 28.46800 40.35500
Mg -1.79900 34.16300 27.14000
C  -3.71600 32.38500 29.51000
C  -0.94300 36.32100 29.56600
C  -0.64300 36.02000 24.77200
C  -3.60200 32.17900 24.60800
N  -2.44100 34.38700 29.23000
C  -2.94300 33.42700 30.05600
C  -2.76300 33.70800 31.58000
C  -2.26400 35.18200 31.46500
C  -1.82000 35.31800 30.02500
C  -3.28700 36.25600 31.84300
C  -1.86900 32.65300 32.23400
C  -2.50100 31.96100 33.45800
H  -1.70300 32.13600 34.80000
N  -0.81300 35.82800 27.24600
C  -0.46000 36.55900 28.31900
C  0.45800 37.59500 27.87700
C  0.52500 37.57900 26.46400
C  -0.37300 36.45200 26.09100
C  1.27100 38.44800 28.86400
C  1.35600 38.40100 25.48500
O  1.20800 38.33200 24.31200
C  2.46000 39.30300 26.03000
N  -2.24500 34.10600 25.01600
C  -1.44000 34.93600 24.33200
C  -1.50700 34.66100 22.76600
C  -2.15800 33.24300 22.76800
C  -2.68800 33.13300 24.17200
C  -2.37300 35.77400 22.17200
C  -1.15700 32.14300 22.35800
C  0.08300 31.82600 23.14100
N  -3.30800 32.64700 27.02000
C  -4.01000 31.96000 25.98200
C  -4.93000 31.04700 26.49700
C  -4.81000 31.21400 27.87200
C  -3.85700 32.11800 28.11600
C  -5.80400 30.14400 25.80100
C  -5.36900 30.71600 29.09900
O  -6.23100 29.87200 29.22000
C  -4.68900 31.44700 30.23400
C  -5.78600 32.08600 31.01400
O  -6.31700 33.18400 30.73800
O  -5.90600 31.46900 32.18700
C  -6.83400 32.11100 33.17600
H  -0.65900 36.91700 30.43600
H  -0.28700 36.65600 23.95800
H  -3.93700 31.43900 23.87900
H  -3.73300 33.74700 32.07500
H  -1.43400 35.37800 32.14400
H  -4.08300 35.81500 32.44300
H  -3.62900 36.79500 30.96000
H  -2.82700 37.01200 32.47800
H  -0.95200 33.14400 32.55800
H  -1.55600 31.85400 31.56100
H  -2.59400 30.90000 33.22700
H  -3.50200 32.29600 33.73100
H  0.99700 39.49800 28.76000
H  2.34800 38.39800 28.70500
H  1.12300 38.03500 29.86200
H  2.90800 39.90400 25.23800
H  3.20800 38.64500 26.47100
H  1.96100 39.99100 26.71200
H  -0.51300 34.68800 22.31800
H  -3.01400 33.14900 22.10100
H  -2.88500 36.36100 22.93400
H  -3.16200 35.27500 21.60900
H  -1.71600 36.39900 21.56600
H  -1.07600 32.52800 21.34200
H  -1.74500 31.24200 22.18200
H  0.08700 30.80800 23.53100
H  0.11500 32.54400 23.96000
H  0.95500 32.04800 22.52500
H  -5.57200 30.00300 24.74500
H  -6.76700 30.63000 25.95700
H  -5.75000 29.21500 26.36900
H  -4.21700 30.64700 30.80500
H  -7.71300 32.60600 32.76300
H  -6.37300 32.83400 33.84900
H  -7.04700 31.30900 33.88300

