158

Mg 55.52700 23.42800 44.34500
C  53.10400 25.51100 43.24000
C  53.60400 20.74600 43.36100
C  58.20500 21.38700 44.65300
C  57.58300 26.15800 45.07500
N  53.57300 23.15400 43.35400
C  52.71300 24.19600 43.07400
C  51.39300 23.63100 42.47200
C  51.48500 22.17500 42.93500
C  52.92900 21.95600 43.21700
C  50.62700 21.83100 44.23400
C  51.20600 23.81800 40.94700
C  49.81700 24.52200 40.60000
H  49.17100 24.34000 39.26800
N  55.90800 21.39100 44.06200
C  54.95100 20.47000 43.73700
C  55.44800 19.18400 43.83200
C  56.84400 19.25700 44.14900
C  57.08000 20.70200 44.29800
C  54.61300 17.93200 43.54700
C  57.79500 18.13000 44.41100
O  57.43400 16.97200 44.36600
C  59.22800 18.37200 44.89400
N  57.66900 23.72500 44.71300
C  58.52200 22.71500 44.91900
C  59.78300 23.15700 45.59400
C  59.68400 24.76600 45.42300
C  58.25200 24.95300 45.06300
C  60.08400 22.71500 46.94500
C  60.56800 25.41600 44.38700
C  61.99100 25.73700 44.79800
N  55.44000 25.44600 44.29700
C  56.31300 26.44600 44.65400
C  55.57100 27.68700 44.71700
C  54.34300 27.34700 44.16300
C  54.35300 26.00700 43.84000
C  56.10900 29.00200 45.17100
C  53.07900 27.95800 43.82000
O  52.73300 29.10300 43.89300
C  52.28000 26.80800 43.11300
C  52.17600 27.27600 41.70900
O  53.10100 27.11800 40.94300
O  50.98500 27.90200 41.36300
C  50.95500 28.37300 39.95300
H  52.90600 19.90900 43.29600
H  59.12600 20.84400 44.87500
H  58.17500 26.99700 45.44700
H  50.56700 24.19400 42.90600
H  51.16800 21.60900 42.05900
H  51.13400 21.22400 44.98500
H  49.71900 21.25700 44.05100
H  50.41900 22.79600 44.69700
H  51.15900 22.88600 40.38300
H  52.13500 24.32800 40.69400
H  49.85100 25.61200 40.62300
H  49.01700 24.18600 41.25900
H  55.05800 16.95700 43.35100
H  54.01200 18.10300 42.65500
H  53.82400 17.74600 44.27600
H  59.83500 18.88100 44.14600
H  59.75300 17.43100 45.06200
H  59.31200 18.79000 45.89700
H  60.61700 22.79400 44.99300
H  59.77200 25.18900 46.42400
H  60.95800 23.30100 47.22800
H  60.14200 21.63100 47.04700
H  59.23100 23.11000 47.49600
H  60.15500 26.35900 44.02900
H  60.64800 24.79700 43.49400
H  62.32700 26.76600 44.67100
H  62.71800 25.02400 44.41100
H  62.06400 25.64900 45.88200
H  57.02200 29.33500 44.67700
H  56.36600 28.83400 46.21700
H  55.40500 29.79700 44.92300
H  51.26700 26.67300 43.49300
H  50.08100 29.02400 39.93800
H  50.78700 27.57900 39.22400
H  51.81500 28.94600 39.60600
Mg 0.65500 43.73600 26.02200
C  2.89200 43.25400 28.53200
C  -1.92800 43.41300 28.29400
C  -1.45700 43.66900 23.39400
C  3.36300 43.69400 23.74100
N  0.49500 43.65000 28.19200
C  1.61000 43.48800 28.94900
C  1.16800 43.51900 30.49000
C  -0.40900 43.31800 30.33600
C  -0.66700 43.57700 28.86500
C  -1.12700 41.95800 30.81400
C  1.71900 44.79900 31.32200
C  1.33600 44.90300 32.82100
H  0.95400 43.61500 33.59400
N  -1.47000 43.45700 25.89100
C  -2.37500 43.38700 26.94000
C  -3.69400 43.41700 26.36800
C  -3.55100 43.48800 24.92300
C  -2.10600 43.60400 24.68000
C  -4.95000 43.56700 27.20300
C  -4.55600 43.34700 23.83000
O  -4.29300 43.31000 22.59900
C  -6.00900 43.10500 24.23000
N  0.90000 43.67000 23.89800
C  -0.12600 43.64400 23.05300
C  0.33900 43.68700 21.60100
C  1.87800 43.83500 21.68500
C  2.09700 43.66800 23.17800
C  -0.29400 42.65200 20.64100
C  2.48000 45.11700 21.07700
C  2.04500 45.47400 19.66000
N  2.71200 43.67400 26.06500
C  3.70500 43.59400 25.06800
C  4.92300 43.48700 25.70900
C  4.67200 43.24400 26.99600
C  3.32500 43.39200 27.20400
C  6.24800 43.74900 25.02500
C  5.37100 43.01700 28.25700
O  6.54100 42.99300 28.57900
C  4.20800 43.05700 29.26600
C  4.30600 41.86100 30.13200
O  3.74500 40.80700 29.94300
O  5.00600 42.18500 31.29800
C  5.14800 41.15600 32.40500
H  -2.75200 43.17900 28.97100
H  -2.13200 43.81800 22.54900
H  4.13700 43.66400 22.97200
H  1.51800 42.61100 30.98000
H  -0.92700 44.13300 30.84100
H  -0.36400 41.25500 31.14600
H  -1.69600 41.44400 30.03900
H  -1.88800 42.21200 31.55100
H  1.32400 45.63200 30.74000
H  2.79900 44.93400 31.26900
H  0.53600 45.61600 33.02000
H  2.11000 45.29800 33.47800
H  -5.74900 44.07700 26.66500
H  -4.74200 44.16100 28.09400
H  -5.39000 42.61700 27.50700
H  -6.48200 44.05400 24.48100
H  -5.85700 42.42400 25.06800
H  -6.50200 42.75200 23.32500
H  0.02800 44.68300 21.28500
H  2.28600 43.01700 21.09100
H  -0.81200 41.80000 21.08200
H  0.40600 42.21800 19.92700
H  -1.07100 43.16200 20.07300
H  3.56900 45.10600 21.13300
H  2.20100 45.92900 21.74800
H  1.42600 44.66000 19.28300
H  2.97200 45.44300 19.08800
H  1.56000 46.43500 19.49000
H  6.41500 44.81300 24.85700
H  6.40100 43.16300 24.11900
H  7.01000 43.26100 25.63300
H  4.47000 43.89700 29.91000
H  4.73300 41.60200 33.30800
H  6.19000 40.97800 32.67000
H  4.70200 40.17300 32.25300

