158

Mg 48.29700 35.14400 28.18400
C  46.50100 33.54500 30.83000
C  48.31100 37.95000 29.99700
C  49.51700 36.52500 25.50500
C  47.95600 32.07900 26.29100
N  47.65900 35.57600 30.23300
C  47.06800 34.76900 31.15800
C  47.16700 35.35600 32.56200
C  47.41400 36.84800 32.30300
C  47.84400 36.83100 30.74200
C  46.31400 37.84400 32.62800
C  48.24900 34.62300 33.41000
C  48.14300 34.50100 34.98700
H  47.10100 35.40600 35.58600
N  48.90500 36.92900 27.78700
C  48.82100 38.08800 28.65200
C  49.37900 39.24700 28.06100
C  49.91600 38.74200 26.82200
C  49.44000 37.39400 26.62900
C  49.57200 40.57800 28.82500
C  50.80700 39.52900 25.81600
O  51.04400 39.05200 24.73700
C  51.40100 40.89800 26.16200
N  48.78000 34.34900 26.15400
C  49.14600 35.17500 25.21500
C  49.48200 34.62400 23.81700
C  49.38400 33.10100 24.25200
C  48.57700 33.19400 25.61100
C  48.38000 35.04100 22.71100
C  50.68900 32.33800 24.52300
C  51.29900 31.64900 23.32200
N  47.46900 33.18900 28.46300
C  47.34800 32.07500 27.58100
C  46.62100 31.00500 28.23800
C  46.25200 31.56800 29.49300
C  46.76500 32.86100 29.57700
C  46.44600 29.57800 27.84700
C  45.57100 31.18400 30.68300
O  45.06700 30.12100 31.08200
C  45.52900 32.58800 31.52200
C  45.59200 32.39100 33.00600
O  46.53600 31.94400 33.64400
O  44.37800 32.66400 33.53500
C  44.13200 32.21400 34.88700
H  48.41300 38.93700 30.45200
H  50.02500 37.02000 24.67600
H  48.03400 31.11900 25.77600
H  46.23000 35.24600 33.10800
H  48.26000 37.14400 32.92300
H  45.79300 38.21400 31.74500
H  46.63400 38.79900 33.04300
H  45.61700 37.38200 33.32700
H  49.25600 34.97800 33.19000
H  48.35400 33.63300 32.96700
H  49.12400 34.78600 35.36900
H  47.81500 33.47500 35.15100
H  50.59800 40.46500 29.17500
H  48.96000 40.73300 29.71300
H  49.67200 41.50400 28.25800
H  50.59600 41.63400 26.18200
H  52.04500 41.16200 25.32300
H  51.93600 40.86900 27.11200
H  50.50100 34.78200 23.46300
H  48.78900 32.56400 23.51300
H  47.95300 36.01100 22.96300
H  47.52500 34.36800 22.64600
H  48.87900 35.15700 21.74800
H  50.51800 31.67600 25.37300
H  51.39300 33.07200 24.91500
H  50.97700 32.18300 22.42900
H  50.96900 30.61200 23.25500
H  52.37600 31.80000 23.25900
H  46.92800 29.20400 26.94400
H  45.42200 29.23600 27.69700
H  46.94900 29.06100 28.66400
H  44.52500 32.80100 31.15700
H  44.37000 31.17300 35.10400
H  43.10800 32.40700 35.20800
H  44.74600 32.83500 35.53900
Mg 1.30700 42.65000 26.80800
C  2.63600 42.44400 30.07800
C  -1.73100 41.88300 28.14700
C  0.26300 42.36600 23.78200
C  4.64000 43.24800 25.66100
N  0.50200 42.42400 28.86300
C  1.22500 42.45300 30.00900
C  0.25000 42.26400 31.21200
C  -0.96700 41.66600 30.57100
C  -0.75100 42.06900 29.13200
C  -1.21900 40.16900 30.79600
C  0.06000 43.59300 31.92500
C  0.36200 43.72100 33.47200
H  0.14500 42.60000 34.44100
N  -0.52000 42.37000 26.02400
C  -1.68300 42.04300 26.73700
C  -2.77600 41.82100 25.80700
C  -2.20200 41.95300 24.51100
C  -0.77900 42.21400 24.74300
C  -4.19700 41.63900 26.20900
C  -2.78300 41.63600 23.12800
O  -2.11100 41.63200 22.09800
C  -4.20700 41.07800 23.02700
N  2.37000 42.65300 25.03800
C  1.66100 42.57300 23.85800
C  2.58300 42.53600 22.63700
C  3.88900 43.07000 23.22900
C  3.62600 43.05900 24.76700
C  2.60600 41.13200 22.00100
C  4.55800 44.44600 22.71100
C  3.65900 45.72200 22.54600
N  3.25700 42.91100 27.65900
C  4.55800 43.13400 27.04100
C  5.55900 43.17300 28.04800
C  4.87500 42.82100 29.28200
C  3.49900 42.66000 28.94900
C  6.98800 43.60500 27.97500
C  5.03300 42.62200 30.73300
O  6.07400 42.57000 31.41000
C  3.50400 42.50700 31.31300
C  3.53600 41.25000 32.20000
O  3.45100 40.08400 31.83500
O  3.62600 41.66000 33.48700
C  3.89000 40.63400 34.52100
H  -2.64300 41.49700 28.60600
H  -0.02000 42.33200 22.72800
H  5.58800 43.50700 25.18500
H  0.69200 41.57400 31.93000
H  -1.92600 42.12600 30.81100
H  -0.45500 39.69500 31.41300
H  -1.33000 39.62900 29.85600
H  -2.10500 40.12900 31.43000
H  -0.99100 43.88100 31.89600
H  0.45400 44.40100 31.30900
H  -0.24100 44.51500 33.91200
H  1.41800 43.98600 33.42200
H  -4.44400 40.57900 26.16200
H  -4.96500 42.18300 25.65800
H  -4.18400 41.95600 27.25200
H  -4.45700 40.67900 22.04400
H  -4.85400 41.92500 23.25700
H  -4.28000 40.38800 23.86700
H  2.15000 43.25800 21.94400
H  4.52900 42.18900 23.18000
H  1.84400 40.51800 22.48100
H  3.56700 40.61900 22.04200
H  2.39100 41.32200 20.95000
H  5.27700 44.28000 21.90800
H  5.19700 44.68500 23.56100
H  3.93600 46.36300 23.38400
H  2.60000 45.50300 22.68700
H  3.84000 46.22800 21.59800
H  7.16800 44.01300 26.98100
H  7.69800 42.84400 28.29800
H  7.05600 44.55400 28.50700
H  3.35000 43.47900 31.78100
H  4.67000 39.94600 34.19600
H  2.94600 40.09200 34.57200
H  4.09000 41.06200 35.50300

