158

Mg 47.35600 16.44700 28.29200
C  45.32500 16.00100 31.04700
C  49.65000 18.05700 30.18700
C  49.48600 16.85000 25.51300
C  44.82200 15.13800 26.25300
N  47.40500 17.05200 30.42300
C  46.51000 16.61500 31.37700
C  46.95900 17.02300 32.78300
C  48.19000 17.98700 32.46400
C  48.43300 17.70000 30.89900
C  48.02300 19.50900 32.82600
C  47.38400 15.74000 33.63000
C  47.87700 15.90700 35.04400
H  47.39300 17.14300 35.78100
N  49.26700 17.30000 27.89100
C  50.00300 17.96300 28.78900
C  51.21500 18.42300 28.21400
C  51.23600 18.03200 26.86400
C  49.94400 17.46400 26.69700
C  52.17700 19.39000 29.00700
C  52.33400 18.30300 25.77100
O  52.12800 18.11500 24.61200
C  53.68600 18.73700 26.10800
N  47.14400 16.24400 26.14400
C  48.14700 16.46900 25.23300
C  47.52700 16.12600 23.87200
C  46.20900 15.36300 24.12800
C  46.00500 15.56800 25.59800
C  47.21200 17.38700 23.02400
C  46.24200 13.83300 23.68500
C  44.94200 13.40200 22.89200
N  45.51800 15.60400 28.54300
C  44.62100 15.08900 27.63000
C  43.54900 14.46500 28.36900
C  43.78400 14.81500 29.74600
C  44.96800 15.57600 29.73500
C  42.41100 13.75800 27.76600
C  43.22500 14.67400 31.06500
O  42.22400 14.10200 31.47700
C  44.22300 15.46500 32.03900
C  43.55300 16.46500 32.96800
O  43.17800 17.58900 32.73400
O  43.47300 15.89200 34.20600
C  43.15100 16.66500 35.37100
H  50.32700 18.46700 30.94000
H  50.01900 17.03200 24.57700
H  44.06200 14.60100 25.68200
H  46.10400 17.49800 33.26500
H  49.01400 17.66500 33.10100
H  48.68100 19.59800 33.69000
H  47.02400 19.87900 33.05600
H  48.36800 20.15700 32.02000
H  48.24100 15.30000 33.12000
H  46.64300 14.94100 33.59400
H  48.96600 15.90000 35.02000
H  47.38700 15.06400 35.53200
H  53.19100 18.99700 28.93700
H  51.91000 19.51100 30.05700
H  52.23600 20.37900 28.55300
H  54.35900 18.98800 25.28800
H  54.21000 18.05400 26.77700
H  53.61900 19.69800 26.61800
H  48.19600 15.43100 23.36400
H  45.33800 15.71600 23.57500
H  47.84800 18.21800 23.32800
H  46.16900 17.63600 22.82700
H  47.54000 17.21000 22.00000
H  46.31400 13.22800 24.58900
H  47.15900 13.53100 23.17800
H  45.19100 13.00500 21.90800
H  44.23800 14.20200 22.66200
H  44.43000 12.70800 23.55700
H  42.46500 13.45800 26.72000
H  41.53700 14.39400 27.91000
H  42.20800 12.90700 28.41700
H  44.57400 14.69400 32.72400
H  42.17300 16.40800 35.77800
H  43.34500 17.73700 35.34000
H  43.74900 16.31800 36.21400
Mg 35.14000 48.99600 25.46200
C  35.67200 47.39400 28.43900
C  34.11300 51.77500 27.05200
C  34.77900 50.56500 22.38600
C  36.23400 46.12000 23.74400
N  34.79300 49.41100 27.51500
C  35.14800 48.68500 28.58400
C  34.81600 49.46800 29.86500
C  34.29800 50.80300 29.35900
C  34.42400 50.67200 27.83600
C  32.79800 51.16000 29.84300
C  36.02400 49.58600 30.82100
C  35.72600 48.99800 32.20800
H  35.85600 49.93000 33.45600
N  34.51800 50.88100 24.78000
C  34.19100 51.89900 25.63000
C  33.88000 53.12200 24.82300
C  34.19200 52.79400 23.47100
C  34.44600 51.33500 23.49900
C  33.52100 54.49800 25.41600
C  34.27500 53.73600 22.24400
O  34.71400 53.43000 21.16400
C  33.91200 55.20900 22.35200
N  35.40800 48.43300 23.28500
C  35.20900 49.28900 22.24200
C  35.44700 48.55000 20.89100
C  35.98100 47.17100 21.31100
C  35.91900 47.23100 22.91000
C  34.18800 48.55900 19.99200
C  37.38200 46.75500 20.85400
C  38.51000 47.30900 21.74800
N  35.77700 47.09900 25.96100
C  36.25500 46.06100 25.16800
C  36.66200 44.95200 26.00400
C  36.45800 45.44200 27.35100
C  35.93700 46.71400 27.23200
C  37.16900 43.67500 25.48600
C  36.59800 45.08500 28.68700
O  37.09300 44.10400 29.14700
C  36.09200 46.35900 29.50500
C  35.04100 45.92600 30.49500
O  33.89300 45.58700 30.25000
O  35.65900 45.85100 31.71000
C  34.89700 45.13800 32.73500
H  33.81700 52.69100 27.56700
H  34.65200 51.10600 21.44600
H  36.63400 45.26600 23.19200
H  34.05500 48.82900 30.31200
H  34.87100 51.66600 29.69800
H  33.02400 51.85400 30.65200
H  32.35000 50.27100 30.28600
H  32.12700 51.69800 29.17300
H  36.37200 50.60700 30.97700
H  36.85900 49.00200 30.43500
H  36.54900 48.28300 32.21000
H  34.76800 48.48900 32.30600
H  34.30900 55.23900 25.28100
H  33.26500 54.43300 26.47300
H  32.55500 54.75200 24.98100
H  33.84600 55.64900 21.35700
H  34.75400 55.62000 22.90800
H  32.97400 55.23300 22.90600
H  36.30800 48.96100 20.36300
H  35.29700 46.47200 20.83000
H  34.01300 47.53600 19.65800
H  34.39800 49.23200 19.16100
H  33.29800 48.86700 20.54100
H  37.53200 47.02400 19.80900
H  37.46500 45.67200 20.94000
H  38.81700 46.46000 22.35900
H  38.20500 48.16900 22.34500
H  39.38700 47.52000 21.13800
H  38.07000 43.91800 24.92400
H  36.37400 43.21500 24.89800
H  37.45000 42.90500 26.20500
H  36.88100 46.72700 30.16100
H  33.87500 45.41200 32.99700
H  35.47300 45.14600 33.66100
H  34.83800 44.10200 32.40000

