158

Mg 41.90000 41.33000 26.56200
C  41.24400 43.63600 28.93000
C  43.25500 39.20400 29.17500
C  43.04800 39.02400 24.28600
C  41.27400 43.56700 24.09800
N  42.27700 41.45500 28.81200
C  41.64000 42.43100 29.54600
C  41.71800 42.09300 31.06000
C  42.54100 40.75200 31.04200
C  42.66500 40.41800 29.56500
C  43.95900 40.80400 31.68300
C  40.40300 42.12100 31.88600
C  40.23100 43.23900 32.91000
H  39.33000 42.97900 34.10200
N  42.94600 39.30800 26.67200
C  43.37700 38.65900 27.85500
C  43.91700 37.35200 27.42800
C  43.72800 37.18800 26.00300
C  43.13700 38.51600 25.58700
C  44.39800 36.32100 28.42400
C  44.11200 35.99400 25.04300
O  43.98000 35.97600 23.83600
C  44.71500 34.82100 25.60800
N  42.01200 41.30000 24.58900
C  42.59100 40.23600 23.82500
C  42.70700 40.69500 22.39300
C  41.76200 41.88700 22.25200
C  41.70800 42.32200 23.70800
C  44.17300 41.11200 22.02300
C  40.37500 41.72500 21.60000
C  39.42300 40.80600 22.41900
N  41.31400 43.32500 26.40700
C  41.14200 44.11600 25.35200
C  40.83200 45.42200 25.80500
C  40.85200 45.32200 27.25600
C  41.16000 44.00400 27.54300
C  40.63900 46.60900 24.95000
C  40.70200 46.04000 28.53600
O  40.43100 47.20600 28.76300
C  40.87200 44.91400 29.70400
C  41.92900 45.40300 30.65700
O  43.14100 45.35500 30.52300
O  41.28600 45.90500 31.75500
C  42.23500 46.32000 32.85400
H  43.44200 38.50500 29.99300
H  43.38800 38.27300 23.57000
H  41.26400 44.31800 23.30500
H  42.50500 42.78400 31.36200
H  42.00000 39.94900 31.54300
H  43.83700 40.08400 32.49300
H  44.24900 41.77100 32.09400
H  44.76600 40.50500 31.01400
H  40.23900 41.23300 32.49600
H  39.55500 42.23500 31.21100
H  39.70800 44.06900 32.43400
H  41.18800 43.67000 33.20500
H  45.36400 35.96100 28.06900
H  43.77400 35.42700 28.39400
H  44.43000 36.79500 29.40500
H  45.65900 35.18700 26.01100
H  44.95200 34.13100 24.79800
H  44.05900 34.28900 26.29700
H  42.31900 39.98100 21.66700
H  42.22400 42.77700 21.82500
H  44.54900 42.00200 22.52700
H  44.03300 41.32600 20.96300
H  44.90900 40.32000 22.15800
H  40.51400 41.33300 20.59200
H  39.97100 42.72400 21.43700
H  38.40700 41.19900 22.38300
H  39.59800 40.79700 23.49500
H  39.32500 39.81200 21.98200
H  39.61000 46.87000 25.19700
H  40.84300 46.52100 23.88200
H  41.21200 47.43600 25.36900
H  39.94100 44.84800 30.26700
H  43.09500 46.90000 32.52000
H  42.48900 45.48200 33.50300
H  41.55800 46.97500 33.40200
Mg -10.00200 39.15000 42.09900
C  -8.69100 35.96800 41.01400
C  -7.00700 40.43500 40.70400
C  -11.29300 42.17400 42.38400
C  -13.04400 37.58700 42.75700
N  -8.06200 38.28300 40.91800
C  -7.75400 36.95600 40.71700
C  -6.42500 36.73100 39.99300
C  -5.87200 38.23900 40.00600
C  -7.02200 39.07200 40.57000
C  -4.49500 38.52500 40.64300
C  -6.52300 36.03800 38.60200
C  -5.45300 34.95000 38.27700
H  -4.50400 35.13900 37.01700
N  -9.26000 40.98900 41.69100
C  -7.99700 41.31500 41.19500
C  -7.89300 42.80200 41.14700
C  -9.14000 43.30300 41.60200
C  -9.95800 42.13400 41.98400
C  -6.73000 43.55900 40.55700
C  -9.52200 44.82900 41.71500
O  -8.62900 45.63600 41.39600
C  -10.86300 45.48300 42.16200
N  -11.89500 39.78800 42.61300
C  -12.16500 41.09800 42.75600
C  -13.61300 41.37100 43.13000
C  -14.18600 39.87000 43.29200
C  -13.01600 39.02700 42.78400
C  -13.88500 42.23500 44.33000
C  -15.48200 39.56400 42.53100
C  -16.76200 40.35000 43.04900
N  -10.76600 37.19600 42.00900
C  -12.07700 36.69100 42.28200
C  -12.02600 35.26400 42.15500
C  -10.70600 34.95400 41.69900
C  -10.00100 36.16400 41.56900
C  -13.23000 34.41900 42.47700
C  -9.82400 33.82600 41.35200
O  -10.05500 32.60900 41.31700
C  -8.51100 34.42400 40.88300
C  -7.41600 33.95400 41.73600
O  -7.46000 33.79400 42.97000
O  -6.43400 33.47800 40.91000
C  -5.22900 32.93700 41.54100
H  -6.04100 40.87300 40.44400
H  -11.90500 43.06300 42.55200
H  -13.96100 37.00200 42.85600
H  -5.83200 36.11100 40.66600
H  -5.86500 38.57300 38.96900
H  -4.54800 39.40800 41.28000
H  -3.75000 38.61800 39.85300
H  -4.14500 37.62700 41.15200
H  -6.39800 36.77400 37.80700
H  -7.47700 35.55100 38.40100
H  -6.05400 34.04300 38.21600
H  -4.85300 34.78300 39.17100
H  -7.05600 44.29400 39.82100
H  -5.86200 42.95800 40.28800
H  -6.26200 44.12400 41.36300
H  -11.66700 45.66100 41.44800
H  -10.57100 46.49100 42.45700
H  -11.23100 45.01700 43.07600
H  -14.17700 41.77600 42.29000
H  -14.36500 39.56900 44.32500
H  -12.96800 42.38700 44.89900
H  -14.70100 41.80900 44.91400
H  -14.11800 43.18200 43.84400
H  -15.87200 38.54700 42.53100
H  -15.41100 39.80100 41.46900
H  -17.65300 39.75400 42.84900
H  -16.94200 41.36800 42.70300
H  -16.75100 40.40700 44.13700
H  -13.81100 34.34300 41.55800
H  -13.94300 34.74800 43.23300
H  -12.96100 33.39100 42.72100
H  -8.23000 34.29800 39.83800
H  -4.45800 33.69700 41.67000
H  -4.61600 32.24300 40.96600
H  -5.52600 32.47900 42.48400

