158

Mg 46.65500 24.41000 28.57600
C  47.21600 26.98900 30.88000
C  45.63300 22.33500 31.04800
C  46.57600 22.10700 26.26900
C  47.82900 26.68900 26.06800
N  46.34400 24.69900 30.72100
C  46.61300 25.83300 31.49200
C  46.32800 25.52400 32.96500
C  45.55600 24.10200 32.89900
C  45.89700 23.66900 31.47200
C  45.88700 23.02900 33.92300
C  45.55600 26.65500 33.73000
C  44.50500 26.17400 34.82400
H  44.34400 26.87800 36.21100
N  46.14500 22.46400 28.61200
C  45.79100 21.78600 29.72400
C  45.70400 20.38300 29.35400
C  46.00600 20.20700 28.02500
C  46.25600 21.63600 27.53200
C  45.34700 19.40400 30.50400
C  45.94300 19.03400 27.08200
O  46.19000 19.04500 25.90300
C  45.48200 17.72100 27.65100
N  46.93800 24.49900 26.42800
C  46.80100 23.32500 25.72100
C  47.13300 23.53700 24.26200
C  47.44500 25.08100 24.26000
C  47.44900 25.47200 25.65300
C  48.28800 22.71300 23.67000
C  46.33000 25.90300 23.43900
C  44.95400 25.91400 24.13800
N  47.34500 26.41300 28.45500
C  47.85900 27.16500 27.37600
C  48.40500 28.37100 27.84000
C  48.20000 28.35200 29.22500
C  47.55700 27.12700 29.55800
C  49.13900 29.40300 27.13500
C  48.39700 29.04300 30.44300
O  48.95100 30.09900 30.61500
C  47.72200 28.20200 31.55900
C  48.63900 27.99800 32.64800
O  49.48300 27.12000 32.78800
O  48.34500 28.89700 33.58400
C  48.96100 28.75900 34.91100
H  45.08000 21.72300 31.76400
H  46.66300 21.34700 25.49000
H  48.20200 27.32600 25.26400
H  47.28000 25.47700 33.49200
H  44.49100 24.32100 32.96700
H  46.70700 22.35700 33.66800
H  45.08600 22.41000 34.32800
H  46.24900 23.60200 34.77600
H  45.21900 27.49100 33.11700
H  46.39800 27.04100 34.30300
H  44.68600 25.11700 35.02200
H  43.53700 26.12700 34.32700
H  44.32300 19.50800 30.86200
H  46.11300 19.48400 31.27600
H  45.35500 18.39000 30.10400
H  45.19000 16.96800 26.92000
H  44.60200 17.98300 28.23900
H  46.27300 17.31900 28.28400
H  46.19400 23.47300 23.71200
H  48.46400 25.31300 23.95000
H  47.94000 22.10500 22.83500
H  48.59500 22.08000 24.50200
H  49.21400 23.19300 23.35200
H  46.21200 25.35200 22.50500
H  46.70300 26.91200 23.26300
H  44.99700 26.54400 25.02600
H  44.77200 24.88100 24.43500
H  44.16700 26.43200 23.59100
H  48.69200 29.63800 26.16900
H  50.14400 28.99800 27.01700
H  49.21800 30.20200 27.87100
H  46.86200 28.74100 31.95800
H  49.96800 29.16200 34.80300
H  48.89400 27.74100 35.29500
H  48.49600 29.42000 35.64200
Mg -1.94000 34.23600 26.85800
C  -3.41000 32.50400 29.49800
C  -0.95800 36.58700 29.07800
C  -1.25400 36.14900 24.21900
C  -3.58600 31.89500 24.61900
N  -2.23900 34.59600 29.00000
C  -2.72000 33.66900 29.93200
C  -2.32300 34.08300 31.38400
C  -1.41900 35.31600 31.20200
C  -1.60200 35.54200 29.67300
C  -1.66500 36.57800 32.04600
C  -1.70100 32.86500 32.19700
C  -2.39000 32.42700 33.51000
H  -1.60900 32.53200 34.90100
N  -1.16500 36.06900 26.66300
C  -0.90900 36.92000 27.77900
C  -0.35800 38.19000 27.20300
C  -0.28400 37.99300 25.77900
C  -0.96100 36.69600 25.48400
C  0.47300 39.27200 27.96400
C  0.34400 38.89300 24.68900
O  0.28600 38.60900 23.43900
C  1.03300 40.07700 24.98600
N  -2.43000 34.10100 24.64500
C  -1.91700 34.96100 23.82400
C  -2.05500 34.40400 22.35300
C  -2.58800 33.00000 22.48700
C  -2.94400 33.00200 24.00000
C  -2.90200 35.20100 21.37900
C  -1.48700 31.94100 22.10600
C  -0.34000 31.91500 23.06300
N  -3.21700 32.54800 27.02600
C  -3.70300 31.67600 26.05500
C  -4.45700 30.58600 26.71700
C  -4.40500 30.87600 28.09600
C  -3.52700 32.03000 28.18800
C  -5.26900 29.57400 26.08700
C  -4.81600 30.53100 29.37400
O  -5.57800 29.60000 29.69600
C  -4.22500 31.54400 30.29000
C  -5.26300 32.27500 31.08100
O  -6.02300 33.12200 30.66900
O  -5.21000 31.69300 32.34500
C  -6.31900 32.11800 33.22100
H  -0.40600 37.24800 29.75000
H  -0.94500 36.71700 23.33900
H  -4.08000 31.15200 23.99000
H  -3.21800 34.46100 31.87900
H  -0.41400 34.98900 31.46900
H  -1.71600 37.49000 31.45000
H  -0.96900 36.56700 32.88500
H  -2.65000 36.52600 32.50900
H  -0.66600 33.03000 32.49700
H  -1.63700 31.98500 31.55800
H  -2.70700 31.38400 33.50600
H  -3.26700 33.07300 33.54000
H  0.16500 40.25300 27.60200
H  1.55200 39.25400 27.81500
H  0.34800 39.26500 29.04700
H  1.79300 40.20000 25.75800
H  0.40300 40.96600 24.96700
H  1.56000 40.43500 24.10200
H  -1.03600 34.50500 21.97900
H  -3.39400 32.74300 21.79900
H  -3.52500 35.85500 21.99000
H  -3.50600 34.63600 20.66900
H  -2.31700 35.92700 20.81600
H  -1.06200 32.16500 21.12700
H  -1.91500 30.94000 22.15100
H  -0.51200 31.43500 24.02600
H  0.00500 32.90800 23.35100
H  0.47300 31.34500 22.61300
H  -4.84400 29.20400 25.15400
H  -6.32500 29.82800 25.99400
H  -5.17700 28.74100 26.78300
H  -3.44000 31.09500 30.89900
H  -5.92900 32.56200 34.13600
H  -6.81800 31.18600 33.48900
H  -6.93700 32.91100 32.80100

