158

Mg 24.36300 -5.58400 46.31500
C  26.73100 -3.30000 44.67900
C  22.11600 -4.78200 43.94700
C  22.61100 -7.96800 47.59800
C  27.28100 -6.62900 48.26600
N  24.41700 -4.14200 44.51100
C  25.45300 -3.38500 44.02900
C  25.02700 -2.61800 42.76100
C  23.48800 -2.93400 42.77800
C  23.32000 -4.02500 43.78000
C  22.63500 -1.63500 43.03700
C  25.78500 -3.10400 41.49900
C  26.32300 -1.84100 40.69600
H  26.30600 -1.71900 39.11600
N  22.58600 -6.26500 45.86300
C  21.75400 -5.75000 44.88600
C  20.42000 -6.41300 45.06000
C  20.59200 -7.46100 46.06500
C  21.93400 -7.19800 46.63500
C  19.25500 -5.82500 44.28500
C  19.51400 -8.59900 46.23500
O  18.45700 -8.63200 45.62000
C  19.78800 -9.76800 47.20000
N  24.91800 -7.17000 47.71200
C  23.91700 -7.97400 48.18100
C  24.54400 -9.13900 48.89400
C  25.95600 -8.65600 49.21800
C  26.08500 -7.38800 48.39700
C  23.76700 -9.56800 50.24000
C  27.20900 -9.63500 48.94000
C  28.43600 -9.54300 49.78500
N  26.47200 -4.98000 46.62000
C  27.45500 -5.48200 47.45800
C  28.67400 -4.73200 47.24800
C  28.36600 -3.82000 46.21700
C  27.08000 -4.09400 45.77600
C  29.92600 -4.87800 48.03400
C  29.00700 -2.81700 45.34200
O  30.09900 -2.39900 45.38600
C  27.95000 -2.59000 44.16600
C  27.79300 -1.14200 44.25600
O  28.18500 -0.31600 43.41300
O  27.26600 -0.83100 45.44400
C  27.07200 0.65200 45.65100
H  21.44700 -4.67000 43.09100
H  22.13500 -8.87000 47.98800
H  28.24400 -6.96800 48.65400
H  25.21300 -1.55800 42.93600
H  23.32600 -3.33300 41.77600
H  21.58100 -1.88700 42.92300
H  22.70500 -0.90200 42.23300
H  22.77300 -1.22900 44.03900
H  25.10800 -3.63200 40.82800
H  26.48500 -3.90300 41.74300
H  27.32800 -1.69500 41.09200
H  25.93500 -0.86900 41.00000
H  19.01200 -4.88300 44.77600
H  18.40100 -6.47600 44.47300
H  19.60900 -5.65300 43.26900
H  20.68300 -10.36000 47.01100
H  19.02100 -10.54000 47.14800
H  19.87100 -9.39200 48.22000
H  24.54800 -10.04600 48.28800
H  26.00300 -8.28200 50.24100
H  23.44800 -10.61000 50.19700
H  22.94400 -8.97400 50.63700
H  24.42700 -9.68900 51.09800
H  27.68200 -9.49000 47.96900
H  26.82300 -10.64600 49.06800
H  29.35200 -9.47800 49.19700
H  28.54900 -10.46700 50.35100
H  28.39300 -8.68300 50.45400
H  29.95500 -5.36800 49.00800
H  30.16100 -3.82300 48.17600
H  30.67000 -5.36600 47.40400
H  28.27000 -2.94300 43.18500
H  25.99700 0.83100 45.63400
H  27.61500 1.19900 44.88100
H  27.53200 0.93200 46.59900
Mg 36.68100 49.42900 24.97400
C  36.87700 47.62500 27.81900
C  35.30700 52.03400 26.75900
C  36.30600 51.12800 22.07400
C  37.36800 46.50400 23.14300
N  36.34200 49.84300 27.07300
C  36.55200 48.96900 28.07000
C  36.21800 49.52800 29.45900
C  35.65900 50.89200 29.05400
C  35.73100 50.92800 27.54100
C  34.29900 51.17000 29.73900
C  37.38000 49.51400 30.45800
C  37.06600 49.22800 31.92900
H  35.65900 49.26900 32.42300
N  35.92500 51.37800 24.51700
C  35.35900 52.23700 25.36000
C  34.96600 53.43000 24.64900
C  35.36300 53.19600 23.28100
C  35.86800 51.81600 23.25100
C  34.50000 54.63800 25.42300
C  35.22400 54.14700 22.03100
O  35.59800 53.86800 20.90300
C  34.48400 55.44700 22.08200
N  36.79000 48.87300 22.90200
C  36.75100 49.79200 21.94500
C  36.98400 49.23000 20.57900
C  37.52100 47.73800 20.94400
C  37.15400 47.65500 22.38000
C  35.77300 49.29300 19.62400
C  39.05800 47.53800 20.70300
C  40.09800 48.50100 21.36300
N  37.21600 47.48600 25.34800
C  37.48900 46.41100 24.52900
C  37.67400 45.18900 25.33300
C  37.53000 45.65200 26.64900
C  37.17000 47.02700 26.59000
C  37.88600 43.77100 24.88000
C  37.52900 45.34100 28.02800
O  37.80000 44.27200 28.59500
C  37.01200 46.52000 28.84100
C  35.72400 46.11800 29.41300
O  34.65500 46.10400 28.86400
O  35.86000 45.72300 30.73000
C  34.68800 45.15900 31.36600
H  34.85700 52.81500 27.37600
H  36.07300 51.65500 21.14700
H  37.75600 45.59700 22.67500
H  35.37300 48.93600 29.81100
H  36.39300 51.66400 29.28400
H  34.45300 52.08200 30.31500
H  34.01600 50.38600 30.44200
H  33.46000 51.30400 29.05600
H  38.02600 50.37900 30.31400
H  38.04800 48.75300 30.05400
H  37.64000 49.95500 32.50300
H  37.40700 48.19700 32.02900
H  33.75200 55.21200 24.87500
H  35.37500 55.24300 25.66000
H  33.91700 54.44900 26.32400
H  34.55500 55.96600 21.12600
H  34.96000 56.03200 22.87000
H  33.46200 55.20600 22.37500
H  37.73500 49.85900 20.10000
H  36.93400 47.00200 20.39400
H  34.87000 49.24200 20.23200
H  35.77200 48.44700 18.93700
H  35.95000 50.20100 19.04700
H  39.13000 47.38000 19.62700
H  39.31700 46.54000 21.05700
H  40.80600 48.80000 20.59000
H  40.63300 48.18600 22.25900
H  39.63600 49.47000 21.55400
H  37.63400 43.65500 23.82600
H  37.21400 43.09700 25.41000
H  38.90500 43.43800 25.07600
H  37.80800 46.74100 29.55200
H  33.78800 45.77400 31.38400
H  34.96800 45.18800 32.41900
H  34.40600 44.14600 31.07800

