158

Mg 36.78100 49.65600 24.95100
C  37.25700 47.64900 27.94900
C  35.49500 51.97900 27.05800
C  36.40600 51.46100 22.30400
C  38.02600 46.89300 23.11300
N  36.28700 49.69700 27.22100
C  36.67200 48.83800 28.23700
C  36.22700 49.39300 29.57600
C  35.77800 50.80900 29.25900
C  35.86300 50.81300 27.74800
C  34.31700 51.22600 29.72800
C  37.22200 49.18200 30.78500
C  37.35500 50.27800 31.86800
H  36.26300 50.38300 32.98500
N  35.99400 51.42100 24.68800
C  35.56800 52.29200 25.70000
C  35.16500 53.52100 25.19400
C  35.35800 53.42000 23.76600
C  35.98200 52.08400 23.48000
C  34.84700 54.76400 26.03600
C  35.09100 54.37200 22.66600
O  35.14200 54.08500 21.49500
C  34.72700 55.83700 22.91200
N  36.89900 49.11900 23.06300
C  36.81500 50.14000 22.14900
C  37.02700 49.58500 20.72900
C  37.70000 48.23000 20.95300
C  37.57800 48.06700 22.50500
C  35.78500 49.66600 19.78000
C  39.25300 48.26500 20.53700
C  40.30700 49.00500 21.31800
N  37.59800 47.66000 25.32400
C  38.02600 46.68200 24.47200
C  38.50800 45.54100 25.26600
C  38.26600 45.93500 26.64900
C  37.63600 47.20800 26.63900
C  39.04700 44.32700 24.66500
C  38.26900 45.39400 28.02500
O  38.67900 44.36600 28.50500
C  37.66900 46.53400 28.91700
C  36.54000 46.09900 29.77400
O  35.42200 45.93800 29.39200
O  37.02100 45.92700 31.09200
C  36.03100 45.39800 32.04200
H  35.14100 52.75700 27.73800
H  36.33300 51.98900 21.35100
H  38.46200 46.13100 22.46500
H  35.32100 48.86600 29.87500
H  36.41800 51.62100 29.60400
H  33.73400 51.31800 28.81100
H  34.26500 52.22400 30.16300
H  33.74000 50.48900 30.28800
H  38.23700 48.96300 30.45600
H  36.87000 48.36300 31.41300
H  37.24100 51.26000 31.41100
H  38.39000 50.21100 32.20300
H  35.33200 55.60100 25.53500
H  35.33800 54.73900 27.00900
H  33.77400 54.82300 26.22000
H  34.01100 55.90100 23.73200
H  34.09900 56.25100 22.12300
H  35.62400 56.42400 23.10800
H  37.72000 50.27200 20.24300
H  37.14600 47.39100 20.53200
H  35.08300 50.37100 20.22600
H  35.34700 48.66800 19.78600
H  36.01100 49.96300 18.75600
H  39.21700 48.67600 19.52800
H  39.63200 47.24700 20.45000
H  41.09200 48.32900 21.65800
H  39.65100 49.40200 22.09300
H  40.74500 49.85600 20.79600
H  39.84800 44.52600 23.95400
H  38.31700 43.62500 24.26200
H  39.55300 43.71900 25.41500
H  38.48600 46.92700 29.52100
H  35.43300 44.59500 31.61000
H  35.46400 46.21600 32.48500
H  36.43000 44.84500 32.89300
Mg -1.69000 33.89100 26.53900
C  -3.51500 32.39700 29.24000
C  -0.27400 35.95100 28.65500
C  -0.40000 35.37000 23.82300
C  -3.55500 31.74700 24.43100
N  -2.03800 34.27700 28.73100
C  -2.69800 33.51900 29.58700
C  -2.21800 33.80100 31.02000
C  -1.18800 35.02100 30.83100
C  -1.12400 35.06700 29.32000
C  -1.78000 36.36400 31.39400
C  -1.59100 32.55800 31.66000
C  -2.33100 31.86300 32.83500
H  -1.81500 32.09200 34.23500
N  -0.50600 35.44700 26.26400
C  0.01000 36.16600 27.29900
C  1.05100 37.11700 26.72500
C  0.91000 37.01500 25.27800
C  -0.01300 35.90100 25.07100
C  1.79200 37.98600 27.66600
C  1.63200 37.82600 24.24300
O  1.46400 37.68200 23.03100
C  2.89000 38.58500 24.70600
N  -2.00300 33.66600 24.44900
C  -1.29500 34.34100 23.49200
C  -1.60000 33.81600 22.01600
C  -2.48600 32.54500 22.28900
C  -2.71400 32.66200 23.81800
C  -2.34500 34.80500 21.07200
C  -1.75300 31.24100 21.98400
C  -2.69000 30.07900 21.60600
N  -3.28500 32.36200 26.77100
C  -3.91500 31.62700 25.77400
C  -4.85400 30.74900 26.35900
C  -4.74800 30.93700 27.78400
C  -3.77000 31.94100 27.93300
C  -5.71000 29.78000 25.64100
C  -5.20100 30.50600 29.06900
O  -5.88000 29.53400 29.33500
C  -4.34900 31.49200 30.12700
C  -5.42900 32.24100 30.87800
O  -5.97200 33.31200 30.57200
O  -5.75000 31.53500 32.02000
C  -6.58600 32.36900 32.96600
H  0.31100 36.52300 29.37800
H  0.15800 35.77600 22.97700
H  -4.04700 31.14400 23.66500
H  -3.08100 34.11900 31.60400
H  -0.25500 34.76800 31.33500
H  -2.83200 36.26700 31.66300
H  -1.87400 37.08200 30.57900
H  -1.18800 36.87400 32.15400
H  -0.54700 32.70900 31.93700
H  -1.33600 31.83900 30.88100
H  -2.36000 30.79400 32.62600
H  -3.32800 32.29100 32.72300
H  1.47000 37.85500 28.69900
H  1.37100 38.98300 27.53600
H  2.88100 38.00900 27.63100
H  2.83900 39.36600 25.46500
H  3.27900 39.06400 23.80700
H  3.58900 37.80500 25.00800
H  -0.64900 33.52000 21.57300
H  -3.47200 32.61400 21.83000
H  -2.31700 35.73700 21.63800
H  -3.37800 34.52500 20.86600
H  -1.67000 34.99200 20.23700
H  -1.32100 30.82700 22.89500
H  -0.99000 31.34300 21.21200
H  -2.90200 29.44500 22.46700
H  -2.08200 29.47700 20.93100
H  -3.63600 30.30000 21.11100
H  -5.23000 29.64300 24.67100
H  -6.71100 30.19800 25.54100
H  -5.74600 28.85600 26.21900
H  -3.86700 30.81400 30.83100
H  -5.91600 32.85000 33.67900
H  -7.27800 31.70000 33.47600
H  -7.18800 33.16500 32.52700

