158

Mg 47.12300 17.22300 28.31500
C  45.10900 17.13700 31.22100
C  49.48400 18.95600 30.21700
C  48.70500 17.71000 25.49300
C  44.53700 15.66000 26.57700
N  47.29400 17.89000 30.49100
C  46.37400 17.73500 31.45300
C  46.94600 18.06700 32.83800
C  48.24800 18.90300 32.45500
C  48.38500 18.58800 30.93800
C  48.26000 20.49900 32.76800
C  47.11300 16.86100 33.78100
C  46.88300 17.07600 35.29800
H  46.45400 18.49000 35.76000
N  48.94200 17.97200 27.96300
C  49.75800 18.66000 28.84700
C  50.95900 19.08400 28.09100
C  50.77400 18.75100 26.68700
C  49.43600 18.14400 26.62900
C  52.13600 19.70700 28.84800
C  51.69600 19.01900 25.51500
O  51.38800 18.70000 24.37400
C  53.03100 19.62700 25.78600
N  46.67300 16.74900 26.40400
C  47.45500 17.07600 25.34100
C  47.03300 16.46700 24.02100
C  45.97700 15.47600 24.52200
C  45.63000 16.08100 25.92600
C  46.60000 17.60700 23.04100
C  46.34000 13.97100 24.47500
C  45.58900 13.13700 23.43600
N  45.21500 16.60000 28.73400
C  44.28900 15.94500 27.89900
C  43.15800 15.61100 28.61900
C  43.41900 16.01200 29.94700
C  44.70900 16.69300 29.94600
C  41.94000 14.87100 28.01700
C  42.93100 15.97500 31.31900
O  41.91000 15.44200 31.77000
C  44.03800 16.70500 32.12000
C  43.46900 17.68600 33.11300
O  43.24400 18.90100 32.94000
O  43.01600 16.92000 34.14100
C  42.27300 17.66000 35.11600
H  50.21000 19.53700 30.79000
H  49.39400 17.82400 24.65400
H  43.79500 15.17100 25.94100
H  46.18300 18.67400 33.32400
H  49.15100 18.49900 32.91100
H  48.24500 21.07900 31.84400
H  49.07600 20.78400 33.43100
H  47.39100 20.69800 33.39500
H  48.12600 16.49600 33.61300
H  46.46500 16.02000 33.53600
H  47.84800 16.96800 35.79200
H  46.35000 16.27600 35.81300
H  52.03100 20.79200 28.81400
H  53.01300 19.27300 28.36700
H  52.22400 19.43200 29.89900
H  52.78500 20.44900 26.45800
H  53.49900 20.00900 24.87800
H  53.64600 18.86500 26.26400
H  47.94400 16.08100 23.56500
H  45.04700 15.61100 23.97100
H  47.40400 17.67700 22.30900
H  46.47600 18.56800 23.54100
H  45.65000 17.23600 22.65700
H  46.12800 13.66100 25.49900
H  47.42300 13.92200 24.36400
H  46.30700 12.38200 23.11800
H  45.35200 13.70200 22.53400
H  44.75500 12.56700 23.84600
H  41.99500 13.82500 28.31600
H  41.89500 14.91600 26.92800
H  41.00900 15.23100 28.45600
H  44.51900 15.97600 32.77200
H  41.23600 17.80500 34.81300
H  42.81300 18.57500 35.36100
H  42.29800 17.08000 36.03900
Mg -5.13400 25.68700 25.96300
C  -3.69900 26.90700 28.80600
C  -7.01900 23.47300 27.86600
C  -6.51200 24.30300 23.08700
C  -2.68100 27.27600 24.04700
N  -5.34800 25.24300 28.06900
C  -4.70800 26.00000 29.09300
C  -5.23900 25.58800 30.39800
C  -5.95700 24.21300 30.13200
C  -6.11000 24.31800 28.57200
C  -5.26700 22.97500 30.68500
C  -6.19600 26.72100 31.06500
C  -6.13200 26.92100 32.60400
H  -5.55300 25.78800 33.41200
N  -6.71500 24.22600 25.50000
C  -7.31300 23.42500 26.44900
C  -8.28100 22.66800 25.76200
C  -8.19500 22.89400 24.36300
C  -7.14700 23.87900 24.25700
C  -9.28000 21.82800 26.44100
C  -9.02200 22.18500 23.23900
O  -8.80400 22.30700 22.05900
C  -10.15500 21.13600 23.54200
N  -4.81200 26.03200 23.84900
C  -5.38100 25.16700 22.93100
C  -4.80000 25.36300 21.50000
C  -3.67900 26.37800 21.79300
C  -3.65500 26.56600 23.34800
C  -4.24200 24.07600 20.79900
C  -3.84100 27.75900 21.07200
C  -2.54000 28.32400 20.42500
N  -3.51400 26.85900 26.22600
C  -2.58700 27.53400 25.43200
C  -1.70700 28.28000 26.28200
C  -2.10700 28.03200 27.57400
C  -3.18400 27.22500 27.52600
C  -0.52500 29.07400 25.76800
C  -1.77900 28.32900 28.96600
O  -0.79200 28.96300 29.40300
C  -2.85500 27.66700 29.80000
C  -2.14800 26.77800 30.78700
O  -1.91300 25.56800 30.61100
O  -1.83700 27.47200 31.96000
C  -1.18100 26.82200 33.12400
H  -7.58900 22.77400 28.48200
H  -6.85000 23.94300 22.11300
H  -1.80300 27.67100 23.53300
H  -4.38900 25.39500 31.05200
H  -6.91600 24.16600 30.64900
H  -4.70300 22.53400 29.86400
H  -6.03800 22.33300 31.11100
H  -4.57400 23.23600 31.48400
H  -7.22400 26.51200 30.76900
H  -6.02800 27.70500 30.62800
H  -7.12200 27.11600 33.01500
H  -5.60100 27.86300 32.74500
H  -10.27600 22.10400 26.09400
H  -9.23200 21.93800 27.52500
H  -9.16500 20.76000 26.25500
H  -11.00800 21.56300 24.07000
H  -9.62200 20.36900 24.10400
H  -10.54300 20.77400 22.59000
H  -5.59500 25.86800 20.95200
H  -2.77900 25.87000 21.44600
H  -4.71000 23.87900 19.83400
H  -4.37600 23.22400 21.46500
H  -3.17800 24.10700 20.56300
H  -4.20600 28.45900 21.82300
H  -4.66900 27.68400 20.36700
H  -2.69800 28.13700 19.36300
H  -1.53900 27.94700 20.63500
H  -2.65000 29.38400 20.65300
H  -0.78800 30.13100 25.81000
H  -0.32200 28.66400 24.77800
H  0.32400 28.99700 26.44700
H  -3.48400 28.29700 30.42900
H  -1.16700 27.67000 33.80900
H  -0.14500 26.63700 32.83800
H  -1.72900 25.96900 33.52300

