158

Mg 26.13100 0.91600 29.57100
C  28.01700 0.51500 32.52600
C  23.32500 0.92000 31.42600
C  24.35300 1.02400 26.66900
C  29.03400 0.36000 27.75300
N  25.70100 0.55400 31.77300
C  26.61500 0.57300 32.79100
C  25.92500 0.77800 34.18500
C  24.39700 0.65900 33.77300
C  24.40600 0.70800 32.23400
C  23.65500 -0.53600 34.21000
C  26.28400 2.05400 34.85800
C  27.10700 1.93900 36.18000
H  26.77500 2.92300 37.35700
N  24.13200 1.04000 29.17600
C  23.18300 1.01300 30.05100
C  21.89800 1.17100 29.31500
C  22.17300 1.42900 27.94600
C  23.63700 1.18600 27.89900
C  20.52100 1.15700 29.99200
C  21.28000 1.84800 26.76700
O  21.70600 1.82600 25.63400
C  19.83400 2.11100 26.97800
N  26.62800 0.82500 27.51400
C  25.71000 0.86100 26.51400
C  26.42000 0.78300 25.12700
C  27.94100 0.69900 25.57600
C  27.85600 0.60600 27.05600
C  25.95400 -0.20400 24.05000
C  28.89100 1.88400 25.13400
C  30.34400 1.49100 24.83800
N  28.10500 0.44600 29.94700
C  29.19700 0.30400 29.11900
C  30.42600 0.17800 29.87900
C  30.02800 0.15600 31.21600
C  28.55600 0.37200 31.23000
C  31.77500 0.01600 29.25000
C  30.48000 0.09200 32.61400
O  31.59900 -0.06400 33.11800
C  29.18900 0.51700 33.49300
C  29.09000 -0.49900 34.55200
O  28.66100 -1.62600 34.30800
O  29.66200 -0.12800 35.67500
C  29.51900 -1.00300 36.86000
H  22.47100 0.84100 32.10100
H  23.73400 0.97900 25.77100
H  29.93300 0.11700 27.18300
H  26.15500 -0.05100 34.85400
H  23.82900 1.51300 34.14200
H  22.91200 -0.90000 33.49900
H  23.13100 -0.36100 35.14900
H  24.40600 -1.30800 34.37300
H  25.41400 2.68600 35.03500
H  26.88300 2.64300 34.16400
H  28.10900 2.23800 35.87100
H  27.20200 0.89600 36.48100
H  19.76000 0.56600 29.48300
H  20.07400 2.15000 29.94200
H  20.57400 0.96100 31.06300
H  19.39700 1.11800 26.87200
H  19.40600 2.71300 26.17600
H  19.53300 2.60200 27.90400
H  26.28400 1.76600 24.67600
H  28.43900 -0.25700 25.41600
H  26.79500 -0.74600 23.61800
H  25.37400 0.31500 23.28700
H  25.31300 -0.94200 24.53400
H  28.97800 2.55800 25.98600
H  28.40300 2.48600 24.36600
H  30.55300 0.42100 24.86400
H  31.02900 1.93000 25.56500
H  30.54200 1.92900 23.86000
H  32.29700 0.74900 29.86500
H  31.82800 0.31200 28.20200
H  32.21500 -0.97200 29.39000
H  29.32500 1.45000 34.04000
H  30.23300 -0.89800 37.67700
H  29.42200 -2.08100 36.72500
H  28.58400 -0.67800 37.31600
Mg 45.36400 4.76800 48.28600
C  43.25300 7.57400 48.17400
C  42.68900 2.83100 47.33700
C  47.47500 2.23600 48.01600
C  48.04900 7.02000 48.39600
N  43.25900 5.17400 47.83100
C  42.57700 6.34400 47.96100
C  41.15000 6.28800 47.47300
C  40.89100 4.73300 47.50300
C  42.37300 4.22900 47.49500
C  39.96200 4.30600 48.60300
C  41.09100 7.11100 46.07400
C  39.71000 7.71600 45.78800
H  39.00100 7.27700 44.47400
N  45.08600 2.73900 47.87500
C  43.90600 2.11900 47.52000
C  44.10000 0.71900 47.45400
C  45.50400 0.48900 47.75600
C  46.11400 1.86700 47.86400
C  42.96700 -0.28800 47.16100
C  46.14000 -0.91500 47.91800
O  45.56300 -1.90800 47.46500
C  47.31100 -1.14900 48.67000
N  47.47800 4.64100 48.01600
C  48.10900 3.47400 48.06600
C  49.62000 3.69000 48.17100
C  49.75900 5.25400 48.17700
C  48.34800 5.68500 48.21100
C  50.32600 3.01000 49.28800
C  50.51400 5.81100 46.92000
C  51.68900 6.68400 47.37300
N  45.67000 6.79900 48.41300
C  46.79700 7.60600 48.43100
C  46.46500 8.96500 48.45100
C  45.09900 8.99700 48.47100
C  44.65600 7.70600 48.33300
C  47.34600 10.12100 48.32900
C  43.95600 9.86200 48.49200
O  43.98200 11.04400 48.51200
C  42.69600 9.03400 48.17500
C  41.61800 9.26600 49.23700
O  41.50500 8.55000 50.21100
O  40.79700 10.30800 48.89100
C  39.96500 10.76000 49.96300
H  41.75000 2.33200 47.09000
H  48.17700 1.41000 47.88300
H  48.92800 7.64700 48.56300
H  40.58200 6.78400 48.26000
H  40.43900 4.33000 46.59700
H  39.61700 5.18600 49.14500
H  40.41900 3.68600 49.37400
H  39.15500 3.69900 48.19200
H  41.17100 6.30700 45.34200
H  41.85100 7.85800 45.84300
H  39.86700 8.78700 45.66000
H  39.06900 7.48900 46.63900
H  42.52600 -0.53200 48.12700
H  43.30700 -1.13400 46.56300
H  42.22400 0.27200 46.59300
H  47.21600 -1.88000 49.47300
H  47.62800 -0.31300 49.29400
H  48.10900 -1.37000 47.96100
H  49.96700 3.17300 47.27600
H  50.26200 5.50600 49.11000
H  50.65000 2.05500 48.87500
H  49.73900 2.83400 50.18900
H  51.23600 3.53900 49.57300
H  49.75800 6.41000 46.41300
H  50.86800 4.96200 46.33600
H  51.99900 6.32200 48.35300
H  51.36800 7.72400 47.43600
H  52.47200 6.55000 46.62600
H  46.77200 10.89400 47.81800
H  48.23100 9.93200 47.72100
H  47.75500 10.37800 49.30600
H  42.25800 9.23300 47.19600
H  39.36100 11.61000 49.64600
H  40.67300 11.25300 50.63000
H  39.40100 9.94800 50.42200

