158

Mg 35.31100 3.07000 30.43800
C  33.11700 3.88900 33.05600
C  37.76200 2.90300 32.88400
C  37.44900 2.14500 27.97600
C  32.80000 3.27000 28.14200
N  35.42600 3.46700 32.74200
C  34.35000 3.65900 33.55300
C  34.78400 3.59400 35.03000
C  36.35200 3.47200 34.97300
C  36.51200 3.21900 33.46400
C  36.97800 4.75800 35.55500
C  34.21400 2.39800 35.78800
C  33.77500 2.63200 37.26100
H  34.75900 3.24600 38.30900
N  37.27500 2.56200 30.50500
C  38.18800 2.54500 31.57300
C  39.50000 2.15500 31.14500
C  39.35700 1.74700 29.77300
C  37.97700 2.14000 29.34400
C  40.77100 2.16700 31.99800
C  40.43200 1.14200 28.83900
O  40.21700 0.95300 27.66500
C  41.86100 0.91400 29.32500
N  35.20900 2.76800 28.33000
C  36.15700 2.33300 27.53400
C  35.71100 2.12800 26.12500
C  34.18500 2.56300 26.24100
C  34.01700 2.85700 27.68600
C  36.35500 2.99800 25.03600
C  33.14500 1.61100 25.62400
C  32.99900 0.30800 26.39600
N  33.41900 3.52100 30.52900
C  32.47400 3.61400 29.51900
C  31.20200 3.93200 30.01100
C  31.39600 3.98400 31.37700
C  32.74100 3.76200 31.67900
C  29.91200 4.09300 29.26000
C  30.74600 4.30700 32.64500
O  29.61000 4.73400 32.89500
C  31.86000 4.08700 33.80400
C  31.72300 5.21100 34.76700
O  32.11700 6.33400 34.61800
O  31.14500 4.72000 35.93700
C  30.79500 5.76900 36.90600
H  38.63100 2.92300 33.54600
H  38.06900 1.77000 27.15900
H  31.94400 3.43500 27.48400
H  34.60000 4.51900 35.57600
H  36.81400 2.66500 35.54100
H  36.29600 5.34300 36.17200
H  37.25500 5.40000 34.71800
H  37.78100 4.42800 36.21400
H  34.99500 1.65400 35.94100
H  33.39200 1.86000 35.31600
H  33.50800 1.61100 37.53100
H  32.86700 3.23500 37.27600
H  41.30400 1.22600 32.13600
H  40.52900 2.58700 32.97400
H  41.53900 2.72700 31.46500
H  42.37900 0.11700 28.79200
H  41.76500 0.36200 30.26000
H  42.52600 1.77500 29.38200
H  35.89500 1.13700 25.71200
H  34.02500 3.55000 25.80700
H  36.68100 3.93800 25.48200
H  35.62400 3.26100 24.27200
H  37.24800 2.49700 24.66100
H  33.53800 1.25200 24.67200
H  32.20500 2.13900 25.46600
H  32.57700 -0.44300 25.72900
H  32.20000 0.35500 27.13600
H  33.94100 -0.01700 26.83800
H  29.90900 5.00000 28.65600
H  29.02800 4.13700 29.89600
H  29.81300 3.30200 28.51700
H  31.70700 3.12200 34.28700
H  31.23100 5.31400 37.79500
H  29.71100 5.76600 37.01800
H  31.12900 6.80300 36.82700
Mg 36.44300 50.16600 24.66700
C  36.71500 48.00500 27.37700
C  34.96200 52.44900 26.51200
C  35.51500 51.80800 21.84200
C  37.42300 47.44900 22.53800
N  35.94600 50.21900 26.76400
C  36.18700 49.29100 27.74600
C  35.74900 49.87100 29.10700
C  34.95500 51.19100 28.70800
C  35.27400 51.34200 27.20800
C  33.42500 51.25800 29.19300
C  37.05300 50.15100 29.90000
C  37.07300 49.83900 31.45900
H  35.66900 49.86000 32.13800
N  35.66300 51.99100 24.24500
C  35.12400 52.81800 25.13500
C  34.77200 54.09000 24.58000
C  34.99500 53.95400 23.15600
C  35.42300 52.51700 23.04100
C  34.31600 55.37300 25.38700
C  34.96300 54.99300 22.09400
O  35.21900 54.74500 20.87200
C  34.63100 56.44900 22.49600
N  36.25300 49.58800 22.48400
C  36.03000 50.58700 21.57500
C  36.32800 50.04700 20.18100
C  36.94600 48.59300 20.39100
C  36.91600 48.51800 21.90400
C  35.15100 50.05000 19.20500
C  38.36200 48.39500 19.76600
C  38.64000 47.03100 19.17000
N  37.03000 48.21700 24.90300
C  37.36400 47.19300 23.94600
C  37.79100 46.03800 24.65800
C  37.53200 46.32500 25.94100
C  37.07600 47.63100 26.08700
C  38.37500 44.83600 24.10800
C  37.59200 45.72400 27.30400
O  37.97400 44.64800 27.60400
C  37.15600 46.82900 28.24000
C  36.18000 46.24800 29.15500
O  35.04200 45.95700 28.85200
O  36.68200 46.07200 30.40300
C  35.75600 45.53800 31.40400
H  34.34500 53.17100 27.05100
H  35.43700 52.38300 20.91700
H  37.94000 46.65400 21.99600
H  35.07700 49.19700 29.63900
H  35.37100 51.99300 29.31800
H  32.80500 51.53300 28.34000
H  33.39300 52.10900 29.87400
H  33.12300 50.32600 29.67100
H  37.32500 51.20100 29.79600
H  37.90400 49.61600 29.47800
H  37.73800 50.61400 31.84000
H  37.63300 48.92100 31.63700
H  35.02400 56.16300 25.63700
H  33.93800 55.24500 26.40100
H  33.45900 55.85700 24.91800
H  33.62100 56.54300 22.89500
H  34.76800 57.00000 21.56600
H  35.33900 56.88500 23.20200
H  37.04200 50.73700 19.73300
H  36.29200 47.80500 20.01800
H  34.26500 50.37700 19.74900
H  34.87400 49.03800 18.91100
H  35.24000 50.72300 18.35300
H  39.04100 48.65600 20.57700
H  38.43200 49.18900 19.02200
H  37.84600 46.29200 19.27400
H  39.57200 46.70500 19.63200
H  38.64400 47.30300 18.11500
H  39.07100 44.95500 23.27700
H  37.61800 44.14000 23.74700
H  38.96300 44.28200 24.83900
H  38.06300 46.99700 28.82100
H  34.91600 46.17400 31.68300
H  36.39500 45.45700 32.28400
H  35.30800 44.60200 31.07200

