158

Mg -2.00100 17.36300 26.57700
C  -2.63100 15.25900 29.28000
C  -2.85700 20.03800 28.62600
C  -1.52500 19.34700 23.99900
C  -1.53000 14.55000 24.69700
N  -2.67300 17.51600 28.67000
C  -2.82200 16.59200 29.58100
C  -3.03300 17.14300 30.98600
C  -3.29200 18.69300 30.69000
C  -2.95800 18.79100 29.21700
C  -4.57900 19.32100 31.28000
C  -1.83300 16.96500 32.03800
C  -2.32900 16.59200 33.50000
H  -1.30300 16.61900 34.59400
N  -2.26600 19.43400 26.28200
C  -2.53100 20.37600 27.28100
C  -2.41700 21.67200 26.69400
C  -2.01500 21.55500 25.37600
C  -1.95700 20.03500 25.17300
C  -2.95100 22.92100 27.38700
C  -1.87200 22.60000 24.30100
O  -1.66600 22.33300 23.12000
C  -1.64800 23.99700 24.69500
N  -1.74000 17.01900 24.53000
C  -1.57500 17.98300 23.62900
C  -1.22100 17.38800 22.22700
C  -0.90100 15.90300 22.58100
C  -1.40600 15.78600 24.05300
C  -2.21800 17.68600 21.05300
C  0.53000 15.54600 22.18000
C  1.69100 15.92500 23.14200
N  -2.17600 15.30900 26.81100
C  -1.99800 14.29300 25.94400
C  -2.25500 12.98700 26.57200
C  -2.54700 13.32900 27.92600
C  -2.42900 14.74100 27.98400
C  -2.11100 11.66200 25.88800
C  -2.84800 12.79100 29.23000
O  -2.99800 11.65700 29.62300
C  -2.92300 14.04800 30.14300
C  -1.78700 13.83400 31.05700
O  -0.60600 14.02600 30.79500
O  -2.18000 13.41800 32.30900
C  -1.16600 13.25500 33.29500
H  -3.17500 20.77400 29.36700
H  -1.22300 19.97400 23.15800
H  -1.14500 13.66700 24.18400
H  -3.88500 16.60900 31.40700
H  -2.51200 19.25800 31.20000
H  -5.13400 18.57000 31.84200
H  -5.27600 19.76800 30.57100
H  -4.19300 20.08400 31.95600
H  -1.29700 17.89500 32.22600
H  -1.11600 16.20800 31.72000
H  -2.63000 15.55500 33.34600
H  -3.15100 17.24400 33.79300
H  -3.31900 22.73900 28.39700
H  -3.76000 23.40100 26.83700
H  -2.08000 23.54900 27.57500
H  -2.56600 24.35700 25.15900
H  -1.43500 24.49500 23.74900
H  -0.82700 24.13100 25.39800
H  -0.24600 17.76900 21.92400
H  -1.60500 15.31700 21.99100
H  -3.22400 17.34900 21.30500
H  -1.81100 17.19300 20.17000
H  -2.37300 18.76300 20.99500
H  0.71700 15.60800 21.10800
H  0.39500 14.46500 22.21900
H  2.36300 16.40700 22.43200
H  2.11400 15.02000 23.58000
H  1.33100 16.56900 23.94400
H  -1.42200 11.79900 25.05400
H  -3.05400 11.21000 25.58100
H  -1.61200 11.02200 26.61600
H  -3.84500 14.08500 30.72300
H  -1.63300 13.16400 34.27600
H  -0.47300 14.09600 33.28400
H  -0.64100 12.39100 32.88800
Mg 41.13500 8.96800 29.81800
C  42.99400 10.16300 32.45100
C  38.86300 7.64600 32.10600
C  39.38000 7.79100 27.33800
C  43.77400 9.79500 27.68400
N  40.91200 9.02700 32.11700
C  41.78800 9.65000 32.95800
C  41.39600 9.38000 34.44200
C  40.21500 8.31300 34.20200
C  39.94400 8.35200 32.70500
C  40.62300 6.90400 34.70000
C  40.95200 10.53700 35.29300
C  41.24800 10.34600 36.79200
H  41.79400 11.40500 37.77300
N  39.34300 7.89300 29.73800
C  38.52700 7.43700 30.79500
C  37.36500 6.88600 30.22100
C  37.50200 6.88800 28.80200
C  38.80800 7.47000 28.60900
C  36.21500 6.30000 31.04000
C  36.58400 6.40500 27.66800
O  36.97100 6.17900 26.49100
C  35.20000 6.05200 27.97600
N  41.63200 8.70100 27.76400
C  40.63200 8.38000 26.95400
C  40.91700 8.68000 25.43300
C  42.44500 9.20400 25.55100
C  42.65100 9.26600 27.09600
C  40.80400 7.44800 24.48100
C  42.74700 10.41500 24.66100
C  43.54400 10.18400 23.33500
N  43.06600 9.80900 29.95300
C  44.03900 10.01400 29.00300
C  45.16400 10.66600 29.65100
C  44.75000 10.85300 30.99200
C  43.50000 10.22900 31.14400
C  46.37900 11.30600 28.96200
C  45.07100 11.38700 32.22300
O  46.04900 11.94900 32.63800
C  43.97100 11.00400 33.19500
C  44.64800 10.20600 34.27900
O  45.46800 9.35200 34.08600
O  44.25500 10.61100 35.57700
C  44.81700 9.89800 36.76300
H  38.10700 7.31100 32.82000
H  38.74700 7.67300 26.45600
H  44.52200 10.06000 26.93300
H  42.20700 8.81700 34.90500
H  39.28600 8.62800 34.67700
H  41.43200 6.99900 35.42400
H  40.84400 6.33400 33.79800
H  39.77300 6.37300 35.12700
H  39.89900 10.81200 35.24200
H  41.58800 11.36000 34.96600
H  41.95000 9.51300 36.82100
H  40.30800 10.00800 37.23000
H  36.34200 6.38300 32.12000
H  36.04600 5.24700 30.81300
H  35.31600 6.78700 30.66400
H  34.63600 6.97000 28.14000
H  34.98400 5.37900 28.80500
H  34.75400 5.62000 27.08000
H  40.22600 9.51000 25.28700
H  43.05000 8.37400 25.18500
H  41.70500 7.03400 24.02700
H  40.03800 7.75300 23.76800
H  40.43300 6.63200 25.10000
H  43.33800 11.11800 25.24800
H  41.86300 10.98100 24.36700
H  43.20200 10.86000 22.55100
H  43.35600 9.17000 22.98300
H  44.62100 10.23400 23.49700
H  46.34400 12.39300 28.88300
H  46.45000 10.98500 27.92300
H  47.27800 10.93500 29.45300
H  43.62900 11.92700 33.66300
H  44.01300 9.62000 37.44500
H  45.51500 10.55200 37.28500
H  45.22800 8.92800 36.48200

