158

Mg 47.30900 24.73500 28.90600
C  48.19300 26.97000 31.37700
C  46.63100 22.38600 31.27400
C  46.89000 22.42300 26.50600
C  48.58700 26.97400 26.55900
N  47.29100 24.76700 31.11500
C  47.74500 25.75700 31.88300
C  47.50700 25.52700 33.38600
C  46.98500 24.01600 33.35900
C  46.97100 23.66900 31.79900
C  47.74200 23.05600 34.33300
C  46.59000 26.64000 34.14800
C  45.87600 26.15400 35.39400
H  45.72600 27.14700 36.57800
N  46.98300 22.63200 28.89800
C  46.57700 21.90400 29.99200
C  46.08900 20.58300 29.54500
C  46.24900 20.50300 28.14900
C  46.72300 21.86300 27.79100
C  45.54300 19.43200 30.52700
C  45.97100 19.34600 27.22100
O  46.31400 19.39600 26.01400
C  45.40900 18.12800 27.76500
N  47.69400 24.72100 26.79800
C  47.25000 23.65200 25.99400
C  47.49900 24.00300 24.45100
C  47.81800 25.50800 24.53800
C  48.06200 25.76500 26.04400
C  48.65800 23.16300 23.83000
C  46.69100 26.34000 23.88000
C  46.77500 26.57600 22.31200
N  48.20700 26.55600 28.91900
C  48.67400 27.37500 27.86700
C  49.08500 28.63600 28.36500
C  48.88400 28.53100 29.73300
C  48.37400 27.24200 30.02400
C  49.63100 29.74700 27.49300
C  49.11800 29.21500 30.97300
O  49.50100 30.35600 31.12500
C  48.70400 28.24500 32.07500
C  49.88800 28.00100 32.98800
O  50.93900 27.39200 32.67900
O  49.53200 28.47200 34.22200
C  50.48800 28.42400 35.29300
H  46.41200 21.67600 32.07500
H  46.71100 21.87200 25.58100
H  48.85300 27.66100 25.75400
H  48.41400 25.61700 33.98500
H  45.95300 23.87000 33.67900
H  48.34800 22.22600 33.97000
H  46.99400 22.61800 34.99300
H  48.35300 23.63100 35.02900
H  45.79700 27.03000 33.51000
H  47.10700 27.58000 34.34100
H  46.38200 25.26000 35.75700
H  44.88100 25.80400 35.11800
H  44.53600 19.06900 30.32500
H  45.57400 19.80600 31.55000
H  46.23800 18.59400 30.46500
H  46.14000 17.66700 28.42900
H  45.32900 17.47900 26.89300
H  44.44800 18.44100 28.17300
H  46.55800 23.61400 24.06100
H  48.76200 25.72000 24.03600
H  49.45000 23.81600 23.46300
H  48.32900 22.59300 22.96100
H  49.17200 22.52900 24.55200
H  46.57500 27.27100 24.43500
H  45.70800 25.92200 24.09600
H  45.81000 26.29700 21.88900
H  47.54500 26.01400 21.78300
H  47.02800 27.63400 22.23300
H  50.65800 29.41400 27.34600
H  49.62200 30.61500 28.15300
H  49.05300 29.89700 26.58100
H  47.86400 28.67600 32.62000
H  51.50800 28.35000 34.91800
H  50.18500 27.51000 35.80400
H  50.38100 29.27700 35.96500
Mg 9.59800 47.09300 26.82200
C  7.52800 47.05400 29.76500
C  12.20600 47.76400 28.96800
C  11.35000 47.76600 24.13000
C  6.58100 47.07100 24.87600
N  9.77900 47.43600 29.10300
C  8.86800 47.22800 30.11200
C  9.49800 47.54400 31.53600
C  10.98400 48.05000 31.25300
C  10.97800 47.76600 29.67400
C  11.25400 49.56200 31.63900
C  9.21200 46.34400 32.57900
C  10.16600 46.23500 33.76100
H  9.61900 45.77900 35.11100
N  11.51900 47.37800 26.61200
C  12.44000 47.69900 27.58000
C  13.72900 48.01500 26.94500
C  13.43300 48.15100 25.55500
C  12.05400 47.68800 25.38500
C  14.96800 48.33000 27.73900
C  14.34900 48.63600 24.37600
O  13.98500 48.74100 23.18400
C  15.80800 48.82900 24.68200
N  9.02100 47.50400 24.75300
C  9.99800 47.63900 23.81500
C  9.27100 47.81700 22.40900
C  7.76300 47.46800 22.64700
C  7.79400 47.28100 24.16100
C  9.63700 49.22800 21.82800
C  7.28100 46.23700 21.78400
C  8.01900 44.91000 22.12900
N  7.48800 47.08000 27.13300
C  6.42900 47.00900 26.27400
C  5.19500 47.09300 27.02500
C  5.63400 46.97700 28.34400
C  6.98000 47.01800 28.40500
C  3.84300 47.05000 26.49800
C  5.08600 46.76600 29.70100
O  3.93800 46.69400 30.15600
C  6.38400 46.85000 30.66700
C  6.38800 45.52000 31.36600
O  6.95500 44.46300 31.02600
O  5.66100 45.61800 32.46400
C  5.54700 44.39700 33.31400
H  13.02600 47.94100 29.66600
H  11.82400 48.08900 23.20100
H  5.65700 46.93300 24.31000
H  8.91200 48.41400 31.83200
H  11.70100 47.39300 31.74500
H  11.98500 49.69500 32.43700
H  10.39400 50.03500 32.11300
H  11.53300 50.06900 30.71600
H  9.30100 45.45400 31.95600
H  8.19900 46.42100 32.97400
H  10.72300 47.15600 33.93100
H  10.79400 45.41200 33.41900
H  15.38300 49.24000 27.30400
H  15.70500 47.53400 27.63200
H  14.82300 48.57300 28.79100
H  15.93000 49.82400 25.11100
H  16.40400 48.67100 23.78300
H  16.12000 48.05100 25.38000
H  9.77800 47.18100 21.68400
H  7.19300 48.37900 22.46100
H  10.12300 49.78000 22.63300
H  8.82700 49.76300 21.33200
H  10.39000 49.14800 21.04300
H  7.32300 46.52600 20.73400
H  6.24900 46.06800 22.09200
H  8.63000 44.46000 21.34700
H  7.34400 44.13000 22.48300
H  8.74800 45.03100 22.93000
H  3.71100 48.01100 26.00200
H  3.19100 46.93900 27.36500
H  3.77100 46.31300 25.69700
H  6.30300 47.59100 31.46200
H  5.50500 43.42200 32.82700
H  4.59700 44.39900 33.84800
H  6.42400 44.38300 33.96100

