158

Mg 0.25600 7.87900 26.21600
C  1.09300 9.91600 29.05900
C  0.25500 5.16500 28.33700
C  -0.33400 6.10500 23.54400
C  0.45600 10.82800 24.20300
N  0.73400 7.62900 28.51500
C  0.81900 8.60900 29.48100
C  0.75200 7.87500 30.90900
C  0.83200 6.31000 30.48600
C  0.59900 6.34100 29.00600
C  2.21300 5.58200 30.75900
C  -0.55200 8.25100 31.71700
C  -0.40000 9.03800 33.05900
H  0.85800 8.70100 33.86200
N  -0.20800 5.94200 26.02200
C  -0.03500 4.98300 26.96700
C  -0.39100 3.72700 26.35800
C  -0.76300 3.98500 25.03900
C  -0.50700 5.42400 24.79100
C  -0.39800 2.43000 27.09600
C  -1.38300 2.97400 24.00700
O  -1.94000 3.40100 23.01100
C  -1.45900 1.54100 24.22200
N  0.07000 8.46100 24.20000
C  -0.12600 7.46900 23.28200
C  -0.06000 8.04800 21.85600
C  -0.13000 9.57500 22.14100
C  0.16700 9.61800 23.59400
C  1.27100 7.50500 21.25200
C  -1.36200 10.39400 21.88600
C  -1.18100 11.73100 21.06800
N  0.76800 9.81000 26.43400
C  0.71400 10.98500 25.62800
C  1.13300 12.17400 26.30400
C  1.36700 11.69700 27.64200
C  0.99200 10.37100 27.73500
C  1.19900 13.56300 25.76500
C  1.64400 12.27000 28.84600
O  2.00300 13.40500 29.21000
C  1.45700 11.11100 29.83000
C  2.61700 10.95900 30.77200
O  3.62800 10.29800 30.54300
O  2.43600 11.83600 31.86300
C  3.67700 12.11300 32.59000
H  0.25400 4.33000 29.04100
H  -0.61700 5.60800 22.61400
H  0.60800 11.74300 23.62600
H  1.68100 8.13900 31.41500
H  0.07300 5.70700 30.98500
H  2.26400 5.15700 31.76200
H  3.09500 6.21300 30.64500
H  2.33100 4.72300 30.09900
H  -1.03200 7.31200 31.99400
H  -1.29100 8.81800 31.15200
H  -1.23300 8.76600 33.70700
H  -0.33300 10.09300 32.79300
H  -1.36900 1.93400 27.09200
H  0.01700 2.49200 28.10200
H  0.28100 1.85000 26.47200
H  -1.91400 1.10500 23.33300
H  -2.01900 1.43200 25.15100
H  -0.42500 1.19900 24.25200
H  -0.96100 7.78900 21.30100
H  0.69000 10.17100 21.73900
H  2.02900 8.23200 20.96100
H  1.02400 6.95400 20.34400
H  1.80400 6.86100 21.95100
H  -1.85900 10.76300 22.78300
H  -2.05000 9.72000 21.37500
H  -0.22500 12.25100 21.12100
H  -1.90900 12.45900 21.42500
H  -1.55700 11.52900 20.06500
H  0.45300 13.68500 24.98100
H  2.22400 13.71700 25.42600
H  0.86300 14.37200 26.41300
H  0.59500 11.45900 30.39700
H  3.58200 13.01000 33.20100
H  4.47900 12.23100 31.86100
H  4.01800 11.26000 33.17800
Mg 26.81300 50.69400 26.75400
C  24.73200 51.55700 29.64600
C  29.14100 49.55300 28.94100
C  28.58900 49.67000 24.10000
C  24.35700 51.94100 24.76900
N  26.77500 50.39900 29.06500
C  25.85600 50.80200 29.99700
C  26.21400 50.40100 31.43300
C  27.74700 50.00400 31.16300
C  27.95500 50.00600 29.63500
C  28.83000 50.80000 31.91800
C  25.36300 49.27100 32.19500
C  24.77300 49.50000 33.55400
H  25.78500 49.94000 34.60000
N  28.58200 49.72100 26.58600
C  29.43100 49.35900 27.60500
C  30.57700 48.68700 27.09700
C  30.53000 48.78000 25.66500
C  29.20200 49.38400 25.41100
C  31.68200 48.26800 28.02000
C  31.51200 48.40600 24.53900
O  31.31300 48.74500 23.35800
C  32.87200 47.94800 24.88600
N  26.53500 50.71400 24.70900
C  27.39600 50.27500 23.74800
C  26.86400 50.58500 22.36000
C  25.43200 50.88200 22.60500
C  25.40100 51.21100 24.09800
C  27.67000 51.71700 21.63300
C  24.30000 49.90100 22.19400
C  23.11800 50.48900 21.45500
N  25.04400 51.69700 27.06000
C  24.11900 52.19000 26.12800
C  22.88300 52.69300 26.80400
C  23.14800 52.54500 28.15300
C  24.42400 51.88500 28.26900
C  21.68000 53.24100 26.08900
C  22.57000 52.77200 29.49800
O  21.60700 53.37100 29.79400
C  23.57100 52.12400 30.46600
C  23.97900 53.16100 31.50400
O  24.76800 54.01200 31.25600
O  23.22900 52.93100 32.61600
C  23.61700 53.69500 33.80500
H  29.83100 49.14700 29.68300
H  29.15600 49.35600 23.22200
H  23.58600 52.24300 24.05700
H  26.16300 51.31900 32.01900
H  27.90400 48.93600 31.31700
H  28.44500 50.96900 32.92300
H  29.11700 51.73100 31.42900
H  29.73400 50.19100 31.95600
H  25.89200 48.32000 32.14000
H  24.45100 49.19300 31.60400
H  24.34200 48.57300 33.93200
H  23.98100 50.24900 33.58900
H  32.34800 47.52300 27.58300
H  31.28100 47.90900 28.96800
H  32.13900 49.23600 28.22300
H  33.51800 48.04000 24.01200
H  32.82100 46.89000 25.14300
H  33.24600 48.47000 25.76700
H  27.07000 49.69900 21.76000
H  25.02800 51.79700 22.17100
H  28.44800 52.04800 22.32200
H  27.07200 52.57100 21.31600
H  28.34400 51.41800 20.83000
H  23.80600 49.43500 23.04600
H  24.74700 49.05800 21.66600
H  23.03300 49.89700 20.54400
H  23.31300 51.48300 21.05200
H  22.19100 50.55900 22.02400
H  20.96300 53.63000 26.81100
H  21.14600 52.59600 25.39100
H  22.15700 53.96500 25.42900
H  23.10600 51.27900 30.97200
H  22.71500 53.76500 34.41300
H  23.95500 54.72000 33.65400
H  24.38900 53.15000 34.34700

