158

Mg 16.71200 -1.17400 28.09200
C  15.46000 0.65200 30.92800
C  19.02300 -2.48400 30.16300
C  18.25700 -2.38100 25.36700
C  14.42000 0.70400 26.12900
N  17.12000 -0.91600 30.25500
C  16.50200 -0.21500 31.26600
C  17.07500 -0.54800 32.63900
C  18.44100 -1.39200 32.22600
C  18.15400 -1.64200 30.76500
C  19.79600 -0.68700 32.56100
C  16.09900 -1.30800 33.61900
C  15.74300 -0.65900 34.97300
H  16.87500 0.13800 35.71300
N  18.33800 -2.41100 27.78200
C  19.10300 -2.89000 28.78100
C  20.08400 -3.82000 28.23500
C  19.91400 -3.74700 26.81900
C  18.76000 -2.89800 26.56600
C  21.02800 -4.50700 29.04100
C  20.67000 -4.44300 25.64800
O  20.22400 -4.63200 24.52400
C  22.07300 -4.92500 25.88000
N  16.46500 -0.82700 26.14700
C  17.14600 -1.51500 25.14900
C  16.71600 -1.04600 23.76300
C  15.42800 -0.20600 23.98900
C  15.40700 -0.09900 25.48800
C  17.91600 -0.35300 23.02100
C  14.10700 -0.74400 23.35900
C  13.24200 0.02100 22.33300
N  15.17100 0.35700 28.44700
C  14.32700 1.04000 27.52400
C  13.41800 1.96400 28.22800
C  13.79000 1.77700 29.61700
C  14.91600 0.89600 29.66500
C  12.22200 2.74000 27.66100
C  13.49600 2.17900 31.00500
O  12.74700 3.01200 31.45300
C  14.56600 1.38500 31.93600
C  15.29400 2.38700 32.75500
O  16.44400 2.82900 32.53900
O  14.48100 2.82600 33.76700
C  15.10300 3.97900 34.40300
H  19.75000 -2.81400 30.90800
H  18.70200 -2.78000 24.45300
H  13.72800 1.14400 25.40800
H  17.41300 0.38300 33.09300
H  18.52400 -2.39300 32.65000
H  20.57900 -0.92100 31.84000
H  20.11200 -1.05300 33.53800
H  19.64900 0.39100 32.62500
H  16.52400 -2.29800 33.78300
H  15.31500 -1.66200 32.94900
H  15.47000 -1.43700 35.68500
H  14.91700 0.04700 34.87400
H  22.03100 -4.22700 28.71800
H  20.89700 -5.56700 28.82400
H  20.96000 -4.38300 30.12200
H  22.57100 -4.11600 26.41500
H  22.39700 -5.07400 24.85000
H  21.95500 -5.85700 26.43300
H  16.50300 -2.00300 23.28600
H  15.59300 0.82100 23.66500
H  18.89200 -0.27700 23.50100
H  17.68100 0.61100 22.56800
H  18.12300 -1.05900 22.21700
H  13.36900 -0.89800 24.14700
H  14.36400 -1.75200 23.03600
H  12.20300 -0.09300 22.64100
H  13.20600 -0.42100 21.33800
H  13.57900 1.05500 22.26400
H  11.38800 2.43800 28.29500
H  12.06000 2.47400 26.61700
H  12.48500 3.79700 27.68700
H  14.19900 0.71400 32.71300
H  15.31200 4.77900 33.69400
H  16.01800 3.73000 34.94200
H  14.34300 4.30000 35.11500
Mg 40.32900 9.77800 29.47600
C  42.52500 10.90200 31.93600
C  38.06600 8.81600 31.62400
C  38.57600 8.37400 26.81500
C  43.04000 10.28600 27.01500
N  40.36900 9.76800 31.53400
C  41.30100 10.38500 32.32500
C  40.71300 10.43400 33.71000
C  39.39500 9.57900 33.57600
C  39.27700 9.29200 32.15800
C  39.48000 8.18100 34.30600
C  40.44100 11.91300 34.10400
C  39.85100 12.12700 35.55900
H  40.73000 12.83900 36.50400
N  38.58100 8.84800 29.26500
C  37.77200 8.60000 30.29700
C  36.55200 7.98700 29.84400
C  36.59400 7.95900 28.42400
C  37.93600 8.49000 28.09000
C  35.35300 7.50300 30.70600
C  35.52300 7.52400 27.38300
O  35.83900 7.44900 26.26500
C  34.14600 7.21400 27.86900
N  40.74000 9.40500 27.24200
C  39.87400 8.74900 26.41400
C  40.40600 8.55000 25.04000
C  41.75200 9.39900 25.12400
C  41.86900 9.76200 26.55000
C  40.58200 7.06200 24.63800
C  41.88400 10.69400 24.21400
C  40.88300 11.85300 24.54600
N  42.39700 10.37000 29.42200
C  43.34800 10.58300 28.40200
C  44.55000 11.16000 28.97500
C  44.19900 11.35500 30.35600
C  42.90800 10.73800 30.56400
C  45.87200 11.30300 28.30400
C  44.71600 11.84400 31.61500
O  45.75500 12.37900 31.83700
C  43.65600 11.58600 32.71800
C  44.14900 10.88300 33.92400
O  44.78300 9.89900 33.93800
O  43.74800 11.56200 35.04600
C  44.15000 11.04400 36.35400
H  37.21700 8.64200 32.28800
H  37.97800 8.12900 25.93500
H  43.83400 10.17900 26.27300
H  41.37900 10.11400 34.51100
H  38.46600 10.06900 33.86500
H  39.00900 8.13900 35.28900
H  40.54000 7.93900 34.38400
H  39.22700 7.31400 33.69700
H  39.86400 12.38300 33.30700
H  41.41900 12.38100 33.99100
H  39.78400 11.10900 35.94300
H  38.84400 12.54400 35.54600
H  35.44100 6.41900 30.62300
H  34.37100 7.83700 30.37000
H  35.60000 7.79200 31.72800
H  33.95500 6.43100 28.60300
H  33.49300 7.08500 27.00600
H  33.87900 8.14200 28.37400
H  39.74600 9.04100 24.32400
H  42.62000 8.81700 24.81400
H  41.52900 6.64900 24.98500
H  40.55100 6.99500 23.55100
H  39.70500 6.50500 24.96700
H  41.78300 10.38500 23.17400
H  42.91000 11.04600 24.32300
H  40.18200 11.38800 25.24000
H  40.49200 12.37600 23.67400
H  41.26100 12.62600 25.21500
H  45.97200 12.33800 27.97600
H  45.97700 10.59100 27.48500
H  46.71300 11.03100 28.94100
H  43.23900 12.53100 33.06300
H  43.84100 11.74300 37.13200
H  45.21600 10.83300 36.42800
H  43.54000 10.16600 36.56700

