158

Mg 0.53500 41.99700 25.39100
C  1.81600 41.89500 28.75500
C  -2.39400 40.95700 26.51200
C  -0.26100 41.22800 22.27200
C  3.80500 42.87700 24.34900
N  -0.20600 41.57500 27.38900
C  0.41200 41.60400 28.58900
C  -0.52300 41.34200 29.75900
C  -1.79100 40.77100 29.09500
C  -1.44900 41.11900 27.55600
C  -2.05800 39.26700 29.39600
C  -0.69900 42.79200 30.35700
C  -0.99800 42.72300 31.95100
H  -1.66300 41.51000 32.69300
N  -1.18600 41.38900 24.43500
C  -2.33900 41.09900 25.09500
C  -3.37800 40.88000 24.13000
C  -2.73600 40.90000 22.81500
C  -1.33700 41.16500 23.15200
C  -4.84500 40.67800 24.41700
C  -3.37100 40.75200 21.42300
O  -2.72400 40.97600 20.40400
C  -4.86000 40.56100 21.38500
N  1.60100 42.00700 23.64800
C  1.06600 41.61600 22.43300
C  2.09500 41.69100 21.37900
C  3.10700 42.67500 21.95900
C  2.86800 42.47000 23.43100
C  2.63200 40.33500 20.74200
C  3.09200 44.19700 21.55400
C  3.98200 44.59300 20.34500
N  2.47100 42.21600 26.32400
C  3.65300 42.67600 25.73800
C  4.67700 42.96600 26.78400
C  4.02700 42.63900 28.06500
C  2.67500 42.16800 27.67400
C  6.05400 43.45500 26.53500
C  4.09500 42.47700 29.48100
O  4.99900 42.59700 30.24400
C  2.70200 42.06000 29.92600
C  2.73000 40.77100 30.68800
O  2.90100 39.62400 30.30900
O  2.28800 41.08600 31.97200
C  1.81200 39.97400 32.77400
H  -3.39100 40.58500 26.75700
H  -0.42100 40.87500 21.25100
H  4.78200 43.17800 23.96600
H  0.08600 40.70500 30.40100
H  -2.70100 41.28900 29.39500
H  -2.41400 39.22000 30.42500
H  -1.22400 38.62400 29.11500
H  -2.83800 38.86600 28.74700
H  -1.57500 43.14800 29.81400
H  0.18900 43.36300 30.08800
H  -1.52000 43.65000 32.18600
H  0.02900 42.92100 32.25700
H  -5.37700 41.53700 24.00600
H  -5.00800 40.77300 25.49100
H  -5.26200 39.73100 24.07600
H  -5.27400 40.29600 20.41200
H  -5.32800 41.48000 21.73600
H  -4.96800 39.67100 22.00500
H  1.70900 42.24700 20.52500
H  4.05100 42.21500 21.66900
H  1.89000 39.53700 20.78600
H  3.50500 39.96100 21.27700
H  2.83400 40.54300 19.69200
H  3.42700 44.85500 22.35600
H  2.08600 44.52700 21.29300
H  3.33900 44.95100 19.54100
H  4.51700 43.74300 19.92000
H  4.74500 45.33500 20.58000
H  6.09600 44.17700 25.72000
H  6.73900 42.67100 26.21500
H  6.34500 43.94000 27.46700
H  2.35200 42.86800 30.56900
H  1.51600 40.56200 33.64300
H  2.62300 39.25900 32.91600
H  0.91000 39.51800 32.36500
Mg -1.79000 33.43000 26.93100
C  -3.58700 31.71200 29.34500
C  -0.55900 35.48700 29.32800
C  -0.54000 35.32000 24.48500
C  -3.45100 31.49600 24.38100
N  -2.10000 33.67300 28.99800
C  -2.82500 32.74800 29.87800
C  -2.59100 33.10700 31.36100
C  -1.70100 34.35600 31.29100
C  -1.46300 34.54600 29.74000
C  -2.28300 35.55400 32.08700
C  -2.04000 31.90300 32.25100
C  -2.94700 31.57400 33.49100
H  -2.16900 31.44800 34.80500
N  -0.56600 35.18700 26.92700
C  -0.10600 35.79400 27.99900
C  0.87000 36.82200 27.49400
C  0.77400 36.87000 26.05000
C  -0.16700 35.80700 25.75600
C  1.73900 37.57200 28.43500
C  1.52400 37.74400 25.10100
O  1.45400 37.66000 23.88000
C  2.29300 38.80700 25.61200
N  -2.01600 33.45800 24.68400
C  -1.33000 34.33600 23.96900
C  -1.54600 34.14800 22.47300
C  -2.39700 32.84700 22.41500
C  -2.60600 32.50600 23.92900
C  -2.02500 35.42600 21.66000
C  -1.78600 31.64000 21.69100
C  -0.85800 30.71800 22.48400
N  -3.17700 31.94800 26.77400
C  -3.80200 31.22400 25.70500
C  -4.77800 30.32400 26.22400
C  -4.73100 30.45500 27.63300
C  -3.73200 31.48000 27.90700
C  -5.54600 29.28400 25.37400
C  -5.26200 29.93900 28.92900
O  -6.01200 28.94200 29.12100
C  -4.53500 30.77500 29.98800
C  -5.44300 31.47900 30.92600
O  -5.83600 32.62900 30.92700
O  -5.86100 30.53200 31.86300
C  -6.68000 31.15300 32.90300
H  -0.03400 36.12600 30.04000
H  0.01900 35.82900 23.69800
H  -4.07700 30.94200 23.67900
H  -3.61700 33.21900 31.71100
H  -0.80400 34.14000 31.87200
H  -2.51700 36.39200 31.43100
H  -1.61900 35.94200 32.86000
H  -3.26600 35.32500 32.50000
H  -1.05700 32.08600 32.68500
H  -1.93100 30.99600 31.65600
H  -3.53300 30.67300 33.30600
H  -3.55900 32.43200 33.76700
H  1.34000 38.58400 28.49700
H  2.78900 37.40900 28.19000
H  1.62300 37.19400 29.45100
H  2.77700 39.37200 24.81500
H  3.09800 38.38000 26.20900
H  1.67900 39.49100 26.19700
H  -0.58200 33.91100 22.02400
H  -3.40000 33.09400 22.06700
H  -2.10000 36.23600 22.38500
H  -2.96400 35.31000 21.11800
H  -1.17900 35.75300 21.05500
H  -1.11600 31.98600 20.90400
H  -2.49500 31.05600 21.10300
H  -0.64400 31.09600 23.48400
H  0.03300 30.60400 21.86500
H  -1.32800 29.74300 22.61200
H  -4.84600 28.98700 24.59300
H  -6.50000 29.62100 24.96800
H  -5.77200 28.35100 25.88900
H  -4.00100 30.04900 30.60100
H  -6.22900 32.04500 33.33700
H  -6.89400 30.42600 33.68700
H  -7.63300 31.40100 32.43500

