158

Mg 7.42000 53.59500 41.78500
C  6.75300 50.02000 41.61900
C  10.67600 52.84100 40.92600
C  7.92200 56.85700 41.15700
C  4.04500 54.09000 42.23500
N  8.48600 51.68900 41.31200
C  8.08500 50.35000 41.36100
C  9.24700 49.45600 41.18900
C  10.54400 50.32900 41.23200
C  9.84500 51.71000 41.18000
C  11.45100 50.14600 42.44300
C  9.23200 48.41800 39.91500
C  9.37700 48.94200 38.47400
H  8.31300 48.56000 37.44700
N  8.99000 54.69600 40.96500
C  10.22500 54.24300 40.74500
C  11.10300 55.32800 40.39000
C  10.41100 56.50300 40.46300
C  9.02700 56.06300 40.92500
C  12.51300 55.15000 39.89900
C  10.99900 57.82000 40.15000
O  12.07800 58.00200 39.59700
C  10.11600 59.04200 40.24800
N  6.12700 55.19200 41.54300
C  6.62800 56.44800 41.53100
C  5.51700 57.47900 41.75600
C  4.27700 56.60500 41.91600
C  4.81700 55.21000 41.92200
C  5.78400 58.38800 42.99500
C  3.24200 56.83900 40.84000
C  1.77300 56.61900 41.30200
N  5.69800 52.33000 42.07200
C  4.38300 52.68800 42.21700
C  3.56200 51.45100 42.34000
C  4.47600 50.38900 42.15600
C  5.74300 50.99800 41.90300
C  2.10100 51.38500 42.59500
C  4.61900 48.93200 42.08400
O  3.78700 48.09000 42.23800
C  6.07200 48.63300 41.66500
C  5.89500 48.15700 40.32900
O  5.74100 48.81800 39.33100
O  5.85700 46.80000 40.45400
C  5.44500 46.02400 39.34700
H  11.75600 52.68300 40.96000
H  7.99300 57.94600 41.12700
H  3.02900 54.36400 42.52500
H  9.25100 48.81000 42.06700
H  11.11500 50.01700 40.35800
H  11.16000 49.29700 43.06100
H  11.41100 51.02300 43.09000
H  12.45000 50.01000 42.02900
H  8.71900 47.45600 39.90200
H  10.21100 47.97600 40.10300
H  10.32800 48.72000 37.98900
H  9.25900 50.02100 38.56900
H  12.68100 55.60600 38.92400
H  12.89500 54.13000 39.84200
H  13.26700 55.62600 40.52600
H  9.11500 58.97400 39.82000
H  10.49600 59.87500 39.65700
H  10.07400 59.44500 41.25900
H  5.55600 58.05500 40.83100
H  3.90400 56.73500 42.93200
H  6.55800 57.93400 43.61400
H  4.88800 58.56600 43.58900
H  6.18000 59.33600 42.63000
H  3.37000 56.06900 40.07900
H  3.11600 57.86200 40.48600
H  1.76700 56.57100 42.39100
H  1.33600 55.74000 40.82800
H  1.22000 57.44800 40.86000
H  1.83700 52.42700 42.77500
H  1.87900 50.81600 43.49700
H  1.52700 50.84200 41.84300
H  6.48800 47.88000 42.33400
H  6.33900 45.56900 38.92200
H  4.99500 46.62300 38.55500
H  4.73800 45.28800 39.73000
Mg -2.53500 34.91200 27.01900
C  -3.95600 32.60300 29.27000
C  -1.17700 36.53700 29.81400
C  -1.65900 37.47000 25.12300
C  -4.84400 33.76200 24.65400
N  -2.48800 34.56600 29.24400
C  -3.12400 33.49900 29.93800
C  -2.82700 33.52200 31.42500
C  -2.12500 34.89700 31.53700
C  -1.92900 35.40000 30.12500
C  -2.82200 35.88800 32.44300
C  -1.89400 32.34600 31.86600
C  -2.30400 31.41800 32.98600
H  -1.73400 31.68100 34.46300
N  -1.41300 36.62800 27.35100
C  -0.83500 37.06900 28.56900
C  -0.04700 38.24400 28.23900
C  -0.09500 38.38100 26.84400
C  -1.05400 37.50800 26.38900
C  0.78700 39.02000 29.21500
C  0.67400 39.34000 25.89200
O  0.55800 39.33200 24.67800
C  1.69400 40.27900 26.41400
N  -3.15200 35.52700 25.16000
C  -2.62300 36.59500 24.58700
C  -3.26700 36.84700 23.18800
C  -4.23000 35.58300 23.01400
C  -4.06600 34.85500 24.34500
C  -4.08400 38.17500 23.12800
C  -4.03800 34.73700 21.70600
C  -2.57100 34.16500 21.65700
N  -3.96800 33.41800 26.91300
C  -4.83200 33.06600 25.88700
C  -5.52700 31.83400 26.27400
C  -5.29500 31.72400 27.62100
C  -4.34800 32.68000 27.94100
C  -6.44200 31.12000 25.45600
C  -5.62100 30.97300 28.76400
O  -6.27500 29.90700 28.89900
C  -4.91000 31.67900 29.98600
C  -5.82900 32.34500 30.84000
O  -6.67900 33.20900 30.47700
O  -5.68200 31.98200 32.17800
C  -6.42400 32.84400 33.10500
H  -0.82400 37.10300 30.67800
H  -1.55700 38.46300 24.68000
H  -5.47600 33.26100 23.91700
H  -3.75900 33.62700 31.98100
H  -1.12700 34.84000 31.97300
H  -3.86500 35.57100 32.44000
H  -2.89100 36.87300 31.97900
H  -2.45400 35.94600 33.46700
H  -0.90300 32.72600 32.11200
H  -1.70100 31.72600 30.98900
H  -1.98200 30.40300 32.75500
H  -3.37800 31.52800 33.13500
H  0.52400 40.06200 29.39600
H  1.82400 38.90100 28.89900
H  0.77800 38.56500 30.20500
H  2.19700 40.82600 25.61600
H  2.51000 39.68600 26.82800
H  1.33800 41.00200 27.14700
H  -2.47900 36.99300 22.44900
H  -5.31100 35.71900 23.04100
H  -5.14900 37.94700 23.12300
H  -3.91300 38.67200 22.17300
H  -3.91200 38.88400 23.93900
H  -4.19200 35.35100 20.81800
H  -4.78600 33.94700 21.77100
H  -2.55400 33.15500 22.06700
H  -1.87400 34.85200 22.13600
H  -2.22100 34.14900 20.62500
H  -6.08600 31.29700 24.44100
H  -7.42000 31.58000 25.59700
H  -6.48900 30.07900 25.77500
H  -4.41600 30.91000 30.57900
H  -7.26600 33.41100 32.70800
H  -5.76200 33.53400 33.62900
H  -6.82900 32.24500 33.92000

