158

Mg 1.35500 7.63200 25.95200
C  1.92700 9.55500 28.84900
C  1.32600 4.78100 27.96000
C  1.28300 5.79400 23.16600
C  1.53600 10.49000 24.11900
N  1.89100 7.18400 28.14900
C  1.87800 8.21500 29.11200
C  1.60200 7.53300 30.47700
C  1.70300 6.03400 30.19500
C  1.65100 5.97300 28.69500
C  3.01500 5.24200 30.72500
C  0.33000 8.00300 31.15700
C  0.32800 8.16800 32.75300
H  1.58100 7.74700 33.52000
N  1.41300 5.52600 25.61800
C  1.33600 4.53300 26.57700
C  0.91500 3.30000 25.93500
C  0.87300 3.55300 24.59900
C  1.19100 4.99500 24.35500
C  0.58700 2.03000 26.72000
C  0.52500 2.61800 23.45200
O  0.43500 3.06100 22.34000
C  0.10600 1.13500 23.71800
N  1.56600 8.03400 23.91200
C  1.44500 7.16400 22.92000
C  1.30100 7.85700 21.51500
C  1.28400 9.30100 21.89100
C  1.43700 9.31100 23.45900
C  2.42900 7.43200 20.47000
C  0.04900 10.09700 21.38000
C  0.52700 10.76100 20.13100
N  1.66700 9.61800 26.39400
C  1.79500 10.66000 25.47400
C  2.13400 11.92700 26.17200
C  2.17400 11.51500 27.48000
C  1.88600 10.16700 27.60100
C  2.29800 13.28600 25.55800
C  2.43400 12.06800 28.85000
O  2.82600 13.18600 29.29300
C  2.13500 10.81000 29.74200
C  3.14900 10.71400 30.83700
O  4.27600 10.19200 30.72900
O  2.65800 11.29400 31.99200
C  3.57300 11.82000 32.96100
H  1.22400 3.90100 28.59900
H  1.07400 5.25100 22.24200
H  1.38700 11.40900 23.54900
H  2.50800 7.81200 31.01500
H  0.80700 5.54900 30.58200
H  3.59500 5.76900 31.48200
H  3.69000 4.97700 29.91100
H  2.72500 4.23400 31.02100
H  -0.51300 7.32600 31.02300
H  0.19700 8.99700 30.72900
H  -0.54200 7.71900 33.23000
H  0.20200 9.22900 32.97100
H  -0.21900 1.47300 26.24300
H  0.28000 2.28600 27.73400
H  1.51400 1.46600 26.82500
H  0.69700 0.71200 24.53100
H  0.35800 0.60700 22.79800
H  -0.92600 1.10200 24.06700
H  0.31400 7.59800 21.13100
H  2.20300 9.78000 21.55700
H  3.03900 8.31400 20.27500
H  2.02700 7.22900 19.47700
H  3.03400 6.59900 20.82700
H  -0.35700 10.84800 22.05800
H  -0.76500 9.43000 21.09700
H  0.79700 10.06400 19.33800
H  1.34800 11.44600 20.34600
H  -0.28100 11.32900 19.67200
H  2.46100 14.08700 26.27900
H  1.33800 13.46000 25.07200
H  3.11100 13.37600 24.83700
H  1.23400 11.04300 30.31000
H  4.29200 12.27900 32.28200
H  4.03700 11.04800 33.57500
H  3.12800 12.57500 33.60900
Mg 35.24900 1.53600 30.19600
C  32.97100 2.88800 32.46200
C  37.67500 1.87000 32.36700
C  37.40800 0.94300 27.65800
C  32.69500 1.84600 27.70900
N  35.36200 2.47600 32.10200
C  34.28500 2.70400 32.96100
C  34.58300 2.63000 34.42500
C  36.14600 2.66100 34.36000
C  36.43100 2.29900 32.82300
C  36.95000 3.91600 34.79000
C  33.91000 1.49500 35.31500
C  33.39500 1.74900 36.73600
H  34.06000 2.81500 37.58000
N  37.24300 1.28700 30.06200
C  38.07600 1.37100 31.06400
C  39.43900 0.99000 30.70800
C  39.38200 0.75700 29.28300
C  37.98300 0.97600 28.89800
C  40.58900 0.94300 31.65600
C  40.43500 0.31800 28.33700
O  40.22500 0.34900 27.14200
C  41.81500 0.08700 28.78500
N  35.12300 1.52300 27.97500
C  36.13900 1.21700 27.22400
C  35.74500 1.16600 25.76800
C  34.22800 1.20800 25.83700
C  33.93900 1.50900 27.25100
C  36.36400 2.34200 24.97200
C  33.54000 -0.08100 25.34200
C  33.33700 -0.22000 23.90100
N  33.24900 2.24700 30.06200
C  32.33400 2.22800 29.01900
C  31.05500 2.59000 29.48000
C  31.18200 2.93000 30.80000
C  32.54700 2.68400 31.11800
C  29.75800 2.62000 28.66100
C  30.63500 3.39100 32.06600
O  29.51900 3.77000 32.37600
C  31.78400 3.34000 33.17800
C  31.92500 4.69700 33.75500
O  32.45600 5.68600 33.22200
O  31.25700 4.71300 34.94900
C  31.21700 5.98500 35.70500
H  38.42600 1.80700 33.15700
H  37.91400 0.62600 26.74300
H  31.84700 1.84500 27.02000
H  34.31700 3.54400 34.95600
H  36.63500 1.85500 34.90800
H  37.69300 3.57600 35.51200
H  36.26900 4.64200 35.23300
H  37.57100 4.39200 34.03100
H  34.50700 0.58400 35.28000
H  33.01100 1.18300 34.78300
H  33.77100 0.92200 37.33800
H  32.31700 1.91100 36.69900
H  41.36700 0.21200 31.43700
H  40.07900 0.63600 32.56900
H  41.02300 1.91600 31.88700
H  42.21900 0.98100 29.25900
H  42.44300 -0.18100 27.93600
H  41.80000 -0.82300 29.38600
H  36.06400 0.28000 25.21900
H  33.80200 1.99000 25.20900
H  36.89300 3.03000 25.63200
H  35.55900 2.92200 24.52100
H  36.90900 1.98000 24.10100
H  32.57800 -0.25900 25.82300
H  34.29000 -0.79000 25.69200
H  34.12000 -0.90000 23.56600
H  33.51600 0.73800 23.41400
H  32.37800 -0.72100 23.77100
H  29.70000 3.67800 28.40400
H  28.92100 2.42800 29.33100
H  29.78900 1.95800 27.79500
H  31.47900 2.62900 33.94600
H  30.31100 6.49600 35.37900
H  32.06500 6.63800 35.50000
H  31.14500 5.78900 36.77500

