158

Mg 49.41400 35.95600 27.37800
C  46.93500 34.37600 29.61700
C  49.33400 38.54800 29.55700
C  50.97600 37.65700 25.12300
C  48.56200 33.41000 25.05600
N  48.26600 36.34000 29.29800
C  47.60300 35.45500 30.12100
C  47.55400 36.02200 31.54300
C  47.78700 37.54300 31.38800
C  48.51000 37.53200 29.98800
C  46.47700 38.43700 31.54600
C  48.78800 35.42500 32.31900
C  48.72900 35.65400 33.86100
H  47.56000 36.44700 34.59300
N  50.15200 37.78700 27.39400
C  50.03800 38.74100 28.36400
C  50.81400 39.90400 27.98000
C  51.43900 39.60600 26.69100
C  50.86600 38.30300 26.34800
C  50.88500 41.12100 28.90500
C  52.29500 40.44500 25.73600
O  52.59100 40.16900 24.54700
C  52.81300 41.76400 26.23400
N  49.72200 35.58100 25.39200
C  50.50500 36.41800 24.68600
C  51.01400 35.81200 23.38400
C  50.12100 34.46900 23.27100
C  49.40700 34.42600 24.68600
C  51.14600 36.62700 22.10700
C  51.03500 33.14800 23.11700
C  50.40500 32.08400 22.19100
N  48.12400 34.19200 27.28500
C  47.89000 33.24500 26.28800
C  47.00500 32.21100 26.75000
C  46.62900 32.59700 28.06000
C  47.21900 33.85300 28.27000
C  46.50900 31.00600 25.99300
C  45.85800 32.23900 29.19300
O  45.19900 31.20100 29.41000
C  45.90300 33.42300 30.17800
C  46.32100 32.86900 31.51600
O  47.35600 32.37500 31.87400
O  45.27300 33.04500 32.36000
C  45.14100 32.31800 33.63300
H  49.40900 39.32200 30.32500
H  51.64100 38.05600 24.35400
H  48.32800 32.66900 24.28900
H  46.62600 35.83500 32.08200
H  48.55500 37.78400 32.12300
H  46.27100 38.97800 30.62200
H  46.43900 39.05200 32.44500
H  45.56600 37.84100 31.60400
H  49.74500 35.75700 31.91700
H  48.86500 34.34600 32.18800
H  49.62900 36.18200 34.17500
H  48.81600 34.68800 34.35800
H  49.96100 41.28600 29.45900
H  51.07800 41.96300 28.24000
H  51.60700 40.86100 29.68000
H  52.00400 42.47000 26.41900
H  53.56000 42.12800 25.52800
H  53.25800 41.49000 27.19000
H  52.06600 35.69000 23.64200
H  49.27900 34.68400 22.61400
H  50.37900 36.41000 21.36300
H  52.09600 36.47900 21.59300
H  51.06500 37.70800 22.21500
H  51.13200 32.67800 24.09600
H  52.00500 33.40200 22.69100
H  49.89300 32.48900 21.31800
H  49.86300 31.43500 22.87900
H  51.24900 31.47500 21.86900
H  46.10100 31.40900 25.06600
H  45.96000 30.32900 26.64800
H  47.34300 30.36700 25.70300
H  45.00200 34.03500 30.13400
H  46.09900 32.09200 34.10200
H  44.45200 31.47600 33.70200
H  44.61000 32.96100 34.33500
Mg 10.07500 48.17000 26.21900
C  7.91200 47.78700 29.10400
C  12.35500 49.62600 28.13100
C  12.08600 48.05800 23.56200
C  7.38100 47.06400 24.30300
N  10.08800 48.70500 28.32800
C  9.17600 48.44200 29.36400
C  9.78400 48.88500 30.68200
C  10.95800 49.76300 30.28000
C  11.21400 49.31200 28.87400
C  10.80500 51.26500 30.54200
C  10.15400 47.69600 31.62000
C  9.55300 47.63300 32.98000
H  9.81900 46.37800 33.86600
N  11.94000 48.93100 25.86900
C  12.77300 49.37400 26.82100
C  14.09200 49.56600 26.22700
C  13.95200 49.15200 24.87500
C  12.59300 48.74200 24.67200
C  15.22800 50.03400 27.02900
C  14.98700 49.13500 23.89900
O  14.80800 48.92800 22.67800
C  16.39300 49.34800 24.29900
N  9.68200 48.00400 24.14700
C  10.75700 47.84700 23.27800
C  10.42100 47.02500 22.03100
C  8.96900 46.48400 22.30800
C  8.60300 47.29300 23.67600
C  10.75500 47.74900 20.69700
C  8.90200 44.91600 22.46300
C  8.77800 43.88800 21.26100
N  8.00800 47.58500 26.56100
C  7.07000 47.10100 25.67200
C  5.83300 46.85100 26.40200
C  6.15500 47.08300 27.79100
C  7.49200 47.44300 27.76900
C  4.56800 46.41300 25.82000
C  5.56600 47.22400 29.11200
O  4.39700 47.14900 29.47200
C  6.79500 47.32900 30.02800
C  6.99600 46.05800 30.81200
O  7.92500 45.22800 30.74300
O  6.00200 45.97500 31.82300
C  6.21500 44.85800 32.74400
H  13.03200 50.28800 28.67500
H  12.84100 47.63800 22.89400
H  6.69100 46.63600 23.57300
H  9.11100 49.49000 31.29100
H  11.85900 49.60500 30.87200
H  11.73400 51.67800 30.93600
H  10.00000 51.51100 31.23400
H  10.50700 51.73300 29.60400
H  11.23700 47.75700 31.72000
H  9.81300 46.79600 31.10800
H  8.49200 47.56700 32.74000
H  9.80400 48.55600 33.50300
H  14.86000 50.41300 27.98200
H  15.80400 50.82200 26.54300
H  15.81400 49.15900 27.31300
H  16.56700 50.33200 24.73300
H  17.03100 49.28400 23.41800
H  16.65800 48.62200 25.06800
H  11.09000 46.16500 22.05300
H  8.29100 46.89000 21.55700
H  11.65500 47.37200 20.21200
H  11.05400 48.75900 20.97900
H  10.11500 47.80000 19.81600
H  8.07300 44.79700 23.16000
H  9.84200 44.64800 22.94500
H  9.68600 43.36500 20.96200
H  8.37600 44.57900 20.52000
H  8.03800 43.11000 21.44800
H  4.33700 47.04200 24.96000
H  3.94300 46.54400 26.70400
H  4.58500 45.36600 25.51800
H  6.56300 48.11000 30.75300
H  7.13300 45.04200 33.30200
H  6.23400 43.88000 32.26300
H  5.37200 44.74600 33.42600

