158

Mg 44.31400 4.52000 47.07600
C  42.25100 7.26600 46.41400
C  41.60500 2.45500 46.48800
C  46.37700 1.88800 46.81200
C  46.96100 6.74600 47.23600
N  42.26200 4.87100 46.41800
C  41.60800 6.06100 46.25500
C  40.13500 5.88700 45.87300
C  39.90600 4.42300 46.37900
C  41.39700 3.86000 46.51400
C  39.26500 4.39300 47.77800
C  40.06300 5.93000 44.31100
C  39.23600 7.02900 43.66800
H  39.48100 7.28100 42.20600
N  44.00900 2.40700 46.83200
C  42.83500 1.78600 46.62000
C  43.10800 0.31500 46.59900
C  44.48900 0.13600 46.38700
C  45.06300 1.50800 46.63800
C  42.06600 -0.75300 46.44900
C  45.22500 -1.09000 46.14000
O  44.54100 -2.08000 45.91100
C  46.76000 -1.24100 46.10200
N  46.37300 4.34300 46.93200
C  46.94800 3.13100 47.06600
C  48.49100 3.23200 47.19300
C  48.73500 4.81800 47.25700
C  47.26900 5.36300 47.13600
C  49.02200 2.37600 48.35800
C  49.74000 5.43900 46.28100
C  51.10700 5.97300 46.82500
N  44.59900 6.58500 47.02400
C  45.70800 7.33200 47.11000
C  45.42200 8.72800 47.10100
C  44.01500 8.79900 46.82200
C  43.61200 7.41300 46.72700
C  46.36300 9.82000 47.36000
C  42.87200 9.71400 46.56500
O  42.69700 10.92200 46.42300
C  41.68500 8.70900 46.25400
C  40.71900 9.05300 47.31500
O  40.95700 9.00100 48.49000
O  39.46800 9.42600 46.81300
C  38.43300 9.66800 47.75800
H  40.72300 1.81300 46.54500
H  47.17000 1.15100 46.66900
H  47.76100 7.47500 47.38200
H  39.48800 6.69000 46.22500
H  39.39700 3.83000 45.61900
H  39.20400 5.41900 48.14000
H  39.80400 3.84900 48.55500
H  38.24600 4.01400 47.70000
H  39.59400 5.07000 43.83200
H  41.08800 5.91900 43.94000
H  39.30000 7.98000 44.19600
H  38.20200 6.68800 43.61400
H  42.19900 -1.31900 45.52800
H  41.03500 -0.44200 46.27800
H  42.21000 -1.46300 47.26300
H  47.32400 -0.94700 46.98700
H  47.20400 -0.88100 45.17400
H  46.93600 -2.31400 46.02600
H  49.07400 2.95000 46.31700
H  49.04600 5.07400 48.27000
H  48.28100 2.21500 49.14100
H  49.91300 2.82500 48.79700
H  49.34700 1.36300 48.12300
H  49.22300 6.36400 46.02300
H  49.89700 4.82700 45.39300
H  51.87800 5.39800 46.31200
H  51.17100 5.80500 47.90000
H  51.13400 7.05600 46.70900
H  46.23200 10.06700 48.41400
H  46.07000 10.66100 46.73300
H  47.38000 9.49100 47.14100
H  41.18800 8.91700 45.30600
H  38.59900 10.64300 48.21700
H  38.45300 8.89700 48.52800
H  37.47700 9.77400 47.24500
Mg 41.70100 40.69200 26.35100
C  40.95200 43.10300 28.89600
C  42.11400 38.33700 29.00100
C  42.68600 38.46600 24.14000
C  41.66800 43.16600 24.03300
N  41.42300 40.71000 28.77500
C  41.13300 41.78200 29.52500
C  40.97900 41.37200 30.98500
C  41.39200 39.81600 30.98000
C  41.69100 39.57300 29.49600
C  42.61200 39.41100 31.88200
C  39.54800 41.69000 31.41500
C  39.25700 42.74800 32.53700
H  38.49400 42.38500 33.89200
N  42.26900 38.66700 26.51800
C  42.48000 37.93300 27.66600
C  43.02800 36.63100 27.32500
C  43.20000 36.66000 25.91500
C  42.69800 37.95800 25.43500
C  43.34100 35.61400 28.29700
C  43.96300 35.65300 25.07500
O  44.10800 35.83000 23.85900
C  44.58300 34.33100 25.61700
N  42.21800 40.83100 24.40800
C  42.43700 39.74600 23.64800
C  42.45900 40.13600 22.02400
C  41.84800 41.51600 22.10900
C  41.97600 41.88400 23.55800
C  43.85400 39.94900 21.41800
C  40.39600 41.52300 21.55100
C  39.29200 40.80900 22.41200
N  41.29600 42.69200 26.39300
C  41.35700 43.59800 25.35400
C  41.14800 44.89600 25.84700
C  40.92100 44.71800 27.24800
C  41.04100 43.39300 27.51600
C  40.98300 46.19000 25.00000
C  40.54500 45.48300 28.43000
O  40.21700 46.67600 28.55500
C  40.59400 44.50100 29.55300
C  41.63200 45.07900 30.53800
O  42.75600 45.44000 30.25900
O  41.02900 45.17900 31.79500
C  41.82500 45.70800 32.85100
H  42.01800 37.65100 29.84500
H  43.00400 37.79100 23.34200
H  41.37200 43.85400 23.23900
H  41.59700 41.96400 31.66000
H  40.55300 39.13400 31.11300
H  43.42400 38.93800 31.33100
H  42.20000 38.69000 32.58800
H  42.95000 40.34400 32.33300
H  39.12600 40.76100 31.79900
H  38.92800 41.88300 30.54000
H  38.63100 43.55100 32.14700
H  40.22000 43.06800 32.93600
H  44.41400 35.47200 28.42600
H  42.84400 34.68900 28.00500
H  42.98800 35.96000 29.26900
H  44.88100 33.67400 24.80000
H  43.80000 33.87400 26.22200
H  45.44900 34.69600 26.17000
H  41.74800 39.52100 21.47200
H  42.37200 42.21300 21.45400
H  44.50600 39.99500 22.29000
H  44.12400 40.72100 20.69700
H  43.77800 39.08000 20.76500
H  40.41100 40.94300 20.62800
H  40.10200 42.54100 21.29500
H  39.49900 39.74800 22.55200
H  38.39900 40.94700 21.80300
H  39.08200 41.35400 23.33300
H  40.92400 47.11500 25.57300
H  40.07500 46.19300 24.39700
H  41.70000 46.23000 24.18000
H  39.61600 44.43900 30.03100
H  42.51300 46.47700 32.49900
H  42.40300 44.92900 33.34700
H  41.10700 46.20400 33.50400

