158

Mg -1.41700 17.21800 27.28900
C  -1.97600 14.90500 29.85800
C  -2.14900 19.71300 29.51400
C  -1.13100 19.39000 24.67300
C  -1.46300 14.58900 24.99700
N  -1.98200 17.26800 29.46300
C  -1.99400 16.23500 30.37300
C  -2.30200 16.74900 31.81500
C  -2.47900 18.30200 31.59700
C  -2.21600 18.49500 30.10400
C  -3.88900 18.86800 32.15500
C  -1.27700 16.30800 32.88900
C  -1.01400 17.27600 34.06000
H  -0.36200 16.72100 35.32900
N  -1.55100 19.26600 27.15100
C  -1.83700 20.11300 28.17300
C  -1.94500 21.51900 27.63400
C  -1.53700 21.41400 26.27600
C  -1.36000 19.97500 25.95100
C  -2.15900 22.71900 28.47900
C  -1.44000 22.47700 25.27200
O  -0.97800 22.34200 24.13700
C  -1.94700 23.79900 25.58800
N  -1.27100 16.99500 25.11100
C  -1.09300 18.06000 24.31400
C  -0.76800 17.58000 22.83000
C  -0.70200 16.05900 22.97700
C  -1.13800 15.83900 24.43400
C  -1.90900 17.96000 21.80800
C  0.67600 15.46600 22.51500
C  1.93200 15.96400 23.32400
N  -1.68700 15.20800 27.31500
C  -1.63600 14.26400 26.36300
C  -1.84800 12.98800 26.92400
C  -1.91800 13.23100 28.29500
C  -1.79600 14.55000 28.49900
C  -2.06000 11.62800 26.23400
C  -2.13600 12.47000 29.52100
O  -2.33300 11.28600 29.76600
C  -2.14000 13.58300 30.64300
C  -1.04600 13.26300 31.53900
O  0.14500 13.37300 31.28800
O  -1.58200 12.92300 32.74000
C  -0.61600 12.75900 33.81400
H  -2.36200 20.53800 30.19700
H  -1.03800 20.06600 23.82000
H  -1.33200 13.74900 24.31100
H  -3.27400 16.37500 32.13800
H  -1.67600 18.84200 32.10000
H  -4.27700 18.23300 32.95200
H  -4.53100 18.97200 31.28000
H  -3.82100 19.88700 32.53600
H  -0.30300 16.11500 32.43900
H  -1.72600 15.49200 33.45600
H  -1.96400 17.76400 34.27500
H  -0.32200 18.00300 33.63500
H  -3.23600 22.72800 28.64400
H  -1.79500 23.65100 28.04500
H  -1.74800 22.48200 29.46000
H  -2.23000 24.24100 24.63200
H  -1.13400 24.38600 26.01400
H  -2.81100 23.58400 26.21700
H  0.25800 17.81700 22.54900
H  -1.44700 15.63500 22.30400
H  -1.71900 17.65000 20.78000
H  -2.16100 19.01700 21.89800
H  -2.74700 17.40500 22.22900
H  0.72900 15.49500 21.42600
H  0.55000 14.39900 22.69500
H  1.62800 16.71900 24.04900
H  2.55300 16.44300 22.56700
H  2.43500 15.11000 23.77800
H  -1.26800 11.51300 25.49400
H  -3.04600 11.63400 25.76900
H  -1.95300 10.84300 26.98200
H  -3.10100 13.70600 31.14200
H  -1.29800 12.32900 34.54700
H  -0.21000 13.73100 34.09400
H  0.16000 12.00800 33.66000
Mg 1.34200 -1.58900 43.52400
C  4.71700 -0.92700 42.90200
C  0.56500 1.03400 41.58500
C  -1.85800 -2.63500 43.58100
C  2.30300 -4.62000 44.91700
N  2.54100 -0.24500 42.26100
C  3.92400 -0.11100 42.14200
C  4.37900 1.00800 41.17600
C  3.03000 1.77100 41.03000
C  1.92100 0.77500 41.65800
C  2.85800 3.23300 41.69400
C  4.88600 0.41400 39.87200
C  6.27200 0.88500 39.28700
H  6.42000 0.96600 37.78900
N  -0.42800 -0.81200 42.72900
C  -0.56100 0.28400 42.01300
C  -1.94200 0.54100 41.77000
C  -2.67900 -0.48500 42.28800
C  -1.67700 -1.37500 43.02400
C  -2.34400 1.70400 40.86300
C  -4.17800 -0.68100 42.13700
O  -4.88900 -0.01100 41.38500
C  -4.98700 -1.77600 42.89600
N  0.35500 -3.39100 44.14500
C  -0.95700 -3.55600 44.09700
C  -1.37700 -4.98400 44.55300
C  -0.07500 -5.64200 44.92700
C  0.91300 -4.48700 44.61900
C  -2.64200 -5.16500 45.52300
C  0.14600 -7.09800 44.52900
C  -0.67300 -8.17600 45.19200
N  3.10100 -2.54700 44.02500
C  3.34700 -3.78600 44.63900
C  4.78400 -3.99800 44.84500
C  5.36400 -2.87500 44.23800
C  4.31500 -1.99700 43.80100
C  5.47400 -5.18500 45.49200
C  6.65800 -2.20600 43.88600
O  7.79500 -2.45600 44.30700
C  6.27900 -1.00000 42.99300
C  7.10000 0.21900 43.39400
O  7.86700 0.76700 42.61700
O  7.17300 0.42400 44.82300
C  8.11800 1.50500 45.20400
H  0.37200 1.90400 40.95300
H  -2.87400 -3.01600 43.46200
H  2.57800 -5.54900 45.42200
H  5.09700 1.63600 41.70300
H  2.76200 1.87500 39.97800
H  3.61400 3.48400 42.43800
H  1.90500 3.38000 42.20100
H  3.00400 4.05000 40.98700
H  4.17500 0.54200 39.05600
H  5.00100 -0.66000 40.01300
H  7.05600 0.21600 39.64400
H  6.40200 1.91100 39.62900
H  -1.86900 1.50600 39.90200
H  -1.96100 2.61400 41.32400
H  -3.43200 1.77000 40.85400
H  -6.01800 -1.45200 43.04100
H  -4.60000 -2.02600 43.88400
H  -4.86500 -2.71900 42.36400
H  -1.77800 -5.49900 43.68000
H  -0.01300 -5.77500 46.00700
H  -2.92400 -4.15600 45.82300
H  -2.11600 -5.68900 46.32100
H  -3.45600 -5.68900 45.02100
H  1.21400 -7.23500 44.69600
H  0.05500 -7.20800 43.44800
H  -1.24000 -8.72400 44.43800
H  -1.22300 -7.88200 46.08600
H  0.12800 -8.88100 45.41300
H  6.43000 -4.95500 45.96200
H  5.55600 -5.97000 44.74000
H  4.90200 -5.59000 46.32700
H  6.67300 -1.31000 42.02500
H  7.75800 2.51200 44.99600
H  9.06400 1.48200 44.66300
H  8.34100 1.43500 46.26900

