158

Mg -2.47400 16.98200 26.60800
C  -3.03200 14.73800 29.35100
C  -3.23700 19.64400 28.75800
C  -2.12000 19.04300 24.02500
C  -2.40400 14.26400 24.59000
N  -2.77500 17.23100 28.91700
C  -2.99500 16.09800 29.77900
C  -3.30500 16.62400 31.15300
C  -3.43800 18.23200 30.92900
C  -3.20200 18.37900 29.44100
C  -4.69200 19.07200 31.43300
C  -2.20400 16.06800 32.16300
C  -1.65600 16.88600 33.28200
H  -1.14800 16.23900 34.59300
N  -2.55900 19.03800 26.45400
C  -2.82000 19.96700 27.46600
C  -2.78900 21.25300 26.82900
C  -2.49300 21.11300 25.44300
C  -2.32600 19.68700 25.25600
C  -3.33100 22.40800 27.68500
C  -2.47300 22.20100 24.34700
O  -2.15800 22.04200 23.18000
C  -2.69300 23.65900 24.90900
N  -2.47500 16.71800 24.57000
C  -2.07600 17.74600 23.67600
C  -1.85900 17.21900 22.24400
C  -1.85300 15.68500 22.51000
C  -2.26100 15.51600 23.96900
C  -2.96300 17.69000 21.19900
C  -0.48500 15.03400 21.95100
C  -0.69300 14.10400 20.66900
N  -2.75000 14.92300 26.85500
C  -2.59200 13.93600 25.94000
C  -2.81400 12.63900 26.52700
C  -2.98900 12.89600 27.88600
C  -2.90500 14.29900 28.03200
C  -2.85300 11.31800 25.80500
C  -3.18100 12.27800 29.14800
O  -3.33500 11.11600 29.47700
C  -3.12800 13.45800 30.19100
C  -1.93700 13.20700 31.01400
O  -0.75800 13.22800 30.70700
O  -2.33100 12.89700 32.32700
C  -1.38900 12.53500 33.35900
H  -3.35100 20.49600 29.43100
H  -1.86700 19.67000 23.16800
H  -2.40500 13.42700 23.88900
H  -4.31000 16.24100 31.33400
H  -2.63000 18.70800 31.48400
H  -5.53800 18.41300 31.62800
H  -5.01600 19.83700 30.72700
H  -4.50200 19.61100 32.36100
H  -1.31600 15.60300 31.73600
H  -2.53000 15.19600 32.72900
H  -2.43800 17.56900 33.61300
H  -0.76900 17.34700 32.84700
H  -4.04600 22.98200 27.09600
H  -2.55400 23.12000 27.96400
H  -3.91800 22.12000 28.55700
H  -3.74100 23.71000 25.20700
H  -2.41700 24.31000 24.08000
H  -2.00400 23.87100 25.72600
H  -0.96500 17.80500 22.03000
H  -2.66400 15.15900 22.00700
H  -3.96900 17.33400 21.42400
H  -2.69600 17.37800 20.19000
H  -3.15800 18.76200 21.15900
H  -0.08900 14.43500 22.77100
H  0.25100 15.79800 21.69900
H  -1.71600 14.09100 20.29300
H  -0.53100 13.08900 21.03000
H  -0.04500 14.26100 19.80700
H  -1.84100 11.10100 25.46200
H  -3.53600 11.17100 24.96900
H  -3.12500 10.59600 26.57500
H  -3.92600 13.42000 30.93200
H  -1.51100 12.99900 34.33800
H  -0.38000 12.78800 33.03200
H  -1.53800 11.46000 33.46700
Mg 10.00900 47.34400 26.19600
C  7.79600 47.34100 29.02800
C  12.30800 48.67500 28.29800
C  12.00400 47.57800 23.61700
C  7.25400 46.84200 24.18400
N  10.03200 47.87100 28.48900
C  9.04000 47.74300 29.44300
C  9.54300 48.19900 30.82300
C  10.73700 49.11700 30.32000
C  11.07500 48.56000 28.94600
C  10.41900 50.66800 30.19400
C  10.10700 46.98000 31.80700
C  9.58200 46.94400 33.29000
H  9.75400 45.72700 34.12000
N  11.89200 47.86400 25.93200
C  12.69100 48.28800 26.96200
C  14.09700 48.27600 26.45800
C  13.99500 47.90200 25.11700
C  12.61900 47.79100 24.83900
C  15.27300 48.71000 27.24100
C  15.11700 47.57200 24.09800
O  14.81300 47.34500 22.94100
C  16.47800 47.51000 24.54900
N  9.62500 47.37500 24.14400
C  10.64500 47.39400 23.27400
C  10.24100 47.19600 21.73900
C  8.70100 46.98000 22.01700
C  8.48600 47.12100 23.54600
C  10.58400 48.41200 20.82700
C  7.95800 45.75700 21.42700
C  8.19600 44.42700 22.08200
N  7.96400 47.04700 26.46400
C  6.99300 46.85700 25.54300
C  5.71000 46.73400 26.18200
C  6.00600 46.76000 27.50900
C  7.35700 47.10100 27.68100
C  4.38000 46.41700 25.49200
C  5.43400 46.62400 28.84200
O  4.27900 46.29700 29.18600
C  6.58500 47.02200 29.84700
C  6.88300 45.81600 30.73400
O  7.70800 44.99000 30.41400
O  5.97900 45.76700 31.77000
C  6.10900 44.59100 32.64500
H  13.16200 49.13700 28.79700
H  12.62700 47.53600 22.72100
H  6.41900 46.75700 23.48500
H  8.81500 48.76200 31.40800
H  11.64800 48.97100 30.90200
H  11.27300 51.17700 30.64200
H  9.50800 50.92800 30.73300
H  10.32900 51.02200 29.16800
H  11.18600 47.08800 31.92200
H  10.06900 45.98900 31.35500
H  8.51900 47.18200 33.23800
H  10.20200 47.72900 33.72200
H  15.06700 48.88600 28.29700
H  15.69900 49.66200 26.92600
H  16.02400 47.92500 27.16100
H  17.16000 47.32300 23.71900
H  16.51800 46.65400 25.22300
H  16.87500 48.39700 25.04200
H  10.63900 46.32800 21.21500
H  8.12200 47.80900 21.61100
H  11.17900 49.12800 21.39300
H  9.71200 48.99900 20.53700
H  11.22000 48.25700 19.95500
H  8.39700 45.62100 20.43900
H  6.89800 46.00200 21.36800
H  7.23900 44.05000 22.44300
H  8.84900 44.48600 22.95300
H  8.65300 43.68700 21.42600
H  4.62600 45.96200 24.53300
H  3.73400 47.29500 25.47300
H  3.88700 45.61200 26.03700
H  6.26700 47.80500 30.53500
H  6.41400 44.92600 33.63600
H  6.72900 43.75700 32.31800
H  5.09300 44.21200 32.75400

