158

Mg 8.31500 2.76300 27.27300
C  9.81200 1.05900 30.05500
C  7.00300 4.94900 29.44700
C  6.46400 3.78600 24.74600
C  9.68100 0.21300 25.25100
N  8.32200 2.86200 29.55100
C  9.09200 2.16600 30.43100
C  8.92600 2.77700 31.83100
C  7.88800 3.94900 31.62600
C  7.79100 4.00900 30.13100
C  6.56800 3.71800 32.40500
C  10.28300 3.29900 32.39200
C  10.13700 3.92900 33.79500
H  11.09900 3.47400 34.91500
N  7.02200 4.26400 27.04700
C  6.62900 5.06800 28.08900
C  5.79700 6.18000 27.50800
C  5.54400 5.83800 26.11300
C  6.33100 4.59900 25.91000
C  5.49500 7.39000 28.29000
C  4.78500 6.50700 25.06200
O  4.63000 5.92200 23.96300
C  3.96400 7.69400 25.28200
N  8.02300 2.14100 25.29500
C  7.15800 2.65400 24.39700
C  7.14200 2.06600 23.03700
C  8.33400 1.06900 23.11500
C  8.72600 1.13300 24.62300
C  5.77400 1.56400 22.61000
C  9.49200 1.48300 22.15100
C  10.23900 0.31100 21.58800
N  9.51000 1.13700 27.51800
C  9.97200 0.14400 26.59000
C  10.84200 -0.78400 27.31700
C  10.80600 -0.44500 28.62800
C  9.96200 0.67000 28.73600
C  11.60900 -1.99100 26.83600
C  11.26100 -0.84100 29.96600
O  11.98600 -1.81300 30.33400
C  10.62200 0.16200 30.96800
C  10.02500 -0.57800 32.15000
O  8.96800 -1.14100 32.11500
O  10.91900 -0.49600 33.26600
C  10.30200 -1.16100 34.42000
H  6.74400 5.79600 30.08600
H  5.81600 3.92000 23.87800
H  10.04400 -0.60500 24.62500
H  8.49200 2.00800 32.47000
H  8.28500 4.94700 31.81100
H  5.77400 3.47700 31.69900
H  6.22900 4.61500 32.92300
H  6.67000 2.97800 33.19900
H  10.84400 3.97700 31.74900
H  11.02700 2.51300 32.52200
H  9.07900 3.75100 33.98500
H  10.42300 4.97700 33.70300
H  6.03900 7.47200 29.23100
H  4.43200 7.41700 28.53200
H  5.77000 8.15400 27.56200
H  3.02400 7.59400 24.73900
H  4.44000 8.66200 25.12600
H  3.74900 7.67800 26.35000
H  7.46200 2.83200 22.33200
H  7.92600 0.09000 22.86200
H  5.33800 2.30900 21.94400
H  5.09300 1.40500 23.44600
H  5.86700 0.63900 22.04000
H  10.17200 2.12200 22.71400
H  9.19300 2.14500 21.33800
H  10.47600 0.48700 20.53900
H  9.71700 -0.62200 21.80000
H  11.21000 0.29000 22.08400
H  11.44700 -2.76100 27.59000
H  12.64000 -1.64600 26.75500
H  11.11600 -2.31000 25.91700
H  11.43800 0.79700 31.31200
H  10.09700 -2.22900 34.34100
H  9.44400 -0.56500 34.73100
H  10.90900 -1.14300 35.32600
Mg 16.96700 -2.85900 27.04200
C  16.07200 -0.94500 30.00800
C  18.76000 -4.86300 28.97800
C  18.33400 -4.04400 24.23500
C  15.29200 -0.33700 25.19400
N  17.24300 -2.92600 29.29400
C  16.84200 -2.12500 30.31500
C  17.56400 -2.50500 31.64400
C  18.61500 -3.63400 31.21700
C  18.20500 -3.79400 29.75600
C  20.06900 -3.24800 31.31500
C  16.58100 -2.84700 32.75200
C  16.78700 -2.35300 34.19900
H  18.10000 -1.59800 34.62300
N  18.17400 -4.37200 26.62900
C  18.77400 -5.10700 27.57400
C  19.47300 -6.20500 26.96400
C  19.38000 -6.04800 25.57000
C  18.62700 -4.81800 25.41500
C  20.45900 -7.16100 27.72100
C  19.90000 -6.85700 24.39100
O  19.83700 -6.47300 23.19700
C  20.33000 -8.27300 24.64000
N  16.89300 -2.17000 25.02600
C  17.57700 -2.91300 24.08600
C  17.43500 -2.12700 22.70900
C  16.30900 -1.02400 23.01900
C  16.03900 -1.27300 24.47100
C  18.63600 -1.57600 21.92300
C  15.00000 -1.07400 22.07700
C  14.85300 0.11800 21.11700
N  15.88800 -0.99000 27.41900
C  15.18200 -0.15100 26.54500
C  14.47900 0.81500 27.34300
C  14.81800 0.55800 28.67600
C  15.70500 -0.55700 28.70400
C  13.51800 1.85700 26.72500
C  14.59100 0.98200 30.04400
O  14.01700 2.00600 30.41800
C  15.43600 -0.02500 30.95800
C  16.53400 0.80800 31.62600
O  17.62800 1.05000 31.14600
O  16.04400 1.40600 32.77500
C  16.87200 2.53200 33.25500
H  19.38700 -5.51800 29.58600
H  18.79900 -4.34800 23.29400
H  14.76600 0.46100 24.66500
H  18.00500 -1.61000 32.08200
H  18.41000 -4.55700 31.75900
H  20.41400 -2.80100 30.38300
H  20.65100 -4.14300 31.54000
H  20.14900 -2.51100 32.11400
H  16.63800 -3.93400 32.69800
H  15.56100 -2.62600 32.43700
H  16.85900 -3.26100 34.79800
H  15.95100 -1.67600 34.37100
H  20.35300 -8.15600 27.28900
H  20.41900 -7.25400 28.80700
H  21.42800 -6.73900 27.45500
H  21.33300 -8.30000 25.06600
H  20.39300 -8.70900 23.64300
H  19.62400 -8.81000 25.27300
H  16.89900 -2.81200 22.05100
H  16.86700 -0.08800 22.97200
H  19.57800 -2.06800 22.16700
H  18.94300 -0.65200 22.41300
H  18.40700 -1.42900 20.86800
H  14.04200 -1.23600 22.57100
H  15.13500 -1.92300 21.40800
H  15.76300 0.71600 21.11800
H  14.04200 0.77000 21.44200
H  14.61100 -0.23500 20.11400
H  13.04200 1.42400 25.84500
H  14.12500 2.73500 26.50600
H  12.77800 1.99000 27.51400
H  14.83900 -0.57600 31.68600
H  17.89900 2.23900 33.47600
H  16.37800 2.86800 34.16600
H  16.87100 3.27800 32.46000

