158

Mg 0.96200 7.31700 27.06800
C  1.31000 9.78800 29.49600
C  1.29300 5.02100 29.49900
C  0.79400 4.95500 24.55200
C  1.18400 9.74700 24.56700
N  1.31600 7.39000 29.29000
C  1.24700 8.50400 30.05400
C  1.11400 8.10300 31.61200
C  1.43600 6.61000 31.56300
C  1.33800 6.30300 30.03400
C  2.67900 6.00800 32.27200
C  -0.38000 8.44900 32.03500
C  -0.68800 8.58900 33.54000
H  0.39600 8.57600 34.59100
N  1.10700 5.30300 26.97700
C  1.17600 4.56900 28.13100
C  1.14300 3.23100 27.72600
C  1.16600 3.07700 26.33900
C  1.02800 4.47400 25.90700
C  1.30800 2.18200 28.73000
C  1.22100 1.90200 25.37000
O  1.31400 2.06600 24.16500
C  1.26500 0.46700 25.85600
N  1.08300 7.36300 24.83000
C  0.84300 6.25100 24.03700
C  0.41500 6.66700 22.63800
C  0.63100 8.21800 22.56900
C  0.97300 8.47000 24.03100
C  1.09800 5.82300 21.56000
C  -0.56300 9.02200 22.00200
C  -0.26000 10.46300 21.53100
N  1.18900 9.31100 27.00200
C  1.34800 10.13400 25.90700
C  1.55100 11.46500 26.38000
C  1.61100 11.36400 27.80800
C  1.38800 10.04300 28.09100
C  1.83000 12.64800 25.48700
C  1.85200 12.14900 28.97300
O  2.03100 13.34500 29.13100
C  1.57200 11.12700 30.13900
C  2.76700 11.14000 31.02100
O  3.92900 10.88400 30.69400
O  2.30700 11.38500 32.31800
C  3.31300 11.62600 33.43000
H  1.28500 4.26400 30.28600
H  0.70400 4.30500 23.68000
H  1.21500 10.52100 23.79600
H  1.84400 8.61000 32.24300
H  0.67000 6.04900 32.09800
H  2.48100 5.25200 33.03200
H  3.31900 6.76500 32.72600
H  3.28800 5.62500 31.45300
H  -0.92700 7.60300 31.62000
H  -0.67300 9.31900 31.44800
H  -1.40600 7.79400 33.74300
H  -1.22200 9.54000 33.56100
H  1.82700 1.31200 28.32700
H  0.40000 1.95400 29.28800
H  2.01800 2.48400 29.49900
H  2.29900 0.39700 26.19400
H  1.04200 -0.21700 25.03800
H  0.53200 0.46300 26.66300
H  -0.64700 6.42100 22.64000
H  1.35200 8.54000 21.81700
H  0.39400 5.12600 21.10600
H  1.88900 5.19500 21.97100
H  1.45900 6.56000 20.84300
H  -1.19100 9.19300 22.87600
H  -1.18000 8.40400 21.35000
H  -0.77700 10.64200 20.58800
H  0.80300 10.62200 21.34900
H  -0.65300 11.22200 22.20800
H  0.87300 12.87400 25.01800
H  2.50800 12.35900 24.68400
H  2.19200 13.54400 25.99100
H  0.70400 11.49900 30.68300
H  3.21200 10.74900 34.06900
H  3.14200 12.48500 34.07900
H  4.32500 11.65900 33.02500
Mg 16.68700 52.45400 26.39700
C  18.41300 50.90200 29.12400
C  14.11700 53.19400 28.63300
C  14.84600 53.52600 23.75900
C  18.79200 50.69000 24.17300
N  16.28700 51.95700 28.60500
C  17.19100 51.49900 29.53500
C  16.75900 51.74800 30.92800
C  15.23700 52.13800 30.71600
C  15.18900 52.51200 29.19300
C  14.17700 51.10500 31.29000
C  17.65700 52.83300 31.58300
C  18.01300 52.59400 33.10900
H  17.05500 51.68600 33.91000
N  14.77000 53.47600 26.27700
C  13.91800 53.61900 27.27300
C  12.74700 54.41200 26.75200
C  12.96700 54.57400 25.31100
C  14.19300 53.81100 25.07200
C  11.65300 54.87800 27.62100
C  12.09400 55.25000 24.25600
O  12.52000 55.31800 23.08700
C  10.84400 55.91900 24.69600
N  16.81200 52.17700 24.29600
C  16.04100 52.86000 23.40300
C  16.51800 52.63600 21.93700
C  17.91800 52.03200 22.15200
C  17.78000 51.45100 23.61100
C  15.60200 51.76300 21.11300
C  19.15900 52.95600 21.93400
C  20.15900 52.55600 20.80600
N  18.34500 51.13300 26.54000
C  19.10000 50.54100 25.54600
C  20.19300 49.79000 26.20000
C  19.96900 49.89400 27.54800
C  18.80100 50.68400 27.71800
C  21.31600 49.02500 25.53500
C  20.46400 49.58100 28.83400
O  21.41400 48.96000 29.25200
C  19.48900 50.21600 29.91700
C  18.92300 49.03500 30.66700
O  18.26700 48.18500 30.10000
O  19.10500 49.17400 31.99100
C  18.80000 48.04900 32.89400
H  13.33100 53.36000 29.37200
H  14.41900 54.00100 22.87300
H  19.48800 50.29300 23.43100
H  16.81200 50.76300 31.39100
H  15.05200 53.09800 31.19800
H  14.58000 50.18100 31.70400
H  13.56100 50.81100 30.43900
H  13.74600 51.64300 32.13400
H  17.12700 53.78000 31.48700
H  18.60100 52.85900 31.03900
H  17.94000 53.63400 33.42600
H  19.02900 52.22500 33.24400
H  10.65400 54.58200 27.30100
H  11.73200 55.96400 27.67700
H  11.69300 54.52000 28.65000
H  11.04700 56.62700 25.49900
H  10.09400 55.18400 24.98900
H  10.38600 56.43900 23.85400
H  16.59600 53.66900 21.59800
H  18.00500 51.15500 21.51100
H  16.16000 51.26000 20.32300
H  14.83600 52.39100 20.65700
H  14.97000 51.02200 21.60100
H  19.85000 52.80600 22.76300
H  18.97600 54.02700 21.85600
H  20.16700 53.38000 20.09200
H  19.74200 51.67700 20.31500
H  21.15700 52.46900 21.23500
H  21.89100 48.38100 26.20000
H  22.03800 49.75500 25.16800
H  20.95500 48.29300 24.81400
H  20.08400 50.86700 30.55800
H  19.60000 47.95500 33.63000
H  18.89800 47.06900 32.42700
H  17.80700 48.08600 33.34300

