158

Mg 9.86700 48.61800 25.69600
C  7.94300 48.36100 28.70400
C  12.53900 49.61000 27.75400
C  11.61600 49.10100 22.96300
C  7.07100 47.79700 23.98600
N  10.07600 49.18200 27.92100
C  9.22300 48.91600 28.91600
C  9.80300 49.25800 30.31500
C  11.09100 49.98600 29.84400
C  11.29500 49.56000 28.40400
C  11.17500 51.54400 30.03800
C  10.03500 48.16000 31.41000
C  9.36900 48.28400 32.81100
H  10.03100 49.08200 33.99900
N  11.82000 49.13200 25.35200
C  12.81500 49.45700 26.35100
C  14.03000 49.50300 25.70900
C  13.76900 49.54700 24.30500
C  12.30900 49.29600 24.13500
C  15.35600 49.72900 26.38100
C  14.80900 49.49900 23.08600
O  14.37800 49.48800 21.91600
C  16.29900 49.48400 23.27300
N  9.32900 48.67300 23.71700
C  10.26100 48.83900 22.75800
C  9.64900 48.74200 21.35100
C  8.32600 48.06200 21.72600
C  8.21400 48.10000 23.21600
C  9.49400 50.05400 20.56400
C  8.17400 46.60800 21.08000
C  8.82100 45.46600 21.87800
N  7.80300 48.30300 26.15800
C  6.77600 47.98800 25.32800
C  5.61100 47.65200 26.16000
C  6.03200 47.89200 27.49700
C  7.34800 48.20100 27.44500
C  4.35900 47.08700 25.75800
C  5.61800 47.82000 28.83000
O  4.51300 47.49700 29.27200
C  6.86700 48.04100 29.73100
C  7.04400 46.79100 30.54200
O  7.68400 45.81000 30.12100
O  6.50300 46.96800 31.83400
C  6.51600 45.86800 32.77800
H  13.39300 49.83900 28.39600
H  12.16100 49.23400 22.02600
H  6.27500 47.36400 23.37700
H  9.13100 50.03500 30.67800
H  11.86300 49.64900 30.53600
H  11.52400 51.86000 29.05500
H  12.05200 51.73700 30.65600
H  10.30800 52.08400 30.41900
H  11.10200 48.08200 31.61900
H  9.64400 47.24200 30.96900
H  9.02800 47.29700 33.12400
H  8.49500 48.92800 32.71000
H  16.10200 48.93900 26.28800
H  15.25500 49.91800 27.44900
H  15.75500 50.65400 25.96500
H  16.70800 50.40400 23.69200
H  16.71100 49.45400 22.26400
H  16.47100 48.56900 23.84000
H  10.27000 48.15000 20.67900
H  7.47500 48.51600 21.21900
H  9.89200 50.93400 21.07100
H  8.43100 50.25300 20.43100
H  9.93700 49.92100 19.57700
H  8.54900 46.49300 20.06300
H  7.09500 46.45500 21.09400
H  7.98300 44.96900 22.36600
H  9.50700 45.89600 22.60700
H  9.43100 44.83900 21.22600
H  4.65600 46.21200 25.18000
H  3.85900 47.82500 25.13200
H  3.64200 46.83100 26.53800
H  6.71600 48.90500 30.37800
H  6.29500 44.84400 32.47800
H  5.79700 46.18800 33.53200
H  7.47500 45.81300 33.29400
Mg -5.76200 25.63300 25.70600
C  -4.53000 27.09800 28.75700
C  -7.66700 23.48800 27.74400
C  -6.80700 24.05500 23.01900
C  -3.48200 27.48900 23.95000
N  -6.21300 25.47500 28.00500
C  -5.54700 26.12700 28.98600
C  -6.07600 25.75300 30.36600
C  -7.06800 24.57500 30.03700
C  -6.98400 24.46000 28.48800
C  -6.63500 23.27700 30.76000
C  -6.72400 26.93700 31.13000
C  -6.53600 26.80400 32.65300
H  -6.14600 25.49200 33.29600
N  -7.18900 24.15900 25.38500
C  -7.70200 23.30100 26.36000
C  -8.67100 22.49900 25.68500
C  -8.43500 22.51100 24.32600
C  -7.44100 23.59300 24.15200
C  -9.72600 21.69500 26.52900
C  -9.16700 21.80900 23.20800
O  -8.93200 22.03500 22.01500
C  -10.24100 20.70100 23.54700
N  -5.20300 25.75700 23.82500
C  -5.75700 24.99000 22.85700
C  -5.09200 25.25100 21.52800
C  -4.05700 26.38700 21.77300
C  -4.23000 26.57300 23.25900
C  -4.30800 23.85000 21.13000
C  -4.33100 27.64400 21.01100
C  -3.40300 27.98400 19.74300
N  -4.30800 27.04100 26.20700
C  -3.41100 27.68100 25.35800
C  -2.70900 28.63000 26.11100
C  -3.02200 28.34600 27.41600
C  -4.07600 27.43000 27.45900
C  -1.72900 29.58300 25.58900
C  -2.66800 28.72200 28.71900
O  -1.83100 29.45400 29.15300
C  -3.71300 28.01300 29.71100
C  -2.97500 27.22400 30.81000
O  -2.55400 26.05300 30.66300
O  -2.77000 28.02100 31.88600
C  -2.26900 27.17800 33.05100
H  -8.20900 22.73800 28.32500
H  -7.10100 23.63600 22.05400
H  -2.92900 28.27500 23.43200
H  -5.15300 25.48700 30.88100
H  -8.04700 24.90500 30.38500
H  -6.46200 22.43200 30.09300
H  -7.27400 22.99200 31.59500
H  -5.69200 23.39800 31.29300
H  -7.80500 26.96400 30.99100
H  -6.22000 27.85400 30.82300
H  -7.49900 27.16400 33.01600
H  -5.85100 27.58900 32.97500
H  -10.67800 21.56700 26.01500
H  -9.94000 22.06900 27.53000
H  -9.35200 20.67300 26.58900
H  -10.03300 20.02600 24.37600
H  -10.30700 20.15500 22.60600
H  -11.12300 21.32000 23.71400
H  -5.82100 25.44500 20.74200
H  -3.02300 26.04900 21.70400
H  -3.24500 24.09000 21.09100
H  -4.77200 23.70600 20.15400
H  -4.53600 23.05700 21.84200
H  -4.34000 28.45800 21.73600
H  -5.34700 27.61500 20.61700
H  -3.13200 29.03800 19.80200
H  -4.02600 27.81700 18.86400
H  -2.47700 27.41000 19.71000
H  -0.99900 29.05600 24.97400
H  -1.23900 30.03200 26.45300
H  -2.16000 30.36600 24.96500
H  -4.42700 28.68800 30.18400
H  -1.22800 27.44100 33.23700
H  -2.54400 26.12300 33.04600
H  -2.87100 27.54800 33.88000

