158

Mg 49.98300 45.71700 42.97100
C  46.69300 46.11700 41.61200
C  50.27300 42.83800 41.06500
C  53.32900 45.82700 43.17200
C  49.88100 49.18000 43.85300
N  48.61300 44.63300 41.51100
C  47.34300 44.96400 41.13500
C  46.77300 44.02600 40.10600
C  47.90200 42.88700 40.03100
C  49.00900 43.49900 40.94700
C  47.38400 41.44600 40.51200
C  46.66200 44.80900 38.72900
C  45.24800 44.87800 38.20300
H  45.00000 44.10100 36.94900
N  51.49900 44.31400 42.62200
C  51.41500 43.21800 41.81700
C  52.71100 42.51200 41.91600
C  53.53000 43.26600 42.74400
C  52.83400 44.54600 42.89100
C  52.94500 41.16700 41.19900
C  54.89800 42.86500 43.20200
O  55.40500 41.83900 42.81700
C  55.81200 43.85400 43.92900
N  51.31000 47.32300 43.30400
C  52.66900 46.99200 43.50500
C  53.45500 48.19900 43.97100
C  52.43000 49.26300 44.37200
C  51.14200 48.56900 43.77600
C  54.69900 48.01900 44.98600
C  52.68000 50.60000 43.72900
C  52.74400 51.79700 44.65100
N  48.55000 47.20400 43.10200
C  48.66300 48.58300 43.43500
C  47.28700 49.17600 43.39500
C  46.50000 48.20600 42.69500
C  47.34100 47.05800 42.44400
C  46.83400 50.61300 43.77300
C  45.15700 47.96100 42.19500
O  44.12500 48.63500 42.22200
C  45.19700 46.56100 41.61100
C  44.27000 45.64300 42.29800
O  44.51600 44.92200 43.29000
O  42.97500 45.70600 41.71200
C  41.97800 44.73900 42.26800
H  50.41400 41.97400 40.41300
H  54.42000 45.86300 43.20300
H  49.87700 50.18200 44.28600
H  45.75200 43.75900 40.37900
H  48.34600 42.73300 39.04700
H  47.74100 40.61000 39.91100
H  46.30400 41.44600 40.65800
H  47.91600 41.26000 41.44500
H  47.26000 44.23300 38.02300
H  47.00900 45.83500 38.85400
H  45.03000 45.92300 37.98000
H  44.46900 44.53900 38.88600
H  52.12800 40.88100 40.53600
H  53.14600 40.33300 41.87200
H  53.87500 41.14500 40.63200
H  56.57000 43.40900 44.57300
H  55.17000 44.54600 44.47500
H  56.21000 44.40900 43.08000
H  53.88500 48.42600 42.99600
H  52.26800 49.41800 45.43900
H  54.90600 46.97300 45.21200
H  54.32000 48.49300 45.89100
H  55.64400 48.45800 44.66500
H  51.87900 50.81200 43.01900
H  53.59300 50.55400 43.13500
H  53.70200 52.24300 44.38400
H  52.71300 51.47500 45.69200
H  51.97300 52.51700 44.37800
H  45.77500 50.77400 43.97500
H  47.23100 51.22700 42.96500
H  47.38400 50.83100 44.68800
H  44.77300 46.63900 40.61000
H  42.39300 43.77000 42.54600
H  41.15900 44.65400 41.55500
H  41.48100 45.15500 43.14400
Mg -1.52000 33.42900 27.20600
C  -3.63200 32.06300 29.79600
C  -0.15400 35.39600 29.68300
C  -0.21400 35.39400 24.88500
C  -3.34800 31.62600 24.94800
N  -1.83800 33.61100 29.54500
C  -2.67500 32.95600 30.33600
C  -2.41600 33.33000 31.78600
C  -1.49100 34.63600 31.71600
C  -1.14500 34.56300 30.23100
C  -2.12400 36.04000 32.05800
C  -1.73300 32.11200 32.54700
C  -2.54000 31.49200 33.67600
H  -1.81000 31.27900 34.99000
N  -0.13200 35.10900 27.30400
C  0.30300 35.72800 28.37200
C  1.26600 36.72600 27.91700
C  1.21100 36.85800 26.52100
C  0.23600 35.76500 26.17500
C  2.12400 37.46800 28.94100
C  1.83300 37.84300 25.52100
O  1.54300 37.78000 24.34400
C  2.67200 38.94000 26.04600
N  -1.72300 33.44600 25.19700
C  -1.01800 34.37200 24.42600
C  -1.33700 34.25100 22.93400
C  -2.10000 32.88400 22.93100
C  -2.37000 32.50300 24.42100
C  -2.13600 35.46000 22.34400
C  -1.31600 31.87300 22.08500
C  0.06200 31.50300 22.59900
N  -3.04300 32.07500 27.30900
C  -3.76700 31.48000 26.30700
C  -4.83200 30.63400 26.77000
C  -4.80000 30.81200 28.15400
C  -3.73800 31.74300 28.44500
C  -5.78300 29.83200 25.88100
C  -5.43400 30.38600 29.35900
O  -6.27700 29.47200 29.52500
C  -4.75600 31.16900 30.50300
C  -5.85900 31.90800 31.30700
O  -6.81300 32.43400 30.83500
O  -5.64100 31.68400 32.63300
C  -6.59800 32.14100 33.56300
H  0.33200 35.95300 30.48700
H  0.12200 36.03400 24.06700
H  -3.87400 31.16700 24.10800
H  -3.36000 33.61200 32.25200
H  -0.55700 34.69600 32.27500
H  -2.53100 36.66500 31.26300
H  -1.34100 36.64000 32.52300
H  -2.93800 35.88900 32.76800
H  -0.75000 32.39000 32.92700
H  -1.49900 31.38100 31.77300
H  -2.68500 30.46400 33.34300
H  -3.42800 32.07700 33.91400
H  3.11400 37.42200 28.48700
H  2.17400 36.91300 29.87800
H  1.92400 38.52500 29.11300
H  3.04500 39.49600 25.18600
H  3.49800 38.64700 26.69400
H  2.14100 39.67500 26.65200
H  -0.40500 34.09400 22.39100
H  -3.08000 32.94500 22.45900
H  -3.00600 35.16400 21.75800
H  -1.60400 36.11500 21.65500
H  -2.44300 35.99800 23.24100
H  -1.18400 32.14000 21.03700
H  -2.04700 31.06500 22.05900
H  0.46600 32.08200 23.43000
H  0.84300 31.51800 21.83900
H  0.07800 30.43200 22.80000
H  -6.79300 30.23900 25.83000
H  -5.77000 28.86200 26.37800
H  -5.41700 29.71800 24.86100
H  -4.23000 30.43700 31.11500
H  -6.11400 32.42200 34.49900
H  -7.35500 31.40900 33.84400
H  -7.11000 33.06600 33.29800

