158

Mg 24.63700 0.92400 30.21200
C  26.42500 0.98500 33.25400
C  21.77100 1.16200 32.04000
C  22.91900 0.91200 27.38100
C  27.58400 0.54600 28.57400
N  24.24000 1.11000 32.40200
C  25.06000 1.10200 33.47200
C  24.28900 1.40000 34.78100
C  22.81700 1.10200 34.33900
C  22.94000 1.13200 32.81500
C  22.22500 -0.24000 34.90600
C  24.64400 2.78900 35.41000
C  25.40200 2.86700 36.71900
H  24.78200 3.67900 37.81800
N  22.63200 0.93400 29.77300
C  21.57100 0.99300 30.65400
C  20.32000 1.03000 29.94500
C  20.60300 0.84900 28.55200
C  22.12700 0.94800 28.51500
C  18.96300 1.18000 30.67000
C  19.67400 0.60200 27.39300
O  20.16700 0.35800 26.28300
C  18.13000 0.52000 27.59600
N  25.13200 0.74700 28.27000
C  24.34100 0.82700 27.22600
C  25.09200 1.18200 25.95500
C  26.56800 0.90500 26.36500
C  26.45000 0.69000 27.83500
C  24.63700 0.37800 24.72200
C  27.51500 2.15100 25.99600
C  27.43800 3.42800 26.88100
N  26.63000 0.74700 30.70400
C  27.72900 0.45600 29.94600
C  28.91200 0.27900 30.77700
C  28.44100 0.62500 32.06900
C  27.03600 0.74900 32.00700
C  30.37700 0.05400 30.32300
C  28.80900 0.85500 33.40700
O  29.95100 0.83700 33.94300
C  27.53300 1.13500 34.25500
C  27.64500 0.04600 35.27300
O  27.07700 -1.03400 35.26700
O  28.45300 0.49900 36.33500
C  28.41000 -0.48600 37.49400
H  20.85400 1.40200 32.58200
H  22.45300 1.00600 26.39800
H  28.56100 0.51600 28.08700
H  24.63400 0.57700 35.40700
H  22.10300 1.87100 34.63100
H  21.39000 -0.03800 35.57700
H  22.91000 -0.86000 35.48500
H  21.75700 -0.81900 34.11100
H  23.72500 3.36900 35.49700
H  25.25100 3.32500 34.68100
H  26.41500 3.25700 36.62400
H  25.67900 1.86400 37.04300
H  19.08400 0.91700 31.72100
H  18.07900 0.76100 30.19000
H  18.78800 2.25500 30.71800
H  17.61900 0.34800 26.64900
H  17.91100 1.54400 27.89900
H  17.90900 -0.18800 28.39500
H  24.99300 2.26000 25.83100
H  26.86000 0.05200 25.75300
H  24.36900 -0.62500 25.05200
H  25.42200 0.22900 23.98100
H  23.80500 0.90400 24.25400
H  27.06200 2.41600 25.04000
H  28.53500 1.79100 25.86000
H  28.42100 3.73500 27.23700
H  26.73600 3.44800 27.71500
H  27.19800 4.23600 26.18900
H  30.44800 0.59900 29.38200
H  30.64500 -1.00100 30.27100
H  30.96700 0.49000 31.12900
H  27.56800 2.08100 34.79400
H  29.26200 -0.23400 38.12500
H  28.51100 -1.49100 37.08500
H  27.52400 -0.20300 38.06200
Mg 34.69100 2.75100 31.09100
C  32.50200 3.67500 33.71400
C  37.25500 2.85300 33.49700
C  36.90700 2.38400 28.63400
C  32.16100 3.14500 28.94900
N  34.89800 3.50400 33.34200
C  33.80900 3.54900 34.17300
C  34.26400 3.68900 35.61500
C  35.85000 3.62100 35.58800
C  36.01900 3.30000 34.02300
C  36.55200 5.01500 35.90700
C  33.71900 2.64000 36.53700
C  33.52900 3.13900 37.98100
H  34.35000 4.36400 38.49900
N  36.76700 2.44300 31.09500
C  37.63100 2.49700 32.17100
C  38.97100 2.28000 31.65200
C  38.88400 2.14000 30.22600
C  37.47900 2.36500 29.91100
C  40.12500 1.93900 32.63300
C  39.95100 1.77600 29.17300
O  39.69600 1.57900 27.99000
C  41.35800 1.68800 29.69600
N  34.57400 2.87500 29.10100
C  35.58600 2.63400 28.26100
C  35.15700 2.54000 26.79400
C  33.58700 2.59000 26.90700
C  33.43800 2.88100 28.37900
C  35.75800 3.68500 25.98600
C  32.91300 1.29300 26.40600
C  31.69500 1.47200 25.42900
N  32.67500 3.21400 31.23900
C  31.80400 3.46600 30.25300
C  30.49000 3.79500 30.74800
C  30.74000 3.88000 32.11700
C  32.05600 3.52500 32.36600
C  29.23900 3.88400 29.87800
C  30.15300 4.17500 33.36000
O  28.95700 4.46900 33.63400
C  31.23600 4.12600 34.42600
C  31.48800 5.42800 35.09900
O  32.03000 6.46300 34.66800
O  30.86700 5.38200 36.36500
C  30.68500 6.64300 37.07000
H  38.10100 2.77500 34.18200
H  37.48800 2.20600 27.72700
H  31.39000 3.03200 28.18400
H  34.00500 4.71200 35.88900
H  36.22000 2.89200 36.31000
H  37.11100 4.86300 36.83000
H  35.74600 5.74000 36.01800
H  37.27200 5.36100 35.16500
H  34.37400 1.77100 36.60600
H  32.74200 2.26900 36.22700
H  33.82600 2.35400 38.67700
H  32.45500 3.27300 38.11100
H  40.38100 0.88300 32.54800
H  40.04800 2.10500 33.70800
H  40.90700 2.63800 32.33700
H  41.73900 2.64200 30.06000
H  42.03000 1.21300 28.98200
H  41.22200 0.91400 30.45100
H  35.57400 1.68300 26.26600
H  33.14300 3.48400 26.46900
H  36.47500 3.34100 25.24100
H  36.25700 4.40900 26.63100
H  34.90700 4.17900 25.51600
H  32.74900 0.58300 27.21600
H  33.57000 0.82100 25.67600
H  31.74400 0.81000 24.56400
H  31.59800 2.50300 25.08900
H  30.77100 1.40400 26.00200
H  29.57500 4.35600 28.95500
H  28.37500 4.48500 30.16100
H  28.86100 2.92300 29.52800
H  30.99000 3.34800 35.14800
H  30.91100 7.48900 36.42000
H  31.31400 6.65500 37.96100
H  29.64500 6.79600 37.35600

