158

Mg 50.12500 45.79400 42.67700
C  46.85300 46.72900 41.52700
C  49.73200 42.85800 40.99100
C  53.41700 45.40600 42.94000
C  50.63100 49.34200 43.33500
N  48.34900 44.93800 41.43400
C  47.15300 45.46300 41.08800
C  46.44200 44.57900 40.03100
C  47.34500 43.29300 40.02200
C  48.57900 43.67600 40.89700
C  46.63500 41.95300 40.40800
C  46.17200 45.19900 38.68700
C  44.67900 45.32300 38.31700
H  44.12500 44.70900 37.04400
N  51.30100 44.23700 42.31400
C  51.04100 43.10500 41.59400
C  52.10700 42.25300 41.73400
C  53.17300 42.90900 42.43500
C  52.64900 44.29000 42.57200
C  52.04700 40.85100 41.15700
C  54.54200 42.38300 42.67200
O  54.86000 41.24300 42.31200
C  55.45200 43.09400 43.54900
N  51.80000 47.16100 43.02600
C  53.06600 46.68800 43.12500
C  54.08600 47.80200 43.38200
C  53.19000 49.03000 43.49500
C  51.74200 48.51500 43.31400
C  55.19500 47.59200 44.51300
C  53.58300 50.22500 42.51400
C  53.75400 51.61100 43.22700
N  48.95000 47.66600 42.71200
C  49.24700 48.97200 43.05200
C  48.07200 49.80200 42.99000
C  47.11300 48.93500 42.39300
C  47.69500 47.69900 42.19300
C  47.91300 51.32900 43.23900
C  45.75700 48.88800 41.87700
O  44.84000 49.73300 41.91800
C  45.54100 47.38100 41.28100
C  44.43200 46.78600 42.04700
O  44.47100 46.33600 43.21900
O  43.31500 46.75600 41.32200
C  42.09600 46.17300 41.94700
H  49.61900 41.87800 40.52200
H  54.50100 45.29800 42.86500
H  50.96500 50.37700 43.43300
H  45.46700 44.26800 40.40700
H  47.68900 43.18300 38.99400
H  46.73500 41.85300 41.48900
H  47.10800 41.05100 40.02000
H  45.61600 41.99600 40.02300
H  46.69600 44.68500 37.88100
H  46.57600 46.20900 38.74500
H  44.60700 46.40700 38.23100
H  44.07700 45.04800 39.18300
H  51.19300 40.67700 40.50200
H  52.07200 40.08900 41.93600
H  52.98300 40.74200 40.60900
H  54.92000 43.77600 44.21200
H  56.18200 43.66700 42.97800
H  55.97600 42.31700 44.10500
H  54.63500 47.92000 42.44800
H  53.30200 49.34900 44.53100
H  55.20500 46.57100 44.89400
H  55.02500 48.15200 45.43300
H  56.21600 47.70600 44.14700
H  52.72500 50.33700 41.85100
H  54.54800 50.13300 42.01400
H  53.54400 51.42900 44.28100
H  52.99300 52.30700 42.87500
H  54.75400 52.03200 43.12700
H  48.37300 51.80100 42.37100
H  48.61400 51.53000 44.05000
H  46.89200 51.70300 43.31600
H  45.22300 47.55600 40.25300
H  41.82600 46.79200 42.80200
H  42.28400 45.14600 42.26000
H  41.37300 46.21800 41.13200
Mg -5.66100 24.83900 26.19900
C  -4.42800 26.30300 29.09200
C  -7.94200 23.07900 28.13000
C  -6.38100 23.12900 23.45100
C  -3.21600 26.57300 24.44100
N  -6.11600 24.74100 28.41700
C  -5.46300 25.37900 29.38700
C  -5.97100 25.07800 30.72700
C  -6.94000 23.91700 30.46800
C  -6.97000 23.83300 28.92000
C  -6.71700 22.56300 31.16100
C  -6.68400 26.25100 31.41500
C  -6.35000 26.50700 32.95000
H  -5.86700 25.31500 33.80100
N  -6.94800 23.32200 25.87900
C  -7.89600 22.83400 26.73300
C  -8.85900 22.06200 25.90000
C  -8.36200 21.96500 24.57100
C  -7.19100 22.76500 24.60500
C  -10.06300 21.28900 26.51500
C  -8.76700 21.02700 23.42100
O  -7.97300 20.82200 22.56200
C  -10.09800 20.24600 23.39900
N  -4.77300 24.68000 24.29600
C  -5.19500 23.89000 23.34800
C  -4.40000 24.11900 22.01000
C  -3.65100 25.42800 22.26300
C  -3.98300 25.63600 23.72100
C  -3.70500 22.83900 21.59500
C  -3.80700 26.58200 21.22000
C  -2.64600 26.91000 20.34800
N  -4.07600 26.17900 26.60300
C  -3.27100 26.90300 25.81100
C  -2.35900 27.73600 26.55500
C  -2.80600 27.53700 27.83900
C  -3.92500 26.69500 27.79700
C  -1.30900 28.60300 25.95900
C  -2.46100 27.86500 29.26600
O  -1.62300 28.57000 29.79400
C  -3.53400 27.08400 30.08600
C  -2.67400 26.26700 31.13000
O  -2.14600 25.15700 30.90500
O  -2.49500 27.03800 32.29100
C  -1.58500 26.49800 33.27600
H  -8.69500 22.68800 28.81700
H  -6.77100 22.84300 22.47200
H  -2.34200 26.94800 23.90600
H  -5.15200 24.57800 31.24300
H  -7.93300 24.24900 30.77100
H  -7.47700 22.47700 31.93700
H  -5.73100 22.58000 31.62700
H  -6.72400 21.75500 30.43000
H  -7.77200 26.25300 31.36100
H  -6.43900 27.23100 31.00400
H  -7.16700 26.92800 33.53600
H  -5.55700 27.25500 32.93000
H  -11.04300 21.68900 26.25400
H  -10.18100 21.39400 27.59300
H  -9.95300 20.22800 26.29000
H  -10.82900 20.94800 23.80200
H  -9.97100 19.37200 24.03800
H  -10.25700 19.87900 22.38500
H  -5.24400 24.28600 21.34100
H  -2.57600 25.24700 22.23700
H  -2.61600 22.83100 21.63900
H  -3.81000 22.67400 20.52300
H  -4.12600 21.93500 22.03700
H  -3.95500 27.45100 21.86100
H  -4.72600 26.51100 20.63700
H  -2.20300 26.02600 19.89000
H  -1.84300 27.32000 20.96000
H  -3.00200 27.62600 19.60600
H  -0.42800 28.05500 25.62500
H  -0.86800 29.23400 26.73100
H  -1.61800 29.21200 25.11000
H  -4.19300 27.75100 30.64200
H  -0.67500 27.08200 33.14400
H  -1.33000 25.45200 33.10400
H  -1.88500 26.67700 34.30800

