158

Mg 17.42600 -0.68600 27.71900
C  16.18800 1.12900 30.34800
C  19.67400 -2.25900 29.77700
C  18.81200 -2.09200 25.01600
C  15.52300 1.43400 25.58300
N  17.87700 -0.58300 29.73800
C  17.08200 0.06500 30.64800
C  17.53500 -0.25200 32.05200
C  18.84600 -1.04900 31.88700
C  18.82600 -1.34600 30.35800
C  20.22700 -0.22800 32.24800
C  16.42000 -0.86800 33.04500
C  16.71000 -0.95800 34.57700
H  17.98900 -0.19900 35.13600
N  18.93500 -2.07900 27.41800
C  19.71400 -2.69800 28.38300
C  20.50500 -3.72100 27.84500
C  20.24100 -3.70900 26.43400
C  19.28900 -2.67100 26.26700
C  21.49800 -4.63500 28.64800
C  20.77300 -4.58900 25.29700
O  20.34200 -4.50000 24.14000
C  21.65700 -5.74300 25.56500
N  17.30600 -0.28400 25.59500
C  18.02100 -0.96100 24.67800
C  17.82200 -0.32100 23.22700
C  16.56200 0.54900 23.44100
C  16.49900 0.59500 24.97400
C  19.11100 0.34000 22.68600
C  15.27200 -0.06600 22.74900
C  14.22000 0.75300 21.99700
N  16.03600 0.90400 27.83700
C  15.32300 1.69300 26.95500
C  14.51200 2.68500 27.66500
C  14.86500 2.43200 28.99800
C  15.80600 1.43700 29.01200
C  13.63000 3.76100 27.04700
C  14.64600 2.90700 30.34800
O  13.90700 3.79800 30.72400
C  15.50100 2.06000 31.29700
C  16.34700 2.97500 32.10400
O  17.28000 3.60500 31.65500
O  15.61100 3.17000 33.29100
C  16.22900 4.09800 34.17600
H  20.24000 -2.75300 30.57000
H  19.14100 -2.50000 24.05900
H  14.82600 2.03700 24.99800
H  17.84800 0.73100 32.40200
H  18.84400 -1.95700 32.49200
H  20.95400 -0.35400 31.44500
H  20.72100 -0.59600 33.14700
H  20.09000 0.80900 32.55800
H  16.04900 -1.81500 32.65200
H  15.54600 -0.22000 32.97300
H  16.72000 -1.99100 34.92400
H  15.90200 -0.50400 35.15000
H  21.25500 -4.74200 29.70500
H  22.54500 -4.44400 28.41200
H  21.35800 -5.65700 28.29800
H  22.44900 -5.67100 26.31000
H  22.18300 -6.05500 24.66200
H  20.97500 -6.49800 25.95600
H  17.66400 -1.10000 22.48100
H  16.69800 1.59900 23.17900
H  18.93000 1.37800 22.40800
H  19.44700 -0.20200 21.80200
H  19.93000 0.40600 23.40200
H  14.62000 -0.45400 23.53200
H  15.59300 -0.81900 22.03000
H  13.93000 0.35800 21.02400
H  14.52600 1.77300 21.76200
H  13.38400 0.82800 22.69200
H  12.71800 3.76300 27.64300
H  13.28900 3.37200 26.08800
H  14.07300 4.74900 26.92700
H  14.83700 1.38400 31.83700
H  16.91500 3.47500 34.75100
H  15.52900 4.64500 34.80600
H  16.69200 4.95200 33.68100
Mg 30.70800 57.94300 39.47000
C  28.05000 56.02900 38.45000
C  32.81200 55.24900 38.52600
C  33.34000 59.82100 40.01400
C  28.42400 60.61300 39.73600
N  30.44400 55.97100 38.36300
C  29.22600 55.34300 38.18300
C  29.36700 53.85400 37.77400
C  30.88000 53.61300 38.11100
C  31.42000 55.07200 38.34700
C  31.16200 52.70100 39.35000
C  28.98200 53.49800 36.32000
C  29.35700 54.51900 35.17400
H  28.21700 55.08300 34.34300
N  32.73900 57.61400 39.37200
C  33.42800 56.45100 38.90600
C  34.80900 56.69400 39.04200
C  35.00900 57.94300 39.64800
C  33.66600 58.52200 39.75700
C  35.73100 55.54400 38.82300
C  36.37900 58.49900 40.07100
O  37.41300 57.86600 39.88800
C  36.56100 59.85300 40.73800
N  30.79300 59.97800 39.89500
C  32.05700 60.52400 40.05000
C  31.94000 62.12000 40.11300
C  30.38100 62.26900 40.14500
C  29.79300 60.87900 39.85600
C  32.75300 62.81800 41.32400
C  29.89100 63.31500 39.10200
C  29.91000 62.84100 37.55900
N  28.61400 58.27500 39.31200
C  27.83700 59.38400 39.55300
C  26.47600 58.99700 39.47200
C  26.46100 57.69500 39.05000
C  27.83700 57.30600 38.93400
C  25.27100 59.77700 39.80100
C  25.62700 56.57200 38.63900
O  24.43800 56.49300 38.55400
C  26.64200 55.41100 38.20200
C  26.19700 54.29500 39.16000
O  26.82600 53.92700 40.13200
O  25.00100 53.81000 38.66900
C  24.37000 52.82800 39.51800
H  33.38600 54.32300 38.45700
H  34.11500 60.58200 40.12100
H  27.73300 61.45800 39.72900
H  28.65800 53.35400 38.43400
H  31.40600 53.14000 37.28200
H  30.22000 52.32600 39.75100
H  31.77400 53.18700 40.11000
H  31.69000 51.77800 39.10900
H  27.91500 53.28100 36.26700
H  29.53500 52.58200 36.11300
H  30.04000 53.98200 34.51500
H  30.00200 55.25600 35.65100
H  36.78300 55.79500 38.96000
H  35.62900 55.15100 37.81100
H  35.48600 54.84200 39.62000
H  35.74000 60.04400 41.42900
H  36.52300 60.62000 39.96500
H  37.55300 59.75100 41.17900
H  32.29400 62.60000 39.20000
H  30.04600 62.43200 41.16900
H  33.50000 62.19300 41.81300
H  32.06000 63.03700 42.13700
H  33.20700 63.72900 40.93600
H  30.48000 64.23200 39.12100
H  28.89400 63.50500 39.49900
H  30.12200 63.72400 36.95500
H  28.91700 62.41100 37.43400
H  30.69400 62.12000 37.32700
H  25.16200 60.68800 39.21300
H  25.19900 59.95900 40.87400
H  24.46200 59.11000 39.50500
H  26.47900 55.08400 37.17500
H  24.01200 52.05000 38.84400
H  23.62300 53.37200 40.09600
H  25.01200 52.34600 40.25500

