158

Mg 9.55100 4.07900 27.35900
C  10.36200 2.47000 30.31300
C  7.75500 6.32400 29.07300
C  8.23700 5.25500 24.39900
C  10.63700 1.22000 25.54500
N  8.95400 4.24900 29.50300
C  9.63700 3.59100 30.51000
C  9.40700 4.27900 31.82900
C  8.29900 5.35500 31.49200
C  8.35200 5.36700 29.88800
C  6.91200 5.18600 32.05500
C  10.79000 4.86500 32.58900
C  10.80200 4.59900 34.08800
H  12.15700 4.59700 34.83600
N  8.30300 5.65700 26.76600
C  7.69100 6.51500 27.64700
C  6.99900 7.61700 26.92900
C  7.18200 7.25200 25.51500
C  7.95000 5.97300 25.53100
C  6.20300 8.73500 27.63400
C  6.72900 8.02300 24.26700
O  6.98900 7.69200 23.07400
C  5.86800 9.15500 24.40400
N  9.62400 3.45200 25.17600
C  8.94500 4.08900 24.20800
C  9.04100 3.35300 22.83900
C  10.01300 2.16100 23.21900
C  10.03500 2.23900 24.74600
C  7.64800 2.86200 22.37100
C  11.40500 2.02500 22.46400
C  11.25000 1.10300 21.21800
N  10.54600 2.32200 27.75600
C  10.95300 1.24800 26.92500
C  11.56200 0.25600 27.71900
C  11.33000 0.65500 29.04400
C  10.69500 1.92000 29.00800
C  12.33300 -0.95400 27.33400
C  11.64100 0.27000 30.42000
O  12.20700 -0.68000 30.92600
C  11.02800 1.49800 31.32100
C  10.04700 0.85400 32.21900
O  9.00600 0.29200 31.91100
O  10.62100 0.74200 33.52200
C  9.83600 0.04700 34.56300
H  7.20800 7.04300 29.68700
H  7.79700 5.70300 23.50600
H  10.75000 0.19700 25.18100
H  8.91000 3.54400 32.46200
H  8.62200 6.29600 31.93600
H  6.17000 5.37500 31.27900
H  6.63400 6.01700 32.70300
H  6.86900 4.23900 32.59300
H  10.75700 5.95000 32.49200
H  11.70000 4.54400 32.08200
H  10.19900 3.74800 34.40300
H  10.34800 5.46700 34.56600
H  6.81200 9.59900 27.90100
H  5.66300 8.22800 28.43400
H  5.37700 9.18100 27.08100
H  6.34700 10.05000 24.80300
H  4.99700 8.93000 25.02000
H  5.42000 9.48200 23.46600
H  9.36000 4.06500 22.07800
H  9.42900 1.25400 23.06300
H  7.21800 3.40100 21.52700
H  6.95000 2.98500 23.19900
H  7.75200 1.84100 22.00300
H  12.22200 1.74200 23.12800
H  11.73400 2.96700 22.02400
H  12.22200 0.66500 20.98700
H  10.84300 1.67500 20.38500
H  10.52200 0.31400 21.40500
H  13.01700 -0.71900 26.51800
H  11.72800 -1.82300 27.07400
H  13.05500 -1.32800 28.06000
H  11.71100 1.98900 32.01400
H  9.37000 -0.85500 34.16700
H  8.90300 0.54800 34.82300
H  10.51100 -0.03900 35.41400
Mg -11.88300 16.62300 42.38500
C  -8.52800 17.68600 42.67500
C  -12.83400 19.95800 42.19700
C  -14.87200 15.67800 41.46100
C  -10.68500 13.29800 42.17500
N  -10.85000 18.53400 42.40200
C  -9.41600 18.72400 42.49700
C  -9.13500 20.14800 42.26700
C  -10.39000 20.90500 42.60400
C  -11.46800 19.72800 42.46300
C  -10.46600 21.59000 44.03600
C  -8.59300 20.36300 40.77300
C  -7.20900 21.10100 40.58000
H  -6.13600 20.35200 39.84000
N  -13.65500 17.67700 42.01700
C  -13.82000 19.00300 41.94600
C  -15.17600 19.30200 41.39500
C  -15.82900 18.05300 41.17900
C  -14.74900 17.06300 41.50600
C  -15.71900 20.73300 41.26200
C  -17.29800 17.77100 40.84600
O  -18.04100 18.65400 40.51700
C  -17.84400 16.36300 40.85300
N  -12.60800 14.72300 41.52900
C  -13.99000 14.67300 41.66100
C  -14.44200 13.23500 41.83400
C  -13.07900 12.48300 41.81500
C  -12.04300 13.55000 41.89100
C  -15.24100 12.96800 43.08800
C  -12.84500 11.72300 40.48800
C  -13.48600 10.37100 40.51200
N  -10.07100 15.64800 42.56200
C  -9.71500 14.30000 42.44000
C  -8.26400 14.15800 42.60500
C  -7.81700 15.51800 42.71900
C  -8.94800 16.30900 42.74900
C  -7.51000 12.95600 42.47100
C  -6.57600 16.34600 42.73800
O  -5.42500 16.04800 42.66400
C  -7.03500 17.76400 42.76200
C  -6.57400 18.45200 43.91800
O  -6.53600 17.94500 45.02500
O  -6.16500 19.70900 43.61900
C  -5.61300 20.52100 44.76300
H  -13.18100 20.99400 42.18500
H  -15.81500 15.18200 41.22100
H  -10.44300 12.23800 42.27000
H  -8.31300 20.45500 42.91400
H  -10.53700 21.63700 41.81000
H  -10.68900 22.64500 43.87600
H  -9.49000 21.51700 44.51700
H  -11.17900 21.08800 44.69000
H  -9.25500 20.94800 40.13400
H  -8.50600 19.36500 40.34400
H  -6.88000 21.39800 41.57500
H  -7.48900 22.00500 40.03800
H  -16.21800 21.02100 42.18700
H  -16.53100 20.80000 40.53800
H  -14.96400 21.41600 40.87000
H  -18.91500 16.52400 40.72600
H  -17.82700 15.94300 41.85800
H  -17.34600 15.75500 40.09700
H  -14.99800 12.97900 40.93200
H  -12.74000 11.78000 42.57600
H  -16.30800 12.83200 42.91100
H  -15.09300 13.70600 43.87700
H  -14.91800 12.05500 43.58700
H  -11.78000 11.57200 40.30800
H  -13.28100 12.27900 39.65900
H  -14.09800 10.05900 41.35900
H  -12.67800 9.63900 40.52300
H  -13.98700 10.10100 39.58300
H  -6.49900 13.03400 42.86800
H  -7.36900 12.85500 41.39400
H  -7.98300 12.04400 42.83500
H  -6.55700 18.19200 41.88200
H  -6.04300 20.36300 45.75200
H  -5.87400 21.52200 44.42100
H  -4.52700 20.50200 44.67600

