158

Mg 7.16400 54.49300 40.24300
C  6.07100 50.93500 39.85200
C  10.17400 53.49800 39.33900
C  7.64600 57.61100 39.61300
C  3.57600 55.08200 40.76800
N  7.96500 52.41800 39.35400
C  7.41700 51.17100 39.44100
C  8.55400 50.14400 39.20300
C  9.82500 50.94000 39.40300
C  9.30800 52.40900 39.27300
C  10.62900 50.65000 40.69900
C  8.49600 49.36800 37.87300
C  8.40200 50.10800 36.56000
H  7.14400 49.80000 35.75600
N  8.71200 55.44000 39.55000
C  9.90100 54.85000 39.29400
C  10.91600 55.91600 39.07800
C  10.25000 57.18800 39.22900
C  8.80900 56.80800 39.49100
C  12.32500 55.57900 38.74400
C  10.89100 58.61000 39.30100
O  12.12400 58.71100 39.26400
C  10.11800 59.90000 39.51700
N  5.83600 56.04700 40.25400
C  6.31400 57.26900 39.89600
C  5.24500 58.34700 39.92000
C  3.90100 57.51600 40.05800
C  4.45400 56.11100 40.46100
C  5.46600 59.43200 40.92600
C  3.02700 57.38100 38.80700
C  1.62800 57.95300 39.04400
N  5.26400 53.32500 40.48000
C  3.98200 53.72800 40.77500
C  3.10100 52.55900 40.97200
C  3.89100 51.52300 40.66600
C  5.16200 51.98600 40.23500
C  1.71300 52.65100 41.31200
C  3.87800 50.07500 40.65500
O  2.98000 49.28900 40.98400
C  5.29200 49.63100 40.08100
C  4.96300 48.75800 38.89100
O  4.39300 49.10700 37.87400
O  5.61900 47.53900 39.05700
C  5.35600 46.68300 37.90500
H  11.21600 53.18300 39.25100
H  7.80500 58.68100 39.46200
H  2.50400 55.28600 40.80600
H  8.49000 49.38900 39.98600
H  10.45600 50.83200 38.52100
H  11.66400 50.35400 40.52900
H  10.03400 49.94400 41.27900
H  10.72700 51.63400 41.15700
H  7.61700 48.73800 38.01100
H  9.31300 48.65200 37.78800
H  9.16800 49.81000 35.84300
H  8.48700 51.18700 36.68500
H  12.80100 54.90400 39.45500
H  12.99900 56.43600 38.75900
H  12.39100 55.09000 37.77200
H  9.69600 60.16600 38.54800
H  10.73800 60.62300 40.04600
H  9.30100 59.77900 40.22900
H  5.29600 58.88500 38.97400
H  3.38400 57.74800 40.99000
H  6.17900 59.11500 41.68800
H  4.56700 59.67200 41.49400
H  5.91000 60.32000 40.47600
H  2.91300 56.38800 38.37200
H  3.53400 58.00200 38.06800
H  1.65300 58.97200 38.65700
H  1.28400 57.90600 40.07700
H  0.89200 57.35600 38.50700
H  1.56300 53.67100 41.66600
H  1.39700 52.08300 42.18600
H  1.07000 52.61200 40.43300
H  5.82600 49.10200 40.86900
H  5.58500 47.30000 37.03600
H  4.32300 46.36000 37.77200
H  6.04000 45.83600 37.95700
Mg 16.14800 53.37900 25.30000
C  17.54000 52.09300 28.17700
C  13.40200 54.44000 27.16000
C  14.66300 54.21800 22.31400
C  18.68200 51.71800 23.41900
N  15.63000 53.25100 27.37500
C  16.35200 52.82000 28.39200
C  15.73100 53.13800 29.73400
C  14.28900 53.45700 29.38800
C  14.42900 53.64200 27.87900
C  13.18100 52.50600 29.84200
C  16.52100 54.22300 30.55000
C  17.13900 53.73100 31.84800
H  16.19000 53.00000 32.86200
N  14.38500 54.39600 24.84500
C  13.39500 54.73100 25.77500
C  12.30300 55.37100 25.03200
C  12.61300 55.18600 23.62800
C  13.96200 54.61800 23.54300
C  11.17200 56.07600 25.80200
C  11.72900 55.42500 22.39000
O  12.00300 55.18700 21.20400
C  10.43900 56.16000 22.66400
N  16.55300 52.85900 23.07500
C  15.88800 53.45700 22.11900
C  16.41600 53.06700 20.67500
C  17.76200 52.45700 21.07800
C  17.68800 52.24700 22.63900
C  15.46200 52.12100 19.84900
C  19.00300 53.32500 20.64200
C  20.08000 52.52300 19.88700
N  17.92000 52.25600 25.63900
C  18.84800 51.71500 24.83900
C  19.90800 51.15200 25.66700
C  19.42700 51.28600 26.99000
C  18.20000 51.91600 26.93600
C  21.18700 50.51200 25.18100
C  19.74700 50.96000 28.44500
O  20.71400 50.42200 28.97100
C  18.49100 51.50900 29.21300
C  18.04300 50.49400 30.18600
O  17.20300 49.61600 30.01300
O  18.85700 50.60100 31.27300
C  18.64600 49.65200 32.35100
H  12.51200 54.77200 27.69800
H  14.31400 54.71000 21.40300
H  19.42600 51.19400 22.81600
H  15.69200 52.25500 30.37100
H  14.05900 54.39100 29.90000
H  13.49800 51.49600 30.10200
H  12.31700 52.31100 29.20800
H  12.74200 53.10700 30.63800
H  15.87700 55.07100 30.78100
H  17.33100 54.46500 29.86100
H  17.44400 54.52200 32.53300
H  18.05800 53.25600 31.50400
H  11.00700 56.99200 25.23400
H  11.46200 56.40000 26.80200
H  10.22900 55.53000 25.82600
H  9.86400 56.17300 21.73900
H  10.70200 57.19700 22.87600
H  9.88400 55.84800 23.54900
H  16.63000 53.98700 20.13000
H  17.80100 51.48200 20.59300
H  15.15400 52.69400 18.97500
H  14.72100 51.76600 20.56600
H  16.07700 51.26600 19.56700
H  19.47800 53.71400 21.54200
H  18.75700 54.19100 20.02700
H  20.71500 53.09000 19.20700
H  19.68200 51.66300 19.35000
H  20.77900 51.98400 20.52700
H  21.57200 50.94200 24.25600
H  20.84200 49.49000 25.02300
H  21.91200 50.46600 25.99400
H  18.88800 52.37600 29.74100
H  18.55000 48.64600 31.94300
H  17.67600 49.92500 32.76700
H  19.47900 49.71100 33.05100

