158

Mg 6.89400 54.30300 41.83100
C  6.52700 50.89600 41.50300
C  10.26600 53.96300 40.71000
C  7.20000 57.72100 41.69200
C  3.52400 54.55200 42.89400
N  8.19300 52.56800 41.16900
C  7.87400 51.24000 41.12700
C  9.11800 50.41500 40.66300
C  10.29600 51.45200 40.85900
C  9.51300 52.77300 40.78900
C  10.97000 51.30800 42.25700
C  9.06800 49.86600 39.22000
C  8.47500 50.79700 38.10900
H  8.00500 50.18500 36.86500
N  8.50900 55.62700 41.24400
C  9.77200 55.29600 40.78700
C  10.57700 56.48300 40.62500
C  9.77900 57.57000 41.04900
C  8.44800 57.01900 41.39000
C  12.02600 56.43800 40.09600
C  10.23300 59.00700 41.15200
O  11.39600 59.28900 40.86600
C  9.39500 60.15700 41.73900
N  5.46900 55.89300 41.99600
C  5.85100 57.22700 41.93300
C  4.66600 58.11800 42.28700
C  3.54600 57.14600 42.77100
C  4.18000 55.76100 42.49200
C  4.92000 59.45300 43.12900
C  2.16200 57.32200 41.98100
C  2.09800 56.90300 40.53500
N  5.34300 53.07700 42.22600
C  4.08200 53.22400 42.63400
C  3.43800 51.95300 42.87600
C  4.38000 51.00700 42.47100
C  5.49400 51.74100 41.99800
C  2.18000 51.79900 43.56400
C  4.59200 49.58300 42.35800
O  3.97300 48.62500 42.66900
C  5.92700 49.48500 41.57800
C  5.89200 48.67000 40.31600
O  5.59300 49.05600 39.20900
O  6.16600 47.34600 40.63200
C  6.02100 46.40800 39.50600
H  11.33200 53.77400 40.57000
H  7.23900 58.78300 41.44300
H  2.50700 54.80200 43.20200
H  9.15700 49.53500 41.30500
H  10.99200 51.34800 40.02600
H  10.50300 50.47600 42.78500
H  10.82100 52.30400 42.67400
H  12.02900 51.07400 42.14300
H  8.66600 48.85400 39.26200
H  10.11600 49.79900 38.92700
H  9.37200 51.40500 38.00200
H  7.70900 51.41000 38.58400
H  12.06200 57.23000 39.34800
H  12.38700 55.50600 39.66200
H  12.79300 56.67400 40.83400
H  9.88600 61.12200 41.86600
H  9.05000 59.86900 42.73200
H  8.49900 60.29200 41.13400
H  4.29100 58.60600 41.38700
H  3.35800 57.24000 43.84100
H  4.23000 59.47100 43.97200
H  4.71800 60.31800 42.49700
H  5.97400 59.50900 43.40100
H  1.93500 58.38600 41.90700
H  1.42200 56.69200 42.47400
H  1.44900 56.03200 40.44400
H  3.06300 56.78600 40.04200
H  1.60800 57.74200 40.04100
H  2.37500 51.66800 44.62800
H  1.71600 50.87300 43.22400
H  1.51900 52.64500 43.37400
H  6.68400 48.92700 42.12900
H  6.56900 45.48300 39.68600
H  6.31100 46.89200 38.57300
H  4.94700 46.23200 39.43300
Mg 9.50200 48.07400 25.94400
C  7.37500 48.10300 28.70600
C  12.00500 49.24300 27.98900
C  11.60500 48.05100 23.33600
C  6.77200 47.47600 23.85100
N  9.72100 48.58000 28.10900
C  8.67100 48.52200 29.07400
C  9.19400 48.87800 30.40900
C  10.44800 49.77300 30.11500
C  10.75900 49.20900 28.68000
C  10.37200 51.30300 30.33000
C  9.45600 47.66500 31.40200
C  9.68200 47.94700 32.91100
H  9.34300 46.87200 33.98600
N  11.55300 48.52300 25.71600
C  12.47400 48.90000 26.70100
C  13.82200 48.92500 26.08200
C  13.69600 48.51500 24.70200
C  12.26200 48.32200 24.57700
C  15.07100 49.25900 26.91900
C  14.78200 48.19600 23.68000
O  14.56900 48.00300 22.54200
C  16.20000 48.23400 24.13900
N  9.26200 47.89200 23.90100
C  10.27400 47.93000 23.01200
C  9.91200 47.36600 21.62500
C  8.39700 47.16200 21.81000
C  8.11800 47.47900 23.29100
C  10.38400 48.14500 20.32500
C  7.72100 45.88500 21.20300
C  6.79700 46.13800 19.96500
N  7.46100 47.85000 26.22800
C  6.45900 47.62300 25.24100
C  5.18900 47.45400 25.82100
C  5.50000 47.70200 27.23100
C  6.89100 47.88100 27.40900
C  3.90800 47.23200 25.16700
C  4.97600 47.71400 28.56100
O  3.88900 47.36000 28.89100
C  6.17100 48.14000 29.55300
C  6.12300 47.07700 30.57300
O  6.53700 45.96400 30.44200
O  5.49400 47.60000 31.66900
C  5.45900 46.72700 32.78700
H  12.74600 49.69900 28.64900
H  12.28400 47.88800 22.49700
H  5.91600 47.27000 23.20400
H  8.52400 49.42600 31.07000
H  11.25400 49.56200 30.81800
H  11.13900 51.63900 31.02900
H  9.45700 51.64300 30.81500
H  10.47600 51.72000 29.32800
H  10.50600 47.42700 31.23300
H  8.90700 46.75900 31.14400
H  9.03100 48.75600 33.24300
H  10.61800 48.49400 33.02100
H  14.92700 49.49400 27.97300
H  15.48400 50.16100 26.46800
H  15.78400 48.43500 26.94600
H  16.13800 47.51100 24.95200
H  16.48800 49.27100 24.31400
H  16.95100 47.87800 23.43400
H  10.32300 46.35700 21.57800
H  7.91400 48.04700 21.39500
H  9.64300 48.93000 20.17400
H  10.28100 47.45100 19.49100
H  11.44200 48.37000 20.45600
H  7.04600 45.37000 21.88600
H  8.51200 45.20500 20.88600
H  7.18600 45.48800 19.18200
H  6.83700 47.18500 19.66300
H  5.77400 45.84500 20.20000
H  3.41000 46.45800 25.75200
H  3.92900 46.99600 24.10300
H  3.41500 48.19500 25.29700
H  6.07700 49.14100 29.97500
H  6.06700 45.82300 32.75500
H  4.42100 46.47900 33.01100
H  5.90100 47.33700 33.57500

