158

Mg 46.85700 25.74900 28.28000
C  47.71500 27.97200 30.80000
C  46.09500 23.40500 30.73700
C  46.30200 23.63100 25.86000
C  48.23400 28.04700 25.96400
N  46.85100 25.76600 30.50600
C  47.24600 26.79300 31.34000
C  47.14500 26.37700 32.86000
C  46.64600 24.85900 32.79600
C  46.54000 24.66600 31.21200
C  47.50600 23.79200 33.57000
C  46.14900 27.29600 33.73000
C  45.68400 26.62800 35.06900
H  45.64600 27.58900 36.25300
N  46.27300 23.77300 28.25700
C  46.01200 22.96800 29.41000
C  45.59400 21.68400 28.92700
C  45.52700 21.76000 27.51600
C  46.06700 23.08900 27.13000
C  45.53800 20.46300 29.78200
C  45.14100 20.74700 26.49900
O  45.17100 20.93200 25.27800
C  44.57900 19.42900 26.90000
N  47.45800 25.73000 26.20500
C  46.94700 24.78800 25.41000
C  46.89300 25.16500 23.94300
C  47.44500 26.60300 23.96700
C  47.77200 26.83000 25.42000
C  47.70100 24.13000 22.96900
C  46.45600 27.62500 23.35800
C  46.99500 28.94900 22.70500
N  47.77000 27.64000 28.36400
C  48.26000 28.41600 27.31400
C  48.72200 29.64700 27.87200
C  48.56800 29.47800 29.25500
C  47.90600 28.28200 29.52000
C  49.22300 30.82500 27.07300
C  48.66900 30.24700 30.50200
O  49.13900 31.34900 30.62300
C  48.04800 29.22600 31.59200
C  49.09600 29.01600 32.54600
O  50.06300 28.27300 32.40600
O  48.97000 29.77000 33.70100
C  49.90500 29.65900 34.83100
H  45.69500 22.78400 31.54100
H  46.01700 23.03900 24.98700
H  48.50000 28.74600 25.16800
H  48.13900 26.39200 33.30700
H  45.66300 24.65000 33.21800
H  48.22800 23.23600 32.97200
H  46.79000 23.12000 34.04300
H  48.19800 24.25000 34.27600
H  45.20500 27.67400 33.33600
H  46.66500 28.21300 34.01500
H  46.40000 25.82800 35.25800
H  44.65200 26.29000 34.96800
H  46.21600 19.67800 29.44600
H  44.51700 20.08600 29.71800
H  45.69100 20.71600 30.83000
H  45.18900 18.90600 27.63700
H  44.42100 18.61700 26.19000
H  43.65100 19.76500 27.36100
H  45.85600 25.09100 23.61400
H  48.41600 26.62700 23.47200
H  46.94900 23.92900 22.20700
H  48.01100 23.21600 23.47600
H  48.52600 24.60100 22.43400
H  45.71400 27.91900 24.10000
H  45.86200 27.17300 22.56300
H  46.77900 29.77400 23.38500
H  46.55200 29.16000 21.73200
H  48.07800 28.87000 22.61400
H  48.90000 31.78200 27.48400
H  48.88900 30.82700 26.03500
H  50.31000 30.90000 27.08600
H  47.26000 29.66800 32.20300
H  50.57200 30.51600 34.73400
H  50.55300 28.78500 34.89400
H  49.35000 29.76000 35.76300
Mg -10.18200 17.02600 41.47600
C  -6.86400 16.71000 41.25800
C  -9.88500 20.47000 40.77500
C  -13.60900 17.16100 40.92600
C  -10.52500 13.46000 41.39700
N  -8.55100 18.40800 40.93600
C  -7.24700 17.94900 41.00000
C  -6.30400 19.17900 40.76600
C  -7.26500 20.43400 41.00700
C  -8.63500 19.75500 40.76500
C  -7.12100 21.09100 42.40000
C  -5.77100 19.19000 39.32200
C  -4.30000 18.65400 39.05700
H  -4.14200 17.37800 38.32200
N  -11.59800 18.60500 40.97300
C  -11.24000 19.95000 40.82500
C  -12.46800 20.65100 40.72300
C  -13.57600 19.74200 40.82900
C  -12.97100 18.43900 40.85100
C  -12.50000 22.08300 40.48000
C  -15.00800 20.13700 40.72800
O  -15.40900 21.28400 40.58000
C  -16.08300 19.16900 40.82400
N  -11.86900 15.54300 41.09400
C  -13.12000 15.86000 40.96600
C  -14.04200 14.63500 41.01200
C  -13.03500 13.37300 41.06700
C  -11.71300 14.21500 41.23900
C  -15.17800 14.70000 42.14100
C  -13.11600 12.45500 39.80200
C  -12.79100 10.94200 40.09200
N  -9.02300 15.44100 41.66600
C  -9.25700 14.04800 41.54200
C  -8.04600 13.32500 41.57500
C  -7.04800 14.31100 41.45600
C  -7.69300 15.60800 41.57900
C  -7.75600 11.85800 41.54500
C  -5.61300 14.61900 41.30500
O  -4.65300 13.88900 41.17400
C  -5.48000 16.12900 41.35900
C  -4.69200 16.60800 42.60700
O  -3.96300 17.58100 42.71300
O  -4.79200 15.68400 43.63000
C  -3.65200 15.47300 44.66400
H  -9.89800 21.56100 40.73900
H  -14.70100 17.18100 40.94900
H  -10.62700 12.37300 41.42700
H  -5.56000 19.20900 41.56200
H  -7.06100 21.17500 40.23400
H  -8.04500 21.22700 42.96300
H  -6.70200 22.07100 42.17100
H  -6.32700 20.60600 42.96800
H  -5.91900 20.15900 38.84500
H  -6.39200 18.49200 38.76100
H  -3.82400 18.53200 40.03000
H  -3.71000 19.44000 38.58600
H  -13.39500 22.52200 40.92000
H  -12.15200 22.28500 39.46700
H  -11.68600 22.62700 40.96000
H  -15.93700 18.44500 40.02200
H  -17.05400 19.62900 40.63800
H  -16.15800 18.74000 41.82300
H  -14.56700 14.66400 40.05700
H  -13.11400 12.75800 41.96400
H  -15.22100 15.63100 42.70600
H  -14.91500 13.89300 42.82600
H  -16.15400 14.54400 41.68100
H  -12.43800 12.81000 39.02600
H  -14.08900 12.44500 39.31100
H  -13.74400 10.44400 39.91000
H  -12.66100 10.83300 41.16800
H  -11.92900 10.62500 39.50500
H  -7.71300 11.48700 40.52100
H  -8.44600 11.20100 42.07300
H  -6.78800 11.80300 42.04300
H  -4.96600 16.39800 40.43600
H  -3.83200 15.78100 45.69400
H  -2.65500 15.81700 44.38800
H  -3.59000 14.38600 44.70600

