158

Mg -1.45200 18.21200 27.34400
C  -2.39700 15.93700 29.90000
C  -1.79900 20.76000 29.39900
C  -0.49300 20.18000 24.72700
C  -1.72200 15.46900 24.99900
N  -1.88300 18.24400 29.40500
C  -2.18900 17.25700 30.35000
C  -2.32700 17.78300 31.76400
C  -2.33400 19.38200 31.48600
C  -1.93800 19.50900 30.02200
C  -3.61500 20.21700 31.97200
C  -1.06300 17.36800 32.67100
C  -1.45900 16.52500 33.83800
H  -0.92000 16.65100 35.28900
N  -1.05200 20.16700 27.19000
C  -1.32500 21.06800 28.12100
C  -0.89100 22.43700 27.62100
C  -0.30700 22.16700 26.32400
C  -0.55300 20.80400 25.99800
C  -1.06400 23.71000 28.41800
C  0.15300 23.11400 25.29600
O  0.79100 22.88600 24.29000
C  0.09600 24.57000 25.67000
N  -1.42400 17.94900 25.04300
C  -0.83300 18.94100 24.25600
C  -0.59700 18.46700 22.80200
C  -0.95100 16.86400 22.93000
C  -1.32300 16.69300 24.42700
C  -1.33800 19.38300 21.82100
C  0.16200 15.87100 22.59400
C  1.49800 16.09600 23.39000
N  -2.03700 16.13800 27.32800
C  -2.01700 15.17500 26.33600
C  -2.34300 13.91700 26.93500
C  -2.59600 14.14000 28.30000
C  -2.28200 15.50800 28.50700
C  -2.51900 12.62200 26.11400
C  -3.05400 13.59900 29.51900
O  -3.55600 12.56100 29.83700
C  -2.95300 14.70300 30.66000
C  -2.05600 14.06600 31.54500
O  -0.84700 14.00100 31.47800
O  -2.84800 13.49200 32.51800
C  -2.23700 12.61900 33.53700
H  -1.90000 21.67200 29.99000
H  -0.06900 20.71700 23.87600
H  -1.86000 14.65500 24.28500
H  -3.27400 17.42700 32.17000
H  -1.47200 19.79900 32.00700
H  -4.15700 20.68700 31.15200
H  -3.24800 21.00500 32.63000
H  -4.30400 19.62400 32.57400
H  -0.53200 18.18600 33.15900
H  -0.31600 16.82000 32.09500
H  -1.12500 15.54500 33.49600
H  -2.54200 16.56200 33.95900
H  -0.18400 24.05300 28.96100
H  -1.83000 23.61900 29.18800
H  -1.41500 24.49000 27.74200
H  0.70700 24.73600 26.55700
H  -0.97300 24.78400 25.69700
H  0.72700 25.18600 25.03000
H  0.45000 18.54800 22.51000
H  -1.88900 16.73500 22.39000
H  -1.97900 20.08400 22.35700
H  -1.96800 18.83900 21.11700
H  -0.64800 19.96200 21.20700
H  0.34600 16.12100 21.55000
H  -0.18900 14.85900 22.79500
H  2.15100 15.22300 23.41500
H  1.26500 16.38300 24.41500
H  2.07500 16.90300 22.93800
H  -1.67300 12.50600 25.43600
H  -3.46400 12.45900 25.59600
H  -2.27600 11.76700 26.74400
H  -3.96200 14.89600 31.02500
H  -2.97600 11.95900 33.98900
H  -1.76300 13.26200 34.27900
H  -1.42400 12.04000 33.09800
Mg 46.80300 16.06700 27.95200
C  44.97400 15.62700 30.88500
C  49.27300 17.48000 29.76900
C  48.21000 17.12000 25.02700
C  43.99200 14.83300 26.19200
N  46.87800 16.82000 30.06500
C  46.17700 16.31000 31.11600
C  46.71500 16.69900 32.47000
C  47.93000 17.56000 31.95600
C  48.13900 17.16100 30.50700
C  47.70400 19.09200 31.89800
C  47.16300 15.43100 33.23600
C  46.94300 15.38200 34.78000
H  46.79500 16.59800 35.59600
N  48.55300 17.00000 27.53600
C  49.41900 17.51200 28.38200
C  50.53700 18.11700 27.72100
C  50.25900 18.04100 26.35300
C  48.95700 17.39900 26.21500
C  51.62900 18.87200 28.41900
C  51.04700 18.59400 25.14800
O  50.56400 18.62500 24.01100
C  52.45900 18.98300 25.40300
N  46.24400 15.89700 25.95000
C  47.01900 16.45800 24.90000
C  46.27400 16.27900 23.52600
C  45.17300 15.30800 23.93500
C  45.13200 15.32800 25.46400
C  45.81200 17.53400 22.75200
C  45.18500 13.77200 23.44300
C  43.73700 13.28300 23.12200
N  44.86600 15.33200 28.38700
C  43.86500 14.82800 27.57500
C  42.74300 14.34300 28.37400
C  43.15100 14.69400 29.71400
C  44.46300 15.27700 29.63800
C  41.40600 13.87200 27.89800
C  42.73200 14.67900 31.09600
O  41.64600 14.30700 31.53400
C  43.88600 15.31300 31.91400
C  43.35600 16.52700 32.60700
O  43.30800 17.63400 32.16200
O  42.85900 16.03400 33.84600
C  42.67500 17.10900 34.85300
H  49.97900 18.00400 30.41800
H  48.63000 17.39000 24.05600
H  43.17800 14.46000 25.56600
H  46.18100 17.45800 33.04100
H  48.84000 17.41500 32.53900
H  46.76600 19.29100 32.41500
H  47.52700 19.49900 30.90300
H  48.50400 19.69200 32.33000
H  48.22800 15.36300 33.01600
H  46.75800 14.53300 32.76900
H  47.71000 14.72700 35.19400
H  46.06900 14.73800 34.88200
H  52.54000 18.46400 27.98100
H  51.68100 18.61000 29.47600
H  51.66500 19.95800 28.32900
H  52.57700 19.88300 26.00700
H  52.88700 19.16900 24.41800
H  52.94000 18.09900 25.82300
H  46.99400 15.82000 22.84900
H  44.26700 15.78200 23.55600
H  46.11400 18.43000 23.29500
H  44.76500 17.51500 22.45100
H  46.42300 17.47700 21.85100
H  45.65300 13.04800 24.11000
H  45.79300 13.53900 22.56800
H  43.42400 12.54900 23.86400
H  43.61000 12.85200 22.12900
H  43.02700 14.10300 23.23600
H  41.05300 13.11200 28.59600
H  41.51300 13.39400 26.92500
H  40.74100 14.71700 27.72000
H  44.16400 14.63100 32.71700
H  43.23200 17.98700 34.52700
H  42.96100 16.90800 35.88500
H  41.61100 17.32800 34.76000

