158

Mg 30.75700 59.28800 38.83100
C  27.83200 57.37600 38.10700
C  32.59600 56.52000 38.17600
C  33.37700 61.18900 38.79700
C  28.62600 62.03200 39.26200
N  30.21800 57.26800 37.91700
C  28.94700 56.66700 37.92200
C  29.09500 55.21200 37.43400
C  30.55000 54.86800 37.99900
C  31.20900 56.31700 38.04800
C  30.54700 54.41400 39.48400
C  28.77300 55.14400 35.85600
C  27.55500 54.34100 35.46500
H  26.71100 55.03300 34.33600
N  32.65200 58.98300 38.28100
C  33.23500 57.71900 38.10500
C  34.64400 57.84200 37.82200
C  34.94800 59.26500 38.03000
C  33.62900 59.90500 38.40000
C  35.57900 56.71500 37.53200
C  36.34400 59.90800 37.93600
O  37.23200 59.11700 37.63500
C  36.69800 61.37000 38.26600
N  31.00300 61.32900 38.98300
C  32.19300 61.87000 39.11300
C  32.11000 63.35200 39.43500
C  30.58700 63.60100 39.67700
C  30.02300 62.23600 39.27400
C  33.06200 63.73600 40.64100
C  29.98000 64.73600 38.80900
C  28.87600 65.62400 39.43000
N  28.66200 59.66400 38.83500
C  27.97200 60.80900 39.06200
C  26.58300 60.56300 38.87200
C  26.40400 59.25600 38.51500
C  27.73300 58.72300 38.52300
C  25.43000 61.48900 39.06200
C  25.42800 58.26200 38.09700
O  24.17200 58.28000 38.12100
C  26.37600 56.97300 37.81100
C  26.02000 55.82900 38.67100
O  26.29000 55.71500 39.84800
O  25.23400 54.90400 38.02200
C  24.37200 54.13900 38.90400
H  33.16600 55.58900 38.19700
H  34.20400 61.90000 38.83900
H  27.99900 62.89300 39.50300
H  28.41100 54.60700 38.02900
H  31.11700 54.24200 37.31000
H  29.61900 53.91800 39.76700
H  30.64400 55.30500 40.10400
H  31.39800 53.73800 39.56900
H  29.73200 54.79700 35.47200
H  28.61200 56.11400 35.38600
H  27.00800 54.18900 36.39500
H  27.97500 53.43200 35.03500
H  35.13000 55.80300 37.14000
H  36.19900 56.39100 38.36800
H  36.24500 57.01300 36.72200
H  37.75000 61.47600 37.99900
H  36.51400 61.74600 39.27200
H  36.07800 61.92400 37.56100
H  32.44200 63.94600 38.58400
H  30.32000 63.75500 40.72300
H  34.02600 64.04300 40.23500
H  33.25800 62.89700 41.30900
H  32.59400 64.50200 41.25800
H  29.58700 64.30100 37.89000
H  30.74800 65.44700 38.50500
H  29.16900 66.59100 39.84000
H  28.34400 65.09800 40.22200
H  28.27700 65.83100 38.54300
H  24.87900 61.72700 38.15200
H  25.64700 62.24200 39.81900
H  24.72500 60.83600 39.57500
H  26.27500 56.68900 36.76300
H  23.99900 53.29600 38.32300
H  23.44800 54.70700 39.01400
H  24.72800 53.73100 39.84900
Mg 36.28600 49.50100 24.08900
C  36.23000 48.06300 27.23400
C  34.99500 52.52600 25.41900
C  36.26100 50.92600 21.03500
C  37.45600 46.51300 22.82200
N  35.69000 50.10400 26.01900
C  35.86900 49.41800 27.19800
C  35.55300 50.37300 28.46800
C  35.01400 51.63900 27.81000
C  35.14900 51.38300 26.29800
C  33.60300 51.99300 28.36500
C  36.81400 50.42900 29.39400
C  36.62400 50.26800 30.89700
H  35.17900 50.10300 31.34600
N  35.76800 51.55100 23.30700
C  35.22300 52.57800 24.03100
C  34.96000 53.68300 23.10000
C  35.39600 53.23500 21.80700
C  35.80800 51.82400 22.00200
C  34.53800 55.04300 23.56700
C  35.51000 54.03600 20.55500
O  35.92100 53.56000 19.48200
C  35.20200 55.52300 20.44400
N  36.84200 48.84400 22.22800
C  36.68000 49.57400 21.10300
C  36.86700 48.72500 19.82500
C  37.23100 47.33900 20.44800
C  37.12000 47.56800 21.93100
C  35.51900 48.66900 18.93600
C  38.69000 46.99700 20.00200
C  39.77000 47.80800 20.69100
N  36.78900 47.59000 24.83700
C  37.26200 46.48200 24.24200
C  37.45500 45.32700 25.18900
C  37.04100 45.94100 26.41100
C  36.67400 47.28500 26.16200
C  37.72600 43.91200 25.02800
C  36.80400 45.73200 27.79700
O  36.85900 44.78400 28.49300
C  36.31200 47.09200 28.44100
C  35.02100 46.84200 29.15800
O  33.85300 46.91200 28.70200
O  35.26100 46.41500 30.42500
C  34.04300 45.90600 31.07500
H  34.59900 53.37400 25.98100
H  36.15100 51.32000 20.02200
H  37.70200 45.57700 22.31400
H  34.82200 49.77600 29.01400
H  35.77700 52.36700 28.08800
H  32.93000 52.09200 27.51300
H  33.55100 52.99600 28.78800
H  33.21900 51.25300 29.06600
H  37.27000 51.38100 29.12000
H  37.53500 49.70200 29.01900
H  36.93600 51.20800 31.35100
H  37.24800 49.45300 31.26500
H  34.07500 55.63600 22.77900
H  35.35900 55.65300 23.94400
H  33.87500 55.07100 24.43200
H  34.11600 55.61100 20.47300
H  35.52800 55.92100 19.48300
H  35.74800 55.94000 21.29000
H  37.64300 49.12000 19.17000
H  36.50000 46.54600 20.29000
H  34.75900 49.34500 19.32600
H  35.03600 47.69900 18.81600
H  35.61400 48.99900 17.90100
H  38.87300 47.18700 18.94400
H  38.90000 45.93100 20.09000
H  39.37300 48.67100 21.22600
H  40.59700 48.10900 20.04900
H  40.29500 47.31100 21.50800
H  38.64500 43.49900 25.44400
H  37.76800 43.68200 23.96400
H  36.86400 43.40300 25.46000
H  37.16400 47.33900 29.07500
H  33.55000 45.16100 30.45000
H  33.30200 46.67500 31.29400
H  34.26700 45.37100 31.99700

