158

Mg 2.02800 -1.82700 44.50700
C  5.32000 -1.06000 43.75700
C  1.06000 0.83500 42.42700
C  -1.14900 -2.73300 44.96300
C  3.04500 -4.96400 45.72000
N  3.09400 -0.32100 43.17800
C  4.43400 -0.21800 43.04600
C  4.85100 0.86800 42.00600
C  3.47200 1.47900 41.61900
C  2.45500 0.70300 42.49100
C  3.29400 3.03100 41.60900
C  5.67500 0.39700 40.75500
C  6.67400 1.47700 40.28400
H  6.30000 2.17300 39.01800
N  0.19100 -0.92400 43.96200
C  -0.03300 0.11400 43.10700
C  -1.48600 0.40800 43.02900
C  -2.11900 -0.62200 43.80100
C  -0.99300 -1.47900 44.30500
C  -1.91600 1.58400 42.26400
C  -3.64400 -0.78400 43.91600
O  -4.36200 -0.06600 43.29900
C  -4.26800 -1.86900 44.69400
N  1.07200 -3.68100 45.10600
C  -0.23900 -3.71800 45.38800
C  -0.70100 -5.07300 45.96800
C  0.70900 -5.77500 46.16200
C  1.66600 -4.82800 45.52800
C  -1.56200 -5.10700 47.23900
C  0.84100 -7.24100 45.53500
C  1.19000 -8.35500 46.51800
N  3.78500 -2.86300 44.80300
C  4.11100 -4.06500 45.38800
C  5.54500 -4.13400 45.56500
C  6.02900 -2.97000 44.94200
C  4.92700 -2.26800 44.45300
C  6.34300 -5.25100 46.09100
C  7.28800 -2.25700 44.60900
O  8.40100 -2.58100 44.97400
C  6.86900 -0.96500 43.76000
C  7.38700 0.17600 44.46200
O  7.00000 0.59700 45.53600
O  8.36400 0.74900 43.70300
C  9.07800 1.83100 44.38400
H  0.69700 1.62900 41.77100
H  -2.19200 -3.01700 45.11900
H  3.39600 -5.85100 46.25100
H  5.49600 1.54700 42.56400
H  3.27000 1.34200 40.55700
H  2.74300 3.46200 42.44500
H  3.09500 3.37800 40.59500
H  4.29200 3.37900 41.87400
H  5.03500 0.23400 39.88800
H  6.16200 -0.54600 41.00300
H  7.61500 0.94600 40.14000
H  6.73100 2.22600 41.07400
H  -2.06400 1.33600 41.21400
H  -1.23200 2.43100 42.32400
H  -2.88900 1.85000 42.67700
H  -5.35700 -1.84700 44.75100
H  -3.80700 -1.76900 45.67700
H  -3.97700 -2.80400 44.21600
H  -1.33100 -5.48200 45.17800
H  0.92100 -5.82200 47.23000
H  -1.75000 -4.08600 47.57000
H  -1.04700 -5.64700 48.03300
H  -2.58800 -5.35200 46.96200
H  1.63800 -7.17000 44.79500
H  0.01500 -7.44200 44.85200
H  1.44100 -7.98400 47.51200
H  2.13200 -8.76100 46.15000
H  0.40600 -9.11000 46.56700
H  7.40200 -5.04000 46.24200
H  6.23700 -6.09800 45.41300
H  6.04700 -5.36000 47.13400
H  7.40700 -1.10600 42.82300
H  8.39800 2.50600 44.90300
H  9.55200 2.46300 43.63300
H  9.77400 1.44000 45.12700
Mg 0.96000 42.94200 25.90200
C  3.17600 42.84100 28.72800
C  -1.59600 42.59200 28.18000
C  -1.06900 43.00500 23.32800
C  3.68100 43.50100 23.89700
N  0.83800 42.54000 28.19800
C  1.83600 42.66300 29.13000
C  1.22700 42.62500 30.49700
C  -0.21200 42.12700 30.28300
C  -0.35300 42.43400 28.76700
C  -0.57600 40.66700 30.70000
C  1.40900 44.10100 31.13500
C  1.21900 44.29800 32.62300
H  0.85400 43.00500 33.35400
N  -1.00300 42.93000 25.86500
C  -1.93200 42.80600 26.82900
C  -3.24600 42.80900 26.31100
C  -3.14000 43.06800 24.91400
C  -1.65300 43.02400 24.62500
C  -4.50200 42.49000 27.20100
C  -4.25400 43.26600 23.90200
O  -4.01800 43.47500 22.79000
C  -5.71200 43.14500 24.32500
N  1.20700 42.93400 23.81900
C  0.23600 43.00300 22.93000
C  0.79800 43.10600 21.56000
C  2.27100 43.73300 21.76200
C  2.43100 43.32500 23.29000
C  0.92300 41.74300 20.79600
C  2.24200 45.27500 21.68900
C  3.45500 45.96200 20.96500
N  3.00300 42.97400 26.15600
C  4.00200 43.32800 25.27800
C  5.24500 43.51200 25.92600
C  5.02500 43.29500 27.28200
C  3.62300 43.14200 27.42500
C  6.55200 44.00700 25.26000
C  5.59400 43.30400 28.62100
O  6.68100 43.66800 29.02200
C  4.43200 43.04800 29.57700
C  4.61100 41.84500 30.41700
O  4.74300 40.72000 30.07000
O  4.72700 42.28900 31.66700
C  5.04200 41.39100 32.77000
H  -2.46200 42.31100 28.78400
H  -1.68900 43.18200 22.44700
H  4.40500 43.83900 23.15200
H  1.78500 41.91200 31.10300
H  -0.87200 42.81800 30.80700
H  0.21000 40.25100 31.33000
H  -0.64900 40.14400 29.74600
H  -1.51800 40.66800 31.24900
H  0.71400 44.75200 30.60500
H  2.40300 44.40000 30.80100
H  0.42400 45.04000 32.68900
H  2.16900 44.72800 32.94000
H  -5.28200 42.06900 26.56700
H  -4.90000 43.30400 27.80700
H  -4.35200 41.71100 27.94900
H  -5.87400 43.85900 25.13300
H  -6.00300 42.10400 24.46500
H  -6.30900 43.49200 23.48200
H  0.25900 43.84500 20.96800
H  3.05500 43.28200 21.15400
H  1.99000 41.53200 20.73200
H  0.37900 41.70600 19.85200
H  0.47800 41.04300 21.50300
H  2.14500 45.82900 22.62300
H  1.40500 45.61900 21.08200
H  3.13800 46.60900 20.14700
H  4.13300 45.21400 20.55400
H  4.02800 46.56700 21.66800
H  6.51800 44.26400 24.20100
H  7.19000 43.12700 25.17200
H  7.08900 44.77500 25.81700
H  4.37100 43.93100 30.21200
H  4.87500 41.90200 33.71800
H  6.11200 41.20400 32.67100
H  4.46400 40.49300 32.55000

