158

Mg 48.57600 45.23800 43.35600
C  45.39400 45.60200 41.81000
C  49.13000 42.61800 41.11900
C  51.94600 45.32000 43.90200
C  48.16100 48.47300 44.61700
N  47.39700 44.33300 41.63500
C  46.14800 44.60000 41.20200
C  45.69500 43.65700 40.12300
C  46.74200 42.51800 40.14500
C  47.88700 43.18400 41.02600
C  46.31500 41.15600 40.65900
C  45.47500 44.28400 38.65200
C  44.10100 43.90700 37.98900
H  44.24300 43.18000 36.65900
N  50.23100 43.95200 42.83300
C  50.20700 42.98300 41.94300
C  51.50200 42.28200 41.95200
C  52.36300 43.04100 42.80300
C  51.51700 44.15400 43.27900
C  51.78100 41.06000 41.16100
C  53.84500 42.73000 43.06700
O  54.36600 41.77100 42.52700
C  54.71100 43.63100 43.99100
N  49.87000 46.63500 44.16700
C  51.22200 46.43700 44.40000
C  51.83100 47.58300 45.07100
C  50.59300 48.59100 45.37500
C  49.49400 47.87400 44.63100
C  52.75700 47.37400 46.26000
C  50.84100 50.09400 45.10900
C  51.98700 50.68900 45.85800
N  47.03200 46.67700 43.46600
C  47.00300 47.92600 44.01000
C  45.62800 48.41000 44.04000
C  44.94900 47.51600 43.16300
C  45.84300 46.47400 42.84500
C  45.18300 49.61700 44.82500
C  43.72300 47.23200 42.60100
O  42.68500 47.84200 42.65300
C  43.93100 46.01400 41.67200
C  42.90400 45.03100 42.06800
O  41.77900 44.86700 41.50600
O  43.23600 44.49700 43.34800
C  42.19800 43.85700 44.17500
H  49.18800 41.77500 40.42700
H  52.99800 45.30800 44.19200
H  47.99000 49.49800 44.95400
H  44.74500 43.31400 40.53300
H  47.09600 42.39900 39.12100
H  46.32400 40.38300 39.89100
H  45.25300 41.20200 40.90000
H  46.82200 40.75900 41.53900
H  46.30800 44.26200 37.94900
H  45.42200 45.36000 38.82000
H  43.56800 44.82200 37.73100
H  43.45200 43.28300 38.60400
H  50.94000 40.54400 40.69700
H  52.24200 40.34300 41.83900
H  52.55300 41.35600 40.45100
H  54.25000 43.74000 44.97300
H  54.86800 44.60300 43.52400
H  55.64600 43.08200 44.10400
H  52.42500 47.98400 44.25000
H  50.35300 48.48400 46.43200
H  53.49200 48.17800 46.28900
H  53.48500 46.56400 46.21200
H  52.27700 47.42200 47.23700
H  49.99700 50.75600 45.30400
H  51.02500 50.23100 44.04300
H  51.72200 51.71100 46.12900
H  52.89000 50.92400 45.29400
H  52.32100 50.03600 46.66400
H  45.93500 49.86600 45.57400
H  44.22200 49.37100 45.27500
H  45.09200 50.50900 44.20500
H  43.67900 46.33800 40.66200
H  42.51200 42.83700 44.39500
H  41.20200 43.82200 43.73500
H  42.11100 44.43400 45.09600
Mg -9.63200 40.99900 39.58600
C  -9.02100 37.61500 38.54100
C  -6.29400 41.65800 39.07600
C  -10.57500 44.07500 39.49200
C  -13.22200 39.97600 39.36500
N  -7.86000 39.76400 38.90800
C  -7.88100 38.46000 38.50800
C  -6.51900 38.14700 37.91200
C  -5.53700 39.18500 38.64400
C  -6.61100 40.26800 38.90200
C  -4.83400 38.78600 39.96200
C  -6.42300 38.31100 36.31400
C  -5.95800 37.08200 35.54500
H  -6.89500 36.53400 34.47100
N  -8.54500 42.67200 39.42200
C  -7.19200 42.72200 39.24600
C  -6.93700 44.15400 39.09900
C  -8.06700 44.87000 39.24500
C  -9.17000 43.89000 39.37600
C  -5.54400 44.60000 38.91600
C  -8.10000 46.41200 39.27700
O  -7.08500 47.12900 39.17800
C  -9.36500 47.24200 39.52700
N  -11.66200 41.84100 39.61300
C  -11.67900 43.22600 39.66500
C  -13.12300 43.77000 39.75500
C  -13.88600 42.45000 39.45200
C  -12.87200 41.30600 39.52100
C  -13.48200 44.41600 41.09600
C  -14.65300 42.51200 38.07100
C  -16.07700 42.02100 38.10200
N  -10.93000 39.14500 39.33000
C  -12.22900 38.96100 39.23200
C  -12.49100 37.53300 39.05900
C  -11.24300 36.95700 38.70800
C  -10.31000 38.00900 38.90400
C  -13.88600 36.93600 39.38000
C  -10.52200 35.74700 38.33200
O  -10.89300 34.59700 38.20800
C  -9.06400 36.16100 38.22500
C  -8.24300 35.26800 39.15100
O  -8.41100 35.12100 40.35700
O  -7.35300 34.50700 38.43700
C  -6.65700 33.53000 39.22600
H  -5.23700 41.92900 39.02500
H  -10.84500 45.13300 39.51700
H  -14.27100 39.76600 39.14700
H  -6.21000 37.14700 38.21800
H  -4.82500 39.68800 37.99000
H  -5.44600 39.30100 40.70300
H  -3.78700 39.04000 40.12900
H  -5.01600 37.73100 40.16800
H  -5.75600 39.15300 36.12900
H  -7.42800 38.55000 35.96500
H  -5.75100 36.21200 36.16800
H  -5.03900 37.34300 35.02000
H  -5.26400 45.65100 38.99900
H  -5.20300 44.51100 37.88400
H  -4.85100 44.02500 39.52900
H  -9.17200 48.30500 39.67200
H  -9.87300 46.78200 40.37500
H  -9.95000 47.23200 38.60700
H  -13.18500 44.47800 38.92900
H  -14.60400 42.34700 40.26600
H  -12.58000 44.77900 41.58800
H  -13.96800 43.69300 41.75200
H  -14.19000 45.22800 40.92900
H  -14.14500 41.94200 37.29300
H  -14.69100 43.58100 37.86000
H  -16.37500 41.32000 38.88100
H  -16.26000 41.64800 37.09400
H  -16.64700 42.92000 38.33700
H  -13.85000 36.04000 40.00000
H  -14.48500 36.64300 38.51800
H  -14.50700 37.67600 39.88500
H  -8.80700 35.97500 37.18300
H  -6.12300 34.06100 40.01400
H  -5.85100 33.03200 38.68700
H  -7.31100 32.80800 39.71600

