158

Mg 30.89900 58.55200 40.31100
C  28.26800 56.44300 38.87900
C  33.18400 56.35000 38.96900
C  33.28600 60.94600 40.47700
C  28.38300 61.13500 40.67000
N  30.70700 56.61800 38.85900
C  29.53900 55.89500 38.61400
C  29.92900 54.42000 38.15700
C  31.52800 54.33100 38.28100
C  31.87300 55.81600 38.69500
C  32.05000 53.21800 39.22700
C  29.39500 53.93100 36.76500
C  29.73000 54.78000 35.54400
H  28.63300 55.30700 34.64800
N  32.96400 58.61400 39.93100
C  33.74500 57.58000 39.50000
C  35.14200 57.99700 39.39900
C  35.20600 59.34500 39.84700
C  33.76200 59.70800 40.10900
C  36.25600 57.13400 38.84100
C  36.40700 60.27800 39.99500
O  37.47000 59.61700 39.94000
C  36.39400 61.77200 40.15400
N  30.80400 60.73200 40.53600
C  31.93400 61.47800 40.67600
C  31.67300 62.91100 41.02200
C  30.16100 62.89900 41.09900
C  29.70500 61.54300 40.68400
C  32.42100 63.40800 42.37800
C  29.32800 64.05100 40.49600
C  28.28500 64.81100 41.38100
N  28.70500 58.66200 40.17400
C  27.84600 59.78100 40.26800
C  26.49800 59.38100 39.90900
C  26.62200 58.10400 39.34600
C  27.95300 57.71100 39.53700
C  25.24400 60.25500 39.94000
C  25.91300 57.00000 38.69400
O  24.73700 56.99000 38.22900
C  26.93300 55.73700 38.62000
C  26.52900 54.69900 39.63500
O  27.22600 54.27500 40.54500
O  25.27500 54.31900 39.33400
C  24.79100 53.06600 40.00400
H  33.92000 55.58700 38.70700
H  34.08700 61.62800 40.76800
H  27.65000 61.92100 40.86500
H  29.49500 53.73700 38.88800
H  32.07200 54.28100 37.33800
H  32.92200 52.73800 38.78300
H  31.28200 52.48500 39.47300
H  32.43800 53.57400 40.18100
H  28.32900 53.71500 36.69900
H  29.78900 52.94000 36.53800
H  30.56800 54.32200 35.01900
H  30.20900 55.66300 35.96700
H  37.23900 57.53700 38.59800
H  35.93400 56.59800 37.94900
H  36.41200 56.43600 39.66400
H  36.09500 62.03100 41.16900
H  35.78800 62.24800 39.38200
H  37.39300 62.16900 39.97500
H  31.93100 63.57800 40.19900
H  29.98300 62.94900 42.17300
H  33.22300 64.09600 42.11000
H  32.82100 62.59100 42.97800
H  31.74800 64.01500 42.98300
H  28.86700 63.75800 39.55300
H  30.06300 64.80000 40.20100
H  28.53000 65.83900 41.64900
H  28.21900 64.21100 42.28900
H  27.37300 64.77900 40.78500
H  25.53000 61.20300 40.39400
H  24.42300 59.84200 40.52600
H  24.96100 60.48700 38.91400
H  26.84900 55.37100 37.59600
H  25.49900 52.26700 40.22400
H  23.89600 52.72200 39.48600
H  24.59600 53.42700 41.01400
Mg -5.62400 25.54000 25.96100
C  -4.41000 26.72800 29.03400
C  -7.39500 23.06500 27.72600
C  -6.15200 23.83600 23.10800
C  -3.29000 27.67500 24.41000
N  -5.73200 24.91500 28.17200
C  -5.33800 25.63900 29.24400
C  -5.99700 25.11700 30.50400
C  -6.80200 23.82800 30.04700
C  -6.61600 23.89200 28.52000
C  -6.19600 22.50600 30.67300
C  -6.90700 26.19400 31.14600
C  -6.70600 26.30700 32.67700
H  -6.36300 25.09200 33.49300
N  -6.84300 23.87900 25.44800
C  -7.50300 23.02400 26.31300
C  -8.46600 22.27500 25.56100
C  -8.05200 22.31600 24.18700
C  -6.95500 23.35900 24.23500
C  -9.61400 21.51000 26.31200
C  -8.64800 21.76100 22.94500
O  -8.29900 22.12000 21.81700
C  -9.81700 20.78300 23.18200
N  -4.71300 25.68300 24.03900
C  -5.12000 24.81400 23.05700
C  -4.40200 25.26300 21.74700
C  -3.74900 26.61700 22.11700
C  -3.92500 26.67100 23.60600
C  -3.52300 24.15400 21.16000
C  -4.42200 27.83200 21.36000
C  -3.49500 28.52800 20.33300
N  -4.16400 27.01200 26.53100
C  -3.23400 27.76900 25.80600
C  -2.61200 28.69200 26.71000
C  -3.05000 28.33900 28.01200
C  -3.99500 27.27200 27.84300
C  -1.71400 29.81600 26.27900
C  -2.82600 28.67200 29.38000
O  -2.12000 29.46000 30.02200
C  -3.79300 27.65700 30.10400
C  -3.15400 26.88800 31.20400
O  -2.71000 25.75500 31.17700
O  -3.02400 27.73100 32.27700
C  -2.36100 27.15600 33.41500
H  -8.15100 22.48700 28.26100
H  -6.25000 23.16500 22.25200
H  -2.62900 28.43500 23.98700
H  -5.20600 24.87800 31.21500
H  -7.83400 23.97800 30.36300
H  -5.34700 22.11800 30.10900
H  -7.01300 21.82700 30.91900
H  -5.65100 22.61600 31.61000
H  -7.96300 25.93800 31.06200
H  -6.56000 27.12500 30.69600
H  -7.48300 26.78400 33.27400
H  -5.86400 26.99200 32.78300
H  -10.49400 21.53700 25.66900
H  -9.90200 22.01300 27.23500
H  -9.36800 20.46200 26.47900
H  -10.02800 20.32500 22.21500
H  -10.62900 21.49000 23.34900
H  -9.50800 20.08400 23.96000
H  -5.14300 25.39400 20.95900
H  -2.69900 26.58800 21.82800
H  -2.47400 24.44800 21.12100
H  -3.82100 23.85700 20.15400
H  -3.69900 23.36200 21.88700
H  -4.69600 28.56600 22.11900
H  -5.34600 27.48500 20.89600
H  -3.88200 28.33200 19.33300
H  -2.50400 28.08400 20.42100
H  -3.48000 29.59400 20.55900
H  -0.93100 29.79100 27.03700
H  -2.23900 30.76900 26.34000
H  -1.31100 29.56000 25.29900
H  -4.67200 28.18900 30.46700
H  -2.48700 27.73200 34.33200
H  -1.29100 27.17800 33.20800
H  -2.54300 26.10100 33.61800

