158

Mg -9.70400 39.33900 40.20500
C  -9.10200 35.97600 39.66800
C  -6.50600 40.04300 39.18700
C  -10.46200 42.60300 39.98400
C  -13.16800 38.59200 40.70600
N  -8.00100 38.11300 39.41000
C  -7.95500 36.74000 39.34300
C  -6.54000 36.19400 38.97600
C  -5.71500 37.54600 39.21100
C  -6.78100 38.63800 39.29100
C  -4.79900 37.37200 40.48700
C  -6.54600 35.59000 37.50600
C  -6.95700 36.47700 36.35100
H  -8.23600 36.10900 35.56600
N  -8.63800 41.11000 39.70900
C  -7.35800 41.22000 39.27600
C  -7.00900 42.62200 38.97500
C  -8.19400 43.39600 39.19700
C  -9.14800 42.40800 39.66700
C  -5.65800 43.08500 38.49100
C  -8.29500 44.84500 38.95300
O  -7.30000 45.48500 38.60200
C  -9.60200 45.59600 39.24100
N  -11.55600 40.38700 40.34400
C  -11.48400 41.77500 40.39300
C  -12.89300 42.40100 40.66300
C  -13.84300 41.14300 40.71000
C  -12.84900 39.96400 40.59000
C  -12.91300 43.27500 41.97200
C  -14.82800 41.11300 39.47700
C  -16.13900 40.27900 39.70100
N  -10.89500 37.66000 40.46600
C  -12.27100 37.48900 40.60200
C  -12.54100 36.06200 40.64100
C  -11.35700 35.46400 40.26300
C  -10.41700 36.47800 40.11800
C  -13.92700 35.49500 40.96600
C  -10.69700 34.10000 39.87500
O  -11.04000 32.91400 39.73900
C  -9.21500 34.42600 39.39000
C  -8.25700 33.46600 40.05100
O  -8.33600 33.26800 41.21500
O  -7.33600 32.92200 39.15400
C  -6.23700 32.27500 39.87200
H  -5.46800 40.27600 38.93800
H  -10.82600 43.62000 40.14200
H  -14.21700 38.38500 40.93000
H  -6.34100 35.37800 39.67000
H  -5.06500 37.74300 38.35800
H  -4.97800 36.42300 40.99300
H  -5.02400 38.11100 41.25600
H  -3.77100 37.39300 40.12500
H  -7.15200 34.68900 37.41600
H  -5.51100 35.36600 37.25000
H  -6.13900 36.63000 35.64700
H  -7.18300 37.44400 36.80000
H  -5.73500 43.42900 37.46000
H  -4.90900 42.29800 38.58200
H  -5.25900 43.86200 39.14400
H  -9.91500 45.52700 40.28300
H  -10.42700 45.22300 38.63400
H  -9.44900 46.62900 38.93100
H  -13.15400 43.04000 39.82000
H  -14.36000 40.98800 41.65700
H  -13.33800 42.79800 42.85500
H  -13.53900 44.12500 41.70300
H  -11.91600 43.61500 42.25200
H  -14.32700 40.78400 38.56700
H  -15.11000 42.16000 39.36400
H  -16.26900 40.04300 40.75800
H  -16.05600 39.38400 39.08400
H  -16.98500 40.87300 39.35600
H  -14.45100 35.99200 41.78300
H  -13.72300 34.44600 41.18200
H  -14.56300 35.49000 40.08100
H  -9.25000 34.24600 38.31600
H  -5.32300 32.58200 39.36200
H  -6.40500 31.19900 39.83300
H  -6.10500 32.51100 40.92800
Mg -5.86300 25.76300 26.81100
C  -4.74000 27.33300 29.84300
C  -7.50100 23.59100 28.78300
C  -6.49000 24.00000 24.03000
C  -3.46400 27.67800 25.09200
N  -5.95700 25.46800 29.17800
C  -5.56400 26.25900 30.18700
C  -6.15500 25.86800 31.49500
C  -6.84300 24.51900 31.06900
C  -6.80500 24.50900 29.55300
C  -6.31700 23.21800 31.64900
C  -7.13500 26.91300 32.09800
C  -7.02100 27.30100 33.62000
H  -6.43500 26.19400 34.49800
N  -7.02600 24.10800 26.36900
C  -7.59900 23.30500 27.32300
C  -8.35600 22.33000 26.63200
C  -8.00900 22.40300 25.22300
C  -7.11600 23.54100 25.14500
C  -9.15200 21.21200 27.40900
C  -8.30500 21.49300 24.08500
O  -7.80700 21.62200 22.97800
C  -9.33400 20.41600 24.26800
N  -5.08500 25.88700 24.83100
C  -5.50100 24.98500 23.88500
C  -4.62100 25.19900 22.61000
C  -3.80900 26.49400 22.88300
C  -4.06400 26.62200 24.38100
C  -3.71700 24.03000 22.11600
C  -4.21700 27.63000 21.94900
C  -5.34100 28.66600 22.49100
N  -4.48300 27.27600 27.28400
C  -3.63300 28.00900 26.46500
C  -2.93400 28.96600 27.27700
C  -3.44800 28.82400 28.58700
C  -4.27300 27.76000 28.54300
C  -1.88900 29.82600 26.62000
C  -3.44300 29.33900 29.96400
O  -2.99600 30.33600 30.46500
C  -4.24700 28.34700 30.82700
C  -3.26400 27.83200 31.83700
O  -2.45700 26.93200 31.67200
O  -3.44400 28.47100 33.05000
C  -2.46000 28.22000 34.08600
H  -8.14100 22.92700 29.36700
H  -6.51900 23.31000 23.18400
H  -2.78900 28.22200 24.42900
H  -5.28500 25.55100 32.07000
H  -7.90400 24.60900 31.30300
H  -5.46400 22.81800 31.09900
H  -7.14200 22.50700 31.60500
H  -6.08600 23.44300 32.69000
H  -8.15500 26.64000 31.82800
H  -6.90700 27.84700 31.58400
H  -8.01800 27.63800 33.90600
H  -6.40700 28.19400 33.73300
H  -10.14900 21.13100 26.97500
H  -9.34800 21.42300 28.46000
H  -8.59600 20.27400 27.40300
H  -9.15000 19.75100 25.11200
H  -9.32300 19.84400 23.34000
H  -10.34900 20.81200 24.24500
H  -5.43900 25.32900 21.90100
H  -2.78500 26.21700 22.63100
H  -2.65100 24.11700 22.32600
H  -3.99200 23.75800 21.09700
H  -3.95700 23.16800 22.73800
H  -4.61600 27.23400 21.01500
H  -3.37800 28.29300 21.73800
H  -5.95400 29.04200 21.67100
H  -4.94700 29.48200 23.09600
H  -6.12200 28.24100 23.12100
H  -2.33100 30.31000 25.75000
H  -1.03000 29.19400 26.39200
H  -1.55200 30.59200 27.31800
H  -5.05400 28.91100 31.29400
H  -2.91700 28.23900 35.07600
H  -1.55800 28.80400 33.90100
H  -2.19700 27.16200 34.06800

