158

Mg 25.29000 1.34100 29.21900
C  27.25400 1.04500 32.19400
C  22.57600 1.43500 31.38200
C  23.46200 1.07200 26.54900
C  28.09800 0.54800 27.41400
N  25.05000 1.26700 31.59400
C  25.95000 1.24600 32.56900
C  25.26800 1.36300 33.92900
C  23.73900 1.22100 33.66000
C  23.79500 1.29300 32.09800
C  23.19200 -0.11100 34.26100
C  25.71400 2.74100 34.66200
C  26.32800 2.58000 36.06500
H  26.16200 3.74400 37.12000
N  23.30600 1.37700 28.98500
C  22.32200 1.44400 29.97200
C  21.08100 1.40500 29.35900
C  21.22700 1.29500 27.90800
C  22.73400 1.20800 27.73800
C  19.76400 1.63900 30.12700
C  20.16700 1.14000 26.76400
O  20.39300 1.26400 25.55800
C  18.68300 1.03600 27.12600
N  25.71700 1.04600 27.21200
C  24.77700 1.02800 26.24600
C  25.35700 0.94600 24.87400
C  26.88100 0.66900 25.14800
C  26.92100 0.80100 26.68200
C  24.73300 -0.06700 23.89900
C  27.83700 1.60900 24.41500
C  29.15700 1.01600 23.86500
N  27.28700 0.84000 29.68800
C  28.30500 0.54700 28.83600
C  29.52000 0.31000 29.58100
C  29.17700 0.51100 30.90300
C  27.79100 0.81100 30.92100
C  30.88800 -0.09500 29.08300
C  29.64900 0.51200 32.26200
O  30.76500 0.32000 32.73800
C  28.46700 1.02100 33.16700
C  28.28900 0.02400 34.29300
O  27.49800 -0.92400 34.31500
O  29.05700 0.41400 35.34500
C  28.99000 -0.53100 36.49800
H  21.75900 1.35700 32.10100
H  22.94600 1.21100 25.59600
H  28.95400 0.29900 26.78300
H  25.60900 0.56400 34.58700
H  23.13800 2.04900 34.03700
H  23.61600 -0.30700 35.24500
H  23.48500 -0.88300 33.54900
H  22.11300 -0.10100 34.41500
H  24.76400 3.21100 34.91600
H  26.30700 3.25500 33.90600
H  27.41100 2.52400 35.95500
H  25.86500 1.68900 36.48800
H  19.34300 0.63700 30.04800
H  19.18400 2.41800 29.63300
H  19.79600 1.94400 31.17300
H  18.29100 1.91100 27.64500
H  18.65400 0.24800 27.87900
H  18.09400 0.75400 26.25400
H  25.20000 1.94600 24.47000
H  27.19800 -0.37200 25.08200
H  25.41400 -0.87900 23.64300
H  24.30700 0.35300 22.98800
H  23.89200 -0.62600 24.30900
H  28.07400 2.44700 25.07000
H  27.35000 2.03000 23.53600
H  28.96000 -0.03700 23.66500
H  29.94400 1.08300 24.61600
H  29.40700 1.55200 22.94900
H  31.35100 0.86500 28.85600
H  30.81600 -0.73900 28.20700
H  31.46300 -0.62700 29.84100
H  28.68700 2.05700 33.42400
H  28.17100 -0.19800 37.13500
H  29.94700 -0.58800 37.01700
H  28.74700 -1.57500 36.30000
Mg 35.73400 49.55600 24.85800
C  36.07800 47.86400 27.97800
C  34.54700 52.25700 26.46800
C  35.22800 50.97400 21.85200
C  36.93100 46.62400 23.34900
N  35.54900 50.00600 27.08200
C  35.71600 49.27200 28.16400
C  35.32200 50.04700 29.44000
C  34.70400 51.38700 28.89900
C  34.94800 51.22600 27.34900
C  33.17600 51.65100 29.24100
C  36.43800 50.17500 30.50200
C  36.10900 49.47600 31.86500
H  34.65800 49.55800 32.33500
N  35.01800 51.41000 24.27600
C  34.48100 52.36700 25.08100
C  33.92300 53.41100 24.31300
C  34.16400 53.13600 22.92500
C  34.81900 51.78500 22.93900
C  33.14200 54.57700 24.89800
C  33.65200 53.88900 21.68800
O  33.61500 53.37600 20.57100
C  33.05200 55.30600 21.91100
N  35.84500 48.84600 22.89400
C  35.72800 49.66200 21.75900
C  35.99700 48.89700 20.44500
C  36.56400 47.51700 20.98600
C  36.45300 47.64900 22.52100
C  34.84300 48.77200 19.41500
C  37.93600 47.10500 20.47900
C  39.14300 47.75400 21.20100
N  36.46000 47.65200 25.52900
C  36.74800 46.50100 24.76700
C  37.11000 45.43100 25.56900
C  36.72300 45.83400 26.85300
C  36.41800 47.23900 26.77500
C  37.65400 44.12800 25.14100
C  36.70100 45.47900 28.21700
O  36.93700 44.41600 28.73300
C  36.38700 46.80700 29.00500
C  35.30500 46.54400 29.98800
O  34.08600 46.57700 29.79700
O  35.88200 46.01200 31.13700
C  35.07200 45.35600 32.19600
H  34.06600 53.13900 26.89600
H  34.98300 51.48300 20.91700
H  37.35300 45.76200 22.83000
H  34.44300 49.55700 29.85900
H  35.31200 52.26900 29.09900
H  32.91300 51.25700 30.22300
H  32.47400 51.18500 28.55000
H  33.01600 52.72500 29.32900
H  36.48800 51.22200 30.80100
H  37.34500 49.76500 30.05800
H  36.70000 50.03200 32.59400
H  36.50600 48.46900 31.99200
H  33.02200 54.56400 25.98200
H  32.13600 54.55600 24.48000
H  33.59000 55.53800 24.64800
H  33.58900 55.98900 22.56800
H  32.01700 55.19400 22.23600
H  32.90600 55.73900 20.92100
H  36.79900 49.39900 19.90400
H  35.81200 46.78900 20.68200
H  33.92300 49.13400 19.87400
H  34.72500 47.71300 19.18600
H  34.98000 49.39400 18.53100
H  37.83500 47.29600 19.41100
H  37.97400 46.02700 20.64100
H  38.84900 48.55300 21.88100
H  39.82400 48.29100 20.54100
H  39.70700 47.05200 21.81600
H  38.50200 44.32800 24.48600
H  36.99100 43.45600 24.59800
H  37.91800 43.60100 26.05800
H  37.21400 47.04700 29.67500
H  34.95400 44.32500 31.86400
H  34.05800 45.75200 32.25700
H  35.56900 45.48800 33.15700

