158

Mg 5.32600 54.12900 41.38000
C  5.00800 50.69900 40.88500
C  8.73400 53.79500 40.41000
C  5.76900 57.39400 41.54600
C  2.00600 54.22700 42.07000
N  6.61400 52.55200 40.48800
C  6.18900 51.25100 40.40100
C  7.38800 50.38100 39.90500
C  8.58800 51.32200 40.18400
C  7.92500 52.62600 40.37500
C  9.61200 50.91200 41.32500
C  7.27800 49.84600 38.45300
C  6.52000 50.84500 37.41700
H  5.83600 50.20000 36.16500
N  7.03100 55.43300 41.01800
C  8.30100 55.13800 40.65100
C  9.07800 56.35500 40.64000
C  8.29400 57.45300 41.04900
C  6.97000 56.77900 41.28100
C  10.54900 56.41500 40.25400
C  8.70600 58.94200 41.15200
O  9.78800 59.36200 40.68400
C  7.77300 59.97000 41.79700
N  4.07200 55.67100 41.71500
C  4.48300 56.90300 41.87000
C  3.20600 57.84700 41.96600
C  2.07900 56.82000 42.12800
C  2.76000 55.48000 41.90800
C  3.23000 58.82500 43.08600
C  0.96500 56.94700 41.16100
C  0.45200 58.32900 40.70400
N  3.79000 52.76300 41.52800
C  2.51500 52.91300 41.94500
C  1.89600 51.60400 42.01900
C  2.85700 50.73600 41.65300
C  3.94200 51.44600 41.36600
C  0.42800 51.35800 42.51500
C  3.08900 49.29100 41.54300
O  2.34700 48.30000 41.67800
C  4.57500 49.25800 41.04500
C  4.44900 48.55000 39.79000
O  4.09100 49.07500 38.74400
O  4.72000 47.24400 39.95400
C  4.65500 46.33200 38.77400
H  9.82000 53.68400 40.36700
H  5.71300 58.48400 41.50500
H  0.93200 54.36700 42.20600
H  7.46400 49.53400 40.58700
H  9.14800 51.49700 39.26600
H  9.51600 49.84600 41.53300
H  9.45100 51.47100 42.24700
H  10.62500 51.16300 41.00900
H  6.76200 48.88600 38.42000
H  8.29500 49.87000 38.06200
H  7.21900 51.58500 37.02900
H  5.71000 51.36100 37.93300
H  10.65000 56.82000 39.24700
H  10.96300 55.41000 40.16700
H  11.19600 56.99200 40.91400
H  8.39200 60.82100 42.08000
H  7.49200 59.48000 42.72900
H  6.94000 60.10400 41.10700
H  3.14100 58.38300 41.01900
H  1.62000 56.83800 43.11600
H  3.14100 59.80000 42.60800
H  4.21200 58.79800 43.55900
H  2.47600 58.72400 43.86700
H  0.14900 56.47100 41.70500
H  1.23500 56.34900 40.29100
H  0.85800 58.46000 39.70100
H  0.83600 59.11700 41.35100
H  -0.63700 58.28700 40.70600
H  0.49800 51.66200 43.55900
H  0.20100 50.31900 42.27500
H  -0.16000 52.09400 41.96500
H  5.19500 48.68600 41.73600
H  5.04900 46.71500 37.83300
H  3.66600 45.93100 38.55400
H  5.42200 45.56500 38.88500
Mg -5.97700 25.19400 26.01900
C  -4.63000 26.51100 29.16400
C  -7.65500 22.83800 27.97100
C  -6.48700 23.60000 23.38400
C  -3.81300 27.48700 24.50100
N  -6.10600 24.73600 28.30300
C  -5.47600 25.38400 29.34700
C  -5.92500 24.83100 30.79300
C  -6.64400 23.44300 30.29300
C  -6.88000 23.65400 28.76000
C  -5.86500 22.18000 30.64600
C  -6.74500 25.96000 31.47600
C  -6.65100 26.15500 32.99400
H  -6.07800 24.98400 33.77600
N  -7.15300 23.56300 25.64300
C  -7.80700 22.70800 26.54400
C  -8.51800 21.76600 25.85000
C  -8.23800 21.90300 24.43500
C  -7.26500 23.02800 24.43200
C  -9.44000 20.78000 26.57700
C  -8.75000 21.14100 23.27900
O  -8.30300 21.43300 22.14000
C  -9.86900 20.16300 23.42200
N  -5.33200 25.57700 24.24500
C  -5.63300 24.71100 23.25000
C  -4.91700 25.03600 21.89100
C  -4.22500 26.40200 22.33800
C  -4.51000 26.55700 23.81100
C  -3.92900 23.92700 21.47000
C  -4.74600 27.54000 21.41700
C  -3.73400 28.56000 20.93400
N  -4.66500 26.81900 26.67900
C  -3.95300 27.68700 25.88600
C  -3.24700 28.64500 26.71200
C  -3.42400 28.22300 27.99500
C  -4.30200 27.08000 27.92200
C  -2.42300 29.75900 26.09200
C  -3.09200 28.48200 29.35900
O  -2.44000 29.33400 29.89400
C  -3.93300 27.41300 30.17100
C  -2.99300 26.65500 31.07400
O  -2.19300 25.82400 30.70800
O  -3.16700 26.94100 32.37200
C  -2.34200 26.39500 33.38300
H  -8.14800 22.14200 28.65300
H  -6.56100 23.03500 22.45300
H  -3.27500 28.23300 23.91300
H  -4.99900 24.58100 31.31000
H  -7.58200 23.35000 30.84000
H  -4.88800 22.38500 31.08300
H  -5.74000 21.60400 29.72800
H  -6.47000 21.55800 31.30500
H  -7.80600 25.78100 31.30300
H  -6.45100 26.95600 31.14600
H  -7.67200 26.30200 33.34500
H  -5.98400 26.98600 33.22100
H  -10.50400 20.86600 26.35600
H  -9.38900 20.73900 27.66500
H  -9.03900 19.79800 26.32700
H  -9.59800 19.36900 24.11700
H  -9.99900 19.68300 22.45200
H  -10.77200 20.66300 23.77000
H  -5.72000 25.17500 21.16700
H  -3.15600 26.33900 22.13200
H  -4.09500 23.74500 20.40800
H  -4.10100 22.99500 22.00900
H  -2.91600 24.30300 21.61700
H  -5.41400 28.17100 22.00400
H  -5.22100 27.24400 20.48200
H  -4.15800 29.56300 20.98600
H  -3.41300 28.23300 19.94500
H  -2.95300 28.53700 21.69300
H  -2.99200 30.33200 25.36000
H  -1.56400 29.31900 25.58500
H  -2.09200 30.39000 26.91800
H  -4.59200 28.02400 30.78900
H  -1.96900 25.41700 33.07900
H  -2.78700 26.11100 34.33700
H  -1.50000 27.04900 33.60900

