158

Mg 39.94600 8.84600 30.04800
C  41.32300 9.68000 33.05500
C  37.29000 7.18500 31.95100
C  38.41000 8.12200 27.17700
C  42.54800 10.13600 28.37300
N  39.41600 8.38100 32.29300
C  40.14300 8.92300 33.29600
C  39.36100 8.74500 34.61700
C  38.00200 8.08100 34.24100
C  38.26800 7.79900 32.76300
C  37.72100 6.72700 35.01800
C  39.05500 10.11500 35.34100
C  39.01700 10.04100 36.90000
H  39.59700 11.20300 37.76300
N  38.18700 7.69100 29.57400
C  37.25800 7.15100 30.50600
C  36.19700 6.61000 29.64300
C  36.50000 6.81600 28.31900
C  37.66200 7.66200 28.34300
C  35.04500 5.84800 30.15500
C  35.84000 6.30200 27.02000
O  36.18200 6.51200 25.81900
C  34.60400 5.38900 27.16800
N  40.43400 9.04100 28.08600
C  39.57600 8.82000 27.00700
C  40.23800 9.21900 25.64900
C  41.51900 9.90900 26.14100
C  41.56000 9.58700 27.56900
C  40.39000 8.01000 24.73500
C  41.61900 11.42500 25.83700
C  40.32200 12.26400 25.83000
N  41.63500 9.62700 30.50900
C  42.65900 10.14200 29.75400
C  43.72900 10.66800 30.58600
C  43.21800 10.58200 31.86300
C  41.93500 9.98600 31.78000
C  45.08100 11.12100 30.18300
C  43.47500 10.85800 33.31400
O  44.43400 11.41500 33.85800
C  42.27900 10.31800 34.08100
C  42.85800 9.39500 35.03000
O  43.74600 8.58800 34.79300
O  42.15700 9.40600 36.14200
C  42.58400 8.56100 37.23400
H  36.54100 6.59600 32.48500
H  37.90400 8.00000 26.21700
H  43.42500 10.46000 27.80900
H  39.90700 8.03100 35.23400
H  37.17300 8.77800 34.11500
H  37.95500 5.82800 34.44700
H  36.71200 6.81000 35.42100
H  38.43700 6.58600 35.82800
H  38.09500 10.60600 35.18000
H  39.82200 10.84100 35.06900
H  39.47100 9.13200 37.29800
H  37.94500 10.04400 37.09600
H  34.88700 6.14400 31.19200
H  35.33000 4.79800 30.20900
H  34.07200 6.11000 29.74000
H  34.63100 4.64800 27.96800
H  34.50000 4.86500 26.21800
H  33.69400 5.98200 27.25300
H  39.51200 9.93500 25.26400
H  42.39100 9.39400 25.73900
H  40.21300 7.10800 25.32100
H  41.42400 8.04200 24.39200
H  39.76100 8.04500 23.84500
H  42.08200 11.48100 24.85200
H  42.24400 12.02300 26.50000
H  40.58900 13.25700 26.19200
H  39.56400 11.93000 26.53800
H  39.98400 12.48100 24.81700
H  45.62800 10.42000 29.55100
H  45.58000 11.38300 31.11600
H  44.94200 12.13800 29.81900
H  41.81500 11.11500 34.66300
H  42.12100 7.61700 36.94800
H  42.11400 8.89800 38.15900
H  43.65500 8.65500 37.41500
Mg 31.06900 58.30700 39.96200
C  28.18900 56.49500 38.95400
C  32.94200 55.60900 39.23100
C  33.77400 60.31300 40.04500
C  29.06700 61.21000 40.25600
N  30.58200 56.38900 39.08500
C  29.40200 55.82500 38.68600
C  29.54700 54.34800 38.24000
C  30.97100 54.01100 38.91000
C  31.55800 55.44900 39.05300
C  30.93300 53.07200 40.12900
C  29.54600 54.37600 36.72500
C  28.36400 53.66500 35.98400
H  27.35200 54.57500 35.24600
N  33.04300 58.01100 39.69200
C  33.65100 56.81900 39.45100
C  35.07900 57.01400 39.36700
C  35.36800 58.35900 39.70500
C  34.03700 59.01900 39.75300
C  35.99600 55.83400 39.08800
C  36.77800 58.93800 39.93800
O  37.76600 58.28500 39.63300
C  36.94700 60.33000 40.30900
N  31.41600 60.57100 39.79600
C  32.65000 61.06500 40.05500
C  32.62000 62.45900 40.58700
C  31.11600 62.70100 40.88100
C  30.44600 61.41000 40.28500
C  33.52300 62.69900 41.84700
C  30.40700 63.93000 40.23300
C  29.33600 64.73000 41.12600
N  29.00500 58.78300 39.70200
C  28.38700 60.00400 39.93600
C  26.96000 59.78700 39.84600
C  26.84000 58.39300 39.51900
C  28.12200 57.83200 39.36000
C  25.78100 60.78600 40.11100
C  25.87000 57.34600 39.37600
O  24.66100 57.38700 39.48400
C  26.73400 56.06700 38.85500
C  26.35100 54.85100 39.68000
O  27.00100 54.34300 40.53400
O  25.25200 54.23600 39.08400
C  24.79400 52.97100 39.60800
H  33.51700 54.69300 39.08500
H  34.60800 61.00700 40.16700
H  28.51200 62.07800 40.61800
H  28.73100 53.74500 38.63700
H  31.59400 53.64200 38.09400
H  29.93300 52.68000 40.31400
H  31.27000 53.69800 40.95500
H  31.63400 52.26000 39.93800
H  30.44500 53.92000 36.31000
H  29.72100 55.41300 36.43900
H  27.84100 52.99600 36.66700
H  28.83400 53.02100 35.24100
H  36.10000 55.83400 38.00300
H  35.71200 54.86100 39.48800
H  37.01800 55.82100 39.46500
H  36.47100 60.55900 41.26300
H  36.52500 60.92900 39.50200
H  38.01700 60.43000 40.49000
H  33.00900 63.10000 39.79500
H  30.96000 62.60800 41.95600
H  33.98100 61.78100 42.21400
H  32.89600 63.21600 42.57300
H  34.28300 63.38300 41.46800
H  30.08800 63.53400 39.27000
H  31.23600 64.60300 40.01200
H  28.44000 64.92200 40.53500
H  29.76400 65.66900 41.47600
H  28.99400 64.24100 42.03800
H  25.88000 61.40700 39.22100
H  25.93100 61.42200 40.98300
H  24.81300 60.28400 40.12000
H  26.45500 55.84200 37.82600
H  25.62400 52.26500 39.62500
H  23.95300 52.51900 39.08400
H  24.56300 53.09300 40.66600

