158

Mg 0.50200 8.22200 27.24000
C  1.10100 10.34900 29.97500
C  0.64900 5.57900 29.33500
C  0.50000 6.27800 24.53900
C  0.72500 11.04400 25.11500
N  0.91000 7.97500 29.41600
C  1.01900 8.99700 30.34800
C  0.74700 8.45400 31.76300
C  1.03000 6.99600 31.54200
C  0.77700 6.76600 30.00000
C  2.43700 6.49800 31.94300
C  -0.68900 8.79200 32.27100
C  -1.04700 9.19000 33.79200
H  -0.02700 8.94100 34.92300
N  0.56800 6.15700 26.98500
C  0.63500 5.19000 27.95600
C  0.65500 3.86200 27.38900
C  0.54400 4.01200 25.99600
C  0.55500 5.57300 25.77400
C  0.81500 2.57000 28.13700
C  0.43500 2.98000 24.88500
O  0.36000 3.34900 23.70800
C  0.36300 1.53000 25.18200
N  0.56300 8.64700 25.15500
C  0.52500 7.66900 24.26100
C  0.33300 8.18100 22.84200
C  -0.04500 9.70500 23.10500
C  0.41200 9.79800 24.52600
C  1.60800 8.09700 22.00600
C  -1.50300 10.03000 22.93400
C  -1.77100 11.28600 22.14000
N  0.77600 10.33000 27.48200
C  0.99500 11.30600 26.50600
C  1.27400 12.54800 27.15400
C  1.35600 12.26300 28.50700
C  1.09000 10.87000 28.61700
C  1.40500 13.86000 26.56800
C  1.57400 12.80400 29.86100
O  1.78400 13.91500 30.23600
C  1.26100 11.58200 30.83000
C  2.39200 11.48400 31.85600
O  3.42300 10.89400 31.67300
O  1.97400 12.10100 33.04300
C  2.98800 12.35500 33.98100
H  0.80400 4.82700 30.11200
H  0.38600 5.76400 23.58200
H  0.59400 11.79300 24.33200
H  1.46200 8.90200 32.45200
H  0.32700 6.39500 32.12000
H  2.94400 7.34300 32.40800
H  3.14500 6.09700 31.21800
H  2.20300 5.63800 32.57000
H  -1.30800 7.94500 31.97500
H  -0.93100 9.68600 31.69700
H  -2.03400 8.76900 33.98300
H  -1.26900 10.25500 33.84300
H  0.85700 2.69000 29.21900
H  1.68100 1.94400 27.92200
H  -0.09400 1.97800 28.03300
H  1.22100 1.09400 25.69400
H  0.32000 1.04600 24.20700
H  -0.51400 1.30200 25.78800
H  -0.53900 7.66400 22.44300
H  0.52100 10.38200 22.46500
H  1.59700 7.06400 21.65800
H  2.49700 8.14100 22.63500
H  1.70600 8.85800 21.23100
H  -2.01400 10.01500 23.89600
H  -2.10700 9.24700 22.47600
H  -0.92500 11.58900 21.52200
H  -2.04100 12.05200 22.86600
H  -2.59000 11.13900 21.43500
H  1.69900 14.55000 27.35900
H  0.44800 14.28800 26.27000
H  2.08800 13.84300 25.71800
H  0.33600 11.96400 31.26300
H  2.60100 12.79300 34.90100
H  3.73600 13.06000 33.61900
H  3.62300 11.49200 34.17700
Mg 56.21600 25.31200 44.88700
C  53.46600 26.97000 43.36600
C  54.95900 22.35400 43.45600
C  59.17100 23.88400 45.33100
C  57.49900 28.31300 45.70300
N  54.38300 24.75800 43.56400
C  53.50200 25.61300 42.97700
C  52.49200 24.84300 42.14100
C  52.81500 23.42000 42.51700
C  54.18300 23.48700 43.16800
C  51.79600 22.60000 43.32000
C  52.68600 25.15500 40.64000
C  51.56200 25.62800 39.84000
H  50.90000 24.65200 38.83600
N  57.01000 23.36800 44.60600
C  56.28600 22.28200 43.97700
C  57.06200 21.06700 44.15400
C  58.41100 21.54200 44.56700
C  58.26500 22.96700 44.80000
C  56.55300 19.65400 43.86800
C  59.68400 20.68800 44.53700
O  59.61900 19.46000 44.34700
C  61.02200 21.27900 44.87100
N  58.10500 26.05500 45.18000
C  59.18300 25.23400 45.36000
C  60.33600 25.95600 45.69400
C  59.85100 27.44500 45.83000
C  58.38600 27.27500 45.61000
C  61.20100 25.43200 46.93200
C  60.55500 28.34000 44.72900
C  60.70000 29.90900 44.98500
N  55.60900 27.32000 44.70000
C  56.15500 28.41600 45.28000
C  55.23200 29.47300 45.19300
C  54.12700 29.01100 44.45900
C  54.45100 27.62600 44.12900
C  55.45600 30.86600 45.76000
C  52.85300 29.28400 43.88100
O  52.14200 30.28100 43.95100
C  52.40200 28.03500 43.16100
C  52.17800 28.38300 41.77000
O  53.03900 28.70300 40.93700
O  50.84400 28.21400 41.50200
C  50.38500 28.47000 40.12600
H  54.53500 21.37500 43.22200
H  60.15700 23.51200 45.61900
H  57.83400 29.29500 46.04600
H  51.52100 25.21800 42.46500
H  53.02000 22.89800 41.58200
H  50.95700 23.09400 43.81000
H  52.38400 22.17900 44.13600
H  51.44000 21.71800 42.78700
H  52.97500 24.23600 40.12900
H  53.52300 25.83600 40.48400
H  51.88000 26.52300 39.30500
H  50.67400 25.88400 40.41800
H  55.49900 19.46400 44.07200
H  57.15100 18.97300 44.47300
H  56.70200 19.34900 42.83300
H  61.20200 22.01700 44.09000
H  61.72600 20.44700 44.85900
H  61.04300 21.85400 45.79700
H  61.09600 25.83900 44.92200
H  60.17400 27.80600 46.80700
H  62.08900 24.91700 46.56300
H  60.64300 24.69800 47.51300
H  61.51200 26.19500 47.64600
H  60.11500 28.27800 43.73300
H  61.58500 28.00800 44.60300
H  60.46400 30.52500 44.11600
H  61.73300 30.14800 45.23900
H  60.04800 30.28300 45.77400
H  56.35200 30.78200 46.37500
H  54.57300 31.09200 46.35700
H  55.63500 31.58700 44.96200
H  51.47500 27.68300 43.61400
H  49.84600 27.63700 39.67400
H  51.16000 28.75500 39.41600
H  49.59900 29.21300 40.26400

