158

Mg 35.96400 2.25200 29.60800
C  33.67000 3.15100 32.14200
C  38.37700 2.24600 32.02700
C  38.18200 1.76800 27.19300
C  33.49800 2.73600 27.20100
N  35.92300 2.60700 31.95200
C  34.93100 2.96400 32.75600
C  35.29300 2.88200 34.18600
C  36.87000 2.81400 34.07700
C  37.05800 2.52000 32.57100
C  37.50300 4.18200 34.59800
C  34.58800 1.66100 34.91200
C  34.64600 1.61700 36.44000
H  34.91900 2.96600 37.14400
N  38.00200 2.16500 29.57900
C  38.81700 2.07300 30.70600
C  40.20300 1.76500 30.24500
C  40.14200 1.62200 28.82400
C  38.74800 1.88900 28.45600
C  41.36100 1.59600 31.15900
C  41.25100 1.27200 27.80500
O  41.07800 1.24800 26.56100
C  42.60900 1.07000 28.29300
N  35.75500 2.05700 27.50200
C  36.87700 1.86900 26.67700
C  36.57200 1.96700 25.18700
C  34.99000 1.88300 25.24400
C  34.64400 2.21400 26.73800
C  37.05300 3.28700 24.53300
C  34.31800 0.51400 24.81100
C  33.14600 0.56300 23.82000
N  34.00800 2.71300 29.66100
C  33.11800 2.93000 28.55400
C  31.82400 3.21500 29.07700
C  32.03300 3.34800 30.42900
C  33.37500 3.09600 30.75400
C  30.49900 3.40600 28.37600
C  31.30700 3.61200 31.70300
O  30.09400 3.73600 31.92700
C  32.41800 3.61400 32.83100
C  32.43700 4.88600 33.45400
O  32.93200 5.87500 33.02500
O  31.59400 4.84500 34.53300
C  31.64900 5.87600 35.59600
H  39.19800 2.31600 32.74300
H  38.82300 1.61800 26.32200
H  32.68100 2.88700 26.49200
H  34.92800 3.77100 34.69900
H  37.29500 1.94800 34.58300
H  37.99300 4.79100 33.83800
H  38.25200 3.96000 35.35800
H  36.71300 4.81400 35.00100
H  35.17300 0.83200 34.51500
H  33.57200 1.47100 34.56500
H  35.47500 0.93700 36.63200
H  33.64600 1.26200 36.68800
H  42.32800 1.69300 30.66600
H  41.36600 0.60800 31.62100
H  41.29200 2.35300 31.94000
H  42.87600 2.03600 28.71900
H  43.27900 0.85200 27.46100
H  42.54000 0.27900 29.04000
H  37.19400 1.14000 24.84400
H  34.54300 2.63400 24.59200
H  36.24300 3.95000 24.23000
H  37.58700 3.11600 23.59800
H  37.65400 3.78000 25.29700
H  34.03100 -0.01900 25.71700
H  35.04800 -0.19100 24.41500
H  32.95300 1.51800 23.33100
H  32.23300 0.28500 24.34600
H  33.42100 -0.17600 23.06700
H  30.27000 2.52000 27.78400
H  30.69600 4.24800 27.71100
H  29.78700 3.67700 29.15500
H  32.03400 2.95000 33.60500
H  31.96800 5.41900 36.53300
H  30.62500 6.14400 35.85700
H  32.24000 6.77900 35.43800
Mg 1.04600 43.68200 25.18900
C  2.39200 43.46100 28.40800
C  -2.09000 42.56300 26.50700
C  -0.24000 42.95200 22.08500
C  4.08300 44.34600 23.81600
N  0.27800 43.13500 27.18300
C  0.95000 43.30500 28.39300
C  0.08600 43.07700 29.59700
C  -1.32600 42.62200 28.96700
C  -1.05300 42.78700 27.47100
C  -1.77900 41.18200 29.40000
C  -0.04500 44.50700 30.26300
C  -0.13500 44.44200 31.80500
H  -0.47900 43.19200 32.62400
N  -0.92900 43.00100 24.42300
C  -2.02300 42.71900 25.14800
C  -3.14500 42.50800 24.22500
C  -2.60200 42.49200 22.91700
C  -1.23400 42.80000 23.07700
C  -4.47700 42.21000 24.80000
C  -3.20300 42.20800 21.58000
O  -2.59300 42.27400 20.54300
C  -4.73600 41.88900 21.46500
N  1.86100 43.34000 23.17100
C  1.13000 43.26600 22.06800
C  1.89900 43.60900 20.85000
C  3.11300 44.43600 21.42500
C  3.03400 44.02700 22.91800
C  2.33200 42.43500 19.94400
C  2.87000 45.99300 21.22900
C  4.02000 46.66100 20.63400
N  2.95300 43.85000 25.96000
C  4.10800 44.14400 25.27700
C  5.14700 44.32000 26.25900
C  4.52300 43.94600 27.46500
C  3.17700 43.71400 27.28000
C  6.53800 44.77700 25.95300
C  4.66400 43.93400 28.93200
O  5.61000 44.23900 29.59300
C  3.32300 43.59900 29.59200
C  3.54500 42.46700 30.57200
O  3.25000 41.31100 30.35900
O  4.07000 42.95300 31.73900
C  4.04600 42.02900 32.90100
H  -3.06800 42.43500 26.97700
H  -0.57600 42.89200 21.04700
H  4.95400 44.84000 23.38000
H  0.60100 42.33800 30.21100
H  -2.03700 43.41400 29.20300
H  -2.76000 41.30500 29.85900
H  -1.08900 40.78000 30.14200
H  -1.90000 40.52100 28.54200
H  -0.91300 45.06600 29.91300
H  0.74200 45.21000 29.99200
H  -0.83700 45.14000 32.26100
H  0.83700 44.73900 32.19800
H  -5.07200 42.09200 23.89500
H  -4.72000 42.86400 25.63800
H  -4.54300 41.20900 25.22600
H  -5.38300 42.74300 21.66900
H  -4.95500 40.94600 21.96700
H  -4.84600 41.84000 20.38200
H  1.28300 44.17000 20.14700
H  4.04300 44.05200 21.00600
H  1.70800 42.40500 19.05100
H  2.22600 41.53500 20.55000
H  3.32100 42.55900 19.50100
H  2.51800 46.48100 22.13800
H  2.08500 46.10800 20.48100
H  3.74800 46.96700 19.62400
H  4.99300 46.17000 20.64600
H  4.12800 47.60400 21.17000
H  7.28200 44.09500 26.36400
H  6.64400 45.78900 26.34400
H  6.69100 44.69200 24.87800
H  3.03200 44.43700 30.22400
H  4.05800 42.76300 33.70700
H  4.88300 41.33200 32.86200
H  3.10600 41.50000 33.05600

