158

Mg 24.20700 -4.70600 45.63700
C  26.00800 -2.04500 44.43500
C  21.37000 -3.71400 43.82500
C  22.76600 -7.56300 46.45200
C  27.14100 -5.73400 47.37700
N  23.89900 -3.28200 44.01500
C  24.77500 -2.25200 43.79400
C  24.16500 -1.33600 42.72100
C  22.65200 -1.64700 42.88900
C  22.61500 -2.94000 43.63800
C  21.99200 -0.54300 43.70200
C  24.62400 -1.77100 41.32300
C  25.60100 -0.91500 40.46200
H  26.66300 -1.61900 39.59400
N  22.30800 -5.46900 45.24200
C  21.24000 -4.87200 44.57700
C  20.10300 -5.76700 44.74700
C  20.47400 -6.95100 45.45000
C  21.91200 -6.69000 45.71900
C  18.79000 -5.43100 44.10200
C  19.61700 -8.20900 45.68900
O  18.39100 -8.24000 45.40400
C  20.05800 -9.46800 46.41500
N  24.82600 -6.33400 46.73000
C  24.01800 -7.38200 46.95800
C  24.62600 -8.54200 47.84600
C  25.92600 -7.84000 48.32900
C  26.01200 -6.55100 47.40900
C  23.74900 -9.09800 48.99700
C  27.17900 -8.72900 48.19600
C  27.99300 -8.88800 49.48900
N  26.19800 -4.07400 45.92500
C  27.25600 -4.52600 46.70300
C  28.42600 -3.65700 46.52300
C  27.96700 -2.68400 45.61300
C  26.62300 -2.93800 45.36500
C  29.78500 -3.88100 47.22000
C  28.35800 -1.46300 44.96400
O  29.39800 -0.81400 44.98900
C  27.09900 -1.00200 44.07400
C  26.66900 0.33400 44.55600
O  26.28500 0.59900 45.67400
O  26.93100 1.25800 43.62200
C  26.88100 2.66900 43.97900
H  20.44800 -3.31400 43.39900
H  22.43400 -8.56800 46.71900
H  27.98700 -6.16900 47.91200
H  24.36600 -0.29100 42.95300
H  22.14600 -1.85300 41.94600
H  22.61700 -0.18400 44.52000
H  20.99600 -0.78300 44.07400
H  21.95200 0.43400 43.22100
H  23.72400 -1.95300 40.73600
H  25.14600 -2.70500 41.52900
H  26.04000 -0.13300 41.08200
H  24.89700 -0.39100 39.81600
H  18.36300 -6.24600 43.51800
H  18.80200 -4.60900 43.38600
H  18.16200 -5.05200 44.90900
H  20.32000 -9.11700 47.41300
H  20.93300 -9.77600 45.84300
H  19.20200 -10.13700 46.32600
H  24.94200 -9.30300 47.13200
H  25.83600 -7.49300 49.35900
H  23.58600 -10.14600 48.74300
H  22.80000 -8.56900 49.07900
H  24.24400 -9.00600 49.96400
H  27.91900 -8.33200 47.50200
H  26.89200 -9.76800 48.03500
H  29.06400 -9.01400 49.32900
H  27.64500 -9.73500 50.08000
H  27.91500 -7.95800 50.05400
H  30.01900 -4.91600 46.97200
H  29.72400 -3.78300 48.30400
H  30.46400 -3.15200 46.77800
H  27.28300 -1.05900 43.00100
H  27.77700 3.00400 44.50200
H  25.99700 2.85500 44.59000
H  26.73500 3.21000 43.04400
Mg -12.25200 16.23400 41.96900
C  -9.09100 14.50900 41.38400
C  -10.80300 19.02400 40.69400
C  -15.22600 17.39800 41.71000
C  -13.51500 13.06900 42.84400
N  -10.15400 16.62700 40.91200
C  -9.09300 15.83400 40.93500
C  -7.92700 16.62800 40.54100
C  -8.42700 18.14400 40.36800
C  -9.90400 17.92900 40.66400
C  -7.62800 19.22500 41.23800
C  -7.24400 16.00600 39.26000
C  -5.74100 16.15900 39.21200
H  -5.11100 16.73400 37.98700
N  -12.92100 18.02400 41.31100
C  -12.18300 19.03100 40.83700
C  -13.09500 20.08000 40.53800
C  -14.38100 19.70700 40.94500
C  -14.22000 18.32600 41.31400
C  -12.60800 21.39100 39.94900
C  -15.61600 20.53600 40.80900
O  -15.56300 21.69800 40.29800
C  -17.02100 20.17400 41.31300
N  -14.13000 15.30300 42.15600
C  -15.21000 16.09100 42.12800
C  -16.48000 15.23300 42.17700
C  -16.02900 13.81300 42.69200
C  -14.45700 14.00300 42.50300
C  -17.62100 15.80400 43.06900
C  -16.63700 12.53800 42.00500
C  -17.04300 11.41300 43.02200
N  -11.47900 14.18400 42.22800
C  -12.08600 13.06800 42.71000
C  -11.12700 11.96400 42.87000
C  -9.90200 12.54400 42.41100
C  -10.20500 13.87800 41.97700
C  -11.38800 10.59300 43.42300
C  -8.44900 12.22200 42.23200
O  -7.73700 11.23900 42.43500
C  -7.85500 13.51700 41.53200
C  -6.75800 14.02700 42.39000
O  -6.86800 14.77700 43.33300
O  -5.56500 13.65800 41.84800
C  -4.40800 14.22100 42.50700
H  -10.43800 20.02400 40.45200
H  -16.23600 17.81100 41.68100
H  -13.99600 12.13000 43.12600
H  -7.28000 16.61600 41.41800
H  -8.25800 18.40300 39.32300
H  -8.33000 19.83800 41.80300
H  -6.99000 19.93700 40.71600
H  -6.96800 18.71900 41.94300
H  -7.69500 16.42200 38.35900
H  -7.37700 14.92600 39.18800
H  -5.27300 15.18900 39.38400
H  -5.44600 16.70800 40.10600
H  -12.73800 22.26700 40.58400
H  -13.27600 21.39600 39.08800
H  -11.61600 21.43400 39.49800
H  -17.36200 19.38600 40.64200
H  -17.68000 21.01700 41.10500
H  -17.07600 19.95600 42.38000
H  -16.88400 15.18100 41.16600
H  -16.18800 13.58300 43.74500
H  -17.19400 16.53200 43.75900
H  -18.12000 15.00500 43.61900
H  -18.18800 16.30200 42.28300
H  -15.96100 12.13000 41.25400
H  -17.55300 12.92800 41.56100
H  -18.01300 11.74800 43.39100
H  -16.23600 11.21300 43.72700
H  -17.10000 10.59900 42.30000
H  -11.59000 10.67900 44.49100
H  -10.59000 9.86000 43.29900
H  -12.28900 10.13100 43.02100
H  -7.41500 13.18900 40.59000
H  -4.34200 15.30800 42.47400
H  -3.49300 13.87900 42.02400
H  -4.40700 13.94100 43.56000

