158

Mg 56.08900 24.03900 43.93100
C  53.57300 26.19400 42.67700
C  54.46300 21.36800 42.78400
C  59.01600 22.17800 44.33200
C  57.89900 26.87200 44.82300
N  54.28700 23.84700 42.75500
C  53.37400 24.84900 42.28800
C  52.38100 24.18300 41.35000
C  52.36000 22.74500 41.96100
C  53.79000 22.60800 42.60200
C  51.30200 22.44800 43.06100
C  52.77500 24.18400 39.82300
C  51.81600 25.03900 38.88000
H  51.42400 24.47100 37.55800
N  56.63700 22.00500 43.66800
C  55.77900 21.09400 43.27800
C  56.42900 19.77200 43.35100
C  57.76700 19.97600 43.70200
C  57.86100 21.46200 43.90600
C  55.65300 18.56000 42.89200
C  58.80900 18.83900 43.85100
O  58.55600 17.67200 43.53400
C  60.22600 19.17300 44.40800
N  58.11700 24.43200 44.67600
C  59.10900 23.47100 44.73800
C  60.45300 24.11200 45.07300
C  60.08700 25.64300 45.22400
C  58.57800 25.66500 44.95500
C  61.08000 23.44100 46.31100
C  60.84500 26.53200 44.22600
C  62.25900 26.83100 44.74900
N  55.77600 26.10000 43.95800
C  56.56500 27.12800 44.48200
C  55.81700 28.36000 44.35500
C  54.67500 27.98300 43.69800
C  54.65000 26.62800 43.51600
C  56.19500 29.71900 44.72800
C  53.50000 28.61600 43.07600
O  53.18000 29.77300 43.01400
C  52.83100 27.47800 42.28800
C  52.77900 27.80700 40.96200
O  53.74600 27.74700 40.21400
O  51.51500 28.19200 40.59500
C  51.48700 28.69600 39.19200
H  53.82500 20.52700 42.50400
H  59.90500 21.57200 44.51900
H  58.51500 27.72300 45.12100
H  51.48500 24.79900 41.42900
H  52.36700 21.91800 41.25100
H  51.51100 22.99700 43.97900
H  51.34700 21.38100 43.28200
H  50.29800 22.68800 42.71300
H  52.67200 23.16600 39.44700
H  53.81200 24.45500 39.62500
H  52.38500 25.96000 38.74900
H  50.93700 25.14500 39.51600
H  55.69000 18.60500 41.80400
H  54.61000 18.71000 43.17100
H  55.89600 17.66500 43.46600
H  60.79300 19.79000 43.71000
H  60.73600 18.24100 44.65100
H  60.06400 19.79000 45.29200
H  61.15700 23.91600 44.26500
H  60.20200 26.01800 46.24100
H  60.30500 22.91500 46.87000
H  61.43800 24.21500 46.98900
H  61.94700 22.84000 46.03600
H  60.40700 27.52900 44.18300
H  61.00400 26.04700 43.26200
H  62.54900 27.87500 44.85800
H  63.02100 26.43300 44.07900
H  62.36300 26.20600 45.63700
H  55.39100 30.36000 44.36600
H  57.14200 30.02900 44.28600
H  56.36200 29.74400 45.80500
H  51.85400 27.43700 42.77100
H  50.62700 28.29100 38.65700
H  52.33500 28.42500 38.56200
H  51.51400 29.78500 39.15600
Mg -12.96500 16.41300 42.33500
C  -9.85400 14.81900 41.72300
C  -11.95200 19.10000 40.51300
C  -16.13800 17.41200 42.30900
C  -14.08400 13.21500 43.61000
N  -11.07100 16.95500 41.37800
C  -9.91400 16.19000 41.23900
C  -8.83600 17.00700 40.50100
C  -9.53000 18.38600 40.31700
C  -10.93200 18.14800 40.70800
C  -8.90600 19.43900 41.33300
C  -8.48200 16.40000 39.10800
C  -6.94100 16.30000 38.87100
H  -6.39000 15.09600 38.16300
N  -13.91000 18.09200 41.59500
C  -13.27500 19.09200 40.89600
C  -14.29100 20.12800 40.56800
C  -15.50700 19.76400 41.18400
C  -15.22700 18.35500 41.70300
C  -13.97700 21.41100 39.81100
C  -16.80900 20.57600 41.21800
O  -16.85400 21.70800 40.69900
C  -18.00500 20.02400 41.90500
N  -14.80600 15.44900 42.75400
C  -16.05300 16.09800 42.79800
C  -17.23500 15.16600 43.12000
C  -16.51600 13.95900 43.69300
C  -15.02700 14.13500 43.19300
C  -18.29200 15.84500 44.13300
C  -17.07500 12.53000 43.34500
C  -16.95400 11.44700 44.36800
N  -12.20300 14.37700 42.63700
C  -12.74300 13.22600 43.23300
C  -11.68300 12.25100 43.41900
C  -10.53600 12.88600 42.86500
C  -10.96600 14.12700 42.37800
C  -11.90700 10.98100 44.13400
C  -9.08300 12.77900 42.66700
O  -8.31500 11.88400 42.97200
C  -8.57500 14.08100 41.91700
C  -7.53900 14.66200 42.81000
O  -7.75800 15.03400 43.95100
O  -6.35800 14.96700 42.18100
C  -5.39600 15.86200 42.81800
H  -11.79200 19.99900 39.91400
H  -17.16500 17.77600 42.23600
H  -14.29600 12.22400 44.01600
H  -7.88900 17.00100 41.04000
H  -9.38800 18.82600 39.33000
H  -9.70100 19.93500 41.88900
H  -8.51200 20.24600 40.71600
H  -8.17300 18.98600 42.00000
H  -8.83800 16.97700 38.25400
H  -8.86400 15.38700 38.98300
H  -6.36300 16.39500 39.79000
H  -6.70600 17.22800 38.34900
H  -14.81300 21.68300 39.16700
H  -13.21500 21.20800 39.05800
H  -13.66800 22.21300 40.48100
H  -18.37400 19.20300 41.29100
H  -18.80100 20.76300 41.81400
H  -17.89600 19.75300 42.95500
H  -17.73700 14.93200 42.18100
H  -16.48800 14.06000 44.77800
H  -19.25800 15.36800 43.96700
H  -18.32600 16.91900 43.95100
H  -17.95400 15.66500 45.15300
H  -16.37600 12.29200 42.54300
H  -18.07800 12.77900 43.00000
H  -17.92600 10.99800 44.57200
H  -16.56100 11.95800 45.24700
H  -16.22300 10.68100 44.11000
H  -10.90400 10.61100 44.34600
H  -12.47800 10.29600 43.50600
H  -12.42600 11.09400 45.08500
H  -8.12700 13.60500 41.04500
H  -4.83000 15.36700 43.60600
H  -5.88900 16.77400 43.15400
H  -4.57000 16.18000 42.18200

