158

Mg 8.33200 4.05200 27.71400
C  9.49000 2.59700 30.71400
C  5.97400 5.91300 29.67400
C  7.24800 5.52900 24.95800
C  10.26000 1.81700 25.87500
N  7.80700 4.13500 29.91700
C  8.50200 3.59600 30.94500
C  7.99100 4.14200 32.29400
C  6.68800 4.90200 31.89300
C  6.83800 5.03000 30.37300
C  5.33600 4.15500 32.24900
C  8.96300 4.95700 33.17400
C  9.23800 4.39200 34.59000
H  9.91100 5.31800 35.64000
N  6.85800 5.56200 27.34200
C  5.99600 6.19400 28.23500
C  5.24200 7.15700 27.57400
C  5.57400 7.13300 26.22700
C  6.59200 5.99400 26.11100
C  4.19600 8.06800 28.26700
C  5.10000 8.04500 25.02000
O  5.43500 7.86900 23.81300
C  4.19000 9.04800 25.29200
N  8.66200 3.58900 25.72000
C  8.22100 4.51600 24.77600
C  8.82000 4.22200 23.42300
C  9.91500 3.17500 23.74500
C  9.62200 2.81300 25.21800
C  7.83400 3.78600 22.30700
C  11.39800 3.57600 23.48400
C  11.97900 4.57800 24.47700
N  9.56600 2.44100 28.17400
C  10.29400 1.62900 27.36200
C  10.98100 0.57700 28.10600
C  10.73600 0.94100 29.45700
C  9.84300 2.04900 29.41300
C  11.82500 -0.43600 27.50700
C  11.04700 0.57900 30.77500
O  11.67300 -0.26700 31.31100
C  10.31000 1.73800 31.73700
C  9.54100 0.89800 32.75600
O  8.45700 0.33900 32.58200
O  10.23400 0.87500 33.91100
C  9.75700 0.04500 35.06700
H  5.33900 6.54600 30.29700
H  6.96700 6.09000 24.06400
H  10.96000 1.14200 25.37700
H  7.66300 3.19900 32.73200
H  6.69200 5.89100 32.35200
H  4.64600 4.34600 31.42700
H  5.01600 4.56600 33.20700
H  5.51200 3.11700 32.53300
H  8.54100 5.96200 33.18200
H  9.96200 4.96400 32.73800
H  9.91200 3.53900 34.51300
H  8.33900 3.85900 34.90100
H  4.10600 8.01500 29.35200
H  3.25600 7.86300 27.75400
H  4.51600 9.11000 28.27800
H  3.26100 8.56600 25.59900
H  4.09500 9.69200 24.41800
H  4.68300 9.53000 26.13600
H  9.30800 5.14100 23.09800
H  9.78600 2.24700 23.18800
H  6.87900 3.77600 22.83100
H  8.08600 2.80400 21.90700
H  7.87300 4.58600 21.56700
H  11.43600 4.04200 22.49900
H  11.99800 2.66900 23.41200
H  11.33800 4.61800 25.35800
H  11.89200 5.51300 23.92400
H  13.00800 4.52100 24.83400
H  12.39000 0.04800 26.71100
H  11.36200 -1.25700 26.95900
H  12.52800 -0.77900 28.26700
H  11.12000 2.34800 32.13700
H  8.87800 0.58900 35.41400
H  10.50300 -0.07200 35.85300
H  9.38100 -0.90500 34.68700
Mg 35.72400 2.91500 30.93800
C  33.12300 3.92200 32.93200
C  37.85800 2.93800 33.49400
C  38.26400 1.92900 28.79000
C  33.59200 3.38000 28.15100
N  35.42100 3.37800 32.93200
C  34.33700 3.62200 33.59600
C  34.57300 3.53600 35.09500
C  36.16200 3.47700 35.24600
C  36.53300 3.35000 33.76500
C  36.82300 4.75900 35.94100
C  33.87800 2.30100 35.72700
C  33.41100 2.54900 37.18500
H  34.09800 3.49300 38.14100
N  37.79400 2.48400 31.14900
C  38.49300 2.50000 32.30100
C  39.85900 2.03300 32.14000
C  39.91800 1.71300 30.77700
C  38.61600 2.01400 30.16800
C  40.85300 1.90300 33.27500
C  41.11400 1.04900 29.97700
O  41.12100 0.99500 28.77900
C  42.31700 0.41600 30.69700
N  35.94300 2.76000 28.73600
C  37.02500 2.19300 28.15700
C  36.86500 2.16800 26.61600
C  35.42800 2.72800 26.42600
C  34.93900 3.05000 27.83200
C  38.01300 3.00800 25.81500
C  34.54400 1.78900 25.52400
C  34.15100 0.46100 26.20000
N  33.68800 3.51300 30.55800
C  32.91300 3.66000 29.38700
C  31.63700 4.02200 29.72800
C  31.58800 4.08800 31.15100
C  32.88200 3.79100 31.58400
C  30.47900 4.25200 28.74000
C  30.73500 4.29500 32.30600
O  29.55200 4.46000 32.41800
C  31.76800 4.12800 33.55300
C  31.73700 5.42600 34.34800
O  31.73700 6.54900 33.88400
O  31.50300 5.19300 35.70900
C  31.21000 6.29300 36.58800
H  38.46800 2.76100 34.38300
H  39.02600 1.55900 28.10000
H  32.96000 3.56900 27.28000
H  34.18400 4.45300 35.53800
H  36.46400 2.51300 35.65400
H  37.67600 5.10900 35.36000
H  37.11600 4.44200 36.94200
H  36.03500 5.50900 35.99700
H  34.62600 1.51200 35.80100
H  33.05600 1.98000 35.08600
H  33.32300 1.57600 37.66900
H  32.35100 2.79200 37.25500
H  41.00700 0.85500 33.53300
H  40.47600 2.16100 34.26400
H  41.78300 2.45900 33.15800
H  43.06600 0.06600 29.98700
H  42.02100 -0.17800 31.56200
H  42.86000 1.23800 31.16200
H  36.90200 1.11000 26.35700
H  35.46900 3.73000 26.00000
H  37.66000 3.77600 25.12700
H  38.52200 2.33000 25.13000
H  38.71500 3.47900 26.50400
H  35.12000 1.52100 24.63900
H  33.69700 2.35000 25.13000
H  34.76000 0.27800 27.08500
H  34.18100 -0.40900 25.54400
H  33.13300 0.48700 26.58900
H  30.29300 3.28100 28.28200
H  30.77100 4.89000 27.90600
H  29.61000 4.72100 29.20200
H  31.47500 3.27200 34.16200
H  30.48800 5.99700 37.34800
H  30.64500 7.08100 36.08900
H  32.15600 6.68400 36.96300

