158

Mg 48.70500 35.03700 27.58900
C  46.71100 33.30200 30.10200
C  49.10700 37.55300 29.97600
C  50.14500 36.67800 25.18400
C  47.78300 32.49200 25.31500
N  48.09100 35.40300 29.79600
C  47.36900 34.48400 30.59900
C  47.43100 34.96300 32.06500
C  47.64700 36.49500 31.93000
C  48.25000 36.54100 30.46600
C  46.41600 37.53800 32.14000
C  48.59000 34.36700 32.79500
C  48.30100 34.29000 34.29200
H  47.28600 35.22100 34.92400
N  49.68800 36.71400 27.71500
C  49.73300 37.71000 28.68000
C  50.57600 38.73500 28.31100
C  50.76000 38.57800 26.89800
C  50.24200 37.23200 26.52100
C  50.95600 39.87600 29.19900
C  51.31800 39.51500 25.92700
O  51.62700 39.18700 24.76000
C  51.65600 40.99600 26.36200
N  48.79000 34.64900 25.43600
C  49.59900 35.42200 24.72100
C  49.79700 34.85100 23.27800
C  49.03300 33.52800 23.39500
C  48.48200 33.52200 24.76800
C  49.40900 35.88500 22.13300
C  49.99100 32.28000 23.14400
C  50.96900 31.72700 24.12300
N  47.45000 33.28400 27.57700
C  47.28500 32.26600 26.60400
C  46.42300 31.22800 27.22800
C  46.14900 31.63500 28.54300
C  46.82400 32.86000 28.72500
C  46.07200 29.90800 26.62500
C  45.54400 31.07500 29.74200
O  44.92300 30.02500 29.92700
C  45.72600 32.26700 30.77000
C  45.94700 31.70600 32.12900
O  46.90800 30.95500 32.48300
O  44.86800 32.08800 32.89900
C  44.89100 31.61300 34.31600
H  49.35400 38.25000 30.77900
H  50.74700 37.18400 24.42600
H  47.55200 31.64000 24.67200
H  46.48200 34.75400 32.55900
H  48.46800 36.84300 32.55700
H  46.56100 38.44500 32.72800
H  45.53300 37.03400 32.53200
H  46.21800 37.90700 31.13400
H  49.52300 34.92700 32.73400
H  48.74000 33.37800 32.36100
H  49.26000 34.25300 34.80900
H  47.96700 33.26300 34.44200
H  50.83100 40.88400 28.80500
H  52.01400 39.64900 29.32700
H  50.47400 39.87000 30.17700
H  50.71500 41.47900 26.62600
H  52.17800 41.45900 25.52400
H  52.31800 40.91600 27.22500
H  50.83900 34.53300 23.30900
H  48.29000 33.54400 22.59800
H  49.19900 36.84100 22.61300
H  48.58100 35.59900 21.48400
H  50.29500 35.92500 21.49900
H  50.54300 32.49200 22.22900
H  49.30500 31.48800 22.84300
H  51.95500 31.43200 23.76500
H  50.47900 30.89400 24.62700
H  51.12400 32.40400 24.96300
H  47.00900 29.35200 26.65700
H  45.69500 29.92100 25.60300
H  45.37500 29.33800 27.24000
H  44.80500 32.84900 30.75200
H  43.95800 31.52000 34.87200
H  45.45600 32.44300 34.73900
H  45.39200 30.65300 34.43800
Mg -1.57200 34.56000 25.56300
C  -3.45000 33.10800 28.19300
C  -0.55900 36.83500 27.93500
C  -0.17500 36.26500 23.15100
C  -3.27200 32.41900 23.24000
N  -1.96100 34.89700 27.93800
C  -2.65200 34.10200 28.74300
C  -2.52300 34.61200 30.19400
C  -1.61100 35.88800 30.05000
C  -1.39400 35.96800 28.58100
C  -2.01300 37.16800 30.90500
C  -1.99800 33.54100 31.18900
C  -2.71000 33.47900 32.58300
H  -2.12300 32.60800 33.65500
N  -0.49900 36.28000 25.52400
C  -0.22200 37.10200 26.57700
C  0.58600 38.18600 26.11700
C  0.62800 38.14400 24.74700
C  0.01300 36.88800 24.39700
C  1.02700 39.21000 27.07500
C  1.17300 39.10500 23.73400
O  1.13600 38.88000 22.50600
C  1.60300 40.49700 24.24400
N  -1.84000 34.48500 23.49300
C  -0.97000 35.17800 22.70300
C  -1.15600 34.76200 21.24200
C  -2.06100 33.42400 21.35600
C  -2.40400 33.41300 22.77900
C  -1.72800 35.85900 20.29000
C  -1.32200 32.09100 20.85800
C  -0.03400 31.59300 21.48800
N  -3.03900 33.09400 25.66600
C  -3.64600 32.24800 24.62100
C  -4.39600 31.21900 25.28700
C  -4.48000 31.62200 26.61700
C  -3.60900 32.70900 26.83400
C  -5.11700 30.06800 24.60100
C  -4.96100 31.17800 27.91500
O  -5.75000 30.19200 28.19500
C  -4.45600 32.14900 28.96400
C  -5.53800 32.87800 29.49500
O  -6.13000 33.80200 28.95000
O  -5.77100 32.48700 30.79500
C  -6.88800 33.05400 31.55000
H  -0.13000 37.41800 28.75200
H  0.32700 36.65100 22.26100
H  -3.67500 31.70100 22.52300
H  -3.50700 34.97700 30.48600
H  -0.65500 35.57300 30.46900
H  -2.86400 37.06400 31.57800
H  -2.35500 37.90200 30.17500
H  -1.21000 37.56500 31.52600
H  -0.93600 33.67600 31.39100
H  -2.07800 32.64200 30.57800
H  -3.69000 33.03100 32.42000
H  -2.94400 34.49200 32.90900
H  0.27800 39.99900 27.14200
H  2.03700 39.52700 26.81300
H  1.18900 38.75000 28.05000
H  0.96000 40.86700 25.04200
H  1.67700 41.19800 23.41200
H  2.62800 40.54900 24.61000
H  -0.13000 34.60700 20.90900
H  -2.95300 33.38300 20.73100
H  -1.28900 35.85100 19.29200
H  -1.32000 36.79000 20.68400
H  -2.81700 35.87200 20.32500
H  -1.10500 32.27300 19.80600
H  -2.01000 31.25000 20.94600
H  -0.12600 30.82300 22.25400
H  0.50000 32.42600 21.94600
H  0.62700 31.22800 20.70200
H  -4.44700 29.92900 23.75200
H  -6.07300 30.41600 24.20900
H  -5.15700 29.29300 25.36600
H  -4.02900 31.57800 29.78900
H  -6.46800 33.66000 32.35300
H  -7.47900 32.19400 31.86500
H  -7.45800 33.74300 30.92700

