158

Mg 8.32100 3.27700 28.50500
C  9.62700 1.75800 31.18400
C  6.24700 5.01800 30.65100
C  6.77400 4.50900 25.71400
C  10.18500 1.01800 26.42900
N  7.98000 3.36500 30.63800
C  8.78400 2.79300 31.56100
C  8.56200 3.28800 33.02900
C  7.25500 4.08200 32.81300
C  7.09700 4.12300 31.26700
C  5.94800 3.40300 33.35700
C  9.74200 4.15300 33.47200
C  10.43400 3.80400 34.83900
H  9.54900 3.12200 35.88400
N  6.80300 4.65000 28.18200
C  6.05300 5.21200 29.29300
C  5.07800 6.09300 28.71700
C  5.18300 6.00100 27.30200
C  6.24700 4.96100 26.96700
C  4.26500 7.11300 29.49000
C  4.29700 6.69900 26.22700
O  4.45700 6.51600 25.04500
C  3.25200 7.58200 26.72100
N  8.24300 2.55200 26.32900
C  7.67100 3.40900 25.41100
C  8.28300 3.19600 23.97500
C  9.37800 2.12000 24.20500
C  9.31500 1.92100 25.76300
C  7.19400 2.60200 23.01800
C  10.78200 2.60600 23.63800
C  11.51900 3.72100 24.44400
N  9.51600 1.65500 28.69500
C  10.24500 0.81300 27.80500
C  11.18600 -0.02000 28.53700
C  10.95400 0.36700 29.82900
C  9.95200 1.31800 29.88100
C  12.04800 -1.08500 28.04400
C  11.39900 0.10900 31.11600
O  12.36200 -0.62100 31.51200
C  10.55200 1.02600 32.07200
C  9.80700 0.17400 32.94700
O  8.80500 -0.42200 32.62300
O  10.35100 -0.07900 34.14700
C  9.63900 -0.80700 35.11800
H  5.65900 5.64400 31.32500
H  6.34400 4.97200 24.82300
H  11.06800 0.48700 26.06800
H  8.34400 2.46700 33.71100
H  7.33000 5.05500 33.29900
H  5.71800 2.69300 32.56300
H  5.12500 4.11600 33.30700
H  6.02100 2.96500 34.35300
H  9.54800 5.22300 33.40400
H  10.56200 3.98000 32.77500
H  10.76300 4.74600 35.27700
H  11.29200 3.18300 34.58100
H  4.53300 8.16600 29.39800
H  4.29200 6.95400 30.56800
H  3.23800 6.88700 29.20300
H  2.71000 7.96800 25.85700
H  3.75200 8.36200 27.29500
H  2.52500 7.06600 27.34900
H  8.59500 4.21000 23.72800
H  9.16300 1.10800 23.86200
H  6.29100 2.97800 23.49900
H  7.29500 1.52600 22.87400
H  7.29700 3.15400 22.08400
H  10.69500 2.96100 22.61200
H  11.39200 1.70800 23.53300
H  11.13400 3.92100 25.44400
H  11.32600 4.66900 23.94200
H  12.60800 3.67600 24.43100
H  13.03600 -0.79000 28.39700
H  12.09300 -1.13100 26.95600
H  11.73400 -1.99800 28.55100
H  11.16400 1.65200 32.72200
H  9.54500 -1.81900 34.72200
H  8.67200 -0.34400 35.31400
H  10.29200 -0.68300 35.98100
Mg 25.43400 1.22600 30.09900
C  27.73200 1.04400 32.76800
C  22.96100 1.45600 32.33800
C  23.47900 1.32400 27.47300
C  28.24100 0.59300 27.87800
N  25.41000 1.16100 32.32300
C  26.43300 1.23900 33.20600
C  25.88300 1.49500 34.64600
C  24.35200 1.29800 34.50500
C  24.20100 1.29300 32.96500
C  23.67200 0.06000 35.17800
C  26.29800 2.86200 35.09900
C  27.10500 2.95100 36.40800
H  26.45000 3.74800 37.55400
N  23.44900 1.44100 29.91900
C  22.53900 1.45400 30.92800
C  21.20300 1.60700 30.38100
C  21.35400 1.60800 28.98200
C  22.84000 1.48000 28.71300
C  19.94300 1.77800 31.20700
C  20.27600 1.65200 27.85700
O  20.52600 1.74800 26.68900
C  18.80100 1.59500 28.20200
N  25.83100 0.79400 27.93800
C  24.77900 1.02600 27.06300
C  25.25300 1.14600 25.61900
C  26.81500 1.04300 25.80200
C  26.97400 0.81200 27.30900
C  24.61200 0.09900 24.59900
C  27.63300 2.26900 25.28300
C  29.07000 2.09500 24.61600
N  27.48400 0.87700 30.21200
C  28.48400 0.51900 29.23400
C  29.71200 0.34500 29.87700
C  29.41700 0.58100 31.24000
C  28.07600 0.87700 31.39700
C  31.12900 0.16200 29.28600
C  30.04500 0.66500 32.60800
O  31.16700 0.46200 32.92200
C  29.02000 1.13000 33.60900
C  28.93200 0.12100 34.68800
O  28.33900 -0.95000 34.64300
O  29.55100 0.54800 35.84200
C  29.34800 -0.18400 37.09900
H  22.06400 1.53600 32.95500
H  22.91700 1.45300 26.54500
H  29.11800 0.58000 27.22800
H  26.33400 0.72700 35.27500
H  23.82800 2.24400 34.64000
H  22.86700 0.45600 35.79700
H  24.38500 -0.52800 35.75500
H  23.11000 -0.63000 34.54700
H  25.38500 3.44800 35.20800
H  26.92500 3.24400 34.29400
H  27.93500 3.59300 36.11300
H  27.54300 2.00000 36.71000
H  19.32500 2.61400 30.88000
H  20.16700 1.84000 32.27100
H  19.42700 0.82000 31.25700
H  18.34000 2.51600 28.55800
H  18.61700 0.77600 28.89700
H  18.22700 1.23000 27.35000
H  25.00800 2.12900 25.21800
H  27.26700 0.20600 25.26900
H  23.98200 -0.61800 25.12500
H  25.40000 -0.50300 24.14700
H  23.98100 0.57600 23.84900
H  27.78700 2.98800 26.08800
H  26.99500 2.78700 24.56600
H  29.47800 1.10200 24.80000
H  29.75300 2.77700 25.12200
H  28.94300 2.32000 23.55700
H  31.33600 0.95900 28.57300
H  31.17100 -0.71100 28.63500
H  31.76000 0.14400 30.17400
H  29.13800 2.14100 33.99900
H  30.34900 -0.20200 37.52900
H  28.98000 -1.20000 36.95300
H  28.77600 0.37100 37.84200

