158

Mg 47.57800 15.66300 29.14900
C  45.50300 15.28100 31.85300
C  49.58400 17.68400 31.15900
C  49.61700 16.49200 26.61100
C  45.08800 14.54200 27.04400
N  47.46500 16.45000 31.17300
C  46.63300 15.94700 32.16000
C  46.96400 16.58000 33.52100
C  48.15800 17.54600 33.25700
C  48.44500 17.21200 31.74300
C  47.91300 19.03500 33.49200
C  47.30300 15.53600 34.58300
C  47.27300 15.88400 36.02700
H  46.88200 17.27700 36.43700
N  49.50500 16.63400 28.94300
C  50.07400 17.44400 29.89000
C  51.42500 17.79000 29.44900
C  51.44000 17.42300 28.11600
C  50.10900 16.88600 27.79200
C  52.41900 18.53100 30.32100
C  52.54000 17.62100 27.10000
O  52.48200 17.28400 25.98000
C  53.85300 18.36100 27.58900
N  47.38400 15.68500 27.14800
C  48.37400 16.03000 26.26600
C  47.91400 15.80200 24.80800
C  46.53700 14.96200 24.95100
C  46.27100 15.09500 26.44800
C  47.76400 17.18900 24.13200
C  46.63900 13.45900 24.36800
C  46.82100 12.26600 25.34700
N  45.70500 15.07500 29.34500
C  44.76700 14.57500 28.41300
C  43.51600 14.08800 29.14600
C  43.86800 14.28200 30.48100
C  45.13700 14.91700 30.56900
C  42.22400 13.65800 28.58500
C  43.29500 14.19000 31.77500
O  42.18200 13.76600 32.07200
C  44.30200 14.94200 32.76400
C  43.53100 16.12500 33.27000
O  43.04200 16.99000 32.58600
O  43.31100 16.04400 34.61200
C  42.73400 17.17600 35.33800
H  50.20600 18.33100 31.78100
H  50.23800 16.70100 25.73700
H  44.33500 14.25500 26.30600
H  46.04000 17.04400 33.86600
H  49.06900 17.22800 33.76400
H  46.91100 19.13400 33.91000
H  47.97400 19.51700 32.51700
H  48.69900 19.41200 34.14600
H  48.29800 15.19600 34.29500
H  46.60600 14.72100 34.38800
H  48.24000 15.57600 36.42500
H  46.64600 15.20000 36.59800
H  53.22800 17.82200 30.49800
H  52.16200 18.90300 31.31300
H  52.80800 19.37000 29.74500
H  53.59900 19.40300 27.78600
H  54.58200 18.34300 26.77800
H  54.19900 17.87000 28.49800
H  48.76800 15.17400 24.55500
H  45.68100 15.35900 24.40500
H  46.77800 17.26700 23.67300
H  48.44600 17.13500 23.28300
H  48.02300 18.05000 24.74800
H  47.47900 13.39300 23.67600
H  45.68200 13.29500 23.87100
H  45.86800 11.76100 25.50500
H  47.27300 12.65600 26.25800
H  47.50200 11.53800 24.90500
H  42.34400 13.87100 27.52300
H  41.44800 14.29700 29.00700
H  42.04000 12.59300 28.72600
H  44.52100 14.25500 33.58100
H  43.13100 18.09500 34.90700
H  43.08000 17.17200 36.37200
H  41.65000 17.11400 35.24700
Mg -11.19800 16.90400 41.64400
C  -7.77100 16.09000 41.45200
C  -10.39900 20.15800 40.88300
C  -14.38900 17.53700 41.64200
C  -11.79900 13.42600 42.20100
N  -9.24900 18.03500 41.37800
C  -8.02700 17.47900 41.27000
C  -7.00400 18.56300 40.82800
C  -7.89100 19.87200 40.71200
C  -9.27300 19.35600 40.99300
C  -7.45400 21.16100 41.53600
C  -6.39300 18.21200 39.47900
C  -4.83700 18.08100 39.23300
H  -4.25600 18.55000 37.91500
N  -12.26100 18.61500 41.12800
C  -11.78500 19.82600 40.95300
C  -12.89300 20.85300 40.78500
C  -14.04000 20.05200 40.93000
C  -13.64400 18.66000 41.15400
C  -12.71400 22.36400 40.57200
C  -15.42800 20.50400 40.92700
O  -15.65600 21.74500 40.96700
C  -16.60100 19.63200 41.06900
N  -12.84300 15.66300 41.81900
C  -14.08300 16.17800 41.82200
C  -15.16900 15.14800 42.16300
C  -14.29200 13.82000 42.08800
C  -12.84300 14.27300 42.07800
C  -15.81800 15.47500 43.57800
C  -14.66300 13.01300 40.83800
C  -15.15400 11.55800 41.10100
N  -10.05700 15.13900 41.86100
C  -10.44300 13.81800 42.11400
C  -9.26200 13.00000 42.22900
C  -8.21400 13.86400 41.97600
C  -8.73000 15.09500 41.70900
C  -9.19000 11.60800 42.77600
C  -6.76600 13.93200 41.85400
O  -5.88400 13.05800 41.86000
C  -6.44200 15.38900 41.59200
C  -5.67100 15.90300 42.69900
O  -6.00500 15.90400 43.88000
O  -4.40300 16.30300 42.33600
C  -3.61100 16.98900 43.32200
H  -10.17600 21.22400 40.80100
H  -15.47900 17.52700 41.57700
H  -12.17600 12.43600 42.46500
H  -6.20900 18.78200 41.54200
H  -7.90900 20.12800 39.65300
H  -6.40700 20.93600 41.73700
H  -8.06200 21.45500 42.39200
H  -7.30400 22.03300 40.90000
H  -6.70700 18.77700 38.60100
H  -6.73000 17.18500 39.34200
H  -4.59800 17.04100 39.45300
H  -4.27100 18.64800 39.97300
H  -12.40400 22.71600 39.58800
H  -11.93600 22.74700 41.23300
H  -13.64300 22.86000 40.85200
H  -17.48000 20.26200 40.92800
H  -16.69500 19.16000 42.04600
H  -16.57500 18.86600 40.29400
H  -15.98300 15.19300 41.43900
H  -14.40400 13.22700 42.99600
H  -15.17000 16.19600 44.07700
H  -15.74400 14.57000 44.18000
H  -16.85200 15.77100 43.40200
H  -13.92600 12.92300 40.04000
H  -15.50500 13.55600 40.40800
H  -16.18900 11.38000 40.81000
H  -15.12500 11.22700 42.13900
H  -14.52100 10.90600 40.49900
H  -9.62700 11.64000 43.77300
H  -8.18300 11.23100 42.95700
H  -9.78000 10.96000 42.12700
H  -5.82000 15.50900 40.70500
H  -2.98200 16.16800 43.66500
H  -4.20300 17.36500 44.15600
H  -3.01700 17.83900 42.98800

