158

Mg 43.67800 5.36900 46.95800
C  41.81500 8.15200 45.90100
C  40.93800 3.34100 46.55000
C  45.73300 2.70800 47.28100
C  46.55800 7.46000 46.74900
N  41.61800 5.66300 46.14000
C  41.06900 6.96500 45.98400
C  39.58000 6.75500 45.65900
C  39.22900 5.32800 46.15300
C  40.65100 4.70900 46.27500
C  38.26400 5.21500 47.38800
C  39.15500 7.00600 44.21200
C  38.26900 8.15200 43.89200
H  38.72400 9.11100 42.66900
N  43.38300 3.22500 46.97700
C  42.12500 2.63000 46.82900
C  42.41900 1.23500 46.81300
C  43.77400 1.01400 47.07200
C  44.38900 2.32100 47.10600
C  41.40700 0.15300 46.64800
C  44.46900 -0.39300 47.09300
O  43.78400 -1.45100 47.00800
C  45.89000 -0.41600 47.22400
N  45.87300 5.11400 46.77100
C  46.43700 3.90400 47.10300
C  47.98100 3.92300 47.17700
C  48.24100 5.47400 47.19600
C  46.85700 6.16100 46.86500
C  48.65400 3.22400 48.38100
C  49.31200 6.00300 46.15600
C  50.07700 7.18900 46.77300
N  44.13200 7.32600 46.55700
C  45.30800 8.04700 46.56200
C  45.04200 9.42100 46.24100
C  43.65900 9.48700 46.04200
C  43.17200 8.20800 46.15900
C  45.96200 10.56500 46.30800
C  42.52200 10.32100 45.67300
O  42.55500 11.52600 45.48000
C  41.18200 9.51700 45.77900
C  40.40000 10.02100 46.89400
O  40.11400 9.39700 47.90300
O  39.80700 11.16700 46.61800
C  38.88100 11.61400 47.55100
H  40.04400 2.71400 46.51700
H  46.48000 1.92900 47.44400
H  47.46100 8.06900 46.66400
H  39.06700 7.45300 46.32100
H  38.89000 4.63300 45.38500
H  38.06500 6.19000 47.83400
H  38.85300 4.75800 48.18400
H  37.40600 4.57600 47.18000
H  38.60200 6.09900 43.96800
H  40.05200 7.13600 43.60800
H  38.14800 8.80600 44.75500
H  37.24600 7.83700 43.68300
H  41.51400 -0.53500 47.48600
H  41.54500 -0.34500 45.68800
H  40.43400 0.64500 46.64100
H  46.36800 0.13800 46.41600
H  46.25900 -1.43800 47.14400
H  46.08600 0.07400 48.17800
H  48.40600 3.46700 46.28300
H  48.37900 5.93100 48.17600
H  48.86100 2.18200 48.13800
H  47.92000 3.21500 49.18700
H  49.60800 3.65900 48.67700
H  48.75900 6.33500 45.27800
H  49.97200 5.16200 45.94300
H  50.20800 8.04500 46.11100
H  51.07400 6.85000 47.05200
H  49.71000 7.62100 47.70400
H  46.93800 10.22000 46.65000
H  45.66800 11.23700 47.11500
H  46.25300 11.00800 45.35600
H  40.68600 9.66300 44.81900
H  38.71200 12.67600 47.37500
H  39.11700 11.64700 48.61400
H  38.00600 10.96500 47.49800
Mg 46.61000 16.81400 27.62600
C  44.71000 16.54000 30.53600
C  48.94100 18.64600 29.57200
C  48.55600 17.40800 24.96500
C  44.13700 15.49700 25.76100
N  46.79000 17.64200 29.86500
C  45.86900 17.24300 30.88500
C  46.29200 17.70600 32.28000
C  47.55500 18.58100 31.95400
C  47.78100 18.36500 30.35100
C  47.55000 20.20700 32.15300
C  46.64300 16.47000 33.30600
C  46.42900 16.72700 34.78200
H  46.39000 18.19300 35.33800
N  48.60100 17.67900 27.38700
C  49.34700 18.36400 28.28800
C  50.60400 18.75900 27.62100
C  50.48600 18.32100 26.28100
C  49.21100 17.78200 26.14600
C  51.79700 19.25900 28.39600
C  51.49600 18.58800 25.18800
O  51.27900 18.58100 23.98100
C  52.95700 18.99700 25.58800
N  46.41100 16.53200 25.72600
C  47.30000 16.82600 24.70400
C  46.90800 16.26300 23.32000
C  45.66400 15.49400 23.69700
C  45.37700 15.86400 25.13200
C  46.58000 17.33500 22.33100
C  45.80100 13.98300 23.52100
C  45.18400 13.43100 22.20100
N  44.73500 16.14900 27.98300
C  43.88200 15.51800 27.12600
C  42.73900 15.02100 27.90800
C  43.00800 15.45700 29.24600
C  44.28100 16.10200 29.20000
C  41.50000 14.21200 27.36000
C  42.45100 15.54800 30.60400
O  41.37600 15.20300 31.00800
C  43.53400 16.32600 31.45900
C  42.89800 17.53900 32.02200
O  42.93300 18.65100 31.51700
O  42.36300 17.13900 33.24900
C  41.62600 18.16000 33.93700
H  49.68900 19.31600 30.00300
H  49.18000 17.71600 24.12300
H  43.43500 14.93500 25.14100
H  45.55800 18.35700 32.75400
H  48.40700 18.19400 32.51200
H  48.25900 20.36200 32.96600
H  46.66900 20.79700 32.40300
H  47.91700 20.73100 31.27000
H  47.69400 16.20600 33.18200
H  46.07200 15.57400 33.06600
H  47.24100 16.14000 35.21200
H  45.50800 16.18300 34.98800
H  52.69900 18.73300 28.08300
H  51.71900 19.18800 29.48100
H  51.92200 20.30600 28.12000
H  53.55200 18.28200 26.15800
H  52.89200 19.91200 26.17700
H  53.52500 19.12700 24.66700
H  47.66300 15.58300 22.92400
H  44.75100 15.83500 23.20900
H  45.50800 17.45400 22.17700
H  47.00900 17.03200 21.37600
H  46.95500 18.30900 22.64800
H  45.41100 13.43300 24.37800
H  46.80600 13.56000 23.49500
H  44.53200 14.24500 21.88600
H  44.48600 12.59900 22.29300
H  45.89400 13.27200 21.38900
H  41.79300 13.87300 26.36600
H  40.59300 14.81700 27.34000
H  41.33700 13.36300 28.02400
H  43.78900 15.64400 32.27000
H  42.29700 18.97700 34.20200
H  41.19400 17.78200 34.86400
H  40.89500 18.64700 33.29100

