158

Mg 43.59800 3.92600 47.54400
C  41.78000 6.98500 47.26500
C  40.57000 2.34200 47.25600
C  45.11600 1.08100 46.67600
C  46.51100 5.74000 47.05100
N  41.40700 4.62100 47.05300
C  40.91100 5.90800 47.09000
C  39.41800 5.92800 47.07100
C  39.05900 4.38800 47.24600
C  40.44700 3.73100 47.16100
C  38.28900 3.98600 48.48100
C  38.75200 6.62500 45.83100
C  38.79200 5.80200 44.55100
H  38.92500 6.71500 43.35700
N  42.95400 1.90200 47.26600
C  41.65900 1.50100 47.17700
C  41.59700 0.09500 46.97600
C  42.90500 -0.41400 46.80600
C  43.70900 0.85700 46.99100
C  40.32200 -0.71000 46.78600
C  43.32700 -1.86600 46.59300
O  42.44000 -2.74200 46.59900
C  44.82800 -2.27500 46.55200
N  45.46700 3.47200 46.76300
C  45.97100 2.18500 46.64200
C  47.54700 2.12600 46.39500
C  47.84400 3.64900 46.73200
C  46.54200 4.34400 46.84400
C  48.36400 1.05000 47.28300
C  48.78900 4.27500 45.71700
C  50.14900 4.83700 46.22300
N  44.12500 5.92900 47.45800
C  45.35900 6.48900 47.23700
C  45.26300 7.98500 47.36000
C  43.87400 8.20100 47.46300
C  43.19600 6.90900 47.42100
C  46.37100 8.95000 47.29100
C  42.78300 9.22100 47.52400
O  42.79500 10.42900 47.75600
C  41.37700 8.47300 47.30100
C  40.38900 8.72200 48.39500
O  40.41900 8.20600 49.48000
O  39.32200 9.48300 47.88100
C  38.34500 9.82200 48.92000
H  39.58900 1.86400 47.24600
H  45.56700 0.13900 46.35500
H  47.39900 6.34400 46.85400
H  39.02500 6.45400 47.94100
H  38.47300 4.08800 46.37700
H  38.92400 3.73200 49.32900
H  37.54000 3.22600 48.25900
H  37.79900 4.91200 48.78300
H  39.41200 7.47600 45.66300
H  37.75200 7.02200 46.00700
H  37.81200 5.32400 44.53800
H  39.65000 5.14800 44.70800
H  40.43300 -1.66900 47.29100
H  40.09000 -0.94800 45.74700
H  39.48600 -0.19600 47.26000
H  45.42300 -1.84600 47.35800
H  45.34700 -1.96200 45.64600
H  44.82500 -3.36500 46.53600
H  47.53500 1.80300 45.35400
H  48.22400 3.84900 47.73400
H  48.03300 1.11200 48.32000
H  49.41000 1.35700 47.27600
H  48.26900 0.03400 46.89900
H  48.27700 5.08700 45.20000
H  49.06600 3.50100 45.00200
H  50.83300 4.02500 45.97400
H  50.10200 5.20500 47.24800
H  50.51200 5.69900 45.66400
H  46.13800 9.73500 48.01000
H  46.35900 9.48500 46.34100
H  47.32800 8.45400 47.45300
H  41.00900 8.90400 46.37000
H  38.22600 9.00900 49.63600
H  37.33400 9.77100 48.51500
H  38.57200 10.73500 49.47100
Mg 48.28300 34.46500 26.64300
C  46.54600 32.96500 29.25700
C  48.23800 37.46500 28.65800
C  49.61700 36.17800 24.13400
C  47.79900 31.64500 24.64800
N  47.49000 35.11800 28.66000
C  47.03000 34.26000 29.63700
C  47.09800 34.86300 31.04300
C  47.16300 36.34700 30.71600
C  47.75700 36.32100 29.28300
C  45.90000 37.13900 30.85200
C  48.25400 34.36900 31.90800
C  48.05600 34.03000 33.39400
H  47.25100 34.93800 34.31600
N  48.88700 36.48800 26.44600
C  48.80600 37.52900 27.34500
C  49.36300 38.69500 26.69400
C  49.80000 38.31100 25.38100
C  49.49700 36.92200 25.31800
C  49.46500 40.08000 27.26200
C  50.59300 39.14500 24.24100
O  51.03300 38.68800 23.17600
C  50.78800 40.61700 24.51200
N  48.69900 33.94600 24.74100
C  49.24700 34.82700 23.89400
C  49.38800 34.26400 22.49100
C  48.90000 32.78300 22.72100
C  48.44200 32.75500 24.11800
C  48.62200 34.96600 21.29400
C  49.94000 31.67300 22.45900
C  51.27300 31.83200 23.13100
N  47.36300 32.62500 26.83000
C  47.28000 31.54000 25.96100
C  46.32800 30.61000 26.56800
C  46.02600 31.07300 27.87200
C  46.73900 32.32300 27.99200
C  45.78200 29.41400 25.95900
C  45.44100 30.70200 29.13800
O  44.75400 29.76400 29.43800
C  45.53500 32.06200 29.93900
C  45.69300 31.75500 31.35800
O  46.48500 30.93600 31.71900
O  44.80500 32.40800 32.12900
C  44.78900 31.94000 33.56400
H  48.21300 38.36100 29.28100
H  49.87900 36.71100 23.21800
H  47.51800 30.78300 24.04000
H  46.23500 34.63100 31.66700
H  47.91300 36.87700 31.30400
H  45.93900 38.06000 30.27100
H  45.91800 37.47400 31.88900
H  45.03700 36.48300 30.73800
H  49.08600 35.06500 31.80200
H  48.56300 33.43600 31.43700
H  49.07500 34.05400 33.78000
H  47.85400 32.96700 33.52200
H  48.97900 40.03700 28.23600
H  49.09300 40.85300 26.58900
H  50.47000 40.30100 27.62100
H  49.76800 40.92900 24.74000
H  50.91900 41.11300 23.55100
H  51.52900 40.96900 25.22900
H  50.42700 34.25600 22.16200
H  48.00800 32.71400 22.09700
H  48.12100 35.80100 21.78300
H  47.90900 34.33700 20.76200
H  49.29800 35.34400 20.52600
H  50.06400 31.66900 21.37700
H  49.55700 30.66400 22.61100
H  52.07300 32.06700 22.42900
H  51.66400 30.97400 23.67600
H  51.28500 32.57700 23.92700
H  45.77400 29.56900 24.88000
H  44.80200 29.08800 26.30800
H  46.48700 28.58600 26.03800
H  44.54700 32.51100 29.83500
H  44.40900 32.69800 34.24900
H  45.76100 31.70100 33.99600
H  44.26400 30.98900 33.65900

