158

Mg -1.72400 17.55900 25.39400
C  -2.02900 15.36000 28.01300
C  -2.08900 20.10400 27.59200
C  -2.40100 19.73600 22.76500
C  -2.05600 14.79700 23.21000
N  -1.99400 17.72100 27.53600
C  -2.05700 16.67500 28.39700
C  -2.08500 17.17100 29.86400
C  -2.30100 18.74900 29.75000
C  -2.13200 18.89700 28.23300
C  -3.64500 19.22700 30.28500
C  -0.94700 16.72000 30.78300
C  -0.38500 17.52100 31.99700
H  -0.14200 16.75100 33.36400
N  -1.88800 19.65400 25.20700
C  -2.00900 20.51400 26.27200
C  -1.90200 21.84700 25.77500
C  -1.96000 21.77600 24.32200
C  -2.11000 20.34900 24.05900
C  -2.01700 23.04800 26.73800
C  -1.92700 22.86600 23.21100
O  -2.04600 22.65900 22.02200
C  -1.57100 24.25500 23.71700
N  -2.25700 17.36500 23.24900
C  -2.46100 18.36700 22.40200
C  -2.75000 17.81500 21.06400
C  -2.40500 16.29700 21.05800
C  -2.22700 16.13200 22.57600
C  -4.23900 18.02100 20.59000
C  -1.09100 16.00600 20.24500
C  0.29300 16.14600 20.88500
N  -1.87200 15.44500 25.46800
C  -1.85300 14.45100 24.55500
C  -1.95200 13.15900 25.18300
C  -2.06000 13.42700 26.56200
C  -1.88900 14.84000 26.68300
C  -2.14400 11.87300 24.52900
C  -2.22300 12.83700 27.82200
O  -2.31600 11.65900 28.15700
C  -2.25700 14.09000 28.86800
C  -1.35600 13.74000 29.98900
O  -0.15100 13.73800 29.96300
O  -2.13300 13.29700 31.08000
C  -1.38100 12.74300 32.20500
H  -2.21800 20.94900 28.27200
H  -2.62600 20.37100 21.90500
H  -2.11900 13.91400 22.57100
H  -2.99700 16.76100 30.29700
H  -1.45500 19.27500 30.19100
H  -4.33500 18.45600 30.62800
H  -4.24900 19.72500 29.52600
H  -3.49700 20.02500 31.01300
H  -0.16600 16.42000 30.08400
H  -1.26600 15.80000 31.27200
H  -0.96700 18.40800 32.24700
H  0.62000 17.78300 31.66500
H  -3.00600 23.48100 26.59200
H  -1.31700 23.85800 26.53300
H  -1.83800 22.83600 27.79300
H  -0.58600 24.01400 24.11800
H  -2.29500 24.56300 24.47100
H  -1.57300 24.84500 22.80000
H  -2.13600 18.39800 20.37800
H  -3.24000 15.68400 20.71700
H  -4.38800 19.03200 20.21000
H  -4.95700 17.84400 21.39000
H  -4.46000 17.25900 19.84200
H  -1.03000 16.75600 19.45600
H  -1.16200 15.06500 19.70000
H  0.91500 16.68600 20.17200
H  0.63000 15.11000 20.93500
H  0.40000 16.72000 21.80500
H  -2.07000 11.92400 23.44300
H  -3.10700 11.44200 24.80000
H  -1.46100 11.12900 24.93800
H  -3.29300 14.14400 29.20000
H  -1.33200 13.58500 32.89500
H  -0.35100 12.47100 31.97400
H  -1.83800 11.90200 32.72700
Mg 6.77500 53.70900 40.71700
C  6.94800 50.11900 40.56100
C  10.12100 53.71100 39.78800
C  6.44000 56.89300 40.13700
C  3.34600 53.27800 41.57100
N  8.26300 52.07400 40.23700
C  8.11200 50.72600 40.23400
C  9.49000 50.06700 39.69900
C  10.51600 51.18400 39.85300
C  9.58300 52.42800 39.95400
C  11.44500 51.16700 41.10900
C  9.44800 49.45500 38.28500
C  9.10000 50.47200 37.17600
H  7.64000 50.75100 36.72900
N  8.08600 55.11400 39.96900
C  9.46700 54.92200 39.79700
C  10.02800 56.23300 39.70400
C  8.96700 57.14500 39.58300
C  7.75100 56.39900 39.85900
C  11.58900 56.46900 39.54100
C  9.15500 58.62500 39.40300
O  10.25000 59.20600 39.31800
C  7.98100 59.63600 39.10800
N  4.95400 54.81600 40.55500
C  5.24100 56.21800 40.59000
C  3.89300 56.98000 40.83200
C  2.96500 55.90800 41.41800
C  3.76600 54.53700 41.19600
C  4.10500 58.31100 41.72900
C  1.61600 55.84500 40.69400
C  0.44300 56.80800 41.18900
N  5.37900 52.11000 41.00800
C  4.05300 52.07500 41.44900
C  3.68000 50.71300 41.82600
C  4.74300 49.93200 41.39500
C  5.75800 50.79400 40.90600
C  2.43000 50.32500 42.53300
C  5.18500 48.66700 41.32900
O  4.59700 47.62500 41.58700
C  6.48500 48.69700 40.56800
C  6.06900 48.28100 39.21900
O  5.32000 48.92200 38.46600
O  6.50500 47.00000 39.03800
C  5.82800 46.30500 37.91200
H  11.16500 53.72400 39.46700
H  6.31600 57.97800 40.15500
H  2.33800 53.17000 41.97700
H  9.75300 49.28900 40.41500
H  11.04000 51.46100 38.93800
H  11.81300 50.14300 41.04200
H  10.87100 51.31300 42.02400
H  12.34000 51.78700 41.05400
H  8.56500 48.81700 38.27800
H  10.25000 48.83000 37.89100
H  9.63800 50.33800 36.23800
H  9.48800 51.43200 37.51700
H  11.80000 56.39600 38.47500
H  12.08400 55.68600 40.11600
H  11.94700 57.43700 39.89300
H  7.14700 59.23200 38.53400
H  8.38900 60.49500 38.57400
H  7.74700 59.97200 40.11800
H  3.62400 57.21400 39.80200
H  2.71000 56.00700 42.47300
H  5.13800 58.33300 42.07900
H  3.52200 58.21700 42.64500
H  3.83200 59.19900 41.16000
H  1.29100 54.80700 40.63000
H  1.82100 56.15200 39.66900
H  -0.49600 56.40400 41.56800
H  0.19400 57.36800 40.28800
H  0.65900 57.47100 42.02700
H  2.62800 49.53500 43.25800
H  1.67800 49.95500 41.83500
H  2.08100 51.14100 43.16500
H  7.22100 48.04000 41.03100
H  6.55800 45.75000 37.32100
H  5.16100 46.88500 37.27500
H  5.02600 45.70000 38.33600

