158

Mg 48.21100 44.18400 43.20500
C  44.77800 44.22000 42.72200
C  48.07000 40.70700 42.52700
C  51.46200 44.19400 43.46200
C  48.22800 47.66000 42.98300
N  46.54900 42.56300 42.47800
C  45.23400 42.86300 42.57800
C  44.40600 41.61700 42.52300
C  45.49600 40.46000 42.61000
C  46.80500 41.24700 42.45200
C  45.44300 39.61600 43.87500
C  43.55300 41.55100 41.23400
C  44.12200 42.23500 40.00800
H  43.77600 41.54600 38.71300
N  49.61200 42.62600 42.97300
C  49.32900 41.27100 42.81800
C  50.59500 40.59500 42.75700
C  51.62900 41.55300 43.07200
C  50.94600 42.89000 43.17600
C  50.81200 39.12000 42.50500
C  53.15200 41.27300 43.34000
O  53.64300 40.18300 43.37100
C  54.06500 42.40900 43.72500
N  49.61300 45.71100 43.07500
C  50.85700 45.44200 43.41500
C  51.77400 46.68000 43.52800
C  50.78000 47.83900 43.16600
C  49.46900 47.07700 43.07100
C  52.55500 46.95600 44.78200
C  51.09400 48.61500 41.85000
C  51.87000 49.97100 42.07400
N  46.84500 45.69300 42.89600
C  46.97800 47.05600 42.93400
C  45.68700 47.71300 42.87300
C  44.74700 46.62500 42.87400
C  45.52400 45.40700 42.85800
C  45.46700 49.21600 42.92400
C  43.29800 46.24900 42.92600
O  42.34500 46.96200 43.00100
C  43.27800 44.65400 42.75500
C  42.24400 44.18400 43.69100
O  41.25900 43.60500 43.28800
O  42.53100 44.47800 44.97700
C  41.63400 44.06600 46.02600
H  47.95400 39.62500 42.43000
H  52.51200 44.35400 43.71200
H  48.30800 48.74700 42.90700
H  43.68400 41.75000 43.33000
H  45.51700 39.77800 41.76000
H  46.01700 38.70400 43.70800
H  44.41600 39.28900 44.03700
H  45.85600 40.11100 44.75400
H  42.61800 42.04600 41.49500
H  43.40200 40.48600 41.05600
H  45.20400 42.30000 40.12100
H  43.75500 43.26100 39.97200
H  51.39600 38.85400 41.62300
H  49.93300 38.49600 42.34300
H  51.05700 38.65100 43.45800
H  54.33800 43.20000 43.02600
H  55.05300 42.00900 43.95800
H  53.66700 42.86200 44.63300
H  52.51600 46.59300 42.73500
H  50.71900 48.60900 43.93400
H  52.22100 46.28600 45.57400
H  52.42300 47.95400 45.20100
H  53.60000 46.70700 44.59700
H  50.16100 48.85600 41.34100
H  51.79600 48.04200 41.24400
H  51.23100 50.83800 41.90500
H  52.63900 49.92400 41.30300
H  52.30600 50.11100 43.06300
H  44.63200 49.46400 42.26900
H  46.37900 49.70900 42.58800
H  45.26000 49.53200 43.94700
H  42.81300 44.37300 41.81000
H  42.10200 43.27500 46.61100
H  40.68200 43.65800 45.68700
H  41.38600 44.87900 46.70800
Mg 36.28500 49.56600 24.83700
C  36.51800 47.85900 27.86400
C  35.22700 52.32000 26.46200
C  36.00100 51.05400 21.85000
C  37.43900 46.61700 23.19800
N  35.84200 49.98900 26.91200
C  36.14400 49.18100 27.99300
C  35.81600 49.93200 29.31100
C  35.47800 51.35900 28.87300
C  35.46000 51.23500 27.29800
C  34.16200 51.93600 29.45000
C  36.89600 49.92600 30.48500
C  36.42100 49.42600 31.83600
H  34.93400 49.38400 32.34600
N  35.68000 51.44900 24.21100
C  35.22600 52.47300 25.02900
C  34.90200 53.61500 24.20400
C  35.08400 53.22800 22.87200
C  35.57200 51.85600 22.92000
C  34.57500 55.04500 24.74700
C  34.79500 54.07700 21.59500
O  34.79000 53.65800 20.42600
C  34.61600 55.61000 21.69700
N  36.36600 48.83600 22.73400
C  36.33500 49.72300 21.76600
C  36.75000 49.12700 20.41700
C  37.32100 47.72100 20.78700
C  36.99200 47.70200 22.33900
C  35.55200 48.95500 19.43500
C  38.83900 47.48700 20.48900
C  39.92000 48.33500 21.25200
N  36.78300 47.59300 25.39800
C  37.26000 46.51800 24.62300
C  37.54400 45.39600 25.53800
C  37.22300 45.88000 26.81600
C  36.87500 47.21700 26.69400
C  38.09900 44.05500 25.24200
C  37.10200 45.56100 28.20500
O  37.31100 44.53400 28.82600
C  36.68900 46.81900 28.96600
C  35.36700 46.44300 29.69900
O  34.31000 46.47800 29.17400
O  35.69800 45.88700 30.91900
C  34.60100 45.41700 31.81000
H  34.80200 53.19000 26.96600
H  35.94000 51.56900 20.88900
H  37.82200 45.71800 22.71000
H  34.90400 49.46500 29.68200
H  36.36000 51.97100 29.06600
H  34.46500 52.39400 30.39100
H  33.47100 51.14000 29.72700
H  33.59200 52.61500 28.81600
H  37.29800 50.90100 30.76100
H  37.71100 49.25500 30.21400
H  36.99800 50.01800 32.54600
H  36.74600 48.39500 31.97100
H  33.67200 55.49200 24.32900
H  35.43200 55.71200 24.65500
H  34.19000 54.95900 25.76300
H  33.70300 55.69900 22.28600
H  34.39700 56.18500 20.79700
H  35.50800 55.98800 22.19600
H  37.47200 49.75100 19.89000
H  36.61400 46.99800 20.38100
H  34.79500 49.72300 19.59000
H  35.00400 48.02800 19.60300
H  35.90200 49.08200 18.41100
H  38.98700 47.50700 19.41000
H  38.96400 46.41700 20.65100
H  39.46900 48.72600 22.16400
H  40.23300 49.07700 20.51800
H  40.62400 47.58200 21.60700
H  38.23000 43.45900 26.14500
H  39.07500 44.19100 24.77600
H  37.63000 43.42600 24.48600
H  37.48100 47.17500 29.62400
H  34.62500 44.32800 31.75600
H  33.62200 45.72500 31.44400
H  34.75300 45.82100 32.81100

