158

Mg 47.11100 24.53400 28.73800
C  47.82200 26.73800 31.29900
C  45.84300 22.33300 31.28600
C  46.66000 22.22400 26.46500
C  48.30200 26.84100 26.42500
N  46.64100 24.64400 30.98400
C  47.08900 25.64700 31.79600
C  46.80200 25.37500 33.25500
C  46.32200 23.94800 33.27300
C  46.26600 23.57200 31.76300
C  47.14500 22.92000 34.16900
C  45.85300 26.49800 33.76400
C  45.93600 26.97300 35.20900
H  46.58800 26.14000 36.41000
N  46.34300 22.54100 28.83800
C  45.93600 21.81900 29.95600
C  45.59200 20.46200 29.55100
C  45.80300 20.38700 28.14200
C  46.25900 21.73700 27.76800
C  44.89100 19.40300 30.49200
C  45.51100 19.24300 27.19700
O  45.83700 19.22800 26.01100
C  44.72300 18.08300 27.58200
N  47.31100 24.60600 26.70800
C  47.08300 23.46200 25.97100
C  47.35400 23.75800 24.51000
C  47.63900 25.29900 24.46000
C  47.75300 25.66500 25.92800
C  48.52800 22.94000 23.80500
C  46.45000 26.04600 23.83700
C  45.05700 25.82200 24.38700
N  47.93800 26.32800 28.75500
C  48.42700 27.11000 27.75200
C  49.13800 28.25200 28.34100
C  48.91200 28.10400 29.67900
C  48.17400 26.93400 29.90800
C  49.90800 29.25700 27.63900
C  49.12500 28.79500 30.93300
O  49.65500 29.87200 31.23200
C  48.42900 27.92900 32.02400
C  49.32600 27.51400 33.13700
O  50.01900 26.49200 33.04100
O  49.32100 28.40600 34.17900
C  50.03500 28.08700 35.45200
H  45.60300 21.69200 32.13600
H  46.66100 21.49600 25.65100
H  48.64200 27.60400 25.72100
H  47.69300 25.54300 33.86100
H  45.29800 23.85500 33.63700
H  46.46100 22.55800 34.93700
H  48.06200 23.25500 34.65300
H  47.34500 21.99800 33.62400
H  44.83100 26.21100 33.51600
H  45.98800 27.36700 33.12000
H  44.89800 27.06300 35.52900
H  46.20100 28.02900 35.15400
H  43.99300 18.94100 30.08300
H  44.56900 19.77000 31.46700
H  45.59800 18.57300 30.50200
H  43.74900 18.41600 27.94200
H  45.30800 17.49900 28.29200
H  44.47500 17.42300 26.75000
H  46.45400 23.41000 24.00300
H  48.53500 25.71600 24.00000
H  49.18900 23.68000 23.35400
H  48.05800 22.20100 23.15700
H  49.04400 22.42200 24.61400
H  46.56000 25.73900 22.79700
H  46.58700 27.12600 23.88600
H  44.54100 26.76700 24.55500
H  45.14400 25.19000 25.27000
H  44.45900 25.26700 23.66500
H  49.42500 30.22400 27.49800
H  50.39500 28.93000 26.72000
H  50.72900 29.59800 28.27000
H  47.58800 28.52900 32.37000
H  49.28300 27.92900 36.22500
H  50.55200 28.99900 35.75000
H  50.72100 27.28300 35.18700
Mg 47.99600 34.02400 26.95300
C  46.11400 32.99500 29.62900
C  48.59200 36.99300 28.55900
C  49.56400 35.37500 24.06800
C  47.18900 31.26500 25.13300
N  47.52400 34.78300 28.94700
C  46.75000 34.16800 29.90400
C  46.83800 34.97700 31.19000
C  47.39000 36.36500 30.72600
C  47.82400 36.05700 29.32400
C  46.54700 37.60100 30.92100
C  47.74300 34.28200 32.20800
C  47.63500 34.58200 33.72600
H  47.13200 35.91100 34.15200
N  49.20000 35.81500 26.41900
C  49.20000 36.92500 27.25800
C  50.00700 37.95100 26.62000
C  50.19000 37.62300 25.23500
C  49.67600 36.20100 25.16700
C  50.41300 39.19100 27.33400
C  50.75100 38.37700 24.02900
O  50.93400 37.84900 22.97400
C  51.04300 39.81400 24.08200
N  48.46300 33.40600 25.01300
C  49.08900 34.07900 23.95000
C  49.19000 33.21300 22.68000
C  48.79300 31.84500 23.22300
C  48.11200 32.18700 24.55900
C  48.44600 33.80500 21.49000
C  49.82400 30.71500 23.46200
C  51.13400 30.84100 22.70400
N  46.79200 32.51100 27.19600
C  46.62800 31.42200 26.42600
C  45.73300 30.50500 27.11700
C  45.41600 31.18700 28.32800
C  46.12300 32.37500 28.38300
C  45.21400 29.16300 26.52700
C  44.66500 31.00200 29.52700
O  44.04700 30.03000 29.95300
C  45.01900 32.27100 30.40200
C  45.16300 31.65300 31.76800
O  46.12100 30.95800 32.18400
O  44.20000 32.04700 32.57000
C  44.12000 31.58800 33.96100
H  48.82000 37.94400 29.04500
H  49.95100 35.68700 23.09500
H  46.95900 30.38300 24.53200
H  45.86100 35.02400 31.67100
H  48.30700 36.55500 31.28500
H  47.12500 38.26300 31.56600
H  45.60800 37.29400 31.38100
H  46.29100 38.12000 29.99700
H  48.69800 34.55800 31.76200
H  47.57800 33.20900 32.11000
H  48.57800 34.43100 34.25200
H  47.01600 33.75600 34.07700
H  51.46000 39.36500 27.08700
H  50.34200 39.08500 28.41600
H  49.62500 39.86300 26.99500
H  50.32600 40.41300 24.64400
H  51.27900 40.21900 23.09900
H  51.99800 39.82500 24.60700
H  50.23800 33.22300 22.37900
H  48.04600 31.32100 22.62700
H  48.21200 34.84800 21.70300
H  47.59500 33.13300 21.37500
H  49.05300 33.71700 20.58900
H  49.45800 29.69000 23.41000
H  50.12100 30.80800 24.50700
H  50.97500 31.37000 21.76400
H  51.42700 29.80000 22.56900
H  51.92000 31.30100 23.30200
H  45.52100 29.14200 25.48100
H  44.13600 29.03200 26.43600
H  45.49200 28.25200 27.05800
H  44.16500 32.94900 30.38200
H  43.91500 30.51900 33.90700
H  43.32300 32.15800 34.43800
H  45.05900 31.65100 34.51100

