158

Mg -2.16900 17.15000 26.27900
C  -2.43200 15.05800 28.90300
C  -2.36800 19.87700 28.37900
C  -2.17300 19.07400 23.61900
C  -2.58700 14.37200 24.11300
N  -2.18500 17.46400 28.49600
C  -2.40000 16.42400 29.34500
C  -2.66700 16.91700 30.81300
C  -3.01600 18.48700 30.49000
C  -2.51900 18.64600 29.04600
C  -4.49600 18.93900 30.46200
C  -1.41600 16.76600 31.73000
C  -1.64500 17.14500 33.21800
H  -1.67400 16.04100 34.30800
N  -2.12900 19.14400 26.03400
C  -2.08500 20.17500 27.01600
C  -1.90600 21.44700 26.40400
C  -1.85900 21.20500 25.03800
C  -2.05600 19.75600 24.86300
C  -1.89100 22.73400 27.17900
C  -1.69200 22.23400 23.92300
O  -1.69200 21.93900 22.72300
C  -1.48200 23.74400 24.26600
N  -2.55100 16.80000 24.17600
C  -2.44400 17.78900 23.28100
C  -2.58300 17.36000 21.82800
C  -2.61500 15.80400 21.99100
C  -2.64800 15.62700 23.50700
C  -3.92300 17.96800 21.18000
C  -1.43900 14.93200 21.43300
C  -0.00600 15.09900 21.94100
N  -2.50700 15.23500 26.40700
C  -2.52000 14.16500 25.48300
C  -2.54300 12.91600 26.16500
C  -2.61500 13.25400 27.48400
C  -2.44900 14.63200 27.61200
C  -2.41800 11.60700 25.59800
C  -2.81300 12.69200 28.75100
O  -3.06500 11.53700 29.04400
C  -2.69300 13.85200 29.70700
C  -1.58200 13.45600 30.59400
O  -0.39400 13.63000 30.44100
O  -2.15900 12.86800 31.73400
C  -1.31100 12.35400 32.77000
H  -2.52400 20.73800 29.03200
H  -1.98800 19.72700 22.76300
H  -2.51800 13.49400 23.46600
H  -3.51900 16.34700 31.18400
H  -2.47600 19.07200 31.23400
H  -5.32700 18.23700 30.51700
H  -4.71000 19.45000 29.52300
H  -4.57800 19.72900 31.20900
H  -0.59800 17.42700 31.44400
H  -1.14500 15.71200 31.65900
H  -2.56600 17.72100 33.30900
H  -0.80100 17.73800 33.56800
H  -1.83900 22.61400 28.26100
H  -2.66400 23.44700 26.89400
H  -0.92600 23.13800 26.87500
H  -1.40400 24.36200 23.37100
H  -0.58800 23.87200 24.87500
H  -2.38600 24.06000 24.78800
H  -1.74000 17.74000 21.25100
H  -3.46900 15.29600 21.54100
H  -4.47600 18.65600 21.82000
H  -4.64800 17.17600 20.99000
H  -3.57900 18.51200 20.30000
H  -1.32700 15.33600 20.42700
H  -1.77300 13.92300 21.18800
H  0.45100 15.79700 21.24000
H  0.62700 14.21400 21.88000
H  0.01800 15.63900 22.88700
H  -3.33400 11.14400 25.23200
H  -1.94900 10.92300 26.30500
H  -1.74400 11.73500 24.75100
H  -3.63100 13.82200 30.26100
H  -0.83600 13.18900 33.28400
H  -0.51300 11.68200 32.45200
H  -1.79100 11.66900 33.46700
Mg 53.65700 23.73000 44.51300
C  50.91900 25.72300 43.80900
C  51.99900 21.06400 43.04800
C  56.60800 22.04600 44.40700
C  55.42600 26.56800 45.41600
N  51.74800 23.55100 43.34100
C  50.76000 24.42700 43.38900
C  49.60900 23.91500 42.49200
C  49.75500 22.33700 42.61700
C  51.28800 22.28300 43.02000
C  48.66200 21.54200 43.52700
C  49.74000 24.36900 41.03000
C  48.45200 24.36800 40.14500
H  48.03000 22.95300 39.63100
N  54.18300 21.81600 43.82800
C  53.27100 20.82900 43.41800
C  53.89800 19.56700 43.42600
C  55.25900 19.81400 43.83200
C  55.44200 21.28400 44.02000
C  53.23200 18.26500 43.14600
C  56.32600 18.71300 43.87500
O  56.09900 17.55900 43.55800
C  57.69900 18.94900 44.28300
N  55.83900 24.29600 44.53300
C  56.77100 23.39000 44.67300
C  58.15400 23.99100 44.83400
C  57.82200 25.53000 45.15200
C  56.23300 25.49700 45.05000
C  58.98000 23.22300 45.91800
C  58.48700 26.58000 44.19800
C  59.65900 27.31300 44.81400
N  53.23100 25.70700 44.75500
C  54.04300 26.73900 45.17400
C  53.28700 27.93600 45.40900
C  52.02800 27.60900 44.87400
C  52.05900 26.23900 44.47000
C  53.79800 29.07900 46.14000
C  50.69800 28.12600 44.58800
O  50.18900 29.21700 44.81500
C  50.01100 26.88000 43.73900
C  49.55700 27.42100 42.47200
O  50.27800 27.88500 41.60700
O  48.23100 27.36400 42.44100
C  47.51000 28.06300 41.35700
H  51.51000 20.14400 42.72300
H  57.52600 21.48700 44.59800
H  55.97700 27.41900 45.82200
H  48.64400 24.27000 42.85400
H  49.70500 21.88000 41.62800
H  48.63600 21.88300 44.56200
H  49.01900 20.51300 43.56900
H  47.65600 21.35500 43.15300
H  50.40200 23.69700 40.48300
H  50.11800 25.37700 40.86100
H  48.75700 25.04400 39.34700
H  47.61100 24.77400 40.70700
H  53.70300 17.50900 43.77400
H  53.41500 17.97300 42.11200
H  52.17500 18.32800 43.40700
H  58.17200 19.37900 43.40100
H  58.11700 17.98000 44.55500
H  57.71800 19.53700 45.20100
H  58.53000 23.90300 43.81500
H  57.94900 25.81000 46.19800
H  59.48600 23.84800 46.65300
H  59.66900 22.54200 45.41600
H  58.25800 22.66300 46.51200
H  57.75900 27.38000 44.06600
H  58.91000 26.22300 43.25900
H  59.30800 28.31800 45.05000
H  60.57300 27.24100 44.22500
H  59.94900 26.88300 45.77300
H  54.86700 29.29600 46.13900
H  53.58400 29.03400 47.20800
H  53.26300 29.93500 45.72800
H  49.05600 26.72900 44.24100
H  47.95400 27.70500 40.42800
H  47.79500 29.11400 41.39300
H  46.42600 27.94900 41.33700

