158

Mg 23.93900 -6.71600 47.05100
C  26.51600 -4.59300 45.93600
C  21.86300 -5.29400 44.63700
C  21.73300 -9.33600 47.31000
C  26.35500 -8.48500 48.75300
N  24.18300 -4.98700 45.55400
C  25.34500 -4.30700 45.28800
C  25.11400 -3.39000 44.07900
C  23.55100 -3.60300 43.70100
C  23.13700 -4.70100 44.69200
C  22.72800 -2.28700 43.73200
C  26.11400 -3.67800 42.87200
C  27.11000 -2.48700 42.54300
H  27.05900 -1.78500 41.23300
N  22.06100 -7.17600 46.20200
C  21.35900 -6.39600 45.33600
C  20.02000 -6.98200 45.03400
C  19.97500 -8.18400 45.79700
C  21.24600 -8.26400 46.54600
C  19.01200 -6.30800 44.08200
C  18.71900 -9.08700 45.91900
O  17.62700 -8.87800 45.40700
C  18.80300 -10.37600 46.77400
N  24.00000 -8.65600 47.76400
C  22.98500 -9.50700 47.93300
C  23.31100 -10.73300 48.87500
C  24.83500 -10.41700 49.32500
C  25.08000 -9.05300 48.62600
C  22.30100 -10.81200 50.07100
C  25.75200 -11.62300 49.03100
C  26.68700 -12.14300 50.19300
N  25.96600 -6.57200 47.44800
C  26.83300 -7.33700 48.20000
C  28.12200 -6.71800 48.23700
C  28.03300 -5.67100 47.33900
C  26.74200 -5.61500 46.88900
C  29.37600 -7.07700 49.05100
C  28.76200 -4.52900 46.77800
O  29.89000 -4.09500 46.98500
C  27.82800 -3.74000 45.77400
C  27.60400 -2.38200 46.41000
O  26.82400 -2.10700 47.33100
O  28.28500 -1.38600 45.78400
C  27.88600 0.05100 46.12000
H  21.17000 -4.75100 43.99100
H  21.07200 -10.14800 47.62100
H  27.03800 -8.94700 49.46900
H  25.21900 -2.33200 44.32400
H  23.37100 -3.99500 42.70000
H  23.40100 -1.49100 43.41500
H  22.43400 -2.20300 44.77900
H  21.92300 -2.42300 43.00900
H  25.70400 -3.97100 41.90600
H  26.72500 -4.54500 43.12600
H  28.12900 -2.86100 42.63800
H  27.02500 -1.81500 43.39700
H  19.15100 -5.22800 44.02100
H  17.96800 -6.46600 44.35200
H  19.16900 -6.90500 43.18300
H  18.95400 -10.08200 47.81300
H  19.66700 -10.88300 46.34400
H  17.91700 -11.01100 46.75100
H  23.25500 -11.65000 48.28800
H  24.83900 -10.06000 50.35500
H  21.52800 -10.04400 50.07400
H  22.80700 -10.75000 51.03500
H  21.76700 -11.76100 50.01000
H  26.47900 -11.34700 48.26800
H  25.16500 -12.46700 48.66800
H  27.63000 -11.59700 50.21000
H  26.74200 -13.23000 50.24900
H  26.13600 -11.77100 51.05800
H  30.02400 -6.20300 49.11100
H  29.69700 -7.95100 48.48500
H  29.15900 -7.48900 50.03600
H  28.19200 -3.70200 44.74700
H  27.99900 0.59200 45.18000
H  28.54000 0.49200 46.87200
H  26.85700 0.29900 46.38100
Mg 42.92300 3.86100 47.97800
C  41.02200 6.58800 47.04500
C  40.25000 1.84900 47.45800
C  45.02000 1.02500 48.08400
C  45.80800 5.83500 47.84400
N  40.89300 4.24500 47.15000
C  40.27300 5.44800 46.96900
C  38.76800 5.25200 46.64500
C  38.49300 3.71700 47.06400
C  39.95600 3.20600 47.21100
C  37.56900 3.52500 48.37500
C  38.51000 5.51900 45.12000
C  37.27000 6.48300 44.75600
H  37.44300 7.35600 43.44800
N  42.59200 1.69800 47.89600
C  41.44500 1.09300 47.71500
C  41.64400 -0.38100 47.62000
C  43.03700 -0.62400 47.81600
C  43.64400 0.75700 47.91900
C  40.51400 -1.36800 47.45900
C  43.76900 -1.96500 47.87400
O  43.16600 -3.01800 47.93100
C  45.28200 -2.10800 47.85000
N  45.08400 3.49300 48.10300
C  45.65800 2.27000 48.17700
C  47.13600 2.37100 48.37800
C  47.48600 3.87200 48.14200
C  46.02500 4.45700 48.02700
C  47.61400 1.69300 49.69900
C  48.48900 4.10600 46.95300
C  49.91100 4.37300 47.37900
N  43.38100 5.85400 47.67000
C  44.60100 6.42800 47.64100
C  44.30500 7.85900 47.34300
C  42.93100 7.98700 47.19700
C  42.41200 6.69000 47.27600
C  45.40700 8.88000 47.10600
C  41.90800 8.98100 46.89200
O  41.93100 10.15500 46.65800
C  40.60500 8.10600 46.84100
C  39.76800 8.63800 47.93500
O  39.86200 8.35600 49.11900
O  38.79000 9.42200 47.40500
C  37.87600 10.08800 48.28800
H  39.39800 1.17300 47.36300
H  45.71800 0.19700 48.22300
H  46.61600 6.56900 47.83600
H  38.13200 5.95200 47.18700
H  38.19000 3.01900 46.28300
H  37.43700 4.49700 48.85000
H  38.19800 2.84300 48.94700
H  36.57400 3.09200 48.27300
H  38.34800 4.57600 44.59800
H  39.44400 5.85300 44.67000
H  37.07300 7.19900 45.55400
H  36.31500 5.95900 44.72400
H  40.57600 -1.92800 46.52600
H  39.56700 -0.84400 47.59000
H  40.57100 -2.15800 48.20900
H  45.78500 -1.53700 47.07000
H  45.44300 -3.10200 47.43200
H  45.75400 -1.93000 48.81600
H  47.81000 2.00700 47.60200
H  48.05400 4.29600 48.96900
H  47.52900 0.61800 49.54200
H  46.96800 1.99000 50.52500
H  48.64400 1.93900 49.95700
H  48.08800 4.99200 46.46100
H  48.52400 3.24000 46.29200
H  50.55700 4.04000 46.56500
H  50.17700 3.90400 48.32600
H  49.98100 5.45800 47.45700
H  46.38200 8.42800 46.92300
H  45.41400 9.48900 48.01000
H  45.14800 9.60500 46.33400
H  40.00200 8.37100 45.97300
H  36.88800 9.63900 48.18600
H  37.74100 11.08400 47.86400
H  38.16100 10.12900 49.33900

