158

Mg 0.83000 8.48100 26.07600
C  1.52200 10.27600 29.10300
C  1.49800 5.56200 27.89200
C  0.59400 6.75000 23.30000
C  1.23700 11.45500 24.36100
N  1.56400 8.04100 28.25200
C  1.44900 8.90200 29.29700
C  1.30000 8.21500 30.61100
C  1.59400 6.72800 30.24200
C  1.58800 6.75800 28.68500
C  2.96400 6.29600 30.80500
C  -0.06700 8.54500 31.28300
C  -0.02800 8.67600 32.81200
H  1.14600 8.02400 33.57600
N  0.94800 6.49100 25.66900
C  1.18800 5.43400 26.54500
C  1.18400 4.21000 25.79900
C  0.69400 4.55000 24.49500
C  0.74800 5.99400 24.42300
C  1.63000 2.89700 26.39500
C  0.23000 3.68700 23.31400
O  -0.00800 4.06000 22.20600
C  0.12600 2.29500 23.50400
N  0.71700 9.02800 24.18600
C  0.64400 8.13900 23.18800
C  0.69400 8.80400 21.75900
C  0.45600 10.31600 22.18400
C  0.91500 10.32100 23.64400
C  2.05900 8.46700 21.07300
C  -1.01300 10.70700 22.06600
C  -1.41000 11.68100 20.92700
N  1.29200 10.45900 26.57300
C  1.32400 11.59200 25.73100
C  1.63800 12.75300 26.55200
C  1.67400 12.28300 27.91700
C  1.45800 10.92000 27.80500
C  1.88500 14.13100 26.08900
C  1.85000 12.73400 29.25900
O  2.07000 13.80900 29.78300
C  1.66000 11.48800 30.12300
C  2.73700 11.26800 31.13300
O  3.85800 10.78800 30.92200
O  2.38300 11.80200 32.41600
C  3.35100 11.75100 33.51900
H  1.62400 4.69700 28.54700
H  0.59200 6.28800 22.31100
H  1.39800 12.32600 23.72200
H  2.10500 8.58900 31.24300
H  0.79000 6.16000 30.70900
H  2.67100 5.38900 31.33400
H  3.31500 6.95400 31.59900
H  3.67600 5.98100 30.04200
H  -0.68300 7.69500 30.99200
H  -0.55800 9.44100 30.90300
H  -0.93100 8.16400 33.14400
H  -0.12100 9.70700 33.15500
H  1.12000 2.02300 25.99000
H  1.48300 2.79300 27.47000
H  2.69600 2.83600 26.17700
H  -0.19600 1.82600 22.57400
H  -0.58700 2.02800 24.28300
H  1.14600 2.00400 23.75600
H  -0.05500 8.38900 21.08600
H  1.01500 10.89600 21.45000
H  2.36600 7.46100 21.36000
H  2.86000 9.15100 21.35400
H  1.87300 8.32700 20.00800
H  -1.33400 11.27100 22.94200
H  -1.69100 9.85600 22.13700
H  -0.53600 11.63100 20.27700
H  -1.63100 12.68300 21.29400
H  -2.29800 11.35700 20.38500
H  2.14300 14.76000 26.94100
H  0.91000 14.50800 25.78400
H  2.49300 14.06200 25.18700
H  0.78600 11.48200 30.77500
H  3.49600 12.70400 34.02700
H  4.33400 11.37100 33.24300
H  2.88500 11.07200 34.23300
Mg 44.95600 4.45400 48.53800
C  42.88500 7.11700 47.63700
C  42.52000 2.25800 47.69700
C  47.38400 2.00900 48.53000
C  47.68000 6.85600 48.48000
N  42.96600 4.69700 47.73900
C  42.27700 5.84900 47.54400
C  40.81200 5.60100 47.02500
C  40.66100 4.03600 47.32400
C  42.13000 3.64800 47.67400
C  39.67300 3.73400 48.41600
C  40.67000 5.89600 45.50700
C  39.63500 6.94200 45.05400
H  40.01500 8.08600 44.04100
N  44.90000 2.31300 48.22500
C  43.79300 1.61700 47.78600
C  44.14800 0.27300 47.60100
C  45.56900 0.16400 47.95300
C  46.02200 1.55700 48.22300
C  43.20000 -0.85600 47.27800
C  46.30900 -1.15000 48.02700
O  45.69200 -2.14900 47.79100
C  47.80200 -1.44600 48.39000
N  47.18500 4.43400 48.47700
C  47.82500 3.30000 48.64200
C  49.35600 3.58600 48.85100
C  49.45800 5.14800 48.89300
C  48.03800 5.50400 48.51900
C  49.96500 2.94300 50.10300
C  50.60800 5.82600 48.03700
C  51.38500 6.87800 48.82000
N  45.30900 6.53900 48.22000
C  46.42800 7.38600 48.20300
C  46.04200 8.74400 48.01200
C  44.65400 8.68300 47.71000
C  44.24900 7.29400 47.91500
C  47.00900 9.86700 48.28600
C  43.53100 9.44600 47.39600
O  43.36000 10.65100 47.18400
C  42.31200 8.43100 47.22700
C  41.25800 8.87600 48.14800
O  41.11900 8.54500 49.29600
O  40.31800 9.60900 47.42800
C  39.06800 9.76100 48.16500
H  41.72500 1.51800 47.58500
H  48.17400 1.25700 48.58900
H  48.47700 7.59700 48.56500
H  40.10400 6.16800 47.63100
H  40.28700 3.47900 46.46500
H  40.12200 2.90800 48.96700
H  38.65200 3.47400 48.13600
H  39.67400 4.62000 49.05100
H  40.46700 4.99800 44.92400
H  41.62800 6.24500 45.12200
H  39.30100 7.50000 45.92900
H  38.81800 6.31900 44.69000
H  42.88500 -1.49900 48.10100
H  43.55300 -1.44600 46.43200
H  42.24400 -0.54000 46.86100
H  47.92900 -2.52300 48.50000
H  48.12500 -0.98600 49.32400
H  48.51800 -1.12500 47.63400
H  49.88100 3.21400 47.97100
H  49.50000 5.58000 49.89300
H  50.82600 2.30000 49.92300
H  49.16900 2.44100 50.65300
H  50.26400 3.76700 50.75100
H  50.16900 6.41500 47.23100
H  51.19800 5.13600 47.43400
H  52.36700 6.44700 49.01100
H  50.87900 7.35400 49.66000
H  51.61500 7.71400 48.15900
H  46.59500 10.87500 48.25300
H  47.71900 9.68600 47.47900
H  47.47800 9.78500 49.26600
H  42.00600 8.50900 46.18400
H  39.17400 10.59300 48.86100
H  38.68500 8.94600 48.77900
H  38.26800 9.92800 47.44300

