158

Mg -1.97400 17.04500 26.18700
C  -2.06000 14.69600 28.87800
C  -2.77300 19.42300 28.51400
C  -1.80500 19.12100 23.67900
C  -2.10900 14.36800 23.90300
N  -2.43400 16.98700 28.39000
C  -2.33700 15.99500 29.31400
C  -2.64900 16.46400 30.77500
C  -3.30900 17.84900 30.52500
C  -2.86700 18.14800 29.04200
C  -4.89300 17.64200 30.59100
C  -1.27400 16.53200 31.59400
C  -1.29400 15.79900 32.92600
H  -1.68100 16.67500 33.98700
N  -2.16100 18.98100 26.14600
C  -2.44900 19.81900 27.22700
C  -2.33500 21.20800 26.76400
C  -1.95700 21.17200 25.33100
C  -1.92200 19.74000 24.97900
C  -2.51500 22.32600 27.68000
C  -1.75800 22.29400 24.29200
O  -1.55300 22.09300 23.09300
C  -1.58600 23.67300 24.79500
N  -2.23200 16.71300 24.01700
C  -2.00500 17.82300 23.24200
C  -2.11300 17.40100 21.73400
C  -2.33000 15.84900 21.82200
C  -2.20300 15.59100 23.33600
C  -3.12000 18.12700 20.85400
C  -1.15700 15.15800 21.06400
C  0.28800 15.11900 21.68500
N  -2.05900 14.98600 26.26700
C  -1.93300 14.02700 25.26400
C  -1.80300 12.70000 25.84000
C  -1.83100 12.90400 27.24300
C  -2.04200 14.31000 27.48800
C  -1.79000 11.39200 25.14900
C  -1.76800 12.25600 28.49500
O  -1.57400 11.10400 28.81600
C  -2.00000 13.38200 29.58800
C  -0.93800 13.15100 30.67400
O  0.24100 13.43200 30.53700
O  -1.47100 12.57100 31.74100
C  -0.70000 12.37200 32.96900
H  -2.94800 20.16900 29.29200
H  -1.72600 19.81000 22.83500
H  -2.09500 13.59400 23.13300
H  -3.29700 15.75600 31.29200
H  -2.96200 18.64200 31.18800
H  -5.26500 18.47300 31.19100
H  -5.18400 16.81000 31.23100
H  -5.35900 17.55700 29.61000
H  -1.02800 17.54800 31.90400
H  -0.39700 16.25600 31.00800
H  -0.33200 15.38000 33.21800
H  -2.02100 14.98700 32.89100
H  -2.98500 22.20600 28.65500
H  -3.08400 23.00900 27.04900
H  -1.55800 22.82600 27.82900
H  -0.79500 23.60100 25.54200
H  -2.50700 23.98300 25.29000
H  -1.27500 24.31000 23.96700
H  -1.13600 17.66400 21.32900
H  -3.29100 15.46100 21.48300
H  -2.45900 18.57000 20.10900
H  -3.77900 18.83500 21.35800
H  -3.66700 17.42600 20.22400
H  -0.93200 15.71300 20.15400
H  -1.47800 14.21600 20.62000
H  0.36000 15.52600 22.69400
H  1.02500 15.65100 21.08300
H  0.67800 14.10100 21.70400
H  -1.31000 11.41800 24.17100
H  -2.80400 11.06500 24.92000
H  -1.32200 10.62200 25.76300
H  -2.93800 13.40600 30.14300
H  -0.48200 11.30700 33.03700
H  -1.16300 12.80600 33.85500
H  0.30700 12.79000 32.94000
Mg 43.65900 2.90900 47.59400
C  41.51200 5.57700 47.25800
C  40.97900 0.72100 47.71000
C  45.88300 0.31000 47.56400
C  46.36800 5.06600 46.79200
N  41.46800 3.11100 47.22800
C  40.84000 4.34700 47.14200
C  39.37100 4.13000 47.03600
C  39.19400 2.57100 47.45000
C  40.62800 2.05900 47.48000
C  38.46900 2.46400 48.84100
C  38.95200 4.43800 45.55900
C  37.94200 5.65000 45.24300
H  38.24300 6.53100 43.95800
N  43.41600 0.72400 47.66200
C  42.28300 0.04200 47.80700
C  42.54100 -1.25500 47.97900
C  43.93900 -1.42300 47.79300
C  44.49400 -0.08600 47.66800
C  41.43700 -2.24600 48.20000
C  44.64400 -2.79300 47.78800
O  43.92500 -3.80000 47.71100
C  46.17200 -2.86800 47.91800
N  45.74400 2.69200 47.05100
C  46.47600 1.52900 47.10300
C  47.99400 1.82300 47.08800
C  48.10100 3.30900 46.61500
C  46.62500 3.68500 46.74000
C  48.76300 1.57400 48.43600
C  48.64000 3.45500 45.17300
C  50.10300 3.77700 45.14000
N  43.94600 4.92100 47.28000
C  45.09700 5.63700 47.04300
C  44.70700 7.11500 46.92200
C  43.29200 7.12400 47.18200
C  42.92000 5.75500 47.26800
C  45.55900 8.22400 46.64000
C  42.11600 7.93600 47.32900
O  41.97800 9.19300 47.17400
C  40.95200 6.97100 47.45800
C  40.41400 7.05800 48.85000
O  40.99000 6.62600 49.86700
O  39.19700 7.68600 48.85300
C  38.62000 8.11000 50.14800
H  40.04800 0.19900 47.94100
H  46.70400 -0.41000 47.56100
H  47.24100 5.72100 46.74900
H  38.82900 4.71800 47.77600
H  38.73600 1.86000 46.76200
H  38.21700 3.43200 49.27300
H  38.98800 1.87400 49.59700
H  37.53700 1.91500 48.70700
H  38.42700 3.57800 45.14200
H  39.85600 4.40100 44.95200
H  38.04100 6.39700 46.03100
H  36.88200 5.39300 45.25200
H  40.43500 -1.82300 48.13500
H  41.52900 -2.65700 49.20500
H  41.51300 -3.15800 47.60800
H  46.37500 -2.61100 48.95700
H  46.65800 -2.27000 47.14700
H  46.56600 -3.88400 47.93000
H  48.49800 1.11900 46.42600
H  48.67100 3.89500 47.33600
H  49.20000 0.57900 48.35900
H  48.07600 1.73900 49.26700
H  49.54500 2.32800 48.52400
H  48.15100 4.28600 44.66300
H  48.60800 2.50700 44.63700
H  50.67400 2.86000 44.99500
H  50.43000 4.28400 46.04800
H  50.38000 4.50800 44.38100
H  46.18800 8.02300 45.77300
H  46.29900 8.35400 47.43000
H  45.01300 9.16300 46.55500
H  40.20600 7.06900 46.67000
H  39.08500 7.67600 51.03400
H  37.56700 7.83200 50.10300
H  38.69700 9.19700 50.14300

