158

Mg 46.52600 16.83500 28.32900
C  44.51000 16.87600 31.11600
C  49.03700 18.33000 30.25000
C  48.42600 17.45500 25.44000
C  43.89700 15.74500 26.41200
N  46.69300 17.62100 30.33800
C  45.82400 17.38700 31.38100
C  46.29200 17.63700 32.76300
C  47.65200 18.35300 32.42600
C  47.82700 18.10700 30.87000
C  47.73800 19.91200 32.76400
C  46.26500 16.31100 33.64600
C  45.39700 16.30700 34.88800
H  45.12800 17.67300 35.50500
N  48.50400 17.65000 27.84900
C  49.32800 18.18300 28.81600
C  50.62500 18.55000 28.13500
C  50.50100 18.30700 26.78100
C  49.09600 17.78300 26.59400
C  51.76800 19.34200 28.87600
C  51.48300 18.55200 25.59200
O  51.19100 18.29800 24.43800
C  52.84500 19.11100 25.88800
N  46.20200 16.63400 26.22900
C  47.09300 16.94700 25.22700
C  46.52400 16.73100 23.84300
C  45.16700 16.13200 24.18400
C  45.12300 16.03000 25.72300
C  46.41600 18.02200 22.97800
C  44.96200 14.80600 23.40500
C  45.52300 13.52100 23.88900
N  44.68800 16.30100 28.66000
C  43.81000 15.79200 27.82900
C  42.62900 15.33600 28.56100
C  42.79600 15.86200 29.86800
C  44.07300 16.38700 29.86500
C  41.49100 14.59300 28.06500
C  42.14600 16.02400 31.10600
O  40.99900 15.63200 31.44000
C  43.22800 16.69200 31.99400
C  42.60100 17.90400 32.65000
O  42.52400 19.07400 32.23600
O  41.98200 17.48300 33.84900
C  41.06900 18.44400 34.50000
H  49.84000 18.79800 30.82400
H  48.79300 17.79800 24.47000
H  43.08800 15.31300 25.81900
H  45.54000 18.26500 33.24100
H  48.55300 17.93600 32.87600
H  46.82300 20.19600 33.28400
H  47.63400 20.50600 31.85600
H  48.63700 20.16200 33.32800
H  47.25600 16.21700 34.09000
H  45.94900 15.43700 33.07800
H  45.90400 15.74300 35.67100
H  44.46600 15.75000 34.77700
H  52.75600 18.91800 28.69800
H  51.54000 19.26900 29.93900
H  51.67100 20.40200 28.64100
H  53.28400 18.51000 26.68500
H  52.71000 20.15300 26.17700
H  53.43300 19.17900 24.97300
H  47.16300 15.99300 23.35800
H  44.35600 16.78200 23.85700
H  45.45100 18.52600 23.03600
H  46.53000 17.74400 21.93100
H  47.18200 18.77200 23.17800
H  45.44100 14.97800 22.44200
H  43.89800 14.71300 23.18900
H  46.25400 13.08700 23.20700
H  44.67000 12.84900 23.98100
H  46.08600 13.56700 24.82200
H  41.29300 13.82700 28.81500
H  41.60900 14.15900 27.07200
H  40.65300 15.28600 27.99000
H  43.50700 15.95900 32.75100
H  40.14300 18.54400 33.93500
H  41.54700 19.42400 34.48900
H  40.87000 18.14500 35.52900
Mg -11.68700 15.66300 41.35600
C  -8.88000 13.91200 41.09000
C  -10.19600 18.46300 39.98100
C  -14.69500 17.30400 41.29400
C  -13.45700 12.73700 42.48200
N  -9.77200 16.02900 40.56400
C  -8.73000 15.20600 40.57000
C  -7.50400 15.95200 40.07800
C  -7.97100 17.46100 39.84100
C  -9.43700 17.35100 40.19900
C  -7.15100 18.56600 40.58700
C  -7.02000 15.13700 38.84500
C  -5.47800 15.10500 38.64500
H  -5.04100 16.06700 37.56200
N  -12.30900 17.64200 40.76400
C  -11.57900 18.63500 40.18700
C  -12.38100 19.79500 39.84500
C  -13.68300 19.47000 40.26800
C  -13.65300 18.09500 40.82100
C  -11.91400 20.97900 39.02800
C  -14.91100 20.45200 40.11800
O  -14.74100 21.54200 39.58400
C  -16.36500 19.98900 40.46900
N  -13.84900 15.08700 41.73800
C  -14.87300 15.95400 41.71100
C  -16.20400 15.25700 42.08900
C  -15.67700 14.02300 42.91800
C  -14.23000 13.90000 42.30800
C  -17.23700 16.07700 42.82100
C  -16.49500 12.68900 42.83200
C  -17.14800 12.13700 44.10200
N  -11.29600 13.69600 41.56800
C  -12.08700 12.62200 42.09200
C  -11.20000 11.46300 42.11900
C  -9.89500 11.97400 41.84200
C  -10.07500 13.31200 41.41900
C  -11.56600 10.09800 42.55000
C  -8.57900 11.62400 41.83100
O  -7.97800 10.52600 42.05400
C  -7.81300 12.87600 41.28200
C  -6.68500 13.24100 42.13700
O  -6.74900 13.34400 43.32500
O  -5.45300 13.22100 41.35900
C  -4.32800 13.42100 42.35600
H  -9.72500 19.39300 39.65600
H  -15.70100 17.72900 41.27100
H  -13.90900 11.85800 42.94800
H  -6.66900 15.83900 40.77000
H  -7.82400 17.73900 38.79700
H  -7.15000 19.47300 39.98200
H  -6.14900 18.15900 40.72200
H  -7.59600 18.71400 41.57100
H  -7.39900 15.59300 37.93100
H  -7.38400 14.11400 38.74700
H  -5.16600 14.12500 38.28500
H  -4.83200 15.36100 39.48500
H  -12.12900 21.91200 39.54900
H  -12.56400 21.01200 38.15400
H  -10.86000 21.05000 38.75900
H  -17.10200 20.77700 40.31900
H  -16.48800 19.71700 41.51800
H  -16.41200 19.17000 39.75100
H  -16.71500 14.88500 41.20200
H  -15.40000 14.27600 43.94200
H  -18.15000 16.17100 42.23300
H  -16.86200 17.09300 42.94800
H  -17.56100 15.54400 43.71400
H  -15.90400 11.89000 42.38300
H  -17.27400 12.87400 42.09200
H  -16.50200 11.42600 44.61800
H  -18.00900 11.56700 43.75300
H  -17.45600 12.96700 44.73900
H  -10.74600 9.39300 42.68200
H  -12.28900 9.62800 41.88400
H  -12.11400 10.15000 43.49200
H  -7.38500 12.70900 40.29300
H  -3.37400 13.43000 41.82800
H  -4.10300 12.67200 43.11600
H  -4.45000 14.35900 42.89800

