158

Mg 17.20500 -0.69900 27.79900
C  16.13300 1.07300 30.79500
C  19.55500 -2.15900 29.81600
C  18.57200 -1.52300 25.11900
C  14.84800 1.36500 26.05500
N  17.82000 -0.53900 30.05900
C  17.16400 0.10700 31.12600
C  17.71800 -0.25900 32.51300
C  18.98300 -1.17300 32.12000
C  18.71700 -1.36000 30.62500
C  20.33300 -0.56100 32.48800
C  16.59700 -0.85800 33.42000
C  16.53300 -0.36700 34.84400
H  17.85500 0.12300 35.47400
N  18.67100 -1.82300 27.54700
C  19.49400 -2.35700 28.41900
C  20.53000 -3.10900 27.68600
C  20.22500 -3.03400 26.33300
C  19.13600 -2.10400 26.26100
C  21.62900 -3.89100 28.31300
C  20.83700 -3.74600 25.18400
O  20.35100 -3.66600 24.04000
C  22.06200 -4.63400 25.33400
N  16.87900 -0.04300 25.83600
C  17.65700 -0.57600 24.86700
C  17.20700 -0.04700 23.42100
C  15.91000 0.80700 23.74200
C  15.86900 0.67800 25.29400
C  18.34100 0.75400 22.64100
C  14.59400 0.45400 23.00800
C  14.63600 0.70500 21.45300
N  15.65800 0.62400 28.27700
C  14.83100 1.40300 27.45400
C  14.08400 2.40000 28.15000
C  14.63600 2.26100 29.41100
C  15.56500 1.21000 29.49600
C  13.11700 3.46800 27.67200
C  14.56200 2.86300 30.73400
O  14.02200 3.92000 30.97000
C  15.42500 2.02700 31.74200
C  16.41800 2.96700 32.47100
O  17.56000 3.19000 32.13700
O  15.82700 3.45100 33.57300
C  16.45700 4.40000 34.43300
H  20.37200 -2.64300 30.35500
H  18.84600 -1.91200 24.13600
H  14.15300 2.02000 25.52500
H  18.08000 0.63500 33.02100
H  18.87900 -2.10100 32.68300
H  20.26200 0.41400 32.97000
H  21.00000 -0.44300 31.63300
H  20.87600 -1.20700 33.17700
H  16.70600 -1.94200 33.45800
H  15.55500 -0.69700 33.14500
H  16.20300 -1.18400 35.48500
H  15.73300 0.36600 34.94400
H  21.29900 -4.90900 28.51800
H  21.99600 -3.56600 29.28700
H  22.58100 -3.91500 27.78300
H  22.88700 -3.97600 25.60700
H  22.32400 -4.91700 24.31500
H  22.02500 -5.51100 25.98000
H  16.93300 -1.01300 22.99900
H  16.13300 1.85400 23.53600
H  18.68000 0.09100 21.84500
H  19.14400 1.08500 23.30000
H  17.84600 1.60700 22.17800
H  13.74500 1.00700 23.40800
H  14.47600 -0.62100 23.14400
H  14.29300 1.67700 21.09700
H  14.05100 -0.08600 20.98400
H  15.63900 0.59000 21.04400
H  13.19400 4.12800 28.53600
H  12.14400 2.97700 27.65600
H  13.38000 3.96000 26.73600
H  14.69000 1.64900 32.45300
H  16.37700 4.12700 35.48600
H  16.00200 5.37100 34.23600
H  17.53100 4.41200 34.24900
Mg 47.85000 16.06700 28.50400
C  45.89400 16.34200 31.40900
C  50.39200 17.77900 30.22900
C  49.48300 16.36000 25.54100
C  45.03600 15.08100 26.81200
N  48.06100 16.90600 30.62300
C  47.18500 16.81800 31.65600
C  47.89300 17.35500 32.86900
C  49.08200 18.20100 32.25100
C  49.22200 17.55000 30.91800
C  48.85300 19.75500 32.24600
C  48.47200 16.17100 33.84800
C  48.60600 16.48000 35.31500
H  48.55000 17.96500 35.82300
N  49.70400 16.84800 27.95600
C  50.62400 17.45900 28.80500
C  51.86600 17.61400 28.08400
C  51.61600 17.17900 26.69700
C  50.22100 16.75100 26.67700
C  53.18600 17.94200 28.83500
C  52.64200 17.07800 25.64500
O  52.34600 16.79700 24.50200
C  54.08100 17.48600 25.90000
N  47.36200 15.59400 26.53100
C  48.14300 15.94500 25.46500
C  47.42400 15.84200 24.14000
C  46.14200 15.17300 24.53600
C  46.10800 15.27400 26.02400
C  47.21700 17.09800 23.26400
C  46.09400 13.64200 24.12300
C  45.06400 13.29600 23.01800
N  45.88500 15.74600 28.97400
C  44.86700 15.33300 28.14600
C  43.74800 15.01500 28.96300
C  44.07300 15.37600 30.22100
C  45.36600 15.89800 30.15900
C  42.47400 14.26600 28.56000
C  43.54600 15.41900 31.54200
O  42.46600 15.03300 31.95400
C  44.78500 16.04500 32.39300
C  44.41800 17.28900 33.09100
O  44.43300 18.41300 32.59700
O  43.82700 16.90600 34.28000
C  43.27000 18.03700 35.00000
H  51.24300 18.29500 30.67900
H  49.97900 16.52300 24.58200
H  44.18300 14.66200 26.27400
H  47.19400 18.01500 33.38300
H  49.98000 18.05100 32.85100
H  47.97600 20.01700 32.83700
H  48.78800 20.05500 31.20000
H  49.70000 20.22700 32.74400
H  49.42800 15.82500 33.45500
H  47.85300 15.28500 33.70800
H  49.51900 16.13900 35.80300
H  47.80400 15.99400 35.87100
H  53.85600 17.08300 28.83000
H  53.03100 18.21700 29.87900
H  53.66000 18.76500 28.30000
H  54.12800 18.55000 26.13100
H  54.63700 17.40600 24.96600
H  54.53500 16.89600 26.69600
H  48.04200 15.15500 23.56300
H  45.35000 15.73700 24.04300
H  47.89700 17.02400 22.41500
H  47.43000 18.01100 23.82000
H  46.21300 17.28700 22.88300
H  45.99900 12.97700 24.98100
H  47.06500 13.35600 23.71900
H  45.66300 13.10400 22.12900
H  44.38500 14.12400 22.81500
H  44.46600 12.46100 23.38200
H  42.38300 14.33000 27.47600
H  41.52300 14.58300 28.98800
H  42.60900 13.21800 28.82700
H  45.03700 15.25700 33.10200
H  44.01800 18.81100 35.17000
H  42.77000 17.87500 35.95500
H  42.47200 18.44100 34.37700

