158

Mg 9.07400 47.61100 27.79800
C  7.03400 47.36900 30.56000
C  11.80400 48.28400 29.71100
C  10.76600 48.39400 24.96200
C  6.09500 47.55600 25.83200
N  9.40300 47.85700 29.89000
C  8.43200 47.49100 30.83800
C  9.03600 47.55800 32.31500
C  10.51200 48.09900 32.00700
C  10.57400 48.01300 30.42600
C  10.72300 49.55400 32.58900
C  9.18000 46.21800 33.06500
C  8.81500 46.31900 34.55400
H  9.54100 45.27600 35.44500
N  11.08600 48.18000 27.38500
C  12.08200 48.29000 28.29700
C  13.35800 48.51600 27.65700
C  13.11500 48.57200 26.17400
C  11.60400 48.43500 26.11900
C  14.65800 48.44900 28.48100
C  13.99800 48.63200 24.97000
O  13.61900 48.71900 23.80600
C  15.46200 48.59100 25.16500
N  8.53700 47.91700 25.73400
C  9.43300 48.19900 24.77100
C  8.82700 48.13000 23.31600
C  7.28900 47.91500 23.64100
C  7.29000 47.74400 25.12200
C  9.17800 49.31700 22.36500
C  6.56600 46.80900 22.82200
C  6.26700 47.18400 21.29200
N  7.02200 47.45100 28.09600
C  5.97600 47.43600 27.18600
C  4.63700 47.37700 27.89000
C  5.04500 47.26000 29.25200
C  6.44400 47.35400 29.25200
C  3.27900 47.24600 27.38800
C  4.58600 47.14600 30.60200
O  3.42000 46.95900 30.98500
C  5.88000 47.10000 31.52100
C  5.85100 45.74000 32.13300
O  6.45500 44.77500 31.73400
O  5.14600 45.83000 33.35600
C  5.43100 44.72800 34.31800
H  12.67200 48.48500 30.34200
H  11.36200 48.65600 24.08500
H  5.27500 47.49400 25.11300
H  8.38800 48.19200 32.92100
H  11.29400 47.50600 32.48200
H  9.96300 49.95500 33.25900
H  10.92400 50.20300 31.73600
H  11.69200 49.54700 33.08800
H  10.18800 45.86000 32.85400
H  8.44100 45.54400 32.63400
H  7.73900 46.22300 34.70400
H  9.12700 47.31500 34.86700
H  15.38000 47.75300 28.05400
H  14.49200 48.30600 29.54800
H  15.16500 49.41400 28.46600
H  15.75700 47.56600 25.38900
H  15.69400 49.05800 26.12200
H  16.11500 49.04900 24.42100
H  9.04600 47.18500 22.81800
H  6.88600 48.91900 23.51400
H  9.54700 50.15500 22.95700
H  8.22000 49.49700 21.87600
H  9.89300 48.94100 21.63300
H  5.60300 46.50600 23.23300
H  7.15700 45.90700 22.98300
H  6.41300 48.26400 21.30500
H  5.24900 46.86400 21.07000
H  6.97900 46.75200 20.58900
H  2.52700 47.05200 28.15300
H  3.23200 46.51000 26.58500
H  3.12800 48.23300 26.95100
H  5.76200 47.89800 32.25400
H  6.45400 44.35000 34.31900
H  4.70700 43.91400 34.29600
H  5.26200 45.20100 35.28600
Mg -10.38500 40.18500 42.18400
C  -9.47900 37.04100 40.90800
C  -7.49300 41.49700 40.81100
C  -11.63500 43.34200 42.67000
C  -13.67100 38.84100 42.68300
N  -8.79500 39.33000 40.92400
C  -8.55900 38.10900 40.60000
C  -7.23800 37.91000 39.85200
C  -6.48200 39.24000 40.01200
C  -7.62100 40.07700 40.68800
C  -5.13600 39.19100 40.78200
C  -7.33300 37.49500 38.34400
C  -6.55700 36.22300 37.93000
H  -5.51000 36.37400 36.87400
N  -9.62100 42.12200 42.01500
C  -8.37000 42.44100 41.40600
C  -8.09700 43.85500 41.51700
C  -9.29100 44.45200 42.13900
C  -10.22700 43.31200 42.35500
C  -6.90200 44.54900 40.96700
C  -9.53100 45.81800 42.55300
O  -8.66200 46.67100 42.31000
C  -10.73900 46.28500 43.40900
N  -12.34500 40.96800 42.57100
C  -12.58200 42.30200 42.80500
C  -14.06800 42.57100 43.15500
C  -14.74100 41.12100 43.14000
C  -13.52000 40.26700 42.70900
C  -14.07900 43.36400 44.53900
C  -15.96100 41.04900 42.15400
C  -17.26600 40.54800 42.81400
N  -11.42300 38.28100 42.05700
C  -12.71400 37.89300 42.29800
C  -12.79100 36.48700 42.08800
C  -11.51900 36.03200 41.68700
C  -10.74700 37.22100 41.54500
C  -14.02500 35.67300 42.34700
C  -10.66300 34.88700 41.27800
O  -10.88300 33.67900 41.39500
C  -9.36900 35.58400 40.56900
C  -8.10700 34.87600 41.04500
O  -7.64600 34.93500 42.14500
O  -7.63900 34.07200 40.05100
C  -6.41000 33.35200 40.51600
H  -6.50500 41.72900 40.40900
H  -12.08100 44.32400 42.83900
H  -14.67900 38.46000 42.85900
H  -6.67200 37.23400 40.49300
H  -6.40200 39.73900 39.04600
H  -4.71500 38.18800 40.85900
H  -5.33900 39.66200 41.74400
H  -4.49200 39.88400 40.24100
H  -7.04700 38.30300 37.67100
H  -8.37200 37.33700 38.05300
H  -7.30600 35.46400 37.70500
H  -5.98100 35.77400 38.73900
H  -6.25600 43.90600 40.37000
H  -6.29900 44.83400 41.83000
H  -7.25500 45.44700 40.46100
H  -11.57800 46.37100 42.71900
H  -10.43500 47.23300 43.85200
H  -10.96400 45.54300 44.17500
H  -14.41100 43.11100 42.27200
H  -14.97100 40.80200 44.15600
H  -14.56000 44.34000 44.47900
H  -13.08500 43.45100 44.97700
H  -14.71300 42.83000 45.24800
H  -15.74700 40.33800 41.35500
H  -16.10200 41.91600 41.50800
H  -17.36000 40.93600 43.82800
H  -17.20000 39.46100 42.86200
H  -18.04200 40.91900 42.14400
H  -14.47000 36.01500 43.28100
H  -13.79200 34.61200 42.44100
H  -14.72900 35.85900 41.53500
H  -9.39500 35.60000 39.48000
H  -6.73400 32.69100 41.32000
H  -5.60300 33.98300 40.88700
H  -6.01800 32.60000 39.83100

