158

Mg 2.15700 -2.49600 44.60300
C  5.14600 -0.95900 43.74500
C  0.44600 -0.11100 42.86800
C  -0.57900 -4.43500 45.02700
C  4.05100 -5.32200 45.71600
N  2.72100 -0.94800 43.17600
C  4.01600 -0.42400 43.09400
C  4.05900 0.80000 42.23700
C  2.50200 1.07500 41.98000
C  1.83600 -0.09100 42.68000
C  2.09400 2.40100 42.44700
C  4.81700 0.81900 40.85600
C  6.01200 1.84500 40.67400
H  6.76600 1.34400 39.50500
N  0.22000 -2.24600 44.11500
C  -0.34800 -1.18300 43.38300
C  -1.78600 -1.35400 43.23000
C  -2.08900 -2.63100 43.84000
C  -0.81700 -3.16700 44.40100
C  -2.60600 -0.45100 42.27600
C  -3.48200 -3.40100 43.79700
O  -4.48700 -2.84700 43.35000
C  -3.62700 -4.75100 44.32900
N  1.73700 -4.55800 45.47100
C  0.50400 -5.09600 45.42800
C  0.50100 -6.50000 46.03800
C  1.99400 -6.81400 46.02600
C  2.65200 -5.50700 45.81000
C  -0.27200 -6.78300 47.35000
C  2.52900 -7.91500 45.00600
C  3.49800 -8.94400 45.64300
N  4.22100 -3.03200 44.89300
C  4.79300 -4.18500 45.33500
C  6.26100 -4.05200 45.19800
C  6.48300 -2.74100 44.62500
C  5.20600 -2.19400 44.46200
C  7.21900 -5.21200 45.53800
C  7.45700 -1.81400 44.20500
O  8.66900 -1.87500 44.26300
C  6.61500 -0.56600 43.71700
C  7.10200 0.37700 44.77300
O  7.02800 0.15000 45.97400
O  7.25300 1.60600 44.18700
C  7.59400 2.62300 45.23400
H  -0.06900 0.76800 42.47600
H  -1.44500 -5.07400 45.21300
H  4.59400 -6.24100 45.95000
H  4.43100 1.56600 42.91700
H  2.30600 0.91800 40.91900
H  2.89800 3.13700 42.44800
H  1.72600 2.38600 43.47300
H  1.23100 2.81000 41.92300
H  4.10300 1.13800 40.09700
H  5.16100 -0.17900 40.58400
H  6.65400 1.82800 41.55500
H  5.66100 2.85300 40.45400
H  -2.80400 -1.04900 41.38600
H  -2.13600 0.51100 42.07200
H  -3.61100 -0.28200 42.66200
H  -4.63100 -5.09200 44.07700
H  -3.57300 -4.70600 45.41600
H  -2.92200 -5.47200 43.91400
H  0.06500 -7.10900 45.24500
H  2.22100 -7.05500 47.06400
H  0.41300 -7.02700 48.16200
H  -1.02800 -7.56600 47.29200
H  -0.70600 -5.82500 47.63500
H  3.02400 -7.41100 44.17600
H  1.70700 -8.41900 44.49900
H  3.39200 -9.99600 45.37500
H  3.51200 -8.96800 46.73300
H  4.48200 -8.63900 45.28800
H  8.21600 -5.02700 45.13800
H  6.92200 -6.14100 45.05200
H  7.15600 -5.22100 46.62600
H  6.99300 -0.23600 42.74900
H  6.96200 3.50400 45.35100
H  8.53300 3.08400 44.93000
H  7.85500 2.21100 46.20900
Mg 0.99100 43.30900 26.24900
C  3.19100 43.30400 29.09600
C  -1.53300 42.38100 28.44400
C  -0.92100 42.69000 23.64100
C  3.86200 43.60300 24.12600
N  0.83300 43.05300 28.51800
C  1.85700 43.08200 29.44800
C  1.39600 42.88600 30.90300
C  -0.14600 42.49400 30.64100
C  -0.28800 42.74700 29.08500
C  -0.60700 40.99500 31.09900
C  1.54600 44.23900 31.64800
C  1.21300 44.25900 33.23400
H  1.02200 42.89300 34.01600
N  -0.94500 42.85300 26.01700
C  -1.85300 42.55300 27.04000
C  -3.11700 42.30800 26.43900
C  -3.01600 42.36300 25.04800
C  -1.62700 42.67600 24.84900
C  -4.34800 41.87500 27.23800
C  -4.03500 42.17200 23.98000
O  -3.76900 42.11200 22.76000
C  -5.51800 41.95400 24.23200
N  1.42800 43.15300 24.19900
C  0.44300 42.80400 23.34800
C  0.99900 42.86800 21.91700
C  2.39900 43.56700 21.97600
C  2.54700 43.42800 23.52300
C  1.04200 41.42100 21.22400
C  2.40700 44.96200 21.30900
C  2.03300 46.14000 22.11100
N  3.07600 43.57000 26.45400
C  4.10400 43.72600 25.52700
C  5.40000 43.91100 26.20200
C  5.09000 43.59400 27.53300
C  3.63800 43.53200 27.67500
C  6.79100 44.15500 25.46900
C  5.65200 43.36200 28.82500
O  6.82800 43.22700 29.19500
C  4.50100 43.33200 29.86700
C  4.57700 42.15900 30.76600
O  4.06000 41.04600 30.47900
O  5.02200 42.50400 31.97600
C  4.77600 41.68100 33.13100
H  -2.34100 42.29300 29.17400
H  -1.49100 42.62500 22.71200
H  4.69500 43.56800 23.42200
H  1.90800 42.10800 31.46900
H  -0.77200 43.19800 31.19100
H  -0.58100 40.39600 30.18900
H  -1.59000 40.95300 31.56900
H  0.14500 40.50000 31.71400
H  0.73600 44.92000 31.38900
H  2.39600 44.89400 31.45800
H  0.32000 44.86500 33.38900
H  1.99800 44.69200 33.85300
H  -4.87400 42.81500 27.39900
H  -3.90100 41.53500 28.17300
H  -4.99700 41.13400 26.77300
H  -5.56900 40.92000 24.57400
H  -5.97400 41.95500 23.24200
H  -5.97700 42.79000 24.75900
H  0.31200 43.46800 21.32000
H  3.20300 42.92000 21.62400
H  0.20400 40.79500 21.53200
H  2.06000 41.03700 21.29300
H  0.77200 41.66200 20.19600
H  1.81300 44.85800 20.40100
H  3.39400 45.12500 20.87500
H  2.73000 46.69600 22.73700
H  1.37500 45.82300 22.92000
H  1.58600 46.91700 21.49000
H  7.45100 43.28900 25.40800
H  7.36000 44.93200 25.97900
H  6.63900 44.41600 24.42200
H  4.63500 44.19300 30.52300
H  4.47000 40.65500 32.93100
H  4.10900 42.28100 33.75000
H  5.74900 41.59300 33.61500

