158

Mg -1.51000 16.87200 26.05400
C  -2.15800 14.36700 28.53900
C  -2.76800 19.11100 28.34500
C  -1.58300 19.08500 23.72100
C  -1.35600 14.24400 23.77300
N  -2.12600 16.70600 28.26100
C  -2.15800 15.64400 29.07400
C  -2.45100 16.03000 30.52300
C  -2.91600 17.52900 30.30100
C  -2.58800 17.84900 28.89300
C  -4.34700 17.86900 30.81300
C  -1.30900 15.82400 31.59700
C  -1.35700 16.77200 32.84500
H  -1.26000 16.18700 34.23700
N  -2.10200 18.92700 26.05200
C  -2.55100 19.66600 27.06400
C  -2.68100 20.99200 26.65900
C  -2.33600 21.02000 25.24200
C  -1.98200 19.63400 24.94400
C  -2.96900 22.10200 27.65500
C  -2.23900 22.22100 24.27900
O  -1.69500 22.22500 23.18800
C  -2.76100 23.52300 24.70800
N  -1.41300 16.67000 23.99500
C  -1.34400 17.79500 23.26000
C  -0.99600 17.42300 21.88400
C  -0.72800 15.85100 21.91100
C  -1.16800 15.56100 23.30900
C  -2.17900 17.72000 20.80500
C  0.74000 15.40700 21.62300
C  1.79700 15.34400 22.76700
N  -1.74000 14.74600 26.10000
C  -1.58100 13.82300 25.05000
C  -1.88700 12.50100 25.44500
C  -2.04600 12.64200 26.84600
C  -1.89500 13.99300 27.17800
C  -2.07400 11.31000 24.61200
C  -2.47100 11.96200 28.01000
O  -2.71500 10.74300 28.20100
C  -2.50200 12.97100 29.20200
C  -1.61000 12.46400 30.28400
O  -0.41600 12.76300 30.39000
O  -2.24500 11.67700 31.16100
C  -1.49900 11.41600 32.43000
H  -3.09700 19.78400 29.14000
H  -1.61000 19.88800 22.98100
H  -1.19700 13.45100 23.03900
H  -3.24700 15.44400 30.98200
H  -2.15500 18.19700 30.70500
H  -4.94700 18.48000 30.13900
H  -4.40500 18.38100 31.77300
H  -4.81700 16.89200 30.92500
H  -0.32800 15.98700 31.15000
H  -1.35900 14.79600 31.95500
H  -2.30300 17.31100 32.90300
H  -0.57700 17.52300 32.71600
H  -3.71400 22.74700 27.18700
H  -2.12200 22.73100 27.92700
H  -3.43600 21.72900 28.56600
H  -3.78000 23.19900 24.92000
H  -2.74700 24.16600 23.82900
H  -2.31900 24.06300 25.54600
H  -0.11000 17.99300 21.60400
H  -1.29000 15.24300 21.20200
H  -2.52800 16.76500 20.41100
H  -1.75600 18.32300 20.00200
H  -2.94500 18.28200 21.34000
H  1.22500 16.02500 20.86800
H  0.71900 14.37400 21.27500
H  2.24900 14.35200 22.74400
H  1.24500 15.56300 23.68100
H  2.58900 16.06100 22.55600
H  -2.33900 11.61100 23.59900
H  -2.84000 10.75000 25.14800
H  -1.13300 10.76200 24.65500
H  -3.49600 12.92900 29.64600
H  -0.45100 11.14600 32.30100
H  -2.05800 10.63000 32.93700
H  -1.56300 12.26700 33.10800
Mg 9.23200 48.33700 25.72300
C  7.27300 48.68900 28.48500
C  11.99300 49.54100 27.54100
C  11.24300 47.69600 23.06700
C  6.53200 47.57700 23.88100
N  9.61600 49.07500 27.77100
C  8.62900 49.06900 28.70400
C  9.14200 49.63100 30.07400
C  10.63600 50.14100 29.64000
C  10.78000 49.50300 28.27600
C  10.80100 51.74700 29.60200
C  9.17400 48.66400 31.27000
C  9.13100 49.33300 32.61000
H  8.63000 48.56000 33.82300
N  11.33200 48.67700 25.29300
C  12.22500 49.14600 26.21900
C  13.53900 49.01500 25.63000
C  13.42900 48.40600 24.32000
C  11.94000 48.25900 24.18800
C  14.86500 49.37800 26.35100
C  14.44300 48.12000 23.17900
O  14.14000 47.57100 22.09100
C  15.92100 48.33700 23.49900
N  8.95600 47.63200 23.70700
C  9.89200 47.41100 22.83100
C  9.31200 46.85800 21.51800
C  7.82600 47.29300 21.71600
C  7.73000 47.41200 23.22300
C  9.74600 47.66000 20.20500
C  6.94300 46.26200 20.94900
C  5.63300 46.83900 20.27300
N  7.22400 48.14900 25.99000
C  6.20500 47.89700 25.17000
C  4.96200 47.89200 25.92000
C  5.29000 48.26500 27.21300
C  6.69400 48.30900 27.21200
C  3.61600 47.50500 25.44000
C  4.83300 48.46700 28.59600
O  3.67100 48.38300 28.98500
C  6.06700 48.84000 29.44800
C  5.99500 47.69600 30.41400
O  6.10500 46.51700 30.18200
O  5.66600 48.24700 31.63000
C  5.09400 47.16700 32.51600
H  12.69100 50.05000 28.20900
H  11.76100 47.51500 22.12200
H  5.65000 47.45100 23.25000
H  8.45800 50.40100 30.42900
H  11.38900 49.63500 30.24300
H  10.09500 52.28400 30.23600
H  10.78100 52.03100 28.54900
H  11.77700 51.96300 30.03600
H  10.16900 48.22400 31.20800
H  8.44600 47.86400 31.14000
H  8.53300 50.24100 32.53800
H  10.18900 49.58400 32.68100
H  15.75900 48.78900 26.14300
H  14.71700 49.39700 27.43100
H  15.13300 50.37300 25.99700
H  16.58800 48.05900 22.68300
H  16.14100 47.74200 24.38600
H  16.15200 49.37200 23.75100
H  9.47300 45.79400 21.34300
H  7.65000 48.27400 21.27300
H  8.91300 47.82300 19.52200
H  10.42300 47.06000 19.59700
H  10.24800 48.60300 20.42400
H  6.71500 45.53000 21.72300
H  7.53000 45.79100 20.16100
H  4.75500 46.47200 20.80500
H  5.73400 46.54600 19.22800
H  5.47200 47.91600 20.31700
H  3.15300 46.67100 25.96600
H  3.72500 47.18800 24.40300
H  2.99900 48.38800 25.60600
H  6.07100 49.84200 29.87700
H  4.13100 46.93700 32.05900
H  5.10900 47.56600 33.53000
H  5.62600 46.21600 32.52700

