158

Mg 8.18000 3.03100 27.06200
C  9.36200 1.50300 30.13500
C  6.31700 5.04600 28.99700
C  6.52600 3.82700 24.36200
C  9.89700 0.53900 25.37300
N  7.72000 3.07600 29.37100
C  8.54600 2.59800 30.34200
C  8.13000 3.17100 31.70000
C  7.08900 4.28100 31.29000
C  6.95200 4.07200 29.77500
C  5.67200 4.32000 32.05600
C  9.39200 3.82200 32.45700
C  9.69800 3.36700 33.95100
H  10.11900 4.43300 35.01600
N  6.81000 4.47500 26.64600
C  6.17000 5.27100 27.57200
C  5.17400 6.07800 26.86000
C  5.18700 5.73300 25.53300
C  6.21100 4.72500 25.42200
C  4.34200 7.11600 27.53700
C  4.39200 6.23400 24.32000
O  4.51100 5.86100 23.17500
C  3.33600 7.27200 24.51600
N  8.34700 2.43300 25.10200
C  7.49100 2.86200 24.18100
C  7.70700 2.07600 22.82400
C  8.98600 1.21700 23.12500
C  9.08600 1.38000 24.64300
C  6.40400 1.24900 22.48900
C  10.28500 1.55500 22.25300
C  11.17100 0.35700 21.87600
N  9.28000 1.35100 27.54900
C  10.00200 0.46900 26.78900
C  10.88200 -0.39500 27.51900
C  10.59500 -0.05200 28.87900
C  9.64600 0.99700 28.85900
C  11.83300 -1.42500 26.98900
C  10.88300 -0.43000 30.22000
O  11.56300 -1.29700 30.71000
C  10.15100 0.66500 31.14600
C  9.30100 -0.09500 32.05200
O  8.20100 -0.57700 31.73700
O  9.75200 -0.05400 33.31600
C  8.81400 -0.53300 34.36300
H  5.72000 5.68800 29.64800
H  5.93400 4.13000 23.49600
H  10.41200 -0.24600 24.81600
H  7.56600 2.41900 32.25300
H  7.60900 5.23500 31.38000
H  4.88600 3.93700 31.40500
H  5.56000 5.36900 32.33200
H  5.68500 3.68200 32.93900
H  9.15700 4.87200 32.63500
H  10.29600 3.89300 31.85200
H  10.57700 2.72500 34.00000
H  8.91600 2.66000 34.22900
H  4.43000 7.13000 28.62300
H  3.34000 6.77300 27.27800
H  4.54600 8.08900 27.08900
H  2.79800 7.46600 23.58800
H  3.71500 8.24600 24.82600
H  2.52200 6.91600 25.14900
H  7.95900 2.79400 22.04400
H  8.76500 0.15100 23.16500
H  5.73500 1.32800 23.34500
H  6.81600 0.24100 22.43800
H  5.98700 1.56200 21.53200
H  10.90900 2.14000 22.92800
H  9.92300 2.15200 21.41500
H  11.14300 0.16400 20.80400
H  10.70000 -0.50600 22.34900
H  12.08500 0.39000 22.46800
H  12.68200 -0.80000 26.71100
H  11.41100 -1.97800 26.15000
H  12.10500 -2.11600 27.78600
H  10.90900 1.24400 31.67200
H  8.43900 -1.54800 34.23300
H  7.95000 0.13200 34.39900
H  9.38300 -0.53300 35.29300
Mg -6.23800 24.64500 26.04700
C  -4.40900 25.92200 28.81000
C  -8.11900 22.63000 28.15800
C  -7.49400 22.92100 23.41300
C  -4.13000 26.48500 24.03800
N  -6.22600 24.30700 28.20300
C  -5.33300 24.91500 29.10100
C  -5.76600 24.39900 30.60700
C  -6.65600 23.19300 30.30800
C  -7.10800 23.39400 28.80500
C  -5.91700 21.86800 30.57400
C  -6.55600 25.54900 31.37300
C  -5.80400 26.01600 32.64700
H  -5.53100 25.00500 33.84600
N  -7.73000 23.11400 25.77900
C  -8.39100 22.51500 26.74700
C  -9.43400 21.64900 26.13300
C  -9.22200 21.67900 24.76900
C  -8.08600 22.58100 24.59100
C  -10.49000 20.83700 26.94200
C  -9.89600 20.99100 23.61600
O  -9.57700 21.16100 22.46300
C  -10.91400 20.01000 23.93400
N  -5.60900 24.45000 24.10000
C  -6.34500 23.71200 23.17000
C  -5.80000 23.94900 21.74400
C  -4.72600 25.14900 21.92800
C  -4.80800 25.39200 23.44900
C  -5.28300 22.64300 21.05100
C  -5.05700 26.36500 20.94100
C  -3.90800 26.89500 20.03100
N  -4.70200 26.13600 26.31600
C  -3.98900 26.76900 25.35900
C  -3.11100 27.72100 25.95800
C  -3.18400 27.44700 27.36500
C  -4.20100 26.47400 27.49700
C  -2.18600 28.65800 25.25900
C  -2.58900 27.72700 28.70200
O  -1.64700 28.41200 29.10600
C  -3.42700 26.72000 29.61200
C  -2.47100 25.81500 30.29300
O  -2.12900 24.74400 29.99400
O  -2.06900 26.37100 31.47500
C  -1.28700 25.45900 32.38000
H  -8.65200 22.00700 28.87900
H  -7.77300 22.45400 22.46600
H  -3.50600 26.95500 23.27500
H  -4.87000 24.15800 31.17900
H  -7.55300 23.16900 30.92700
H  -4.92700 21.95400 31.02100
H  -5.83000 21.31300 29.64000
H  -6.45200 21.20800 31.25800
H  -7.62900 25.38700 31.48000
H  -6.50500 26.40100 30.69500
H  -6.31600 26.86900 33.09100
H  -4.82600 26.31100 32.26700
H  -10.28600 20.70200 28.00500
H  -10.60700 19.79200 26.65400
H  -11.51100 21.11800 26.68500
H  -11.33600 19.49700 23.06900
H  -11.68400 20.55900 24.47700
H  -10.32300 19.27900 24.48400
H  -6.69200 24.23000 21.18500
H  -3.79100 24.62300 21.73700
H  -5.56700 21.76500 21.63200
H  -4.20100 22.74600 21.13700
H  -5.49200 22.66600 19.98200
H  -5.31700 27.21800 21.56700
H  -5.90400 26.15800 20.28700
H  -3.83800 27.96300 20.23600
H  -4.21800 26.72400 19.00000
H  -2.95500 26.37100 20.10000
H  -2.71000 29.59500 25.07500
H  -1.93400 28.24900 24.28000
H  -1.35900 28.79100 25.95700
H  -3.89900 27.37300 30.34600
H  -0.35900 25.19500 31.87300
H  -1.86000 24.57700 32.66600
H  -1.04800 26.06100 33.25700

