158

Mg 9.01800 4.81200 27.17100
C  10.43200 3.11600 29.90200
C  6.93800 6.45200 29.28000
C  7.50900 5.95400 24.45200
C  10.60200 2.33800 25.12400
N  8.70200 4.80300 29.31600
C  9.55200 4.19700 30.23800
C  9.20900 4.57600 31.65100
C  8.03500 5.67600 31.37900
C  7.81000 5.54200 29.89000
C  6.79900 5.35700 32.25500
C  10.42700 5.09400 32.52200
C  10.10300 5.83200 33.83600
H  10.82500 5.48100 35.14100
N  7.55800 6.19200 26.88700
C  6.76800 6.74800 27.90800
C  5.75600 7.52200 27.29100
C  6.01400 7.53700 25.82500
C  7.09100 6.53000 25.69000
C  4.58300 8.17600 28.09100
C  5.26300 8.26800 24.69300
O  5.49700 8.05500 23.50300
C  4.09000 9.21200 25.05000
N  9.09000 4.25700 25.05300
C  8.43600 5.04400 24.15600
C  8.88000 4.70300 22.71200
C  9.88000 3.50900 22.93400
C  9.79300 3.27400 24.46000
C  7.57700 4.38100 21.84600
C  11.45100 3.75200 22.43400
C  12.16300 2.76100 21.47000
N  10.18700 3.08400 27.45000
C  10.77300 2.26200 26.46400
C  11.68900 1.30900 27.14100
C  11.54000 1.60600 28.48300
C  10.63700 2.62000 28.62000
C  12.60400 0.30100 26.55600
C  11.82600 1.21300 29.87300
O  12.46200 0.28300 30.29700
C  11.24200 2.33300 30.79600
C  10.39800 1.73700 31.87500
O  9.31300 1.21400 31.59400
O  11.06000 1.72200 33.07600
C  10.36100 0.94500 34.08900
H  6.34100 6.95400 30.04400
H  7.09100 6.38600 23.54000
H  11.03800 1.59700 24.45000
H  8.79500 3.76900 32.25500
H  8.55100 6.60600 31.61800
H  5.90200 5.45100 31.64200
H  6.60400 6.12600 33.00200
H  6.80100 4.35700 32.68700
H  10.96200 5.77100 31.85600
H  11.00000 4.22300 32.84000
H  9.03400 5.63600 33.92800
H  10.40500 6.86500 33.66500
H  4.48600 7.78100 29.10300
H  3.66400 7.95500 27.54900
H  4.76500 9.24200 28.22200
H  3.22800 8.70700 25.48500
H  3.93200 9.83300 24.16900
H  4.44000 9.94500 25.77600
H  9.48700 5.47900 22.24700
H  9.53300 2.59900 22.44500
H  7.81800 3.64800 21.07500
H  7.27400 5.28600 21.32000
H  6.75500 4.12600 22.51500
H  12.08100 3.80900 23.32200
H  11.41900 4.70800 21.91100
H  11.47400 2.27800 20.77800
H  12.56000 1.93000 22.05200
H  12.92000 3.27500 20.87800
H  12.67200 0.25600 25.46900
H  12.20000 -0.67200 26.83600
H  13.61700 0.59500 26.82900
H  12.01800 2.93400 31.27100
H  10.01800 -0.04400 33.78700
H  9.67600 1.49600 34.73300
H  11.18000 0.61500 34.72800
Mg 25.86300 1.77100 29.22600
C  27.81100 1.55200 32.18600
C  23.17300 2.21700 31.14600
C  24.18400 1.89700 26.37700
C  28.86200 0.73700 27.43400
N  25.60500 2.07300 31.41600
C  26.48300 1.91100 32.42100
C  25.84700 2.20700 33.83700
C  24.35100 2.29000 33.46500
C  24.31400 2.21700 31.87600
C  23.56500 1.14700 34.10400
C  26.42500 3.44900 34.57800
C  26.95400 3.28700 36.01900
H  26.65300 4.39000 37.13400
N  23.89900 1.96200 28.87800
C  22.91500 2.09200 29.80400
C  21.62800 2.17600 29.08500
C  21.90400 2.27900 27.66900
C  23.38800 2.00900 27.58000
C  20.33100 2.35300 29.84700
C  21.00500 2.60000 26.57500
O  21.37200 2.56100 25.38900
C  19.55400 2.95500 26.81400
N  26.43600 1.39200 27.23000
C  25.52000 1.57400 26.21700
C  26.13100 1.26100 24.81600
C  27.50500 0.63200 25.14200
C  27.63600 0.93600 26.67100
C  25.19800 0.27900 23.96500
C  28.71700 1.25000 24.37800
C  29.10500 2.69900 24.69600
N  27.87700 1.24200 29.65100
C  28.98700 0.91300 28.88300
C  30.19100 0.74300 29.69400
C  29.73100 0.98600 30.98000
C  28.32100 1.27900 30.89500
C  31.53400 0.40200 29.15100
C  30.17000 1.14500 32.29500
O  31.26600 1.07600 32.83600
C  28.90200 1.49600 33.19900
C  28.79800 0.52500 34.31500
O  28.48400 -0.67300 34.19000
O  29.28100 1.07400 35.51000
C  29.61600 0.17600 36.65900
H  22.25400 2.44600 31.69000
H  23.78300 2.07000 25.37600
H  29.76100 0.47600 26.87100
H  26.12000 1.31300 34.39800
H  23.95400 3.26700 33.74200
H  23.30400 0.38500 33.37100
H  22.67000 1.43300 34.65600
H  24.17300 0.48500 34.72100
H  25.77900 4.32600 34.54500
H  27.36200 3.67400 34.06800
H  28.03900 3.17900 36.02200
H  26.63000 2.27700 36.27000
H  20.42500 2.11900 30.90700
H  19.53300 1.69000 29.51200
H  20.19500 3.42400 29.70000
H  18.99600 2.06800 27.11400
H  19.14000 3.35600 25.88900
H  19.48100 3.71700 27.59000
H  26.29100 2.17100 24.23700
H  27.51300 -0.45500 25.07200
H  24.27900 0.00400 24.48200
H  25.72000 -0.63300 23.67600
H  24.79200 0.87100 23.14400
H  28.47400 1.22100 23.31600
H  29.63900 0.70200 24.57300
H  29.98900 2.51900 25.30700
H  28.35700 3.31500 25.19700
H  29.53500 3.22800 23.84600
H  32.06700 1.27500 28.77500
H  31.33700 -0.23500 28.28900
H  32.11800 -0.13700 29.89700
H  29.02900 2.53000 33.52000
H  30.42600 0.56500 37.27500
H  29.94800 -0.84400 36.46300
H  28.75500 -0.04800 37.28900

