158

Mg 26.19400 50.69200 26.46600
C  24.00100 51.82800 29.04400
C  28.37200 49.83500 28.88300
C  28.42800 50.26300 24.05800
C  23.92700 52.25900 24.12300
N  26.27300 51.00100 28.82400
C  25.20700 51.29900 29.59700
C  25.57700 51.09600 31.14600
C  27.03100 50.40400 31.02200
C  27.27300 50.40300 29.50200
C  28.25200 51.05000 31.81600
C  24.54100 50.25900 31.93800
C  24.84400 49.86500 33.37900
H  24.16300 50.71200 34.46500
N  28.08600 49.98000 26.43700
C  28.84300 49.68200 27.55900
C  30.14500 49.10800 27.13900
C  30.24400 49.39400 25.75700
C  28.91500 49.89600 25.31500
C  31.08400 48.32900 28.00800
C  31.36400 49.18200 24.89800
O  31.34900 49.39800 23.71200
C  32.69700 48.73900 25.44500
N  26.15000 51.14500 24.40000
C  27.19000 50.83800 23.64200
C  27.08700 51.38900 22.18300
C  25.58400 51.85800 22.15500
C  25.16900 51.75500 23.62000
C  28.21600 52.47000 21.89200
C  24.62000 51.05800 21.22700
C  24.12400 49.63600 21.66600
N  24.33300 51.68600 26.53700
C  23.52700 52.24100 25.50300
C  22.29100 52.70300 26.10300
C  22.43900 52.57000 27.46600
C  23.65900 51.95000 27.69100
C  21.09000 53.21200 25.37100
C  21.79000 52.82900 28.77400
O  20.77800 53.43200 29.06700
C  22.82400 52.38500 29.83400
C  23.15000 53.58000 30.64900
O  23.98100 54.46700 30.46400
O  22.43600 53.56900 31.78400
C  22.59900 54.71600 32.78600
H  28.94500 49.21100 29.57300
H  29.12000 50.13200 23.22400
H  23.24800 52.60400 23.34000
H  25.77800 52.02600 31.67700
H  26.95300 49.35200 31.29600
H  29.13200 51.19600 31.19000
H  28.54200 50.25900 32.50700
H  28.00700 51.96900 32.35000
H  24.36900 49.37300 31.32700
H  23.60400 50.81400 31.97200
H  25.90500 49.99200 33.59600
H  24.61700 48.79900 33.36300
H  31.37900 47.33400 27.67400
H  30.63900 48.28400 29.00200
H  32.03300 48.85600 28.10900
H  32.65000 47.78300 25.96600
H  32.93900 49.52600 26.15900
H  33.44400 48.79700 24.65400
H  27.40200 50.52000 21.60600
H  25.56600 52.86600 21.74000
H  27.78200 53.28500 21.31400
H  28.95400 52.05600 21.20500
H  28.65100 52.96000 22.76300
H  25.07100 50.85400 20.25600
H  23.71700 51.64500 21.05800
H  24.24400 48.96600 20.81500
H  23.09900 49.53400 22.02400
H  24.69900 49.25500 22.51000
H  21.13100 53.16100 24.28300
H  20.91800 54.21300 25.76700
H  20.27200 52.54900 25.65400
H  22.39400 51.65300 30.51800
H  22.48900 55.65300 32.24000
H  23.53000 54.67500 33.35200
H  21.84100 54.83300 33.56100
Mg -2.30500 34.14300 26.15300
C  -3.47700 32.74600 29.13700
C  -0.30300 36.22100 27.98000
C  -1.31800 35.60700 23.30900
C  -4.38500 31.97100 24.34700
N  -1.98600 34.46400 28.37200
C  -2.56100 33.78200 29.40500
C  -1.97800 34.28600 30.74400
C  -0.91300 35.34500 30.26400
C  -1.06200 35.32800 28.78800
C  -1.01100 36.75800 31.03400
C  -1.39600 33.19800 31.78200
C  -1.85100 33.39400 33.25100
H  -1.33900 32.39500 34.28400
N  -0.91100 35.66900 25.69500
C  -0.21000 36.41200 26.60200
C  0.55900 37.38300 25.82100
C  0.35700 37.15100 24.48300
C  -0.68300 36.13300 24.39600
C  1.32900 38.50700 26.48600
C  1.14700 37.73500 23.31900
O  0.86100 37.52400 22.13400
C  2.38800 38.57500 23.58700
N  -2.89700 33.95200 24.13900
C  -2.27700 34.62300 23.11200
C  -2.73700 34.10500 21.75900
C  -3.31200 32.69300 22.06100
C  -3.52600 32.82200 23.62100
C  -3.71200 35.00900 21.01100
C  -2.34500 31.53700 21.71500
C  -0.76900 31.75600 21.93300
N  -3.73100 32.80000 26.62500
C  -4.44500 31.91200 25.78500
C  -5.30700 31.04600 26.55200
C  -4.82800 31.29000 27.90700
C  -3.94700 32.39100 27.88000
C  -6.29200 30.10100 26.00000
C  -4.96500 30.76600 29.19300
O  -5.61200 29.85000 29.68500
C  -4.11700 31.65900 30.06300
C  -5.05200 32.42900 30.95800
O  -5.82200 33.30800 30.58600
O  -4.91200 32.00500 32.27500
C  -5.76800 32.53000 33.28100
H  0.28200 36.90700 28.59600
H  -0.92800 35.97500 22.35700
H  -4.89000 31.26100 23.68800
H  -2.80600 34.83300 31.19600
H  0.08300 34.92000 30.39300
H  0.00900 37.11100 31.18600
H  -1.54700 36.72300 31.98300
H  -1.55400 37.33900 30.28900
H  -0.33700 33.45400 31.80000
H  -1.48900 32.22500 31.30100
H  -2.92000 33.54600 33.40100
H  -1.51700 34.38700 33.55300
H  2.40800 38.37400 26.40900
H  1.12400 38.60300 27.55200
H  0.98400 39.44000 26.04000
H  2.08300 39.53700 23.99900
H  2.88700 38.73900 22.63200
H  3.09500 38.03500 24.21700
H  -1.89000 33.92700 21.09600
H  -4.32100 32.49800 21.69500
H  -3.47000 34.92200 19.95200
H  -3.49700 36.04200 21.28600
H  -4.74600 34.68900 21.14500
H  -2.58700 31.34300 20.67000
H  -2.68900 30.59800 22.14900
H  -0.29500 32.10300 21.01500
H  -0.35000 30.78100 22.18400
H  -0.59200 32.52300 22.68700
H  -5.84400 29.11300 26.10500
H  -6.42800 30.38400 24.95600
H  -7.23000 30.07700 26.55500
H  -3.46200 31.07500 30.70900
H  -5.17400 33.08200 34.00800
H  -6.26900 31.65000 33.68500
H  -6.51200 33.29400 33.05700

