158

Mg 41.50000 8.71700 29.45500
C  43.29700 10.04900 32.20100
C  39.16200 7.59600 31.67000
C  39.79200 7.54200 26.83200
C  44.13100 9.76300 27.28000
N  41.38700 8.65800 31.69900
C  42.16200 9.31900 32.60200
C  41.61500 9.13200 34.00200
C  40.41800 8.17300 33.79500
C  40.31200 8.09200 32.32400
C  40.56600 6.81300 34.53300
C  41.34000 10.53000 34.73600
C  41.42500 10.43400 36.28800
H  41.37300 11.72300 37.25200
N  39.70200 7.68200 29.31800
C  38.80700 7.38800 30.34200
C  37.52800 6.91500 29.72900
C  37.66100 7.09800 28.29900
C  39.11000 7.41700 28.11100
C  36.37900 6.34200 30.56400
C  36.58600 7.02200 27.21900
O  36.82400 7.35100 26.02600
C  35.19000 6.65600 27.67000
N  42.04500 8.49000 27.30800
C  41.07600 8.03100 26.47200
C  41.57800 8.17200 25.07700
C  42.98700 8.79600 25.16700
C  43.06700 9.01700 26.68400
C  41.53300 6.87200 24.24300
C  43.15800 10.16700 24.29100
C  42.57200 11.48100 24.92600
N  43.39800 9.62100 29.65200
C  44.31400 10.04100 28.69300
C  45.28800 10.91500 29.33200
C  44.94800 10.93600 30.67800
C  43.80400 10.13600 30.82300
C  46.42100 11.52000 28.50400
C  45.39800 11.34700 32.01300
O  46.40600 11.98200 32.34700
C  44.27500 10.79300 33.00200
C  45.00900 9.86300 33.99600
O  45.64400 8.82000 33.77300
O  45.01400 10.59500 35.20800
C  45.54600 9.84500 36.40700
H  38.27500 7.45700 32.29100
H  39.24700 7.13100 25.98000
H  44.81700 10.16600 26.53200
H  42.35500 8.62900 34.62500
H  39.47000 8.63400 34.07200
H  39.61600 6.67600 35.04800
H  41.43600 6.81600 35.18900
H  40.62600 6.02200 33.78600
H  40.35000 10.85600 34.41600
H  41.93300 11.39500 34.44100
H  42.32800 9.90400 36.59100
H  40.59500 9.82600 36.64800
H  36.36500 6.36200 31.65400
H  36.21400 5.35600 30.13000
H  35.60600 7.03100 30.22400
H  34.53100 6.48000 26.82000
H  34.73900 7.53700 28.12700
H  35.03200 5.78700 28.30800
H  40.88100 8.90200 24.66400
H  43.67300 8.00200 24.87100
H  40.52500 6.81800 23.83100
H  41.80200 5.94000 24.74000
H  42.23100 6.76100 23.41300
H  42.59000 10.09000 23.36400
H  44.19600 10.39400 24.04700
H  41.97600 11.36100 25.83100
H  41.81000 11.85900 24.24500
H  43.36300 12.21100 25.09500
H  47.03400 10.77600 27.99600
H  46.90600 12.30800 29.08000
H  45.78300 11.95800 27.73700
H  43.86500 11.56500 33.65200
H  46.10600 8.97800 36.05700
H  44.67300 9.47500 36.94500
H  46.23900 10.39200 37.04500
Mg -5.56500 26.06800 26.57800
C  -4.41600 27.66900 29.48300
C  -7.40900 24.09100 28.46300
C  -6.52500 24.51100 23.67700
C  -3.27600 27.87100 24.69200
N  -5.71000 25.89100 28.63900
C  -5.11700 26.58400 29.71400
C  -5.74700 26.25000 31.03200
C  -6.34100 24.81200 30.66800
C  -6.53300 24.89600 29.20800
C  -5.58600 23.55700 31.16000
C  -6.83200 27.20600 31.67500
C  -6.88500 27.27200 33.24500
H  -6.08300 26.20400 34.01900
N  -6.78800 24.51400 26.13600
C  -7.59100 23.91400 27.10000
C  -8.36000 22.86600 26.47700
C  -8.11200 22.91000 25.08500
C  -7.10600 24.00700 24.88000
C  -9.22200 21.94800 27.24600
C  -8.64900 21.97100 23.89200
O  -8.36900 22.15500 22.72000
C  -9.60200 20.85500 24.22100
N  -5.06900 26.28100 24.47000
C  -5.56300 25.47600 23.49000
C  -4.99600 25.77300 22.15200
C  -3.89800 26.81000 22.42200
C  -4.12000 27.04200 23.94300
C  -4.25800 24.52300 21.53200
C  -4.26800 28.08600 21.68000
C  -3.84500 28.25500 20.19900
N  -4.16900 27.52500 26.91400
C  -3.36200 28.18600 26.06600
C  -2.59000 29.16100 26.84100
C  -3.01900 29.00900 28.20600
C  -4.03200 28.02500 28.20300
C  -1.49400 29.97600 26.22400
C  -2.78400 29.56800 29.48100
O  -2.08400 30.46400 29.93300
C  -3.82300 28.77600 30.36400
C  -3.01400 28.30300 31.52800
O  -2.04300 27.56100 31.44000
O  -3.29900 29.04000 32.63600
C  -2.30200 28.83000 33.76600
H  -7.80600 23.39100 29.20000
H  -6.81000 23.98400 22.76400
H  -2.40700 28.29200 24.18200
H  -4.87900 26.18300 31.68800
H  -7.37300 24.76400 31.01500
H  -6.11300 23.13900 32.01800
H  -4.61400 23.89700 31.52000
H  -5.49300 22.87800 30.31300
H  -7.82900 27.07700 31.25500
H  -6.47100 28.17700 31.33500
H  -7.92100 27.37400 33.56800
H  -6.29200 28.17400 33.40100
H  -10.26700 21.92300 26.93700
H  -9.18900 22.25700 28.29100
H  -8.86400 20.92900 27.10700
H  -9.27300 20.23400 25.05400
H  -9.72900 20.20500 23.35500
H  -10.54400 21.15300 24.68100
H  -5.81700 26.16800 21.55400
H  -2.88400 26.44500 22.25800
H  -4.37500 23.64300 22.16500
H  -3.18500 24.55000 21.34500
H  -4.87100 24.32400 20.65300
H  -3.86300 28.91300 22.26400
H  -5.34000 28.26900 21.76300
H  -3.55300 27.29400 19.77500
H  -2.97800 28.91300 20.14300
H  -4.64700 28.81300 19.71600
H  -1.90100 30.66100 25.48000
H  -0.80500 29.31200 25.70300
H  -0.99000 30.56600 26.98900
H  -4.54200 29.50600 30.73700
H  -1.29400 28.97400 33.37600
H  -2.43600 27.86900 34.26300
H  -2.49300 29.58100 34.53200

