158

Mg 1.72400 -0.87600 43.93200
C  5.32100 -0.90500 42.82200
C  1.58600 1.96200 41.97700
C  -1.52300 -1.40900 43.84800
C  2.42400 -3.95200 45.41300
N  3.38900 0.46100 42.62000
C  4.68600 0.20100 42.24500
C  5.31900 1.35300 41.39900
C  4.14800 2.39500 41.46000
C  2.93100 1.56200 42.04700
C  4.37400 3.73600 42.29600
C  5.80800 0.83200 40.02300
C  6.95600 1.54800 39.30500
H  6.49600 2.23400 38.05400
N  0.26200 0.26400 43.15800
C  0.35500 1.42000 42.38400
C  -0.98100 1.88200 42.19600
C  -1.88900 0.87300 42.66000
C  -1.08100 -0.17800 43.20000
C  -1.29200 3.08600 41.45600
C  -3.41000 0.96600 42.59100
O  -3.91600 2.05100 42.20100
C  -4.34900 -0.11500 42.93300
N  0.68900 -2.45600 44.55200
C  -0.68700 -2.41700 44.48300
C  -1.27200 -3.74600 45.03600
C  -0.06300 -4.46500 45.66000
C  1.11000 -3.56200 45.28500
C  -2.57900 -3.68300 45.84700
C  0.04500 -5.98500 45.24200
C  -0.09500 -6.96100 46.36700
N  3.41300 -2.17600 44.09700
C  3.54600 -3.27300 44.91900
C  4.88600 -3.78100 45.00600
C  5.57500 -2.88200 44.18100
C  4.66500 -1.90300 43.66600
C  5.44500 -4.98400 45.84200
C  6.89600 -2.53400 43.81700
O  7.92000 -3.04800 44.16200
C  6.77900 -1.33900 42.81200
C  7.76600 -0.28400 43.18500
O  7.68800 0.40400 44.28300
O  8.74500 -0.11000 42.24000
C  9.70200 0.94900 42.58900
H  1.52800 2.96000 41.53800
H  -2.59400 -1.61800 43.86100
H  2.66400 -4.83200 46.01300
H  6.20900 1.76400 41.87500
H  3.81100 2.71100 40.47300
H  3.75100 3.64400 43.18600
H  3.94800 4.57000 41.73700
H  5.38400 3.96600 42.63700
H  5.00200 0.79300 39.29000
H  6.12400 -0.19700 40.19400
H  7.72600 0.80700 39.08800
H  7.39600 2.28500 39.97700
H  -2.04800 2.90200 40.69300
H  -0.39600 3.50100 40.99300
H  -1.65500 3.81000 42.18600
H  -5.40200 0.00800 42.67900
H  -4.25900 -0.29500 44.00400
H  -4.05500 -0.97100 42.32600
H  -1.64300 -4.23000 44.13200
H  -0.02200 -4.27400 46.73200
H  -3.50300 -3.88100 45.30200
H  -2.64400 -2.63800 46.15200
H  -2.55400 -4.30300 46.74200
H  1.03600 -6.08300 44.79900
H  -0.74800 -6.24100 44.54000
H  0.74600 -7.65400 46.39000
H  -1.08500 -7.41000 46.27900
H  -0.16100 -6.40300 47.30100
H  4.62200 -5.49600 46.34100
H  6.11000 -4.75000 46.67300
H  5.96000 -5.63500 45.13600
H  6.97500 -1.73600 41.81600
H  10.06500 0.80800 43.60700
H  9.18800 1.89400 42.41000
H  10.52000 0.93000 41.86900
Mg 29.93500 58.90500 39.26900
C  27.23800 56.72500 38.40200
C  32.14200 56.39900 38.42300
C  32.38500 61.09000 39.61900
C  27.54500 61.50500 39.59600
N  29.70500 56.81000 38.50800
C  28.55000 56.22400 38.14400
C  28.92200 54.88700 37.33300
C  30.35000 54.55200 37.84400
C  30.80500 56.01800 38.27600
C  30.29200 53.60100 39.00000
C  28.74300 55.04000 35.77200
C  27.72500 54.14800 35.20700
H  26.49800 54.61000 34.37100
N  31.89000 58.74000 39.17400
C  32.67100 57.63600 38.90500
C  34.09100 57.91600 39.12700
C  34.26100 59.32800 39.46700
C  32.78400 59.82800 39.41500
C  35.15700 56.79900 39.01400
C  35.56400 60.02600 39.77100
O  36.64300 59.42200 39.84300
C  35.63000 61.49800 39.95800
N  29.92800 60.96400 39.44000
C  31.12000 61.61600 39.52200
C  30.89100 63.11300 39.70500
C  29.32900 63.27400 39.58500
C  28.92100 61.82200 39.52300
C  31.38100 63.72800 41.06400
C  28.91600 64.27200 38.45800
C  28.67900 65.72000 38.73700
N  27.86600 59.08000 39.26100
C  27.02100 60.23000 39.33400
C  25.68000 59.76700 39.11200
C  25.66500 58.41600 38.81900
C  27.07600 58.05100 38.85400
C  24.50000 60.63900 39.28300
C  24.81100 57.26900 38.40100
O  23.62200 57.13500 38.33800
C  25.80200 56.11600 38.09200
C  25.36800 54.99700 38.93300
O  25.65600 54.75200 40.11000
O  24.43700 54.28300 38.17700
C  23.83800 53.08500 38.80900
H  32.78900 55.55900 38.16500
H  33.23400 61.75400 39.79200
H  26.93200 62.40200 39.70800
H  28.21900 54.15400 37.72800
H  31.00300 54.19700 37.04600
H  29.29000 53.29100 39.29800
H  30.72400 54.08900 39.87400
H  30.98600 52.77200 38.86400
H  29.73400 55.02800 35.31800
H  28.33400 56.04500 35.66400
H  27.21000 53.66700 36.03900
H  28.27000 53.35800 34.69100
H  36.16000 57.22100 38.96500
H  35.04300 56.17200 38.13000
H  34.95100 56.15700 39.87100
H  36.66800 61.78500 40.12400
H  35.08300 61.72800 40.87300
H  35.28400 61.99700 39.05300
H  31.40800 63.64700 38.90800
H  28.92400 63.84200 40.42300
H  31.59500 64.76400 40.80200
H  32.37800 63.36500 41.31300
H  30.62100 63.57300 41.83000
H  28.04300 63.82800 37.98000
H  29.69200 64.19700 37.69600
H  27.60400 65.87900 38.82700
H  29.09500 66.24600 37.87800
H  29.29000 66.09800 39.55700
H  24.05900 60.77400 38.29500
H  24.91300 61.54000 39.73800
H  23.71300 60.16900 39.87300
H  25.71900 55.78300 37.05800
H  22.87100 52.87600 38.35200
H  23.65600 53.20900 39.87700
H  24.40200 52.17800 38.59100

