158

Mg 26.46900 49.95600 26.01900
C  24.72800 51.54600 28.53900
C  28.61400 48.69800 28.44800
C  28.32900 48.61000 23.54200
C  24.19500 51.17400 23.64000
N  26.68500 50.14100 28.25700
C  25.81000 50.83900 29.07700
C  26.19100 50.69200 30.52800
C  27.60600 50.04700 30.44300
C  27.63800 49.55100 28.97900
C  28.77700 51.00500 30.66100
C  25.19700 49.85300 31.35300
C  24.78000 50.40200 32.80100
H  25.88300 50.52000 33.83700
N  28.24700 48.87600 25.99900
C  28.92500 48.50400 27.08000
C  30.06700 47.68500 26.65500
C  30.02000 47.64100 25.25300
C  28.85400 48.42300 24.81100
C  31.07900 47.04200 27.61000
C  31.00100 46.92900 24.31000
O  30.95900 47.12600 23.09200
C  32.13900 46.01500 24.79100
N  26.31500 49.96700 23.85600
C  27.18100 49.34300 23.09300
C  26.79200 49.31100 21.60600
C  25.28300 49.91200 21.61500
C  25.23100 50.40500 23.08400
C  27.79800 49.90100 20.59500
C  24.18500 48.81000 21.30900
C  24.33300 47.43000 21.99300
N  24.82900 51.13700 25.98500
C  24.03300 51.54600 24.98400
C  22.97500 52.41000 25.52300
C  23.26000 52.46600 26.90600
C  24.33600 51.61400 27.15900
C  21.94100 53.15500 24.77500
C  22.74100 52.95800 28.17700
O  21.74900 53.69400 28.40900
C  23.65900 52.27600 29.29500
C  24.21100 53.46800 30.08200
O  25.13800 54.27200 29.79800
O  23.47700 53.50300 31.21200
C  23.80300 54.41200 32.30100
H  29.27700 48.31400 29.22600
H  28.84100 48.06700 22.74400
H  23.34800 51.33700 22.97000
H  26.26200 51.62200 31.09200
H  27.78900 49.11500 30.97600
H  28.65000 52.05000 30.94200
H  29.31600 51.08000 29.71700
H  29.48800 50.59200 31.37700
H  25.61000 48.85100 31.46500
H  24.25400 49.74300 30.81800
H  24.05500 49.65500 33.12400
H  24.17700 51.31000 32.81200
H  30.88200 45.97200 27.67100
H  30.94700 47.28300 28.66400
H  32.09300 47.26700 27.28000
H  32.46300 45.35400 23.98700
H  31.69500 45.39000 25.56600
H  32.96900 46.41700 25.37200
H  26.77400 48.30100 21.19600
H  25.25600 50.73300 20.89900
H  27.30700 50.58700 19.90300
H  28.22100 49.09600 19.99300
H  28.55300 50.51100 21.09100
H  24.14700 48.61200 20.23800
H  23.20100 49.23200 21.51400
H  23.86200 47.52100 22.97200
H  25.38800 47.16000 22.02100
H  23.78000 46.67000 21.44200
H  21.38700 53.83200 25.42500
H  21.34000 52.42600 24.23100
H  22.48300 53.66700 23.98000
H  23.14300 51.63100 30.00600
H  24.49500 54.05900 33.06600
H  22.85500 54.69600 32.75700
H  24.15800 55.36000 31.89700
Mg -5.27700 25.79700 26.41700
C  -3.94000 27.48200 29.26000
C  -7.30200 23.93100 28.46700
C  -5.95400 24.10300 23.70000
C  -2.96700 27.68000 24.34900
N  -5.59800 25.67300 28.62600
C  -4.96300 26.49600 29.61700
C  -5.54700 26.14900 31.05000
C  -6.54800 24.97700 30.74100
C  -6.47700 24.86900 29.22700
C  -6.31700 23.62300 31.50100
C  -6.12900 27.42800 31.66700
C  -5.72400 27.77000 33.08000
H  -5.55800 26.59700 33.94900
N  -6.46800 24.28400 26.11900
C  -7.22200 23.64800 27.08300
C  -7.95100 22.59300 26.46100
C  -7.51200 22.54200 25.11100
C  -6.57400 23.65600 24.90200
C  -8.80600 21.63500 27.26400
C  -7.73900 21.56000 23.99100
O  -7.18800 21.58300 22.92600
C  -8.64800 20.41300 24.18900
N  -4.76100 26.17000 24.24500
C  -5.20200 25.20700 23.33100
C  -4.59900 25.47300 21.89100
C  -3.74300 26.73300 22.17500
C  -3.85200 26.90700 23.67000
C  -3.64000 24.30300 21.38200
C  -4.31200 28.12800 21.60100
C  -3.51500 28.57300 20.43300
N  -3.80900 27.27700 26.69900
C  -3.01500 27.90800 25.76000
C  -2.16100 28.82900 26.46200
C  -2.47300 28.77300 27.89200
C  -3.46500 27.72900 27.96200
C  -1.17300 29.69500 25.83900
C  -2.18400 29.18800 29.18100
O  -1.39500 30.07400 29.53100
C  -3.06800 28.39200 30.12200
C  -2.14100 27.61500 30.98700
O  -1.33700 26.76000 30.63700
O  -2.39300 27.84200 32.32900
C  -1.56000 27.32300 33.38900
H  -7.91900 23.32800 29.13500
H  -6.25200 23.52000 22.82600
H  -2.14300 28.16700 23.82300
H  -4.71000 25.65600 31.54500
H  -7.55200 25.34600 30.94800
H  -6.15400 22.90400 30.69800
H  -7.17200 23.33100 32.11100
H  -5.55700 23.61800 32.28300
H  -7.21800 27.42000 31.69100
H  -5.87900 28.26200 31.01200
H  -6.51500 28.45800 33.38000
H  -4.88600 28.46500 33.13500
H  -8.32800 21.11100 28.09200
H  -9.30700 20.88900 26.64700
H  -9.54400 22.26500 27.75900
H  -8.53200 19.91300 23.22700
H  -9.66500 20.78400 24.31700
H  -8.32500 19.69200 24.94000
H  -5.38400 25.68300 21.16500
H  -2.71000 26.57800 21.86500
H  -2.71400 24.57800 20.87600
H  -4.31300 23.78300 20.70100
H  -3.40500 23.65200 22.22400
H  -4.17000 28.86100 22.39500
H  -5.35300 28.09000 21.28100
H  -4.01400 28.35300 19.49000
H  -2.54400 28.07800 20.41800
H  -3.50600 29.64900 20.60200
H  -0.51700 29.11700 25.18900
H  -0.62300 30.23400 26.61000
H  -1.74000 30.40800 25.24100
H  -3.58500 29.11000 30.75900
H  -0.54500 27.38900 32.99500
H  -1.84600 26.27700 33.49700
H  -1.59100 27.91900 34.30200

