158

Mg 8.72600 3.89400 27.55200
C  9.84100 2.31100 30.48300
C  6.66900 5.92600 29.49800
C  7.57600 5.30800 24.70800
C  10.55400 1.57200 25.68700
N  8.44900 4.13700 29.75300
C  8.98000 3.36300 30.80400
C  8.40600 3.84600 32.18800
C  7.35900 4.93600 31.74900
C  7.44500 4.96900 30.19400
C  5.89300 4.75000 32.25700
C  9.47900 4.41200 33.12200
C  9.49100 3.70500 34.55200
H  10.85300 3.90200 35.40000
N  7.35400 5.49100 27.20400
C  6.53700 6.15700 28.08300
C  5.71400 7.17100 27.46600
C  6.02100 7.01800 26.05500
C  7.06900 5.91400 25.90200
C  4.80600 8.08100 28.21200
C  5.51400 7.92100 24.87800
O  5.87000 7.75300 23.68000
C  4.53600 8.93100 25.16700
N  8.85800 3.42700 25.50000
C  8.46500 4.31000 24.53300
C  8.99100 3.82200 23.12700
C  9.81400 2.53300 23.49800
C  9.78300 2.55000 25.01700
C  7.94400 3.51400 22.01300
C  11.19600 2.33800 22.83900
C  11.32900 0.89500 22.08000
N  9.84100 2.18700 27.89300
C  10.52400 1.34400 27.08700
C  11.22300 0.32700 27.83300
C  11.04400 0.69900 29.11900
C  10.17200 1.84600 29.15300
C  12.10500 -0.76600 27.33700
C  11.46500 0.41900 30.46600
O  12.30400 -0.44300 30.90100
C  10.67900 1.43100 31.38800
C  9.77600 0.71900 32.32200
O  8.65500 0.32400 31.99000
O  10.32700 0.53400 33.60500
C  9.41800 -0.20200 34.45100
H  5.96900 6.52000 30.09000
H  7.18600 5.81000 23.82000
H  11.07500 0.75500 25.18200
H  7.84800 3.02100 32.63100
H  7.62000 5.97700 31.93900
H  5.35900 4.12100 31.54300
H  5.51000 5.76400 32.37000
H  5.96800 4.24900 33.22200
H  9.21100 5.45200 33.30700
H  10.43600 4.34700 32.60500
H  9.15300 2.67200 34.47100
H  8.73400 4.18500 35.17300
H  5.07300 9.13300 28.10900
H  4.77800 7.90400 29.28700
H  3.79600 7.90900 27.83900
H  4.14700 9.20700 24.18700
H  4.99300 9.79900 25.64200
H  3.71700 8.42800 25.68300
H  9.64900 4.53800 22.63500
H  9.30400 1.62500 23.17700
H  6.90400 3.71700 22.26900
H  7.96400 2.48100 21.66500
H  8.29300 4.17200 21.21800
H  12.05700 2.47300 23.49300
H  11.38800 3.15100 22.13800
H  11.71900 0.99700 21.06700
H  10.45700 0.24700 22.16300
H  12.17600 0.39700 22.55200
H  13.15900 -0.49000 27.32100
H  11.93600 -1.06000 26.30100
H  11.95600 -1.66100 27.94000
H  11.50200 1.87000 31.95100
H  8.37800 0.10400 34.33800
H  9.58000 -0.12500 35.52600
H  9.35000 -1.18300 33.98100
Mg 41.02600 9.50900 29.33900
C  43.00500 10.72900 32.09900
C  39.07900 7.94700 31.54300
C  39.57100 7.97600 26.80200
C  43.70300 10.45800 27.20300
N  41.11500 9.24400 31.57900
C  41.87700 9.94500 32.50100
C  41.38900 9.63800 33.96000
C  40.29000 8.60700 33.74500
C  40.12100 8.58700 32.18200
C  40.33400 7.26600 34.55300
C  40.89600 10.93600 34.70800
C  40.09100 10.79200 35.99800
H  40.47700 11.69300 37.22700
N  39.33600 8.28600 29.15700
C  38.66600 7.75500 30.22400
C  37.49200 7.04700 29.79600
C  37.53400 7.12500 28.36400
C  38.81200 7.82500 28.01200
C  36.55900 6.17200 30.63000
C  36.49900 6.75800 27.22200
O  36.81700 6.91700 26.04300
C  35.11700 6.29600 27.68500
N  41.59200 9.16700 27.32900
C  40.74600 8.58400 26.41900
C  41.22900 8.64100 24.93200
C  42.54200 9.50300 25.12200
C  42.62900 9.73700 26.67900
C  41.53200 7.20500 24.27900
C  42.49400 10.84300 24.31300
C  43.59700 11.05400 23.23900
N  42.93400 10.52500 29.53000
C  43.88700 10.76200 28.56500
C  44.87900 11.48000 29.18500
C  44.58700 11.54800 30.54500
C  43.44500 10.87300 30.71300
C  46.17400 11.98200 28.52900
C  45.07000 11.99200 31.85500
O  46.04300 12.67600 32.13800
C  44.04200 11.38700 32.96900
C  44.70000 10.32600 33.78700
O  44.92600 9.20600 33.37000
O  44.89700 10.72800 35.10100
C  45.49600 9.75200 35.96000
H  38.38000 7.43700 32.20900
H  39.17700 7.40200 25.96100
H  44.47400 10.76600 26.49500
H  42.19600 9.26500 34.59000
H  39.35500 9.08600 34.03600
H  41.36700 7.04300 34.81800
H  39.92800 6.46800 33.93200
H  39.74100 7.30500 35.46700
H  40.29000 11.39500 33.92700
H  41.75400 11.54400 34.99400
H  40.15600 9.74800 36.30500
H  39.06600 11.08800 35.77800
H  36.81600 6.36400 31.67200
H  36.65400 5.14300 30.28300
H  35.51800 6.46500 30.49500
H  34.62400 7.08600 28.25100
H  35.16600 5.44700 28.36600
H  34.46700 6.03300 26.85000
H  40.48200 9.08400 24.27400
H  43.43400 9.01900 24.72400
H  41.26800 7.37800 23.23600
H  40.96200 6.42900 24.79000
H  42.61400 7.08300 24.33100
H  42.77400 11.61300 25.03100
H  41.59200 11.05200 23.73800
H  44.31300 11.76800 23.64800
H  43.03300 11.44800 22.39300
H  43.99900 10.07700 22.97100
H  46.16200 12.81200 27.82300
H  46.40700 11.05900 27.99700
H  46.90800 12.15200 29.31700
H  43.69900 12.17600 33.63800
H  44.61500 9.37600 36.47900
H  46.20200 10.14500 36.69100
H  46.01500 8.94700 35.43900

