158

Mg 48.18900 34.91000 27.81900
C  46.29700 33.28500 30.22900
C  48.34800 37.66800 30.07400
C  49.37100 36.99900 25.39700
C  47.62700 32.44800 25.60800
N  47.39800 35.35200 29.92100
C  46.79400 34.45500 30.74600
C  46.86300 35.02800 32.20600
C  47.06000 36.50600 31.93300
C  47.68100 36.50600 30.55300
C  45.80600 37.41500 32.22300
C  48.14700 34.34800 32.87600
C  48.44700 34.51700 34.36700
H  47.54100 35.48600 35.20300
N  48.84800 36.98100 27.74900
C  48.90000 37.88900 28.81400
C  49.66300 39.02000 28.43500
C  49.91000 38.93600 27.02700
C  49.28500 37.61400 26.63200
C  49.95600 40.16800 29.39200
C  50.65100 39.92300 26.02900
O  50.80500 39.62700 24.86200
C  51.12300 41.29000 26.50800
N  48.22200 34.89100 25.73700
C  48.88300 35.74900 24.94400
C  48.99300 35.21900 23.51400
C  48.63900 33.69600 23.69900
C  48.16500 33.66900 25.12900
C  48.07500 36.07100 22.54600
C  49.83900 32.82700 23.33600
C  49.39400 31.58200 22.52900
N  47.23800 33.09500 27.87700
C  47.04300 32.17500 26.94100
C  46.41100 30.96700 27.43800
C  46.08600 31.36800 28.72900
C  46.58700 32.71900 28.95900
C  45.93600 29.69800 26.76000
C  45.31600 31.07100 29.99100
O  44.61800 30.08700 30.24500
C  45.38500 32.29200 30.93200
C  45.76200 31.74800 32.33100
O  46.66700 31.00500 32.59300
O  44.82400 32.12300 33.21900
C  45.11100 31.79400 34.62700
H  48.48500 38.39600 30.87600
H  49.75300 37.54700 24.53300
H  47.49000 31.71300 24.81100
H  45.98400 34.69200 32.75600
H  47.71000 36.95500 32.68400
H  44.92100 36.87200 32.55400
H  45.40600 38.05900 31.44100
H  45.91900 38.04400 33.10600
H  49.07500 34.66700 32.40100
H  48.18100 33.26400 32.77200
H  49.44700 34.89800 34.57300
H  48.43500 33.58200 34.92800
H  50.97000 40.54500 29.25400
H  49.92700 39.87900 30.44200
H  49.27100 41.00400 29.25300
H  50.43200 41.71800 27.23400
H  51.13300 41.91000 25.61100
H  52.13900 41.23400 26.89900
H  50.04000 35.34900 23.24000
H  47.75000 33.39600 23.14400
H  47.18400 35.44600 22.50300
H  48.47400 36.42300 21.59500
H  47.98200 37.00300 23.10400
H  50.34500 32.48400 24.23800
H  50.62300 33.38200 22.82000
H  48.82100 31.83200 21.63600
H  48.71800 31.02600 23.17800
H  50.18800 30.91400 22.19600
H  44.98200 29.56600 26.25000
H  45.73300 28.92700 27.50300
H  46.71400 29.35600 26.07700
H  44.44100 32.82700 31.03800
H  46.05300 31.28400 34.82800
H  44.25700 31.14100 34.80700
H  45.14400 32.74800 35.15400
Mg -5.40200 25.56800 25.99800
C  -4.06800 27.04500 28.93100
C  -7.28900 23.69800 28.03500
C  -6.32600 23.97100 23.21400
C  -3.21300 27.68300 24.11300
N  -5.49500 25.31600 28.23200
C  -4.92600 25.97700 29.24800
C  -5.56300 25.58500 30.62500
C  -6.43600 24.36400 30.24000
C  -6.49200 24.51700 28.75700
C  -6.03700 22.98500 30.80500
C  -6.39600 26.72400 31.25200
C  -7.06700 26.54600 32.65800
H  -6.39700 25.48100 33.58900
N  -6.70700 24.04500 25.68100
C  -7.45700 23.48300 26.66100
C  -8.40500 22.47400 26.02900
C  -8.08100 22.52300 24.64100
C  -6.93300 23.48300 24.46400
C  -9.44600 21.60800 26.88200
C  -8.62600 21.69300 23.57600
O  -8.26300 21.82800 22.44800
C  -9.64200 20.60300 23.88600
N  -4.85400 25.80800 23.98000
C  -5.36700 24.99800 22.98800
C  -4.66100 25.30300 21.67200
C  -3.87100 26.60400 21.96500
C  -4.08200 26.76500 23.45900
C  -3.76600 24.13600 21.26500
C  -4.16900 27.88800 21.13600
C  -3.15400 28.27400 20.04200
N  -3.99100 27.03700 26.36300
C  -3.22900 27.83800 25.50200
C  -2.47000 28.80600 26.33000
C  -2.76000 28.52500 27.64200
C  -3.66700 27.41900 27.64100
C  -1.57100 29.90600 25.78400
C  -2.52900 28.95500 28.94700
O  -1.90900 29.93100 29.34400
C  -3.36100 28.01800 29.82700
C  -2.57500 27.43800 30.92000
O  -1.56700 26.72600 30.81000
O  -3.12700 27.71900 32.16000
C  -2.31700 27.45300 33.35900
H  -7.89100 23.02500 28.65000
H  -6.49200 23.34800 22.33300
H  -2.46800 28.17400 23.48300
H  -4.74700 25.32700 31.30000
H  -7.41400 24.54800 30.68400
H  -6.68200 22.73100 31.64600
H  -5.01900 22.95700 31.19300
H  -6.13600 22.21500 30.04000
H  -7.15700 26.86200 30.48400
H  -5.81700 27.64200 31.35200
H  -8.13400 26.34800 32.56100
H  -7.00900 27.54200 33.09700
H  -9.47200 22.01200 27.89400
H  -9.39500 20.52500 26.77800
H  -10.46000 21.82200 26.54300
H  -10.62200 20.91000 24.25200
H  -9.06200 20.02100 24.60200
H  -9.68600 19.86500 23.08500
H  -5.45100 25.53300 20.95600
H  -2.79400 26.44500 21.91300
H  -3.89700 23.36400 22.02400
H  -2.68800 24.27600 21.19400
H  -4.13100 23.71500 20.32800
H  -4.36600 28.70600 21.82900
H  -5.14900 27.90000 20.65900
H  -2.83500 29.27200 20.34400
H  -3.59600 28.40700 19.05500
H  -2.31900 27.57300 20.04300
H  -2.25400 30.52900 25.20700
H  -0.78300 29.46400 25.17400
H  -1.10700 30.39900 26.63900
H  -4.09000 28.70900 30.25000
H  -1.64800 28.30000 33.51200
H  -1.77800 26.50600 33.31700
H  -3.06900 27.43300 34.14800

