158

Mg 45.14800 4.34400 46.77300
C  42.96600 7.10700 46.66900
C  42.42400 2.31200 46.05300
C  47.13300 1.70500 45.90200
C  47.86000 6.33800 46.86300
N  42.92800 4.78500 46.32600
C  42.23700 5.92000 46.48700
C  40.67900 5.65400 46.58000
C  40.63000 4.04900 46.68000
C  42.09500 3.66300 46.35200
C  40.22900 3.45200 48.00500
C  39.91600 6.15000 45.33100
C  40.40600 5.81700 43.85500
H  40.19400 6.79100 42.63100
N  44.80800 2.30000 46.23300
C  43.62300 1.67800 46.06500
C  43.76500 0.24100 45.76100
C  45.15800 0.04600 45.57900
C  45.81200 1.43500 45.94500
C  42.64800 -0.84200 45.53200
C  45.79700 -1.22300 45.11300
O  45.14300 -2.16000 44.71900
C  47.26900 -1.53400 45.11000
N  47.25800 4.05900 46.46100
C  47.84800 2.88300 46.21700
C  49.37400 2.92200 46.27900
C  49.62700 4.40700 46.69800
C  48.18600 4.97000 46.70400
C  50.05500 1.90500 47.25700
C  50.65000 5.16600 45.89100
C  51.92900 5.71100 46.50000
N  45.45200 6.37700 46.77200
C  46.59700 7.05700 46.89200
C  46.31800 8.48200 46.83000
C  44.87100 8.53600 46.81100
C  44.41600 7.21600 46.67900
C  47.29900 9.61800 47.10400
C  43.74500 9.48300 46.81600
O  43.70400 10.71700 46.99300
C  42.41200 8.57000 46.66900
C  41.51000 8.79300 47.87100
O  41.71400 8.39100 49.02300
O  40.31900 9.28800 47.37100
C  39.32400 9.77100 48.40700
H  41.55200 1.65600 46.09200
H  47.88600 0.97900 45.58800
H  48.74400 6.93000 47.10800
H  40.23000 6.14500 47.44300
H  39.87600 3.68700 45.98200
H  40.01200 4.28900 48.66800
H  41.08000 2.92600 48.43700
H  39.38300 2.76800 47.94600
H  39.71100 7.22100 45.31500
H  38.91900 5.72000 45.42400
H  39.87200 4.93600 43.49800
H  41.42900 5.44400 43.82400
H  42.99500 -1.75900 46.00900
H  42.45000 -0.80500 44.46100
H  41.71800 -0.48900 45.97900
H  47.69200 -1.04000 45.98500
H  47.62200 -1.25000 44.11900
H  47.52500 -2.57300 45.31900
H  49.77900 2.77000 45.27900
H  50.05500 4.47800 47.69800
H  50.37600 0.98300 46.77300
H  49.35800 1.68400 48.06500
H  51.06300 2.17400 47.57200
H  50.31700 6.06600 45.37400
H  51.03500 4.43600 45.18000
H  51.75700 5.78700 47.57400
H  52.30600 6.70800 46.27100
H  52.78800 5.12200 46.18100
H  46.69500 10.52100 47.00900
H  48.21500 9.60400 46.51300
H  47.61300 9.78800 48.13400
H  41.90100 8.71000 45.71600
H  39.17900 10.84900 48.32600
H  39.48400 9.50500 49.45100
H  38.40900 9.25800 48.11200
Mg -12.10800 38.03600 42.00100
C  -10.22100 35.16300 40.97300
C  -9.93600 40.00700 40.42200
C  -14.22400 40.49900 42.70000
C  -14.50300 35.66900 43.25100
N  -10.35700 37.59500 40.74500
C  -9.64200 36.40100 40.60300
C  -8.27400 36.58700 39.97100
C  -8.10100 38.16800 40.18600
C  -9.59900 38.62300 40.39500
C  -7.15200 38.63400 41.31800
C  -8.16300 35.99000 38.62300
C  -6.94400 35.04800 38.38700
H  -5.85400 35.68200 37.43300
N  -12.15200 40.02800 41.58100
C  -11.10200 40.66100 40.92400
C  -11.42800 42.11300 40.98300
C  -12.70400 42.24300 41.57200
C  -13.09500 40.93700 41.93600
C  -10.50700 43.19800 40.35900
C  -13.39200 43.64400 41.87600
O  -12.76700 44.64800 41.63700
C  -14.65700 43.65200 42.56300
N  -14.16400 38.08300 42.65800
C  -14.77800 39.26200 43.00600
C  -15.98900 38.98900 43.93600
C  -16.20300 37.42100 43.72900
C  -14.82900 37.03200 43.20900
C  -15.70500 39.44500 45.31200
C  -17.51500 37.00100 42.90300
C  -18.80100 36.65500 43.75900
N  -12.33800 35.83400 42.22400
C  -13.43200 35.06400 42.62200
C  -13.13100 33.63200 42.51000
C  -11.87000 33.67400 41.85000
C  -11.47000 34.97600 41.65800
C  -13.90600 32.48000 42.97700
C  -10.82700 32.82600 41.26800
O  -10.88200 31.59100 41.19600
C  -9.74000 33.76300 40.68100
C  -8.46100 33.44400 41.40600
O  -7.57100 32.73600 40.94900
O  -8.35200 34.08800 42.57800
C  -6.93600 34.11200 43.15200
H  -9.14500 40.64300 40.01800
H  -14.99200 41.20700 43.01900
H  -15.32800 35.04300 43.59600
H  -7.55500 36.17200 40.67700
H  -7.64100 38.47100 39.24500
H  -6.66200 37.80700 41.83300
H  -7.68100 39.13400 42.12900
H  -6.42300 39.35900 40.95500
H  -7.98700 36.87100 38.00600
H  -9.10800 35.54700 38.30700
H  -7.38900 34.13300 37.99500
H  -6.54300 34.80000 39.37000
H  -11.14800 43.82600 39.74000
H  -9.65700 42.80400 39.80200
H  -10.04300 43.81800 41.12600
H  -15.13800 44.63000 42.53700
H  -14.30100 43.33000 43.54200
H  -15.37600 42.97300 42.10400
H  -16.85100 39.55700 43.58600
H  -16.19700 36.85900 44.66300
H  -16.18700 40.39400 45.54600
H  -14.63900 39.66000 45.39500
H  -16.03100 38.66000 45.99400
H  -17.21300 36.15100 42.29100
H  -17.76400 37.80600 42.21200
H  -19.08900 35.66900 43.39300
H  -19.59400 37.39200 43.63400
H  -18.57700 36.69400 44.82500
H  -14.32000 31.92700 42.13400
H  -14.68600 32.60900 43.72800
H  -13.30600 31.69700 43.44100
H  -9.64900 33.51100 39.62400
H  -6.27600 34.73400 42.54800
H  -6.51300 33.11000 43.21900
H  -6.83900 34.59500 44.12400

