158

Mg 8.96500 3.66400 27.84500
C  10.31600 2.08700 30.78200
C  7.31300 5.72600 29.84400
C  7.53900 4.76800 25.00000
C  10.31800 1.00000 26.03800
N  8.71100 3.77500 30.09000
C  9.48100 3.13100 31.09900
C  9.16000 3.75000 32.45000
C  8.13900 4.86800 32.11400
C  7.93800 4.72200 30.60800
C  6.73800 4.82700 32.76500
C  10.44700 4.36700 33.09700
C  10.32400 5.04100 34.49200
H  10.98500 4.23400 35.61500
N  7.68000 5.13800 27.41100
C  7.14400 5.87400 28.40000
C  6.32200 6.86700 27.73600
C  6.40300 6.67100 26.30000
C  7.22300 5.50400 26.15100
C  5.64700 7.91900 28.51600
C  5.75900 7.43000 25.21100
O  5.90000 7.12000 24.03700
C  4.85600 8.53700 25.55500
N  9.05000 2.96800 25.84100
C  8.43500 3.69300 24.82400
C  8.78800 3.15800 23.43900
C  9.70800 1.97200 23.77200
C  9.63200 1.89500 25.29500
C  7.63700 2.73100 22.48700
C  11.10400 1.91200 23.17200
C  11.26900 1.16600 21.86100
N  10.16300 1.90100 28.21100
C  10.57900 0.91200 27.38700
C  11.31400 -0.03600 28.06000
C  11.30700 0.42000 29.36900
C  10.49600 1.52600 29.44100
C  11.98300 -1.30400 27.47800
C  11.65200 0.08500 30.77100
O  12.29400 -0.87500 31.24700
C  11.18500 1.23500 31.66500
C  10.48600 0.71300 32.80100
O  9.46200 0.04700 32.83900
O  11.23600 0.85700 33.89100
C  10.96800 0.17300 35.16300
H  6.70300 6.48400 30.34100
H  7.25500 5.15500 24.01900
H  10.77500 0.20600 25.44400
H  8.84200 2.95000 33.11800
H  8.61000 5.81300 32.38400
H  6.84200 4.55100 33.81500
H  6.18100 4.13200 32.13800
H  6.30400 5.82200 32.66500
H  10.92000 5.09600 32.43900
H  11.15900 3.54800 33.20100
H  9.25600 4.96900 34.69800
H  10.64800 6.07700 34.58600
H  5.74600 8.86000 27.97600
H  5.84600 8.10800 29.57100
H  4.59900 7.62300 28.58100
H  4.55200 9.07900 24.65900
H  5.60100 9.25300 25.90100
H  4.03100 8.27200 26.21600
H  9.26200 4.06400 23.06300
H  9.24300 0.99000 23.68600
H  7.38800 3.61400 21.89800
H  6.74600 2.49800 23.07100
H  7.85900 1.89100 21.82900
H  11.83800 1.59300 23.91200
H  11.35700 2.94600 22.93700
H  11.73600 1.78200 21.09200
H  10.27200 1.03100 21.44100
H  11.83900 0.24300 21.96700
H  13.01300 -0.98100 27.32600
H  11.48600 -1.53000 26.53400
H  11.98400 -2.22400 28.06200
H  12.12600 1.68500 31.97900
H  9.93700 -0.17600 35.22400
H  11.25100 0.73900 36.05100
H  11.60300 -0.70900 35.24500
Mg 45.61900 24.62700 29.54300
C  46.37600 27.13700 31.89000
C  44.98500 22.50000 31.91600
C  45.76200 22.20700 27.11700
C  46.88000 26.93700 26.99900
N  45.53300 24.82700 31.62900
C  45.85300 25.94200 32.43800
C  45.54000 25.64200 33.89400
C  45.30500 24.14800 33.91900
C  45.24800 23.79400 32.36800
C  46.38600 23.30800 34.60200
C  44.35900 26.51900 34.41500
C  44.68800 27.14600 35.79400
H  43.54000 27.09100 36.91100
N  45.20800 22.74200 29.48400
C  44.89700 22.01700 30.61200
C  44.44600 20.66400 30.20700
C  44.74700 20.59600 28.79000
C  45.27300 21.91200 28.40500
C  43.90100 19.53200 31.18300
C  44.64400 19.37600 27.88700
O  44.78200 19.49000 26.65400
C  44.35600 17.99200 28.45900
N  46.31400 24.56500 27.44100
C  46.23500 23.45100 26.67100
C  46.43800 23.68700 25.18000
C  46.70400 25.25400 25.12300
C  46.57900 25.57900 26.63400
C  47.74800 23.03600 24.64200
C  45.79500 26.12800 24.22500
C  44.24600 26.06400 24.45500
N  46.35600 26.67700 29.37400
C  46.83200 27.40100 28.28400
C  47.22800 28.74200 28.79100
C  47.05300 28.73300 30.19600
C  46.58500 27.43000 30.51900
C  47.90600 29.86900 28.02800
C  47.34900 29.43600 31.53300
O  47.80800 30.52900 31.78400
C  46.91800 28.35500 32.63700
C  48.08500 28.16800 33.56900
O  49.23900 27.87200 33.20800
O  47.64100 28.36900 34.85300
C  48.64900 27.96700 35.92500
H  44.51700 21.86700 32.67200
H  45.83300 21.43400 26.35000
H  47.25100 27.73500 26.35200
H  46.52200 25.84200 34.32300
H  44.30600 24.04100 34.34300
H  47.39600 23.66100 34.39500
H  46.30900 22.25600 34.33000
H  46.24500 23.47200 35.67100
H  43.44200 25.94000 34.51600
H  44.24800 27.31300 33.67600
H  45.09600 28.15500 35.73700
H  45.49200 26.53200 36.20100
H  43.01300 19.02000 30.81200
H  43.68400 19.96800 32.15700
H  44.64600 18.73800 31.24500
H  43.32100 18.05800 28.79500
H  45.07500 17.73900 29.23700
H  44.34100 17.32700 27.59500
H  45.48900 23.40500 24.72400
H  47.73900 25.54300 24.93900
H  47.41800 22.54200 23.72900
H  48.07800 22.27100 25.34500
H  48.52100 23.78100 24.45100
H  45.92200 26.00000 23.15000
H  45.96200 27.20300 24.29400
H  44.04800 26.89200 25.13600
H  44.09600 25.11800 24.97700
H  43.75900 26.15300 23.48400
H  48.60200 29.48300 27.28300
H  48.40000 30.58100 28.69000
H  47.26300 30.41800 27.34000
H  46.10600 28.83200 33.18600
H  49.34100 27.19400 35.59100
H  48.11000 27.77700 36.85300
H  49.18900 28.83700 36.29900

