158

Mg 25.83800 1.66900 29.26700
C  27.69500 1.18200 32.20500
C  22.96400 2.00400 31.27700
C  23.91700 1.36300 26.51100
C  28.71400 0.85300 27.26900
N  25.36500 1.54300 31.48500
C  26.30200 1.39500 32.49800
C  25.69100 1.57000 33.92800
C  24.19300 1.83400 33.52700
C  24.10100 1.73700 31.99700
C  23.10700 0.88600 34.18700
C  26.29000 2.75300 34.73600
C  25.46500 3.18200 35.94800
H  26.01200 3.00200 37.34600
N  23.75600 1.67100 28.97400
C  22.71100 1.84500 29.91200
C  21.48300 1.99700 29.13200
C  21.80500 1.86500 27.75900
C  23.22500 1.59800 27.74200
C  20.10200 2.12900 29.77000
C  20.87000 2.03600 26.55300
O  21.22800 2.10700 25.41500
C  19.34900 2.16200 26.76500
N  26.20300 1.09900 27.20800
C  25.25300 1.09500 26.32000
C  25.77800 0.88100 24.85600
C  27.35300 0.86500 25.00400
C  27.48700 0.99100 26.54800
C  25.10200 -0.42200 24.16400
C  28.10100 2.01000 24.18100
C  28.57500 1.60700 22.82600
N  27.85700 1.14500 29.56700
C  28.86700 0.89700 28.69900
C  30.09000 0.81000 29.46900
C  29.68100 0.81900 30.84600
C  28.29700 1.04800 30.85700
C  31.43300 0.63100 28.94600
C  30.10500 0.66000 32.21300
O  31.15300 0.31900 32.71500
C  28.90200 1.02500 33.14500
C  28.73600 -0.06200 34.11500
O  28.50200 -1.22400 33.79000
O  28.66800 0.39600 35.41800
C  28.85300 -0.55700 36.50400
H  22.13900 2.27900 31.93900
H  23.29900 1.17900 25.63000
H  29.62500 0.56400 26.74100
H  25.81400 0.69900 34.57200
H  23.96700 2.85600 33.83100
H  23.50800 0.27300 34.99400
H  22.90300 0.13400 33.42500
H  22.18700 1.42600 34.41200
H  26.43800 3.52300 33.97900
H  27.27400 2.47900 35.11500
H  24.53100 2.62900 35.85300
H  25.10600 4.19300 35.75400
H  19.31000 1.49400 29.37400
H  19.84000 3.14200 29.46400
H  20.10000 2.04700 30.85700
H  19.10000 1.15000 27.08600
H  18.88100 2.41200 25.81300
H  19.03400 2.94200 27.45800
H  25.55700 1.79400 24.30300
H  27.76200 -0.10000 24.70600
H  24.58900 -0.96100 24.96100
H  25.96600 -0.96900 23.78900
H  24.29300 -0.19900 23.46800
H  28.83100 2.51600 24.81300
H  27.28900 2.67400 23.88400
H  28.52600 0.52200 22.73000
H  29.65400 1.73200 22.73500
H  27.97500 2.05300 22.03300
H  31.49600 1.19400 28.01400
H  31.59600 -0.43000 28.75700
H  32.09800 1.05400 29.69800
H  29.12500 1.95600 33.66600
H  29.25100 0.03400 37.32900
H  29.40700 -1.46800 36.27600
H  27.80900 -0.82400 36.66800
Mg 47.78700 15.58100 28.77800
C  45.77000 15.52300 31.65300
C  50.03700 17.44100 30.49600
C  49.54300 15.93700 25.93900
C  45.18900 14.02400 27.04600
N  47.78200 16.52500 30.82300
C  46.93500 16.20800 31.87700
C  47.58300 16.70200 33.23600
C  48.83000 17.50900 32.82200
C  48.91800 17.14200 31.27800
C  48.82500 19.09400 33.18900
C  47.94100 15.52100 34.30600
C  48.06700 15.84600 35.79000
H  47.73000 17.23800 36.23100
N  49.57900 16.50500 28.25900
C  50.35300 17.22900 29.12200
C  51.61100 17.49900 28.48500
C  51.59000 17.05300 27.17300
C  50.19800 16.46400 27.05500
C  52.64000 18.25700 29.29500
C  52.69500 17.00700 26.03900
O  52.57500 16.34300 25.00000
C  53.95700 17.71000 26.30700
N  47.50400 15.01600 26.77200
C  48.28700 15.35200 25.74600
C  47.74300 14.96400 24.33900
C  46.35900 14.32200 24.72800
C  46.32600 14.42600 26.29400
C  47.62700 16.22700 23.35300
C  46.13400 12.80200 24.37800
C  45.31300 12.50300 23.17500
N  45.85800 14.88000 29.20100
C  44.98600 14.23700 28.42100
C  43.79700 13.96200 29.18300
C  44.04600 14.33400 30.49800
C  45.31500 14.96400 30.44200
C  42.62500 13.22600 28.60300
C  43.62200 14.31700 31.94000
O  42.58900 13.81500 32.44100
C  44.71400 15.12400 32.73400
C  44.00500 16.23600 33.39800
O  43.71700 17.26700 32.87200
O  43.61200 15.83000 34.61900
C  42.85400 16.84700 35.34000
H  50.72600 18.11900 31.00400
H  50.07300 16.21900 25.02700
H  44.33300 13.65500 26.47700
H  46.87300 17.42300 33.64100
H  49.71500 17.08300 33.29500
H  49.62500 19.51100 33.80100
H  47.94200 19.33500 33.78000
H  48.86200 19.55800 32.20400
H  48.82000 15.02100 33.90000
H  47.19300 14.74600 34.13800
H  49.06200 15.44000 35.97600
H  47.26000 15.25400 36.22200
H  53.00500 17.66200 30.13300
H  52.14600 19.16600 29.63800
H  53.54600 18.51200 28.74500
H  53.88200 18.79600 26.36800
H  54.62200 17.47400 25.47600
H  54.41300 17.26300 27.19000
H  48.46100 14.27500 23.89500
H  45.53900 14.84900 24.24000
H  48.50500 16.37400 22.72300
H  47.53600 17.19200 23.85000
H  46.66300 16.18800 22.84600
H  45.81200 12.21200 25.23600
H  47.11400 12.41100 24.10400
H  45.76500 11.89700 22.39100
H  44.95800 13.43400 22.73200
H  44.44600 11.96900 23.56500
H  42.47700 13.20100 27.52400
H  41.66300 13.53800 29.01100
H  42.81400 12.19300 28.89400
H  45.10700 14.35000 33.39300
H  42.07400 17.26500 34.70300
H  43.57100 17.63300 35.57700
H  42.38100 16.29200 36.15100

