158

Mg 49.11500 46.86100 42.59700
C  45.90900 47.81600 41.54800
C  48.73700 44.15500 40.61400
C  52.38300 46.08600 43.14800
C  49.65900 50.05900 43.65700
N  47.52100 46.09400 41.11700
C  46.26600 46.63700 40.95800
C  45.43800 45.79200 39.94700
C  46.31100 44.46800 39.78300
C  47.60000 44.91900 40.53800
C  45.67300 43.14600 40.29000
C  45.16000 46.46900 38.58300
C  43.71600 46.65300 38.20200
H  43.29600 46.18000 36.76100
N  50.31400 45.19500 42.09200
C  49.91300 44.24000 41.24400
C  50.92600 43.25900 41.30700
C  52.06300 43.76500 41.99900
C  51.59100 45.09200 42.49900
C  50.84700 41.93000 40.49600
C  53.44400 43.07500 42.20600
O  53.57900 41.84400 41.92300
C  54.65100 43.78500 42.83400
N  50.77400 47.93400 43.25800
C  51.99500 47.38700 43.49400
C  53.06900 48.42300 43.90300
C  52.18200 49.64000 44.15500
C  50.80200 49.20200 43.57000
C  54.00800 48.06200 45.00600
C  52.74400 51.00400 43.65400
C  52.70600 52.12400 44.68200
N  47.99400 48.58800 42.78600
C  48.33500 49.77000 43.32800
C  47.24000 50.66000 43.24300
C  46.19300 49.83400 42.66700
C  46.78600 48.70300 42.29400
C  47.15900 52.01900 43.79100
C  44.78100 49.86000 42.26600
O  43.89300 50.72500 42.36200
C  44.56300 48.50500 41.36000
C  43.37500 47.88700 41.95200
O  42.24600 48.17600 41.68000
O  43.73000 46.93100 42.86800
C  42.67400 46.20600 43.60300
H  48.57300 43.28000 39.98100
H  53.40800 45.77100 43.35300
H  49.87900 51.04700 44.06700
H  44.45200 45.64400 40.38700
H  46.62400 44.30700 38.75100
H  45.64300 42.40400 39.49200
H  44.67000 43.48200 40.55300
H  46.12600 42.76100 41.20400
H  45.82100 45.95900 37.88200
H  45.67100 47.43200 38.61300
H  43.34700 47.67900 38.21500
H  43.00700 46.22500 38.91100
H  51.74000 41.54000 40.00800
H  50.17400 42.11400 39.65800
H  50.44600 41.13700 41.12800
H  55.53800 43.28200 42.44900
H  54.51200 43.81200 43.91400
H  54.69400 44.74800 42.32400
H  53.68100 48.59900 43.01800
H  51.93700 49.73300 45.21300
H  53.76400 47.17600 45.59100
H  53.99000 48.98000 45.59400
H  55.06600 48.01300 44.74800
H  52.16000 51.29300 42.78100
H  53.74600 50.85400 43.25300
H  53.69400 52.41200 45.04000
H  52.13100 51.87300 45.57300
H  52.13500 52.98300 44.32900
H  48.10400 52.54400 43.64800
H  46.90500 51.99300 44.85100
H  46.29200 52.45000 43.29200
H  44.47700 48.92200 40.35700
H  42.49800 46.59700 44.60500
H  43.03100 45.17800 43.67000
H  41.74300 46.16100 43.03800
Mg 9.17600 48.70800 26.16600
C  6.81000 48.96600 28.82000
C  11.39300 50.41800 28.18900
C  11.30100 48.72500 23.60700
C  6.50300 47.93700 23.95900
N  9.08100 49.67700 28.18000
C  8.10000 49.56200 29.19400
C  8.56500 50.10800 30.55600
C  9.88600 50.75400 30.08600
C  10.15600 50.33900 28.74100
C  9.89800 52.30200 30.20600
C  8.88700 48.97800 31.63400
C  7.99900 49.16800 32.87400
H  8.60800 49.70100 34.15100
N  11.15500 49.30000 25.95100
C  11.88000 49.94700 26.94600
C  13.24900 50.07200 26.45200
C  13.26700 49.64700 25.10800
C  11.86600 49.14500 24.81500
C  14.36100 50.72500 27.21000
C  14.33900 49.46200 24.09800
O  14.16500 48.95300 23.00300
C  15.73000 49.70300 24.44000
N  8.94600 48.43500 24.08700
C  9.96200 48.49000 23.20900
C  9.60000 48.04600 21.76900
C  8.06500 47.69300 21.96400
C  7.80500 48.06900 23.37200
C  9.71500 49.13800 20.77000
C  7.75600 46.21800 21.70400
C  8.25800 45.13700 22.63600
N  7.12200 48.40000 26.28300
C  6.19300 48.11300 25.35000
C  4.88300 47.95300 26.01400
C  5.04800 48.13600 27.38300
C  6.44500 48.54500 27.52200
C  3.61400 47.58600 25.28700
C  4.49200 48.10700 28.74700
O  3.35000 47.92700 29.17700
C  5.59700 48.61700 29.68900
C  5.83200 47.45700 30.58100
O  6.46300 46.45100 30.30800
O  5.14300 47.66400 31.77700
C  5.39900 46.58200 32.65800
H  12.07800 50.92800 28.87000
H  11.85700 48.77600 22.66900
H  5.64100 47.85300 23.29400
H  7.97700 50.89200 31.03300
H  10.71600 50.45800 30.72800
H  10.86800 52.63500 30.57400
H  9.04900 52.62000 30.81100
H  9.71700 52.82900 29.26900
H  9.95600 49.00800 31.84700
H  8.71200 48.03900 31.10800
H  7.61000 48.17000 33.07900
H  7.15800 49.84300 32.71600
H  14.97000 51.34400 26.55100
H  14.89300 50.06800 27.89900
H  14.01100 51.61100 27.73900
H  15.83300 49.27200 25.43600
H  15.87500 50.78100 24.49400
H  16.49700 49.36000 23.74600
H  10.09100 47.12800 21.44500
H  7.29300 48.30100 21.49200
H  10.12600 49.98100 21.32600
H  8.74000 49.45900 20.40500
H  10.37400 48.86600 19.94600
H  8.22500 46.10000 20.72700
H  6.68000 46.19000 21.53300
H  8.61900 45.39800 23.63100
H  9.02300 44.59700 22.07700
H  7.50100 44.36300 22.76200
H  3.58000 47.91300 24.24700
H  2.80900 48.01300 25.88500
H  3.52000 46.50300 25.36800
H  5.34900 49.50700 30.26800
H  4.60100 45.84900 32.54700
H  5.30100 46.83800 33.71300
H  6.39400 46.14100 32.59100

