158

Mg 8.12600 48.19300 27.80500
C  6.05700 47.85700 30.64700
C  10.78800 48.41900 29.99400
C  10.07500 49.11400 25.27100
C  5.30700 49.12000 26.06900
N  8.42700 48.10100 30.08800
C  7.39500 48.03300 31.06000
C  7.97300 48.04700 32.47700
C  9.56100 48.38000 32.25200
C  9.62300 48.32400 30.71700
C  10.01800 49.73800 32.72300
C  7.73300 46.65400 33.30200
C  8.63900 46.40000 34.55000
H  8.11200 45.54400 35.70200
N  10.19800 48.44100 27.56100
C  11.09700 48.49000 28.58100
C  12.46200 48.44200 28.05500
C  12.32500 48.67300 26.66400
C  10.78100 48.72700 26.40500
C  13.69900 48.30700 28.86300
C  13.37100 48.84400 25.54300
O  13.07000 49.21000 24.40100
C  14.78700 48.68700 25.91400
N  7.76900 49.20700 26.00100
C  8.75900 49.43700 25.10800
C  8.21100 50.24100 23.88500
C  6.62500 50.05900 24.07300
C  6.54000 49.45200 25.48400
C  8.61900 51.76700 23.86400
C  5.86000 49.13000 23.05900
C  4.54200 49.62700 22.48700
N  6.07500 48.24000 28.20900
C  5.05100 48.60000 27.39100
C  3.81000 48.24900 27.92200
C  4.16000 47.91200 29.24800
C  5.51000 48.05500 29.41100
C  2.45900 48.30500 27.20200
C  3.61900 47.58900 30.52200
O  2.49400 47.29700 30.89900
C  4.84900 47.45500 31.49600
C  4.83200 46.01800 31.95900
O  5.09200 45.01800 31.33500
O  4.40500 46.00800 33.27300
C  4.17100 44.65200 33.86900
H  11.69500 48.56700 30.58500
H  10.61900 49.50500 24.40900
H  4.42100 49.46100 25.53000
H  7.51100 48.82700 33.08200
H  10.24400 47.64300 32.67600
H  9.23300 50.18700 33.33200
H  10.24300 50.46900 31.94500
H  10.93800 49.60200 33.29100
H  7.79000 45.75300 32.69100
H  6.79000 46.82400 33.82100
H  8.99800 47.35200 34.94200
H  9.46200 45.87900 34.06100
H  14.31700 47.49200 28.48500
H  13.42200 48.10500 29.89800
H  14.26000 49.24100 28.90400
H  15.18100 49.52200 26.49300
H  15.33300 48.63800 24.97200
H  14.84300 47.74600 26.46200
H  8.66200 49.77200 23.01000
H  6.31400 51.10400 24.08100
H  9.29000 51.99300 24.69200
H  7.80600 52.48700 23.77600
H  9.18800 52.02800 22.97100
H  5.66700 48.22600 23.63500
H  6.50500 48.81800 22.23700
H  3.89300 48.78400 22.72600
H  4.65500 49.74800 21.41000
H  4.25800 50.57700 22.93900
H  2.39100 49.31800 26.80400
H  1.76500 48.21800 28.03800
H  2.42600 47.58300 26.38600
H  4.80700 48.17700 32.31100
H  3.49500 44.75600 34.71800
H  5.06200 44.09700 34.16000
H  3.69800 43.99000 33.14400
Mg -11.03000 39.79000 41.49000
C  -10.39900 36.54800 40.55900
C  -7.97400 40.85400 40.33000
C  -12.19900 42.90500 41.28200
C  -14.40300 38.64000 42.38100
N  -9.38800 38.78900 40.50800
C  -9.38400 37.45600 40.19000
C  -8.03400 37.08200 39.49800
C  -7.31700 38.49000 39.40300
C  -8.19100 39.43800 40.18300
C  -5.77200 38.54100 39.87700
C  -8.27200 36.27700 38.13200
C  -7.44000 36.61500 36.89100
H  -6.78400 35.57100 36.08600
N  -10.15500 41.65900 41.04800
C  -8.90300 41.87400 40.61600
C  -8.71600 43.28600 40.34500
C  -9.90800 43.92800 40.70600
C  -10.85200 42.84300 40.96800
C  -7.39000 43.98300 40.03600
C  -10.11500 45.51800 40.76800
O  -9.25500 46.29900 40.36900
C  -11.32500 46.19300 41.50500
N  -12.95900 40.57600 41.74400
C  -13.15200 41.94700 41.57300
C  -14.56400 42.41600 41.91800
C  -15.15400 41.06100 42.45500
C  -14.13700 40.01300 42.16600
C  -14.68900 43.55100 42.94900
C  -16.53300 40.57700 41.81200
C  -17.64200 40.18200 42.88500
N  -12.16700 37.97100 41.65600
C  -13.44200 37.67500 42.08000
C  -13.58100 36.21300 42.07700
C  -12.44600 35.73600 41.46800
C  -11.62700 36.85100 41.23300
C  -14.86500 35.45000 42.37900
C  -11.71500 34.60200 41.02400
O  -11.99600 33.43600 41.19800
C  -10.45800 35.06800 40.28900
C  -9.27400 34.29800 40.81700
O  -8.61700 34.49800 41.85600
O  -9.00100 33.27900 39.89700
C  -8.00800 32.31000 40.34300
H  -7.01100 41.15400 39.91100
H  -12.70700 43.85800 41.11700
H  -15.28700 38.22500 42.86900
H  -7.50400 36.36500 40.12500
H  -7.34300 38.78400 38.35400
H  -5.49200 37.51900 40.13300
H  -5.72400 39.08600 40.82000
H  -5.15300 39.02800 39.12400
H  -9.29700 36.47700 37.82200
H  -8.15700 35.23200 38.41900
H  -6.60700 37.23400 37.22500
H  -8.14400 37.17100 36.27200
H  -7.14600 43.94800 38.97500
H  -6.56700 43.53700 40.59400
H  -7.33200 45.02700 40.34400
H  -11.57900 45.78600 42.48300
H  -12.20000 46.10400 40.86100
H  -11.03900 47.24100 41.41500
H  -15.02900 42.77900 41.00100
H  -15.26500 41.10500 43.53800
H  -15.24900 44.39600 42.54800
H  -13.72700 43.93800 43.28600
H  -15.21400 43.16200 43.82100
H  -16.37500 39.69800 41.18800
H  -17.01800 41.30900 41.16500
H  -18.53800 40.71100 42.55900
H  -17.29900 40.50300 43.86900
H  -17.89800 39.12600 42.79000
H  -15.69700 36.05000 42.01100
H  -14.93000 35.29900 43.45700
H  -15.00600 34.50300 41.85900
H  -10.68900 34.98200 39.22800
H  -7.67100 31.64500 39.54700
H  -8.48400 31.88300 41.22600
H  -7.16400 32.95800 40.57600

