158

Mg 48.22500 24.92000 28.60300
C  49.10900 27.21900 31.23300
C  47.19000 22.80400 31.05700
C  47.87200 22.72800 26.18400
C  49.59800 27.21700 26.36100
N  48.18300 25.10100 30.82400
C  48.47900 26.10300 31.67100
C  48.15300 25.71300 33.10700
C  47.65400 24.21400 33.03600
C  47.71400 24.02000 31.55500
C  48.40600 23.15500 33.88900
C  47.08400 26.67500 33.73000
C  47.30300 27.05700 35.22200
H  46.12900 26.98400 36.15000
N  47.67500 23.04400 28.58700
C  47.15400 22.39400 29.69200
C  46.62000 21.15400 29.25100
C  46.87700 21.01600 27.84900
C  47.50100 22.28400 27.45400
C  45.95700 20.17900 30.18000
C  46.44700 19.97700 26.79600
O  46.65100 20.03000 25.60600
C  45.63600 18.77100 27.37900
N  48.78500 24.96800 26.60400
C  48.35800 23.96100 25.79000
C  48.53500 24.26300 24.26300
C  48.95200 25.79500 24.32700
C  49.18900 25.99400 25.84100
C  49.58800 23.24500 23.62600
C  47.84300 26.76600 23.68000
C  46.49300 26.97300 24.42000
N  49.14400 26.88800 28.70700
C  49.70600 27.63500 27.70200
C  50.29900 28.83300 28.27900
C  50.05800 28.72300 29.63000
C  49.39500 27.51100 29.86600
C  50.94500 30.01600 27.54600
C  50.19700 29.41100 30.82300
O  50.77600 30.44500 31.05200
C  49.57900 28.49500 31.98200
C  50.73900 28.26300 32.97400
O  51.71000 27.54100 32.74600
O  50.65800 29.11900 34.01200
C  51.60100 28.95500 35.16200
H  46.66000 22.22900 31.82000
H  47.61400 22.11300 25.31900
H  49.93600 27.99000 25.66700
H  49.11600 25.80800 33.60700
H  46.59200 24.09500 33.25000
H  49.01800 23.66100 34.63500
H  49.03400 22.62900 33.17000
H  47.61600 22.51900 34.28900
H  46.12400 26.16300 33.65600
H  46.95000 27.61500 33.19500
H  47.58000 28.11000 35.16200
H  48.13900 26.48700 35.62700
H  45.01800 20.18900 29.62600
H  45.85400 20.54000 31.20400
H  46.60700 19.30500 30.22700
H  46.10100 18.29400 28.24200
H  45.57000 17.99600 26.61500
H  44.65600 19.18400 27.61900
H  47.59600 24.05300 23.75000
H  49.94800 25.91100 23.90000
H  49.23600 22.81300 22.69000
H  49.83100 22.46600 24.34900
H  50.47200 23.83500 23.38500
H  47.69900 26.35800 22.68000
H  48.31100 27.74500 23.58500
H  46.02300 27.93700 24.22500
H  46.75900 26.95100 25.47700
H  45.80600 26.17600 24.13800
H  51.12300 30.85600 28.21700
H  50.28700 30.28600 26.72000
H  51.87000 29.76100 27.03000
H  48.75500 28.98700 32.50000
H  52.40500 28.23800 34.99700
H  50.92300 28.65200 35.96000
H  51.89000 29.93100 35.55300
Mg -2.42700 33.81600 27.39400
C  -4.35100 31.87100 29.58200
C  -1.24500 35.60300 30.22400
C  -1.24500 36.15000 25.40600
C  -4.22600 32.47500 24.66400
N  -2.91400 33.84500 29.61600
C  -3.59600 32.85000 30.30500
C  -3.52200 33.02100 31.83700
C  -2.69800 34.34900 31.96100
C  -2.34000 34.69300 30.51200
C  -3.36100 35.64800 32.65600
C  -2.95000 31.84900 32.68500
C  -3.53100 31.64100 34.09500
H  -2.70500 31.40400 35.40000
N  -1.09400 35.42900 27.75100
C  -0.76300 36.00900 28.92500
C  0.25000 37.08000 28.59300
C  0.25400 37.24600 27.18800
C  -0.63600 36.25300 26.65700
C  0.99500 37.84400 29.56700
C  1.21400 38.13900 26.34100
O  1.10600 38.08400 25.09500
C  2.20400 39.14900 26.96200
N  -2.67200 34.21500 25.42100
C  -2.12500 35.30300 24.84400
C  -2.35000 35.37800 23.36200
C  -3.16000 34.09000 23.03800
C  -3.37400 33.54200 24.46400
C  -3.08600 36.67500 23.00800
C  -2.51400 33.06700 22.08500
C  -1.24600 32.26500 22.61000
N  -3.89400 32.42000 27.07500
C  -4.48900 31.89100 25.97300
C  -5.35200 30.77300 26.33500
C  -5.29400 30.72400 27.70100
C  -4.50000 31.81200 28.16600
C  -6.21000 29.98200 25.36900
C  -5.78000 30.03500 28.87700
O  -6.57200 29.09100 29.00900
C  -5.04500 30.72900 30.17600
C  -6.14600 31.19900 31.15200
O  -6.93500 32.04200 30.94200
O  -6.01000 30.49400 32.37200
C  -7.13400 30.70400 33.36500
H  -0.79700 36.12100 31.07500
H  -0.84500 36.95400 24.78400
H  -4.78300 31.98200 23.86400
H  -4.53600 33.25000 32.16600
H  -1.77300 34.22200 32.52300
H  -2.83300 35.90900 33.57300
H  -4.38200 35.42300 32.96300
H  -3.38100 36.50400 31.98200
H  -1.96800 32.14600 33.05500
H  -2.76300 30.94200 32.11000
H  -4.09600 30.71100 34.16100
H  -4.29300 32.40900 34.22800
H  2.05100 37.57200 29.56100
H  0.59900 37.60000 30.55300
H  0.76600 38.89900 29.41500
H  1.74800 39.84600 27.66500
H  2.52900 39.80200 26.15200
H  2.92800 38.51700 27.47400
H  -1.42100 35.30200 22.79700
H  -4.09000 34.43700 22.58700
H  -2.40800 37.43800 22.62500
H  -3.64400 37.04900 23.86500
H  -3.92700 36.56700 22.32300
H  -2.24700 33.53400 21.13700
H  -3.28400 32.35000 21.80200
H  -0.45600 32.29600 21.86000
H  -1.57500 31.23300 22.73600
H  -0.96300 32.50300 23.63500
H  -5.99500 28.91600 25.43100
H  -6.15200 30.33600 24.33900
H  -7.25300 30.10900 25.65800
H  -4.54100 29.92700 30.71500
H  -6.89500 31.58500 33.96100
H  -7.21000 29.78900 33.95300
H  -8.10100 30.87100 32.89100

