158

Mg 47.22100 34.08000 26.61500
C  45.06500 33.08200 29.13100
C  48.24600 36.70500 28.60000
C  48.72800 35.20200 23.86500
C  46.21100 31.23600 24.57500
N  46.66300 34.80000 28.61300
C  45.81800 34.26500 29.50700
C  45.99100 34.81900 30.86800
C  46.65400 36.14000 30.51100
C  47.26500 35.93000 29.17100
C  45.74700 37.41500 30.57800
C  46.89300 33.85300 31.80600
C  46.84300 33.93900 33.32300
H  46.12300 35.09600 33.95500
N  48.21400 35.79200 26.20300
C  48.59800 36.75000 27.17500
C  49.42700 37.69000 26.57000
C  49.55700 37.34800 25.16900
C  48.79700 36.03400 24.98800
C  50.16200 38.80000 27.36200
C  50.07600 38.13500 23.94800
O  50.19400 37.61900 22.76500
C  50.51400 39.53900 24.21200
N  47.56800 33.22300 24.66200
C  48.14100 33.94800 23.72800
C  48.18900 33.23900 22.28200
C  47.72500 31.80800 22.63500
C  47.18000 32.03000 24.05600
C  47.30400 33.92300 21.22000
C  48.82100 30.67300 22.58700
C  49.70500 30.40800 23.79900
N  45.89900 32.42300 26.77900
C  45.56800 31.40300 25.86900
C  44.69700 30.46800 26.59700
C  44.40900 31.16700 27.82700
C  45.11500 32.35800 27.85000
C  44.32700 29.01300 26.17300
C  43.74000 30.93800 29.10000
O  43.02500 30.07300 29.52900
C  44.00500 32.33300 29.87700
C  44.22600 31.87200 31.23300
O  45.11500 31.10000 31.59800
O  43.17900 32.27000 31.99000
C  43.38100 32.05500 33.41800
H  48.64300 37.48000 29.26000
H  49.11800 35.46200 22.87900
H  45.85800 30.36600 24.01700
H  44.99800 34.85900 31.31600
H  47.58400 36.38400 31.02500
H  45.92800 38.06900 31.43000
H  44.67500 37.22300 30.61700
H  45.92100 37.94700 29.64200
H  47.85400 34.27200 31.50600
H  46.87700 32.81000 31.49100
H  47.86000 33.94200 33.71500
H  46.36000 33.04900 33.72500
H  50.78300 38.39100 28.15900
H  49.40400 39.39900 27.86600
H  50.88200 39.34800 26.75400
H  50.53500 39.99900 23.22400
H  51.51500 39.63800 24.63300
H  49.84100 40.04600 24.90400
H  49.15500 33.06900 21.80800
H  46.91500 31.52500 21.96200
H  46.91900 34.91700 21.44500
H  46.45100 33.25300 21.11900
H  47.83800 33.94400 20.27000
H  49.51900 30.97500 21.80600
H  48.34200 29.73500 22.30600
H  49.30200 30.96300 24.64600
H  50.68300 30.77800 23.49000
H  49.67300 29.37200 24.13600
H  44.50300 28.27300 26.95400
H  44.95200 28.75400 25.31900
H  43.27000 29.09400 25.92000
H  43.12000 32.96700 29.93400
H  44.09900 32.74800 33.85700
H  43.52300 30.99600 33.63200
H  42.48800 32.33500 33.97700
Mg 41.85800 41.52500 26.04800
C  41.58800 43.85100 28.67000
C  42.67900 39.14800 28.26700
C  43.09500 39.72800 23.41400
C  41.33800 44.26600 23.86600
N  42.12300 41.52100 28.27300
C  41.76600 42.53600 29.14800
C  41.71900 41.99600 30.55600
C  42.04100 40.43500 30.38900
C  42.28900 40.37500 28.86100
C  43.26500 39.94400 31.28500
C  40.29500 42.26100 31.21000
C  40.09500 41.73200 32.60800
H  39.73800 42.91600 33.56700
N  42.61300 39.54900 25.82400
C  42.88700 38.73700 26.86200
C  43.42300 37.50900 26.36700
C  43.53200 37.65900 24.94900
C  43.09300 39.03800 24.61600
C  43.80500 36.34000 27.27900
C  44.15100 36.73900 23.90400
O  44.14500 37.02400 22.73900
C  44.80100 35.46500 24.42900
N  42.17600 41.95300 23.89900
C  42.55900 40.99200 23.07300
C  42.18400 41.46500 21.55500
C  41.34300 42.78900 21.79000
C  41.57800 42.99600 23.28200
C  43.47600 41.67200 20.71400
C  39.85500 42.49500 21.43200
C  39.02000 41.42500 22.25600
N  41.41700 43.53400 26.19300
C  41.21100 44.55300 25.24100
C  40.80600 45.75000 25.81100
C  41.01500 45.56000 27.15200
C  41.44300 44.22200 27.32300
C  40.34400 47.02600 25.08600
C  40.83600 46.19200 28.42900
O  40.39800 47.27100 28.79400
C  41.17400 45.09800 29.48300
C  42.16300 45.59000 30.59500
O  43.36700 45.78100 30.41400
O  41.54700 45.75500 31.81600
C  42.39200 45.96200 32.96200
H  42.86200 38.30000 28.93100
H  43.49600 39.19800 22.54800
H  41.03700 44.97100 23.08800
H  42.41800 42.56500 31.17000
H  41.18400 39.84900 30.72000
H  43.14900 38.93000 31.66500
H  43.41800 40.65600 32.09600
H  44.09700 40.01800 30.58400
H  39.51800 41.95800 30.50700
H  40.12800 43.33300 31.31500
H  41.06500 41.40800 32.98700
H  39.31400 40.99400 32.79200
H  43.41900 36.43400 28.29400
H  44.89300 36.29100 27.31400
H  43.45600 35.34000 27.02300
H  44.01000 34.80500 24.78400
H  45.36300 35.64800 25.34500
H  45.43000 35.07700 23.62800
H  41.47700 40.78800 21.07600
H  41.62900 43.65100 21.18800
H  43.35200 41.39300 19.66800
H  44.31400 41.11600 21.13500
H  43.80500 42.70000 20.86600
H  39.77900 42.16800 20.39500
H  39.50900 43.52600 21.50700
H  38.13000 41.93700 22.62100
H  39.61800 40.99100 23.05700
H  38.67000 40.62800 21.60000
H  41.12200 47.71400 24.75700
H  39.74500 47.58200 25.80800
H  39.81500 46.71300 24.18600
H  40.15900 44.97700 29.86100
H  42.34500 45.02700 33.51900
H  42.00900 46.73500 33.62900
H  43.38100 46.29600 32.64900

