158

Mg 34.98900 3.33000 29.38500
C  33.12800 4.38600 32.14300
C  37.71900 3.04700 31.60500
C  36.96100 2.32300 26.87000
C  32.43500 4.03000 27.39500
N  35.35100 3.66300 31.64200
C  34.46700 4.08500 32.56000
C  34.97500 4.04600 33.98900
C  36.52600 3.79600 33.78500
C  36.52200 3.45000 32.25400
C  37.30400 5.10700 34.20500
C  34.32500 2.92500 34.87300
C  34.14200 3.08900 36.40500
H  34.77500 4.29000 37.06500
N  37.08000 2.83300 29.27900
C  38.06300 2.77900 30.29100
C  39.34600 2.29300 29.72600
C  39.13900 2.02900 28.31000
C  37.70800 2.45800 28.09000
C  40.55500 2.16400 30.63700
C  40.01000 1.45900 27.22100
O  39.54900 1.28400 26.07500
C  41.27600 0.93300 27.63600
N  34.77100 3.31600 27.45700
C  35.62600 2.64600 26.60900
C  35.07900 2.44900 25.17400
C  33.68500 3.05900 25.35700
C  33.56900 3.48700 26.87000
C  35.92500 3.16100 24.02700
C  32.54800 2.04900 24.93400
C  31.73600 2.64900 23.78600
N  33.16300 3.94400 29.65100
C  32.18200 4.17500 28.72200
C  30.83800 4.48800 29.38900
C  31.23300 4.63700 30.75600
C  32.64800 4.32000 30.86500
C  29.49200 4.73700 28.73800
C  30.73800 4.93000 32.05300
O  29.62100 5.20100 32.42500
C  31.92500 4.87700 32.94900
C  31.95300 6.17800 33.54800
O  32.61400 7.12600 33.21800
O  31.22100 6.17300 34.72500
C  31.34700 7.38300 35.58100
H  38.58900 3.07700 32.26500
H  37.35500 1.96500 25.91600
H  31.60100 4.05900 26.69100
H  34.73800 5.04800 34.34700
H  36.95200 2.93200 34.29700
H  38.29500 4.86600 34.58900
H  36.70900 5.54000 35.00900
H  37.46900 5.72900 33.32600
H  34.77900 1.96000 34.64600
H  33.29400 2.90700 34.52100
H  34.55100 2.24700 36.96400
H  33.07500 3.19800 36.59800
H  41.26900 1.42900 30.26700
H  40.18600 1.80100 31.59700
H  41.24600 3.00700 30.64600
H  41.80000 1.81700 27.99800
H  41.70800 0.48500 26.74100
H  41.18700 0.08800 28.31800
H  35.04200 1.37600 24.98900
H  33.69100 3.95900 24.74300
H  36.67100 2.45400 23.66300
H  36.41300 4.09500 24.30700
H  35.25900 3.37300 23.19100
H  31.80400 2.01700 25.73000
H  32.97200 1.06900 24.71600
H  31.28700 1.78700 23.29200
H  32.32800 3.20300 23.05700
H  30.93000 3.22200 24.24500
H  28.92800 3.82100 28.56400
H  29.57100 5.38200 27.86300
H  28.88500 5.27200 29.46900
H  31.82700 4.11100 33.71900
H  30.99800 8.34300 35.20000
H  32.39800 7.41400 35.87000
H  30.89300 7.17500 36.55000
Mg -12.79900 37.39900 41.74500
C  -10.19800 35.00900 40.89500
C  -11.27100 39.56000 39.53600
C  -15.62300 39.03700 41.76900
C  -14.23000 34.87000 43.68100
N  -11.02100 37.21900 40.25600
C  -10.06400 36.22100 40.22200
C  -8.82400 36.60100 39.34600
C  -9.05300 38.12700 39.39100
C  -10.61100 38.29900 39.59800
C  -8.20800 38.94100 40.41200
C  -8.84500 35.92800 37.95100
C  -7.53400 35.30700 37.47300
H  -6.63600 36.20300 36.56700
N  -13.34600 39.07200 40.81400
C  -12.54500 39.88800 40.00600
C  -13.21100 41.15700 39.77100
C  -14.57100 41.05200 40.38200
C  -14.57900 39.62500 41.00100
C  -12.63100 42.27300 39.02600
C  -15.60100 42.08500 40.43100
O  -15.35800 43.11500 39.82500
C  -16.89200 41.91200 41.13200
N  -14.79700 36.84500 42.28800
C  -15.69800 37.80400 42.34600
C  -16.88200 37.39300 43.28600
C  -16.44800 36.04100 43.92200
C  -15.07100 35.88400 43.27700
C  -17.30200 38.49600 44.29200
C  -17.39100 34.84500 43.86200
C  -18.07500 34.40100 45.16800
N  -12.24500 35.40500 42.31300
C  -12.96900 34.54100 43.14800
C  -12.19800 33.32800 43.24700
C  -11.07300 33.53500 42.40800
C  -11.21900 34.76300 41.80700
C  -12.63900 32.21800 44.12500
C  -9.87500 32.84100 41.96500
O  -9.44400 31.68300 42.25900
C  -9.19600 33.81900 40.96700
C  -7.86100 34.19000 41.69600
O  -6.78400 33.63100 41.49200
O  -8.00600 35.14200 42.68700
C  -6.88500 35.39200 43.63400
H  -10.72600 40.24300 38.88000
H  -16.50200 39.61300 42.06600
H  -14.57100 34.22200 44.49100
H  -7.92700 36.32900 39.90200
H  -8.86000 38.53600 38.39900
H  -8.90300 39.16000 41.22300
H  -7.80600 39.83900 39.94300
H  -7.46600 38.23000 40.77600
H  -9.00300 36.75000 37.25300
H  -9.70100 35.26000 37.85500
H  -7.65400 34.38100 36.91100
H  -6.95200 35.03300 38.35300
H  -12.92600 43.22100 39.47600
H  -12.85400 42.14800 37.96600
H  -11.55000 42.22800 39.15400
H  -17.35000 40.97100 40.82800
H  -17.51600 42.77000 40.88100
H  -16.67900 41.75800 42.19000
H  -17.70900 37.15600 42.61700
H  -16.29700 36.20900 44.98800
H  -16.54900 39.28300 44.32000
H  -17.43200 37.99800 45.25300
H  -18.29100 38.90900 44.09200
H  -16.80400 34.05000 43.40300
H  -18.13700 35.22000 43.16200
H  -19.14400 34.61200 45.18400
H  -17.65900 34.95200 46.01100
H  -17.96500 33.33800 45.38400
H  -13.50100 32.61100 44.66400
H  -11.91500 32.03100 44.91800
H  -12.80900 31.31700 43.53500
H  -9.00300 33.17100 40.11200
H  -6.50700 36.40300 43.48500
H  -6.07800 34.67500 43.48300
H  -7.25200 35.26700 44.65200

