158

Mg 25.65000 -0.49800 29.40000
C  27.36800 -0.97200 32.36700
C  22.86800 0.19800 31.16800
C  23.85200 -0.52800 26.39100
C  28.44000 -1.60300 27.67600
N  25.17300 -0.53400 31.58500
C  26.06500 -0.60100 32.60500
C  25.43900 -0.32700 33.98700
C  24.02400 0.15600 33.57400
C  23.99500 -0.04500 32.01300
C  22.80800 -0.59100 34.19200
C  26.13200 0.78600 34.87200
C  26.96400 0.35200 36.08500
H  26.88500 1.20900 37.31800
N  23.62500 -0.26200 28.86700
C  22.63700 -0.01200 29.77900
C  21.36000 0.18900 29.10000
C  21.64000 0.08900 27.70500
C  23.08100 -0.28400 27.57800
C  19.97000 0.28800 29.86400
C  20.76700 0.17000 26.46700
O  21.19600 0.07200 25.32300
C  19.29800 0.51400 26.59300
N  25.96600 -1.23200 27.32400
C  25.15700 -1.01900 26.25600
C  25.90100 -1.17300 24.83600
C  27.42800 -1.15200 25.34700
C  27.31700 -1.26200 26.90000
C  25.47000 -2.55900 24.21300
C  28.29900 0.13100 25.07500
C  29.63100 -0.12800 24.29100
N  27.52600 -1.19800 29.90100
C  28.59800 -1.54800 29.07400
C  29.75300 -1.76200 29.84900
C  29.33900 -1.67100 31.17500
C  27.99300 -1.21800 31.11200
C  31.19800 -2.09800 29.43100
C  29.75700 -1.83700 32.55000
O  30.78900 -1.99700 33.13100
C  28.47300 -1.49700 33.40500
C  28.10600 -2.53200 34.44500
O  27.21400 -3.33800 34.26000
O  28.85700 -2.37300 35.58200
C  28.63500 -3.35500 36.67400
H  21.97100 0.64600 31.60000
H  23.36500 -0.33500 25.43200
H  29.36400 -1.71900 27.10600
H  25.27000 -1.28900 34.47100
H  23.84900 1.21800 33.74400
H  22.60100 -1.46600 33.57600
H  21.90700 0.01800 34.26700
H  22.98400 -1.00200 35.18600
H  25.37600 1.46400 35.26900
H  26.84900 1.38400 34.30900
H  27.99200 0.25800 35.73400
H  26.73400 -0.65400 36.43500
H  19.28200 0.99500 29.40100
H  20.17200 0.37100 30.93200
H  19.35000 -0.60200 29.76400
H  18.93900 0.47100 25.56400
H  19.13000 1.36500 27.25200
H  18.86700 -0.32000 27.14700
H  25.77500 -0.29600 24.20100
H  27.92200 -2.05100 24.97800
H  24.93200 -3.12200 24.97700
H  26.32400 -3.15100 23.88600
H  24.78700 -2.21500 23.43600
H  28.58100 0.57400 26.03000
H  27.66700 0.84800 24.55000
H  29.46800 -0.79100 23.44200
H  30.39400 -0.50200 24.97300
H  29.86400 0.90600 24.03800
H  31.30100 -3.12900 29.09300
H  31.81600 -1.92100 30.31100
H  31.47700 -1.48700 28.57300
H  28.85000 -0.61400 33.92200
H  28.90500 -4.27900 36.16400
H  27.63500 -3.38500 37.10800
H  29.27600 -3.16700 37.53600
Mg -9.69100 17.56600 42.58300
C  -6.39700 16.71800 42.02300
C  -8.89900 20.71600 41.46400
C  -13.06400 18.14600 42.30700
C  -10.49900 14.21000 43.07500
N  -7.84900 18.61200 41.90500
C  -6.58400 18.09100 41.81500
C  -5.48100 19.04200 41.39200
C  -6.31400 20.31900 41.16100
C  -7.79100 19.86600 41.51600
C  -5.82100 21.64000 42.01300
C  -4.63400 18.72800 40.14400
C  -5.41300 17.90500 38.99900
H  -5.40200 18.60300 37.62400
N  -10.80800 19.21000 42.21500
C  -10.30000 20.41600 41.73400
C  -11.41900 21.38000 41.61100
C  -12.61900 20.62600 41.89500
C  -12.19500 19.26900 42.14600
C  -11.24700 22.80800 41.16500
C  -13.95300 21.29400 41.96300
O  -14.18800 22.34700 41.36700
C  -15.13400 20.59900 42.63400
N  -11.54300 16.33500 42.61700
C  -12.75500 16.87100 42.66000
C  -13.81500 15.90000 43.15400
C  -12.99600 14.60900 43.48300
C  -11.54700 15.11000 43.01400
C  -14.63200 16.44400 44.41000
C  -13.43400 13.39000 42.61900
C  -13.84000 12.20100 43.48200
N  -8.69600 15.80400 42.68800
C  -9.10600 14.50500 42.88300
C  -7.96900 13.61100 42.94300
C  -6.89200 14.47700 42.61200
C  -7.37400 15.73700 42.38400
C  -7.88900 12.13700 43.40100
C  -5.46400 14.52100 42.42100
O  -4.75400 13.60200 42.51200
C  -5.03300 16.01300 41.99500
C  -4.19800 16.42600 43.16100
O  -3.01200 16.84300 43.11600
O  -4.91800 16.31600 44.30900
C  -4.33100 16.51100 45.59700
H  -8.69100 21.70000 41.03900
H  -14.14100 18.32100 42.34800
H  -10.72400 13.15800 43.26300
H  -4.83100 19.11400 42.26400
H  -6.44200 20.60100 40.11600
H  -5.54200 22.40100 41.28500
H  -4.94900 21.39500 42.61800
H  -6.55300 22.09400 42.68200
H  -3.78700 18.21100 40.59300
H  -4.30000 19.69100 39.75700
H  -6.43800 17.71200 39.31600
H  -4.99600 16.91500 38.81600
H  -10.33400 23.34600 41.42300
H  -11.97400 23.50400 41.58400
H  -11.33900 22.83400 40.07900
H  -14.83000 20.03600 43.51600
H  -15.62700 19.87300 41.98800
H  -15.92000 21.33400 42.80800
H  -14.45000 15.81700 42.27200
H  -13.02600 14.42500 44.55700
H  -15.71600 16.36900 44.32200
H  -14.43500 17.48400 44.66800
H  -14.35600 15.77600 45.22600
H  -12.57100 13.14600 42.00000
H  -14.29800 13.61900 41.99600
H  -14.92800 12.22500 43.54500
H  -13.40000 12.32100 44.47200
H  -13.59200 11.23000 43.05300
H  -7.16600 11.66400 42.73700
H  -8.87100 11.66400 43.36400
H  -7.60300 12.11700 44.45300
H  -4.47200 15.94200 41.06300
H  -4.93700 15.95500 46.31200
H  -4.31000 17.57600 45.82600
H  -3.28900 16.19000 45.62100

