158

Mg 26.47900 50.30100 26.47100
C  24.28200 51.68000 28.99400
C  28.49700 49.28100 28.87900
C  28.72100 49.42900 24.11100
C  24.37800 51.91000 24.08000
N  26.33000 50.49000 28.66900
C  25.36800 50.96700 29.54700
C  25.73200 50.82000 31.05100
C  27.13100 50.17400 30.88400
C  27.35100 49.97000 29.35400
C  28.32900 51.04700 31.49100
C  24.57400 50.00800 31.81200
C  24.15500 50.47900 33.26600
H  25.17200 50.88400 34.27000
N  28.33000 49.42700 26.49100
C  28.96200 48.97400 27.57500
C  30.21300 48.32500 27.19900
C  30.31800 48.37300 25.78400
C  29.10500 49.08400 25.42500
C  31.20200 47.74900 28.20000
C  31.33700 47.75900 24.82000
O  31.25700 47.82800 23.58700
C  32.63300 47.14500 25.36900
N  26.44100 50.55100 24.37500
C  27.49800 50.06100 23.61200
C  27.25900 50.28400 22.10400
C  25.81600 50.97100 22.16200
C  25.49500 51.11000 23.61700
C  28.24100 51.24000 21.31600
C  24.65100 50.15600 21.50400
C  24.68900 48.61300 21.46000
N  24.73000 51.56600 26.46500
C  24.00600 52.03400 25.41700
C  22.84400 52.71000 25.85600
C  22.93700 52.57600 27.26500
C  24.10200 51.82800 27.57200
C  21.87200 53.46800 24.95900
C  22.24300 52.93000 28.45700
O  21.17900 53.51900 28.68100
C  23.09200 52.37100 29.67200
C  23.45000 53.52900 30.51500
O  24.11400 54.51800 30.17800
O  22.86100 53.42200 31.78400
C  22.75100 54.62700 32.58400
H  29.09000 48.84600 29.68600
H  29.29800 49.16600 23.22200
H  23.87600 52.50000 23.31100
H  25.65400 51.79900 31.52300
H  27.11300 49.21300 31.39700
H  28.02900 52.07600 31.69100
H  29.21100 50.90600 30.86600
H  28.55700 50.47400 32.39000
H  25.02300 49.02400 31.94800
H  23.72500 49.99000 31.12800
H  23.47100 49.80800 33.78500
H  23.54500 51.34500 33.00700
H  31.93000 48.55500 28.30000
H  31.68800 46.82600 27.88400
H  30.71300 47.61700 29.16500
H  33.16200 47.95300 25.87500
H  33.24400 46.73300 24.56600
H  32.53600 46.26400 26.00400
H  27.14200 49.28700 21.67800
H  25.63000 51.93400 21.68800
H  29.18100 51.42000 21.83600
H  27.65600 52.14400 21.15000
H  28.44400 50.87500 20.30900
H  24.46300 50.46200 20.47500
H  23.71900 50.41100 22.00800
H  23.75100 48.23300 21.86500
H  25.53100 48.23000 22.03600
H  24.80400 48.24500 20.44000
H  22.33100 53.81500 24.03300
H  21.46900 54.32800 25.49400
H  21.07600 52.76400 24.71600
H  22.39800 51.67300 30.14200
H  21.78500 54.58200 33.08700
H  22.78500 55.62400 32.14600
H  23.48800 54.49500 33.37700
Mg 9.48800 48.62600 25.47600
C  7.37100 49.29700 28.16000
C  12.12300 49.98000 27.26200
C  11.63100 48.14400 22.77200
C  6.81100 48.03100 23.45500
N  9.73400 49.52200 27.45200
C  8.73400 49.57700 28.42000
C  9.38700 49.94900 29.73400
C  10.66600 50.72500 29.24500
C  10.88200 50.01700 27.90100
C  10.56600 52.30900 29.28800
C  9.61800 48.61600 30.56000
C  9.18700 48.77900 32.02100
H  8.97200 47.44000 32.88300
N  11.57900 48.86900 25.22000
C  12.48900 49.49300 26.01500
C  13.80600 49.35800 25.38900
C  13.65700 48.66500 24.16900
C  12.25600 48.52700 24.03100
C  15.07500 49.77900 26.15400
C  14.74400 48.06000 23.19700
O  14.46300 47.36600 22.24900
C  16.12000 48.32700 23.41100
N  9.20400 48.19500 23.37700
C  10.22800 47.91900 22.48300
C  9.69300 47.41500 21.15300
C  8.15400 47.38200 21.46900
C  8.01900 47.83700 22.83400
C  10.10300 48.25100 19.89500
C  7.48700 45.94300 21.22200
C  6.02300 45.90300 20.65700
N  7.45600 48.76100 25.68600
C  6.45700 48.46100 24.76800
C  5.20100 48.56800 25.37000
C  5.53000 48.80300 26.78200
C  6.92000 48.97800 26.87100
C  3.86800 48.22400 24.72200
C  4.97100 48.90000 28.09900
O  3.91100 48.65300 28.42000
C  6.09200 49.35100 29.06500
C  5.97500 48.23000 30.16100
O  6.46800 47.12300 30.04300
O  5.14400 48.64500 31.12800
C  4.76300 47.70200 32.20500
H  12.87300 50.33500 27.97100
H  12.24000 47.91000 21.89600
H  5.90900 47.90400 22.85300
H  8.76400 50.70400 30.21400
H  11.49000 50.45200 29.90500
H  10.70100 52.69600 30.29700
H  9.58400 52.67700 28.99300
H  11.31900 52.75600 28.63800
H  10.63400 48.22200 30.54800
H  9.03800 47.81900 30.09400
H  8.30400 49.41400 32.10500
H  9.86900 49.47700 32.50600
H  15.49000 48.81600 26.45300
H  14.80400 50.38500 27.01900
H  15.74300 50.36700 25.52600
H  16.27600 49.38200 23.18200
H  16.69800 47.67100 22.76000
H  16.14100 48.16100 24.48800
H  10.18100 46.44100 21.20400
H  7.60400 48.14500 20.91900
H  10.77400 49.09700 20.04700
H  9.20100 48.66300 19.44300
H  10.49900 47.66600 19.06500
H  7.35700 45.43400 22.17800
H  8.12200 45.31700 20.59600
H  5.75900 46.94400 20.47300
H  5.42500 45.50700 21.47800
H  5.88500 45.28800 19.76700
H  3.26500 47.46700 25.22400
H  3.94800 47.95900 23.66700
H  3.22100 49.10100 24.71900
H  5.85200 50.32100 29.50100
H  4.98600 46.65400 32.00700
H  3.68500 47.84800 32.27400
H  5.01000 47.94000 33.24000

