158

Mg 35.85500 1.38700 29.55400
C  33.78500 2.22100 32.17100
C  38.54800 1.54700 31.63700
C  37.70200 0.93300 26.87700
C  33.01400 2.11300 27.32500
N  36.04100 1.69700 31.64100
C  35.09600 1.90800 32.59900
C  35.68600 2.14100 33.98600
C  37.21300 2.09000 33.73100
C  37.28800 1.82100 32.24900
C  37.99700 3.33900 34.27600
C  35.19100 1.01900 34.97200
C  34.83100 1.49100 36.43800
H  35.60800 2.66000 36.94700
N  37.84900 1.11900 29.25300
C  38.80900 1.25800 30.26400
C  40.09300 0.96900 29.71000
C  39.84800 0.67700 28.33200
C  38.38800 0.85200 28.12100
C  41.44800 1.09500 30.47300
C  40.86800 0.45900 27.20400
O  40.55500 0.29700 26.03100
C  42.31400 0.43500 27.54700
N  35.47100 1.58000 27.43500
C  36.43000 1.26700 26.55100
C  35.92500 1.24300 25.09900
C  34.43500 1.54100 25.29400
C  34.24700 1.77400 26.73100
C  36.54200 2.18600 24.05100
C  33.48500 0.35800 24.82500
C  33.23500 -0.79100 25.87100
N  33.86300 2.11800 29.61200
C  32.82400 2.30900 28.70400
C  31.62800 2.66800 29.43600
C  31.98500 2.61500 30.77300
C  33.35100 2.29800 30.80600
C  30.45700 3.01400 28.81500
C  31.54500 2.94100 32.10400
O  30.48700 3.45900 32.44700
C  32.66800 2.66000 33.10600
C  32.97700 3.85200 33.81800
O  33.44000 4.88100 33.32500
O  32.62400 3.67000 35.12000
C  32.34800 4.81000 35.93600
H  39.38100 1.58300 32.34200
H  38.25400 0.66400 25.97400
H  32.12800 2.38500 26.74700
H  35.34800 3.15600 34.19500
H  37.60200 1.23400 34.28300
H  38.63100 3.14900 35.14200
H  37.34300 4.15400 34.58400
H  38.60600 3.86900 33.54400
H  36.05000 0.37000 35.14400
H  34.41300 0.49600 34.41600
H  34.94500 0.70000 37.17900
H  33.74900 1.62400 36.42400
H  41.27400 1.27600 31.53400
H  42.05100 1.95000 30.16500
H  42.01000 0.16100 30.45600
H  42.40300 -0.33500 28.31300
H  42.60100 1.33300 28.09300
H  42.81600 0.19900 26.60800
H  36.15600 0.19600 24.90700
H  34.19000 2.46500 24.76900
H  37.21900 2.94800 24.43600
H  35.86700 2.72300 23.38500
H  37.13800 1.61600 23.33900
H  34.10000 -0.20700 24.12400
H  32.53800 0.70600 24.41200
H  33.45000 -0.62700 26.92600
H  33.99400 -1.55000 25.67800
H  32.26500 -1.26900 25.73500
H  30.65600 3.82300 28.11200
H  29.74700 3.43700 29.52600
H  30.17700 2.06500 28.35800
H  32.42900 1.83300 33.77400
H  32.97400 4.68400 36.81900
H  31.29700 4.81500 36.22600
H  32.57600 5.78900 35.51300
Mg 52.58400 23.84600 45.05700
C  49.90900 25.95700 44.48000
C  50.75000 21.23500 43.74000
C  55.42900 21.98500 44.95000
C  54.38000 26.71300 46.15600
N  50.66500 23.70500 44.01500
C  49.70000 24.69300 43.99500
C  48.35100 23.98900 43.60300
C  48.61700 22.48300 43.74400
C  50.14100 22.43700 43.78800
C  47.90900 21.73600 44.97200
C  47.88100 24.48400 42.24600
C  48.87400 24.42700 41.01900
H  48.37400 23.63400 39.73400
N  53.00900 21.82600 44.49700
C  52.05300 20.94300 44.09500
C  52.73400 19.72200 43.90900
C  54.08800 19.81600 44.30000
C  54.22300 21.24100 44.60900
C  52.06700 18.49800 43.35700
C  55.11700 18.70100 44.22100
O  54.90600 17.52800 43.82600
C  56.56900 18.99600 44.61000
N  54.60200 24.29600 45.41200
C  55.60500 23.39300 45.24700
C  56.98900 24.03700 45.57900
C  56.61100 25.40800 46.14000
C  55.09400 25.53300 45.87800
C  57.90700 23.12400 46.53400
C  57.50200 26.54800 45.57300
C  58.78000 26.84400 46.32800
N  52.24700 25.91900 45.32800
C  53.00500 26.95500 45.88800
C  52.21200 28.10100 46.10700
C  50.96400 27.77100 45.51900
C  51.05800 26.48800 45.02000
C  52.71600 29.40400 46.64900
C  49.69500 28.32000 45.19400
O  49.17500 29.44100 45.32200
C  48.88100 27.17300 44.50500
C  48.54800 27.73000 43.10900
O  49.39800 27.83900 42.24000
O  47.20400 28.09000 43.06300
C  46.83700 28.65200 41.68400
H  50.05300 20.43100 43.49400
H  56.40600 21.49700 44.96300
H  54.94500 27.60100 46.45000
H  47.58200 24.33300 44.29500
H  48.30800 22.02800 42.80300
H  47.20300 22.43400 45.42200
H  48.69400 21.56400 45.70800
H  47.42700 20.83700 44.58800
H  47.40200 25.43000 42.49800
H  47.00500 23.88000 42.01000
H  49.72000 23.79200 41.28200
H  49.26000 25.42400 40.80800
H  50.98500 18.48000 43.48200
H  52.33600 17.68200 44.02800
H  52.32600 18.36900 42.30600
H  57.06400 18.02500 44.61300
H  56.45900 19.46200 45.58900
H  56.99400 19.71500 43.91000
H  57.61400 24.17300 44.69600
H  56.71100 25.29500 47.22000
H  57.22400 22.54600 47.15700
H  58.43500 23.80300 47.20400
H  58.63600 22.60600 45.91000
H  56.83700 27.41100 45.53600
H  57.74300 26.36900 44.52600
H  59.66900 26.92300 45.70300
H  59.01600 26.09900 47.08800
H  58.70400 27.78500 46.87300
H  52.42500 30.20400 45.96900
H  53.80400 29.35600 46.60900
H  52.51200 29.65900 47.68900
H  47.94200 26.93800 45.00600
H  47.66200 29.19700 41.22600
H  45.98200 29.26100 41.98000
H  46.52700 27.81400 41.06000

