158

Mg 47.54500 16.26200 29.46800
C  45.61900 16.04200 32.22500
C  49.97900 18.01900 31.37700
C  49.43700 16.75500 26.59000
C  45.02200 14.91300 27.47700
N  47.73300 17.02600 31.55500
C  46.83300 16.68900 32.50000
C  47.24800 17.35400 33.89700
C  48.52600 18.19200 33.58900
C  48.73900 17.80600 32.05700
C  48.43200 19.69200 33.87400
C  47.52600 16.18700 34.91500
C  48.12500 16.62000 36.24300
H  48.09700 18.04200 36.90100
N  49.43500 17.19500 29.03400
C  50.31100 17.68700 29.98000
C  51.64300 17.90200 29.33800
C  51.52900 17.58900 27.95000
C  50.05800 17.18900 27.78000
C  52.85500 18.35300 30.07000
C  52.51900 17.60200 26.71200
O  52.22800 17.20600 25.60700
C  53.98300 18.15300 27.00700
N  47.17200 16.02700 27.25400
C  48.15700 16.23000 26.32500
C  47.56600 16.03100 24.95800
C  46.24500 15.20800 25.14800
C  46.13200 15.33100 26.70800
C  47.54000 17.32000 24.03800
C  46.26400 13.71700 24.62700
C  44.92900 13.38200 23.90400
N  45.78600 15.47700 29.74000
C  44.82300 14.97600 28.84700
C  43.69800 14.50200 29.67400
C  43.98300 14.96900 30.98300
C  45.25000 15.49800 30.95900
C  42.50500 13.78900 29.13300
C  43.33300 15.11100 32.27100
O  42.26600 14.70000 32.66800
C  44.47000 15.79800 33.17800
C  43.97100 17.07500 33.83000
O  43.79400 18.15600 33.26300
O  44.02400 16.92900 35.19900
C  43.80200 18.10400 36.03300
H  50.81700 18.47100 31.91200
H  49.94500 16.88000 25.63200
H  44.22400 14.37900 26.95600
H  46.44600 18.01700 34.22200
H  49.45500 17.85800 34.05000
H  48.50200 20.20000 32.91300
H  49.27500 20.08800 34.44100
H  47.50800 19.99200 34.36800
H  48.22100 15.52700 34.39600
H  46.58700 15.66000 35.08400
H  49.21200 16.55300 36.21000
H  47.67500 15.93900 36.96600
H  52.61900 18.94000 30.95700
H  53.46100 19.07800 29.52600
H  53.49400 17.50100 30.30000
H  54.64900 18.24900 26.14900
H  54.50200 17.59900 27.78900
H  53.92500 19.11000 27.52600
H  48.32300 15.41700 24.47100
H  45.40800 15.77700 24.74300
H  47.66900 18.20900 24.65500
H  46.58000 17.31500 23.52200
H  48.34300 17.26700 23.30200
H  46.35100 13.15000 25.55400
H  47.11100 13.54400 23.96400
H  44.85400 13.94700 22.97500
H  44.03800 13.65200 24.47100
H  44.86300 12.31100 23.71400
H  42.58600 12.82800 29.64100
H  42.42500 13.62000 28.06000
H  41.56400 14.23200 29.45800
H  44.69200 15.00000 33.88700
H  44.77600 18.50000 36.32300
H  43.19000 17.77000 36.87200
H  43.21200 18.88400 35.55400
Mg 48.66100 35.01700 26.89700
C  46.79300 33.73600 29.53900
C  49.04000 37.92000 28.53300
C  49.70000 36.33900 23.92800
C  47.74600 32.04100 24.96300
N  48.01100 35.65000 28.88900
C  47.37600 34.96300 29.89900
C  47.33200 35.77200 31.23200
C  47.77600 37.23700 30.70300
C  48.40900 36.88300 29.33300
C  46.63900 38.31600 30.61300
C  48.49300 35.25700 32.19900
C  48.07900 35.20200 33.67800
H  48.43700 36.42100 34.55100
N  49.52400 36.77600 26.40200
C  49.61200 37.90800 27.25600
C  50.23400 39.00200 26.57700
C  50.47100 38.53300 25.22200
C  49.91600 37.14400 25.09400
C  50.60300 40.31400 27.25300
C  51.06400 39.32100 24.07900
O  51.20400 38.89700 22.92500
C  51.58100 40.76800 24.40000
N  48.82700 34.18600 24.79000
C  49.31600 34.96200 23.75200
C  49.27500 34.21700 22.37100
C  48.88100 32.77800 22.78000
C  48.50000 32.99500 24.27600
C  48.28800 34.94300 21.47200
C  50.03100 31.75000 22.57700
C  49.63700 30.60300 21.59700
N  47.48000 33.28800 27.11500
C  47.25700 32.11800 26.31800
C  46.59100 31.13800 27.11300
C  46.29700 31.85000 28.26000
C  46.90400 33.11500 28.30400
C  46.12700 29.77900 26.73900
C  45.64900 31.58600 29.50500
O  45.06400 30.58700 29.84100
C  45.83700 32.84700 30.42400
C  46.26500 32.50400 31.74300
O  47.38800 32.07600 31.98900
O  45.19600 32.56200 32.65100
C  45.50800 32.38400 34.07200
H  49.15800 38.81000 29.15400
H  49.93700 36.82000 22.97700
H  47.43300 31.17900 24.36900
H  46.36300 35.80300 31.73100
H  48.64900 37.64800 31.21100
H  47.03700 39.23700 31.03900
H  45.75700 38.08800 31.21100
H  46.35600 38.53500 29.58300
H  49.35500 35.91900 32.11400
H  48.96100 34.34100 31.83700
H  48.52800 34.36400 34.21200
H  47.03100 34.93000 33.79900
H  51.68900 40.33500 27.16800
H  50.48100 40.31600 28.33600
H  50.23200 41.22400 26.78000
H  52.13700 41.17300 23.55500
H  52.25900 40.61500 25.24000
H  50.68000 41.31200 24.68500
H  50.22700 34.27400 21.84300
H  47.99400 32.50000 22.21100
H  47.35800 35.23600 21.95900
H  48.05400 34.30800 20.61800
H  48.81400 35.84100 21.14600
H  50.31600 31.32100 23.53700
H  50.90400 32.21600 22.11900
H  49.94400 29.61900 21.95200
H  50.34800 30.67400 20.77500
H  48.61000 30.68000 21.23900
H  46.89400 29.06600 27.04100
H  45.88000 29.74500 25.67800
H  45.23400 29.56900 27.32800
H  44.90300 33.40600 30.47600
H  44.85500 31.62400 34.50100
H  45.24700 33.30800 34.58800
H  46.52900 32.14900 34.37200

