158

Mg 2.81400 -0.35500 43.74900
C  6.27100 -0.17400 43.13000
C  2.43400 2.71200 42.09700
C  -0.45000 -1.08200 43.32600
C  3.31100 -3.58800 44.83900
N  4.23000 0.98700 42.73300
C  5.54900 0.90100 42.66000
C  6.13300 2.27000 42.13100
C  4.93900 3.18700 42.07000
C  3.76800 2.17400 42.23700
C  4.86100 4.26800 43.20300
C  6.85000 2.07700 40.74000
C  6.03800 1.32500 39.63800
H  5.97000 1.99700 38.26400
N  1.17100 0.83400 42.96300
C  1.21700 2.05800 42.39400
C  -0.17800 2.42700 42.05300
C  -0.99100 1.26500 42.35100
C  -0.07200 0.24100 42.87600
C  -0.59300 3.73900 41.42600
C  -2.44700 1.13100 42.00600
O  -2.99300 2.19000 41.72800
C  -3.26300 -0.15000 42.11200
N  1.66500 -2.02400 43.93200
C  0.32800 -2.13600 43.85000
C  -0.25500 -3.53400 44.09400
C  0.99100 -4.29800 44.61900
C  2.07100 -3.22800 44.45500
C  -1.53500 -3.51500 44.99100
C  1.33100 -5.74900 44.11800
C  1.46100 -6.88300 45.24100
N  4.43000 -1.64000 44.08500
C  4.44200 -2.86900 44.62700
C  5.84500 -3.31700 44.80700
C  6.62000 -2.29200 44.28600
C  5.71700 -1.28800 43.82700
C  6.35100 -4.60900 45.23100
C  7.99800 -1.76700 43.92100
O  9.09200 -2.24900 44.19200
C  7.82800 -0.44300 43.10800
C  8.66500 0.73900 43.69000
O  9.77800 1.07200 43.26800
O  8.05900 1.26200 44.70100
C  8.74800 2.34800 45.41800
H  2.15300 3.68200 41.68100
H  -1.49400 -1.36800 43.18200
H  3.48700 -4.53500 45.35300
H  6.88200 2.56800 42.86500
H  4.84500 3.59900 41.06500
H  4.49100 3.92500 44.16900
H  4.44900 5.14300 42.70100
H  5.89800 4.53400 43.40900
H  7.81700 1.63000 40.97200
H  7.06300 3.06700 40.33600
H  5.00900 1.16500 39.95800
H  6.40000 0.31600 39.44100
H  -0.66100 3.65700 40.34100
H  0.09900 4.53900 41.68900
H  -1.49900 4.05200 41.94500
H  -3.32000 -0.34700 43.18200
H  -2.67200 -0.86800 41.54300
H  -4.27600 -0.12500 41.70900
H  -0.58300 -3.98700 43.15800
H  1.11400 -4.28300 45.70200
H  -1.58600 -2.65100 45.65400
H  -1.51600 -4.41200 45.61000
H  -2.43600 -3.51000 44.37600
H  2.28300 -5.70000 43.59000
H  0.59800 -6.02900 43.36100
H  0.49800 -7.38700 45.32700
H  1.57000 -6.30200 46.15700
H  2.29800 -7.55900 45.07200
H  5.70600 -5.12700 45.94000
H  7.36300 -4.55200 45.63100
H  6.39200 -5.30100 44.39000
H  8.20000 -0.42200 42.08300
H  8.89900 3.18800 44.74000
H  9.76500 2.11100 45.73100
H  8.04100 2.80100 46.11300
Mg -0.16700 44.52300 24.55300
C  1.96300 43.49600 27.14600
C  -2.88600 43.54300 26.43900
C  -2.11100 44.66000 21.78900
C  2.71600 44.85200 22.50500
N  -0.39500 43.43700 26.42800
C  0.59500 43.43500 27.45700
C  0.01900 43.31100 28.88300
C  -1.46000 42.94100 28.52600
C  -1.63000 43.35900 27.06500
C  -1.82500 41.47700 28.73600
C  0.23800 44.59600 29.77900
C  -0.10700 44.49100 31.29600
H  -0.59300 43.15200 31.75700
N  -2.24000 44.34900 24.20700
C  -3.18200 43.99200 25.12700
C  -4.46500 43.98500 24.50400
C  -4.28400 44.21900 23.08400
C  -2.81400 44.37900 22.96100
C  -5.76700 43.86400 25.24300
C  -5.26800 44.27600 21.90500
O  -4.91200 44.54700 20.75000
C  -6.67900 43.94900 22.17100
N  0.22900 44.97400 22.44800
C  -0.75500 44.96900 21.53100
C  -0.17700 45.49200 20.18100
C  1.30800 45.74400 20.51300
C  1.47400 45.21900 21.92600
C  -0.24000 44.61900 18.90000
C  1.77100 47.21800 20.58100
C  0.85900 48.14200 21.41200
N  1.87400 44.39100 24.72600
C  2.89300 44.48600 23.79300
C  4.17600 44.15100 24.45100
C  3.82000 43.73300 25.76300
C  2.44300 43.92300 25.91000
C  5.56600 44.23600 23.87500
C  4.33600 43.25900 27.04700
O  5.47200 42.91500 27.30200
C  3.16400 43.36500 28.11900
C  3.13200 42.21300 28.97300
O  2.85100 41.06800 28.59800
O  3.41800 42.60300 30.29600
C  3.47800 41.47900 31.25300
H  -3.76000 43.40300 27.07900
H  -2.80800 44.69000 20.94900
H  3.43400 45.15600 21.74000
H  0.51700 42.46800 29.36200
H  -2.07900 43.57700 29.15800
H  -2.22800 41.03100 27.82700
H  -2.64800 41.53100 29.44800
H  -1.04700 40.82500 29.13300
H  -0.38400 45.36200 29.31700
H  1.29600 44.82300 29.64300
H  -0.96000 45.14400 31.48100
H  0.65900 44.87300 31.96900
H  -6.39700 44.73500 25.06200
H  -5.57900 43.57500 26.27700
H  -6.36500 43.07000 24.79700
H  -6.63200 43.04600 22.78100
H  -7.33700 43.86100 21.30600
H  -7.13600 44.71200 22.80100
H  -0.74500 46.37200 19.88000
H  2.07900 45.37400 19.83700
H  -1.08900 44.94100 18.29800
H  -0.60500 43.67000 19.29400
H  0.68900 44.42700 18.36300
H  1.62000 47.55700 19.55600
H  2.83200 47.16700 20.82600
H  0.18500 47.63200 22.10100
H  0.38200 48.87000 20.75600
H  1.45500 48.76600 22.07700
H  5.57400 44.50300 22.81800
H  6.13800 43.32800 24.06800
H  6.05800 44.91900 24.56800
H  3.32200 44.26400 28.71400
H  4.11300 40.70300 30.82700
H  2.50600 41.19900 31.66100
H  4.06900 41.96000 32.03200

