158

Mg 29.90800 58.62500 39.67700
C  27.19100 56.51600 38.70900
C  31.98500 56.22100 38.47700
C  32.44100 60.95600 39.91800
C  27.55600 61.32500 39.99700
N  29.56600 56.66600 38.56200
C  28.43800 55.91900 38.47000
C  28.71300 54.41800 38.08300
C  30.26400 54.54600 37.89300
C  30.65300 55.89900 38.40300
C  31.04200 53.34100 38.52900
C  27.87300 53.86300 36.91400
C  27.75800 54.66000 35.66200
H  28.09600 54.11500 34.30100
N  31.96700 58.47300 39.53500
C  32.63300 57.45000 38.90200
C  33.97900 57.79500 38.86900
C  34.17200 59.09100 39.46700
C  32.82500 59.56100 39.71300
C  35.02800 56.78500 38.50300
C  35.49800 59.74600 39.73600
O  36.50500 59.14700 39.44100
C  35.62400 61.03100 40.59400
N  29.88700 60.80100 39.88900
C  31.12800 61.45500 40.05500
C  30.92100 63.00600 40.25000
C  29.34800 63.09700 40.11300
C  28.86600 61.64000 39.96700
C  31.39200 63.61600 41.52700
C  28.86400 63.99700 38.93600
C  27.68500 64.92500 39.22000
N  27.79400 58.84300 39.54600
C  27.04300 60.00100 39.83500
C  25.63900 59.61500 39.66500
C  25.65500 58.22500 39.29900
C  27.02100 57.86700 39.14200
C  24.45600 60.60200 39.68700
C  24.78100 57.15600 38.88400
O  23.55600 57.16000 38.71900
C  25.75300 55.98000 38.56400
C  25.47700 54.93600 39.59000
O  26.08400 54.95100 40.65900
O  24.49000 54.08900 39.13200
C  24.03700 53.04000 40.02600
H  32.52300 55.35000 38.09700
H  33.18300 61.72800 40.13200
H  26.83300 62.13600 39.88100
H  28.49900 53.94100 39.03900
H  30.50000 54.47900 36.83000
H  31.93700 53.00800 38.00300
H  30.33600 52.51800 38.64300
H  31.31600 53.63800 39.54200
H  26.89400 53.85400 37.39400
H  28.19700 52.86000 36.63900
H  28.62900 55.31100 35.74000
H  26.88600 55.31100 35.61300
H  35.74000 57.24200 37.81700
H  34.58900 55.85200 38.14700
H  35.50200 56.53100 39.45100
H  34.92700 61.13500 41.42500
H  35.42700 61.83800 39.88800
H  36.68500 61.15900 40.80700
H  31.39100 63.54300 39.42700
H  28.82500 63.50300 40.97900
H  31.66700 62.89600 42.29800
H  30.59700 64.25700 41.90700
H  32.31900 64.11000 41.23700
H  28.41600 63.27700 38.25100
H  29.67300 64.47700 38.38600
H  26.95900 64.44400 39.87600
H  27.09800 65.06800 38.31200
H  28.05700 65.83200 39.69500
H  24.74200 61.45400 39.07100
H  24.20500 60.88100 40.71100
H  23.65800 60.15000 39.09800
H  25.48100 55.58600 37.58500
H  24.04800 53.43400 41.04200
H  24.81100 52.28600 39.88200
H  23.09000 52.69400 39.61300
Mg 26.71400 50.36600 26.19500
C  24.81100 51.51800 28.88500
C  29.10100 49.38800 28.56700
C  28.62100 49.48200 23.76200
C  24.36300 51.76400 24.03800
N  27.01300 50.63600 28.54200
C  25.94400 50.95400 29.29200
C  26.40500 50.66800 30.76100
C  27.81300 50.09800 30.74000
C  28.05900 50.02200 29.21700
C  29.02600 50.95300 31.31700
C  25.36200 49.89400 31.61800
C  24.81000 50.69600 32.86900
H  24.62500 49.89500 34.14100
N  28.58700 49.54300 26.19700
C  29.35800 49.11200 27.20700
C  30.51100 48.35400 26.71100
C  30.44200 48.40700 25.31500
C  29.20300 49.24300 25.05100
C  31.55200 47.78200 27.49200
C  31.46900 47.92600 24.24900
O  31.35800 48.12200 23.09700
C  32.71900 47.13700 24.66500
N  26.64300 50.84800 24.17400
C  27.44000 50.15600 23.38100
C  27.07000 50.21600 21.87900
C  25.66600 50.93200 22.01500
C  25.49700 51.13000 23.51000
C  27.98200 50.82900 20.91700
C  24.42800 50.18900 21.39700
C  23.75600 51.01800 20.31800
N  24.92700 51.39800 26.40400
C  24.07100 51.92700 25.39700
C  23.05600 52.70100 26.04200
C  23.34300 52.46400 27.41000
C  24.42800 51.75300 27.56900
C  21.99300 53.54000 25.40700
C  22.79000 52.78300 28.75000
O  21.78000 53.44900 29.03600
C  23.73600 52.16300 29.75700
C  24.23400 53.29600 30.56100
O  25.15400 54.01700 30.18200
O  23.45000 53.57500 31.65900
C  24.11300 54.48700 32.63400
H  29.73500 48.81900 29.25100
H  29.21300 49.00200 22.98000
H  23.62000 52.03400 23.28400
H  26.61400 51.65700 31.16800
H  27.74300 49.13500 31.24500
H  28.65100 51.92900 31.62500
H  29.70600 51.36900 30.57400
H  29.60300 50.39600 32.05500
H  25.78400 48.95400 31.97300
H  24.45900 49.59200 31.08700
H  23.84500 51.11400 32.58400
H  25.57200 51.44400 33.08600
H  31.46000 47.93300 28.56700
H  32.52300 48.20700 27.23700
H  31.54200 46.71500 27.27000
H  33.62400 47.68300 24.93300
H  32.93600 46.55900 23.76600
H  32.63600 46.42300 25.48400
H  26.91100 49.16800 21.62700
H  25.81500 51.91200 21.56000
H  28.78600 51.36800 21.41800
H  27.49500 51.48500 20.19600
H  28.34000 49.98700 20.32500
H  23.75700 49.86000 22.19000
H  24.78100 49.30100 20.87200
H  23.69800 50.47800 19.37300
H  24.30200 51.89100 19.96100
H  22.73600 51.27300 20.60700
H  21.99400 53.59800 24.31900
H  21.97200 54.54800 25.82300
H  21.07700 53.00400 25.65900
H  23.21400 51.38100 30.30800
H  23.99800 55.55900 32.47400
H  25.17800 54.27100 32.71600
H  23.74500 54.35300 33.65200

