158

Mg 26.02300 0.92800 29.15300
C  27.94600 0.97200 32.04000
C  23.17800 1.49400 31.01300
C  24.22300 0.97900 26.26100
C  28.89700 0.15800 27.26100
N  25.63500 1.19100 31.23800
C  26.54200 1.23900 32.21300
C  25.84500 1.28200 33.61700
C  24.33300 1.24300 33.32600
C  24.40400 1.36500 31.75000
C  23.42300 0.01100 33.85200
C  26.37800 2.48500 34.41100
C  26.75000 2.30900 35.83700
H  26.48100 3.47600 36.87600
N  23.99400 1.05000 28.72400
C  22.96000 1.30100 29.61000
C  21.71000 1.32900 28.86600
C  22.05500 1.31900 27.51400
C  23.49400 1.04500 27.45300
C  20.32600 1.39800 29.55600
C  21.04200 1.47700 26.31500
O  21.35800 1.42000 25.15100
C  19.59000 1.76400 26.63500
N  26.51000 0.67500 27.02200
C  25.63100 0.86700 26.02700
C  26.34800 0.68500 24.69800
C  27.84400 0.54500 25.03500
C  27.77600 0.45200 26.50300
C  25.73100 -0.51300 23.75800
C  28.75700 1.68200 24.51900
C  30.04600 1.28500 23.79400
N  28.04200 0.65600 29.51000
C  29.07600 0.25600 28.67300
C  30.22100 -0.10700 29.47800
C  29.85900 0.19500 30.79900
C  28.53100 0.66700 30.77800
C  31.54900 -0.62300 29.05400
C  30.24900 0.19200 32.16900
O  31.32900 -0.14600 32.64400
C  29.01200 0.70100 33.03700
C  28.80100 -0.34800 34.05700
O  28.11000 -1.33800 33.90300
O  29.51000 -0.03200 35.17100
C  29.40700 -0.99200 36.27200
H  22.36700 1.66300 31.72400
H  23.69000 1.18800 25.33200
H  29.79800 -0.10800 26.70400
H  26.10600 0.34200 34.10400
H  23.95200 2.23700 33.56200
H  23.97600 -0.67400 34.49400
H  23.10700 -0.64800 33.04300
H  22.47700 0.31700 34.30000
H  25.67000 3.30800 34.31200
H  27.29200 2.71700 33.86500
H  27.80900 2.10000 35.98700
H  26.27800 1.37300 36.13700
H  19.89900 2.39000 29.40800
H  20.38500 1.18500 30.62300
H  19.61700 0.68000 29.14200
H  19.58100 2.59900 27.33500
H  19.10300 0.90200 27.09000
H  19.13100 1.98400 25.67100
H  26.03100 1.62100 24.23900
H  28.19800 -0.40000 24.62200
H  26.55700 -1.04400 23.28500
H  25.03300 -0.23200 22.97000
H  25.15500 -1.10700 24.46800
H  28.97700 2.33300 25.36500
H  28.22600 2.32100 23.81300
H  30.86300 1.76100 24.33700
H  30.06000 1.55200 22.73700
H  30.23000 0.21800 23.92700
H  31.73700 -0.31200 28.02700
H  31.49100 -1.70700 29.15400
H  32.28300 -0.30500 29.79400
H  29.41100 1.59300 33.52000
H  30.24600 -0.69800 36.90400
H  29.40600 -2.03700 35.96400
H  28.52200 -0.71100 36.84300
Mg -2.36200 34.53600 26.60600
C  -4.21300 32.78600 29.20000
C  -1.20700 36.51400 29.03500
C  -0.84500 36.16000 24.17900
C  -4.04500 32.47300 24.30200
N  -2.79800 34.76600 28.95300
C  -3.42200 33.83300 29.75800
C  -3.21900 34.22000 31.20100
C  -2.39700 35.53400 31.08100
C  -2.06100 35.64200 29.57500
C  -3.13100 36.79200 31.61600
C  -2.54700 33.09600 32.03300
C  -3.34200 32.36200 33.15000
H  -3.39300 33.23500 34.39800
N  -1.20700 36.13900 26.56800
C  -0.74300 36.80000 27.70500
C  0.20300 37.82600 27.32700
C  0.33500 37.72500 25.94300
C  -0.62000 36.64800 25.48000
C  0.91100 38.68900 28.35400
C  1.28000 38.46100 25.01400
O  1.26300 38.34400 23.80600
C  2.34500 39.32900 25.57500
N  -2.73000 34.46700 24.51600
C  -1.72600 35.15400 23.78400
C  -1.68400 34.60800 22.35100
C  -2.61900 33.38700 22.36000
C  -3.19700 33.38300 23.77900
C  -1.98500 35.64500 21.28700
C  -1.87300 32.05900 22.06300
C  -2.69500 30.81000 21.61400
N  -4.03400 33.13500 26.69900
C  -4.54700 32.34200 25.63100
C  -5.42900 31.32900 26.17500
C  -5.32900 31.43900 27.56200
C  -4.45900 32.58800 27.83000
C  -6.18500 30.17800 25.44800
C  -5.72300 30.88600 28.80800
O  -6.59100 30.02000 28.99700
C  -5.06700 31.77900 29.91600
C  -6.25700 32.36700 30.59900
O  -6.73600 33.43800 30.29400
O  -6.63400 31.70300 31.68500
C  -7.59800 32.20600 32.61800
H  -0.80800 37.18600 29.79800
H  -0.14700 36.44000 23.38700
H  -4.41200 31.76900 23.55200
H  -4.23100 34.37200 31.57700
H  -1.44000 35.53600 31.60200
H  -4.08800 36.49100 32.04300
H  -3.32500 37.46700 30.78200
H  -2.54700 37.34200 32.35500
H  -1.64800 33.53800 32.46300
H  -2.12800 32.40800 31.29900
H  -2.75100 31.47500 33.38200
H  -4.31900 32.04400 32.78500
H  1.99200 38.68500 28.21000
H  0.65100 38.51600 29.39800
H  0.56900 39.69700 28.11900
H  3.00100 39.62400 24.75600
H  3.02700 38.70700 26.15500
H  1.94200 40.11400 26.21500
H  -0.64000 34.32600 22.21400
H  -3.39300 33.60800 21.62400
H  -1.15700 35.72800 20.58400
H  -2.08100 36.60200 21.79900
H  -2.97500 35.45600 20.87100
H  -1.39900 31.69400 22.97400
H  -1.01600 32.14800 21.39500
H  -2.38700 30.50800 20.61300
H  -3.74700 31.09500 21.59000
H  -2.56200 30.04400 22.37800
H  -5.91100 29.23600 25.92200
H  -5.91300 30.24300 24.39400
H  -7.25600 30.36300 25.53800
H  -4.49500 31.20400 30.64500
H  -7.03200 32.85000 33.29100
H  -8.12000 31.42100 33.16500
H  -8.32400 32.78900 32.05200

