158

Mg 53.60100 24.41200 45.05700
C  51.08400 26.67700 44.28400
C  51.60100 21.85700 43.86800
C  56.30500 22.35800 45.20800
C  55.54300 27.01400 46.19400
N  51.60500 24.27600 44.10400
C  50.73600 25.36600 43.88700
C  49.47000 24.85500 43.26700
C  49.47300 23.32300 43.36800
C  50.95600 23.10100 43.82100
C  48.51900 22.78100 44.52100
C  49.22800 25.30400 41.82200
C  50.59200 25.42500 40.91600
H  51.45500 24.17800 40.60600
N  53.89400 22.32700 44.64600
C  52.93500 21.49000 44.28000
C  53.50600 20.18000 44.25500
C  54.84100 20.31500 44.72400
C  55.08600 21.70700 44.88500
C  52.73700 18.98300 43.81600
C  55.83400 19.11400 44.96400
O  55.49900 17.95500 44.83000
C  57.29300 19.43800 45.42400
N  55.72100 24.71500 45.45200
C  56.63100 23.68500 45.44900
C  58.02500 24.19700 45.73100
C  57.79300 25.72500 45.95700
C  56.24500 25.82000 45.88400
C  58.76800 23.37500 46.82000
C  58.37900 26.69200 44.90200
C  59.53200 27.50900 45.42000
N  53.41800 26.41200 45.27900
C  54.20500 27.32800 45.86400
C  53.53000 28.60200 45.99000
C  52.29400 28.41900 45.39100
C  52.29900 27.04000 44.94400
C  53.96400 29.94600 46.64800
C  51.03700 29.07300 45.04000
O  50.60800 30.18300 45.12300
C  50.27800 27.96500 44.25000
C  50.06700 28.47200 42.85700
O  50.92000 28.47200 42.01100
O  48.76700 28.84000 42.67200
C  48.27000 29.07200 41.30800
H  51.03300 20.93900 43.70200
H  57.21600 21.75900 45.14800
H  56.19500 27.77700 46.62300
H  48.81500 25.43800 43.91500
H  49.26300 22.88200 42.39400
H  48.80700 21.75600 44.75700
H  47.47400 22.71600 44.22000
H  48.64300 23.46900 45.35700
H  48.75300 26.28200 41.75000
H  48.58900 24.55600 41.35100
H  51.34500 26.17100 41.17300
H  50.22500 25.73200 39.93600
H  52.04500 19.34800 43.05700
H  52.21200 18.52600 44.65400
H  53.23400 18.20400 43.23800
H  57.74300 18.45500 45.56600
H  57.27900 20.03800 46.33400
H  57.85200 19.97000 44.65400
H  58.54300 24.00100 44.79200
H  58.12000 25.95500 46.97100
H  58.95500 23.98500 47.70400
H  59.62900 22.83600 46.42300
H  58.19800 22.50400 47.14300
H  57.64100 27.32100 44.40400
H  58.88200 26.16900 44.08800
H  59.34400 27.52100 46.49400
H  59.58100 28.50400 44.97800
H  60.45300 26.96900 45.20000
H  53.71800 30.72700 45.92800
H  54.96300 29.94800 47.08400
H  53.22800 30.09100 47.43900
H  49.36400 27.64800 44.75200
H  49.06300 29.53300 40.71800
H  47.46100 29.76800 41.53100
H  47.83500 28.17600 40.86700
Mg 27.20700 50.24200 26.61500
C  25.17400 51.18900 29.30300
C  29.70400 49.35800 28.94300
C  29.15700 49.37700 23.95700
C  24.55600 51.21000 24.42800
N  27.35900 50.20000 28.90200
C  26.39700 50.56300 29.78800
C  26.84200 50.31900 31.25600
C  28.35100 50.03200 31.08800
C  28.47000 49.89000 29.54500
C  29.31100 50.99800 31.75200
C  25.90400 49.21300 31.97700
C  24.94800 49.71300 33.13800
H  25.00900 48.95100 34.39900
N  29.20200 49.44400 26.48500
C  29.99100 49.14200 27.54000
C  31.18600 48.70200 26.96000
C  31.16800 48.79700 25.54800
C  29.81500 49.22100 25.26100
C  32.31800 48.18100 27.85100
C  32.27200 48.44300 24.52300
O  32.09700 48.59000 23.32300
C  33.57500 47.67200 24.96600
N  26.87300 50.24800 24.45500
C  27.87800 49.89600 23.58500
C  27.30900 49.98000 22.15800
C  25.80900 50.46800 22.31300
C  25.74300 50.64600 23.82700
C  28.15900 50.87500 21.19600
C  24.65500 49.48400 21.87400
C  24.55000 48.16200 22.58500
N  25.28300 51.10500 26.77300
C  24.33800 51.44200 25.81600
C  23.26200 52.05100 26.47900
C  23.49300 51.94200 27.81000
C  24.78600 51.33300 27.96900
C  21.97100 52.57200 25.82100
C  22.99000 52.19900 29.18600
O  21.98600 52.67700 29.62500
C  24.02200 51.65600 30.15500
C  24.29900 52.85400 30.98300
O  25.21800 53.62500 30.83500
O  23.45400 52.77600 32.11100
C  23.48700 53.92000 33.04900
H  30.49500 49.12000 29.65800
H  29.73200 49.20400 23.04500
H  23.86500 51.66200 23.71400
H  26.62900 51.24100 31.79700
H  28.62100 49.07200 31.52800
H  30.12900 50.41000 32.16900
H  28.75800 51.60000 32.47300
H  29.79700 51.56200 30.95500
H  26.49400 48.41600 32.43000
H  25.23700 48.73200 31.26200
H  23.93200 49.68400 32.74500
H  25.14900 50.76700 33.32800
H  32.73100 47.28100 27.39400
H  32.01500 47.83600 28.84000
H  32.97200 49.05200 27.88400
H  34.21200 48.22400 25.65700
H  34.13100 47.35700 24.08300
H  33.24000 46.77400 25.48500
H  27.19600 48.99400 21.70800
H  25.71000 51.30900 21.62800
H  28.78600 50.23300 20.57700
H  28.80700 51.50600 21.80500
H  27.60700 51.52200 20.51400
H  24.82700 49.35200 20.80600
H  23.70600 50.01900 21.89500
H  25.32200 48.03000 23.34400
H  24.52400 47.39100 21.81500
H  23.55800 48.11700 23.03600
H  21.10800 52.16300 26.34500
H  21.85200 52.31100 24.76900
H  21.99200 53.66200 25.83300
H  23.59900 50.87100 30.78100
H  23.66500 54.85400 32.51600
H  24.18600 53.88400 33.88400
H  22.54700 54.09200 33.57300

