158

Mg -2.53900 17.14100 27.41400
C  -2.71700 14.81100 29.88600
C  -2.74300 19.69400 29.68300
C  -2.57700 19.34000 24.78600
C  -3.37600 14.54000 25.09400
N  -2.74600 17.18400 29.58700
C  -2.66900 16.08800 30.42000
C  -2.59800 16.60100 31.95700
C  -2.78800 18.21700 31.79100
C  -2.77500 18.41400 30.21600
C  -4.01200 18.84400 32.69100
C  -1.24400 16.19500 32.52400
C  -0.81200 16.90900 33.77700
H  -0.59400 16.11500 35.07900
N  -2.38100 19.16600 27.27400
C  -2.48600 20.11500 28.30300
C  -2.27100 21.42200 27.81100
C  -2.08900 21.31600 26.39600
C  -2.35300 19.90000 26.08400
C  -2.46200 22.64000 28.69000
C  -1.76600 22.39300 25.30600
O  -1.82100 22.17300 24.12900
C  -1.42200 23.75000 25.77200
N  -3.08000 16.93600 25.28000
C  -2.87100 18.02300 24.36100
C  -3.11600 17.52200 22.91300
C  -3.09600 15.98000 23.07700
C  -3.15000 15.81600 24.54700
C  -4.46600 18.18900 22.42000
C  -1.87000 15.36500 22.29300
C  -1.08700 14.22700 23.01100
N  -2.92000 15.04700 27.39000
C  -3.13000 14.15200 26.38300
C  -3.20000 12.73400 26.93400
C  -3.07400 13.00100 28.36000
C  -2.81400 14.38300 28.55300
C  -3.46800 11.43000 26.18700
C  -3.14000 12.38900 29.70000
O  -3.36300 11.26200 30.05000
C  -2.88400 13.60500 30.63700
C  -1.78600 13.20700 31.49900
O  -0.61700 13.39000 31.20000
O  -2.24100 12.71100 32.67300
C  -1.29500 12.23500 33.61000
H  -2.83500 20.50100 30.41300
H  -2.39200 19.94700 23.89600
H  -3.66900 13.74600 24.40400
H  -3.44400 16.24000 32.54200
H  -1.86000 18.70800 32.08700
H  -3.64600 19.56700 33.41900
H  -4.55000 18.01500 33.15100
H  -4.71000 19.46300 32.12800
H  -0.48800 16.24300 31.74000
H  -1.18900 15.15300 32.83800
H  -1.52300 17.71600 33.95500
H  0.08100 17.50300 33.58600
H  -2.37100 22.34400 29.73500
H  -3.45400 23.05300 28.50900
H  -1.62300 23.33500 28.67200
H  -2.24300 24.07100 26.41300
H  -1.53200 24.33400 24.85800
H  -0.43200 23.79600 26.22600
H  -2.33100 17.90200 22.25800
H  -4.03800 15.59700 22.68300
H  -5.18200 17.38200 22.26600
H  -4.10300 18.56300 21.46300
H  -4.79300 18.97400 23.10200
H  -1.14200 16.16600 22.16800
H  -2.14100 14.95100 21.32200
H  -0.80300 14.73400 23.93300
H  -0.21800 13.93700 22.42100
H  -1.83500 13.43500 23.05800
H  -3.62500 11.75300 25.15800
H  -4.34400 10.92000 26.58800
H  -2.53500 10.90100 26.37800
H  -3.74200 13.68600 31.30400
H  -0.44000 11.88100 33.03500
H  -1.66700 11.42500 34.23700
H  -1.00600 13.00700 34.32400
Mg 16.37200 -2.45900 27.99800
C  15.35600 -0.45000 30.66700
C  18.53200 -4.17700 30.22400
C  17.94900 -3.99300 25.39900
C  14.68200 -0.37100 25.82600
N  16.90400 -2.33500 30.15900
C  16.30100 -1.42000 31.00800
C  16.81300 -1.69700 32.42300
C  18.00400 -2.79900 32.28700
C  17.80700 -3.17600 30.80800
C  19.36500 -2.13900 32.58600
C  15.68000 -2.07700 33.38400
C  15.57300 -1.34900 34.74400
H  16.88500 -0.67200 35.18800
N  18.07800 -3.85100 27.87200
C  18.71200 -4.51100 28.88100
C  19.50000 -5.58900 28.39200
C  19.40300 -5.48100 26.93300
C  18.43100 -4.37400 26.64200
C  20.11100 -6.65500 29.28900
C  20.13600 -6.26600 25.90600
O  20.01900 -6.10700 24.69900
C  21.16900 -7.37800 26.35300
N  16.30100 -2.30100 25.98100
C  16.98600 -3.00600 25.02900
C  16.68100 -2.62100 23.62900
C  15.53800 -1.52700 23.80500
C  15.48800 -1.39400 25.31100
C  17.81100 -2.26000 22.67100
C  14.19400 -1.99700 23.13600
C  13.13000 -0.93800 22.97100
N  15.09400 -0.83500 28.16000
C  14.41900 -0.10800 27.20300
C  13.55300 0.92200 27.86000
C  13.87300 0.81300 29.20100
C  14.83100 -0.19400 29.34100
C  12.77900 1.97200 27.09200
C  13.59400 1.37000 30.54300
O  12.87900 2.32200 30.88400
C  14.50500 0.51100 31.52300
C  15.39500 1.53200 32.17800
O  16.29200 2.17800 31.59400
O  14.81100 1.80000 33.34600
C  15.01800 3.16300 33.75400
H  19.15500 -4.62000 31.00400
H  18.30700 -4.61800 24.57900
H  14.19100 0.38100 25.20600
H  17.31700 -0.77000 32.69700
H  17.90000 -3.66100 32.94600
H  19.90400 -1.91400 31.66500
H  20.00300 -2.92700 32.98500
H  19.25000 -1.30500 33.27800
H  15.79100 -3.15600 33.49100
H  14.68600 -1.87800 32.98300
H  15.18200 -2.04700 35.48400
H  14.80200 -0.57800 34.76700
H  21.17700 -6.48400 29.13900
H  19.73100 -7.62000 28.95400
H  19.88400 -6.43300 30.33200
H  20.71200 -7.99900 27.12300
H  22.09700 -6.94200 26.72500
H  21.47100 -8.01200 25.52000
H  16.17000 -3.46500 23.16600
H  15.95100 -0.55700 23.53000
H  18.65700 -1.94000 23.27900
H  17.56200 -1.40300 22.04600
H  18.13000 -3.08800 22.03800
H  13.84700 -2.73600 23.85900
H  14.28500 -2.47800 22.16200
H  13.70500 -0.03200 22.78100
H  12.44500 -0.88700 23.81700
H  12.51600 -1.34300 22.16700
H  13.18500 2.18600 26.10300
H  12.68000 2.88400 27.68200
H  11.74800 1.64900 26.94800
H  13.98500 0.04600 32.36100
H  14.42600 3.87000 33.17200
H  16.04500 3.52900 33.73700
H  14.64300 3.11300 34.77600

