158

Mg 7.82500 2.04200 28.08100
C  9.24000 0.79500 31.17100
C  5.75500 3.97300 30.01000
C  6.25100 2.78800 25.35000
C  9.47700 -0.52400 26.47200
N  7.53400 2.28100 30.30900
C  8.31000 1.81600 31.36400
C  8.00800 2.57200 32.73500
C  6.73000 3.36600 32.30500
C  6.63800 3.27100 30.77000
C  5.41300 2.71000 32.89100
C  9.24800 3.47800 33.14000
C  9.54500 3.60300 34.68100
H  8.58200 3.06500 35.76000
N  6.21900 3.23400 27.68200
C  5.51800 4.03000 28.57800
C  4.69200 5.02900 27.83800
C  4.80800 4.68600 26.46700
C  5.72100 3.49900 26.46300
C  3.91900 6.18600 28.60100
C  4.39900 5.40600 25.16300
O  4.65200 5.07200 23.97500
C  3.30800 6.49900 25.34500
N  7.73200 1.12400 26.18000
C  7.12600 1.67700 25.19500
C  7.25600 0.98900 23.81300
C  8.26500 -0.11800 24.31200
C  8.53100 0.16200 25.74800
C  5.92500 0.50300 23.32200
C  9.54200 -0.29000 23.33700
C  10.60100 0.80300 23.45000
N  9.09500 0.37200 28.66600
C  9.75300 -0.49200 27.86600
C  10.75600 -1.21600 28.63300
C  10.50700 -0.81200 29.94800
C  9.44100 0.12300 29.97600
C  11.74200 -2.14000 28.17400
C  11.03100 -0.98800 31.33500
O  11.85200 -1.84500 31.76600
C  10.22900 0.07700 32.17400
C  9.53100 -0.66600 33.29700
O  8.59800 -1.46600 33.15700
O  10.00700 -0.28500 34.55700
C  9.30600 -1.04400 35.65100
H  5.20700 4.66600 30.65300
H  5.72400 3.05700 24.43200
H  10.08300 -1.31100 26.01800
H  7.88800 1.84200 33.53600
H  6.94700 4.39200 32.60100
H  4.79700 3.43400 33.42400
H  5.70000 1.94700 33.61400
H  4.73600 2.17800 32.22200
H  9.08700 4.48400 32.75300
H  10.03400 3.05700 32.51300
H  9.65200 4.67000 34.87700
H  10.56100 3.20800 34.67600
H  2.85600 5.95600 28.66800
H  4.01000 7.09500 28.00500
H  4.40100 6.42000 29.55000
H  2.66700 6.67800 24.48200
H  3.89900 7.36600 25.63800
H  2.75100 6.41800 26.27900
H  7.73000 1.63400 23.07400
H  7.81800 -1.10900 24.22500
H  5.08000 0.48800 24.01000
H  5.87100 -0.51200 22.92700
H  5.66700 1.19800 22.52300
H  9.22500 -0.43800 22.30500
H  9.88100 -1.26000 23.70200
H  10.35000 1.54600 24.20800
H  10.93000 1.34000 22.56000
H  11.49600 0.43300 23.95000
H  12.57000 -2.09200 28.88100
H  11.94800 -1.87400 27.13700
H  11.33800 -3.15200 28.13900
H  10.86700 0.72800 32.77200
H  9.96400 -1.85900 35.95400
H  8.25200 -1.32100 35.61100
H  9.12500 -0.37800 36.49400
Mg 51.15000 47.15100 43.22400
C  47.88400 47.94900 42.49700
C  50.50800 44.15600 41.43000
C  54.29400 46.33200 43.68100
C  51.76400 50.43800 44.36700
N  49.46200 46.18600 42.02000
C  48.20300 46.70800 41.95400
C  47.36400 45.87400 40.94400
C  48.05900 44.47600 41.09900
C  49.44800 44.97100 41.46700
C  47.34300 43.51000 42.10900
C  47.41300 46.45400 39.50700
C  46.29300 46.17300 38.55100
H  46.30900 44.83600 37.67700
N  52.29200 45.50600 42.58700
C  51.83000 44.39600 41.93900
C  52.95600 43.47500 41.74800
C  54.09600 44.08200 42.28400
C  53.62200 45.32600 42.89500
C  52.90900 42.06900 41.17400
C  55.49200 43.51000 42.38100
O  55.82400 42.44700 41.83900
C  56.66100 44.36600 42.82100
N  52.87200 48.25200 43.93700
C  54.01200 47.61900 44.10000
C  55.03600 48.44800 44.84800
C  54.25100 49.85300 45.06600
C  52.85900 49.50800 44.47500
C  55.70200 47.86800 46.13800
C  54.91000 51.07100 44.45200
C  55.26200 52.33500 45.27900
N  50.09900 48.87600 43.45500
C  50.44400 50.10700 43.97100
C  49.20400 50.96400 43.95600
C  48.21300 50.16500 43.32600
C  48.80600 48.95400 43.03700
C  49.09900 52.42900 44.08900
C  46.75300 50.12600 43.03900
O  45.87700 51.00200 43.14300
C  46.59100 48.73000 42.24500
C  45.33800 47.99500 42.72200
O  45.27700 47.55600 43.84800
O  44.36700 47.86100 41.73100
C  43.29300 46.95100 42.15500
H  50.30400 43.23900 40.87300
H  55.35800 46.15800 43.85500
H  52.03800 51.45600 44.65000
H  46.33600 45.69700 41.26000
H  48.10200 43.96500 40.13700
H  46.49200 43.95500 42.62400
H  48.04700 43.33700 42.92300
H  46.92600 42.67100 41.55100
H  48.38300 46.31500 39.03000
H  47.40500 47.53200 39.67200
H  46.17700 46.97600 37.82300
H  45.32400 46.22100 39.04600
H  53.48100 41.99700 40.24900
H  51.88400 41.88600 40.85300
H  53.19400 41.34100 41.93400
H  57.57300 43.78800 42.66700
H  56.60900 44.64000 43.87500
H  56.78300 45.26500 42.21600
H  55.77900 48.60600 44.06600
H  54.14200 50.04700 46.13300
H  55.24600 46.88500 46.26000
H  55.48800 48.46400 47.02500
H  56.74400 47.56000 46.04400
H  54.18200 51.25500 43.66100
H  55.80800 50.84500 43.87700
H  56.34000 52.47900 45.20600
H  54.94400 52.15100 46.30500
H  54.72900 53.21900 44.92900
H  50.00800 52.72400 44.61300
H  48.25200 52.79500 44.66900
H  49.16400 52.80400 43.06700
H  46.46200 48.92900 41.18100
H  43.62700 46.15200 42.81600
H  43.03800 46.35900 41.27600
H  42.43800 47.51800 42.52200

