158

Mg 44.66000 4.12200 49.31200
C  42.35200 6.53300 48.03200
C  42.17900 1.68000 48.94400
C  46.97800 1.77300 49.94300
C  47.14500 6.56500 49.18000
N  42.52100 4.06600 48.63000
C  41.88500 5.19000 48.07300
C  40.46800 4.84400 47.57100
C  40.38900 3.27200 47.87600
C  41.76300 2.97000 48.58800
C  39.21200 2.76300 48.67600
C  40.29800 5.16200 46.02300
C  39.05100 5.95900 45.62200
H  38.42300 5.67900 44.22600
N  44.63600 2.03600 49.33000
C  43.50700 1.30100 49.26100
C  43.96100 -0.07300 49.27500
C  45.32200 -0.17200 49.43600
C  45.72800 1.24900 49.65000
C  42.94900 -1.26200 49.11700
C  46.16400 -1.48000 49.37400
O  45.66500 -2.62400 49.25900
C  47.67000 -1.36800 49.44900
N  46.75300 4.14000 49.29800
C  47.41500 3.03300 49.81200
C  48.90600 3.40000 50.08400
C  48.97200 4.95800 49.85300
C  47.54900 5.26900 49.43200
C  49.56400 2.92500 51.42600
C  50.09100 5.39800 48.82600
C  51.34500 6.04400 49.46100
N  44.82800 6.17100 48.70100
C  45.90000 7.01400 48.74700
C  45.45200 8.34000 48.21500
C  44.07800 8.15700 47.96500
C  43.73600 6.80900 48.26900
C  46.25600 9.61800 48.12700
C  42.87100 8.87800 47.61800
O  42.74000 10.05300 47.29600
C  41.73100 7.81800 47.63200
C  40.58600 8.13600 48.50900
O  40.39600 7.55400 49.57000
O  39.76700 9.13300 48.07400
C  38.64500 9.48300 48.98900
H  41.31800 1.02600 48.78700
H  47.72500 1.08500 50.34400
H  47.98700 7.24800 49.05200
H  39.79500 5.40700 48.21800
H  40.27500 2.65500 46.98400
H  38.44000 3.52500 48.78600
H  39.45600 2.58800 49.72400
H  38.75500 1.84300 48.31100
H  40.27100 4.29400 45.36500
H  41.17100 5.71800 45.68100
H  39.37100 6.99700 45.53200
H  38.28400 5.96400 46.39700
H  41.92500 -0.90900 48.99700
H  42.98400 -1.69200 50.11800
H  43.35200 -1.90200 48.33300
H  48.04800 -0.59000 48.78600
H  48.06800 -2.31400 49.08300
H  47.86700 -1.16800 50.50200
H  49.52800 2.85100 49.37700
H  49.17300 5.45400 50.80300
H  50.02400 1.95600 51.22800
H  48.78300 2.64300 52.13100
H  50.17700 3.67100 51.93200
H  49.79100 6.06800 48.02000
H  50.50400 4.51600 48.33600
H  51.39200 7.04300 49.02800
H  52.16900 5.34400 49.32300
H  51.17600 6.23200 50.52100
H  46.42900 10.08300 49.09700
H  45.98000 10.38800 47.40600
H  47.18600 9.18500 47.75700
H  41.25200 7.74300 46.65600
H  38.93900 9.60600 50.03100
H  37.85300 8.73400 48.99600
H  38.19800 10.42500 48.67100
Mg 54.67400 22.91600 45.10100
C  52.40500 25.15000 43.73700
C  52.50300 20.31600 44.04900
C  57.10800 20.69200 45.57800
C  56.78800 25.62100 45.83100
N  52.74700 22.85800 44.06700
C  51.98700 23.83600 43.59100
C  50.65000 23.36000 43.00100
C  50.52000 21.87100 43.57500
C  52.04200 21.66900 43.95900
C  49.53700 21.67200 44.78300
C  50.47000 23.47200 41.47800
C  49.08700 23.88400 40.96600
H  48.59000 23.21100 39.66600
N  54.82200 20.75200 44.84200
C  53.84800 19.92000 44.34600
C  54.34600 18.55900 44.41600
C  55.73300 18.63100 44.91800
C  55.97000 20.08700 45.13900
C  53.59500 17.40400 43.82100
C  56.59800 17.45200 45.08900
O  56.23200 16.32300 44.76400
C  58.05900 17.61900 45.42700
N  56.79200 23.15000 45.36800
C  57.51600 22.05300 45.74100
C  58.80400 22.50700 46.46900
C  58.60500 24.08800 46.70100
C  57.36600 24.34200 45.77700
C  59.25400 21.76000 47.78800
C  59.83900 24.99600 46.30300
C  60.48200 25.80800 47.45700
N  54.59800 25.05500 45.01400
C  55.51400 26.05700 45.29300
C  54.85300 27.25200 45.23200
C  53.64500 26.94100 44.60400
C  53.59400 25.59800 44.41500
C  55.25600 28.62800 45.62500
C  52.44000 27.54900 44.10100
O  52.03100 28.72000 43.97500
C  51.63100 26.41800 43.50300
C  51.56400 26.73600 42.08100
O  52.50600 26.68400 41.33900
O  50.34700 27.22100 41.75500
C  50.24500 27.53300 40.29800
H  51.78400 19.49500 44.06700
H  57.97100 20.05900 45.79400
H  57.32900 26.52200 46.12800
H  49.82900 23.92600 43.44100
H  50.22200 21.11000 42.85300
H  49.94800 21.04000 45.57100
H  48.60500 21.17000 44.52200
H  49.35700 22.65100 45.22700
H  50.66800 22.52700 40.97200
H  51.19200 24.21200 41.13500
H  48.90800 24.92300 40.68700
H  48.38300 23.68000 41.77200
H  52.78500 17.70900 43.15800
H  53.26500 16.67600 44.56300
H  54.32400 16.95400 43.14700
H  58.60700 18.19900 44.68400
H  58.52900 16.64100 45.32800
H  58.25100 17.90900 46.46000
H  59.67500 22.38800 45.82500
H  58.33000 24.31500 47.73100
H  59.40700 22.45000 48.61800
H  60.23000 21.29700 47.64900
H  58.54300 20.97100 48.03300
H  59.66100 25.69900 45.48900
H  60.63300 24.35400 45.92200
H  60.37900 26.86500 47.21300
H  61.52600 25.62100 47.71100
H  59.89900 25.65800 48.36500
H  55.36200 28.72000 46.70600
H  54.51100 29.32800 45.24600
H  56.22900 28.87600 45.20200
H  50.63200 26.43500 43.93700
H  51.02600 28.15600 39.86300
H  49.30300 27.89700 39.88700
H  50.33800 26.58400 39.76900

