158

Mg -0.13600 7.12300 26.93200
C  1.13500 9.33300 29.26300
C  -0.15500 4.62400 29.50600
C  -0.92600 4.90800 24.74900
C  0.80000 9.42100 24.41000
N  0.54800 6.95000 29.05500
C  0.97200 8.02300 29.77900
C  0.84100 7.69200 31.32400
C  0.73800 6.12100 31.33100
C  0.40000 5.82900 29.85200
C  2.00100 5.36100 31.80700
C  -0.32700 8.40000 32.09500
C  -0.22100 8.62500 33.66700
H  0.79800 7.94800 34.46800
N  -0.67800 5.02600 27.15400
C  -0.56500 4.18500 28.23000
C  -1.09100 2.87400 27.85200
C  -1.29000 2.89700 26.42600
C  -0.99400 4.28900 26.08900
C  -1.11400 1.68400 28.76200
C  -1.64800 1.83500 25.43700
O  -1.58000 2.02900 24.20600
C  -2.02400 0.51400 25.97500
N  0.03000 7.14200 24.91200
C  -0.47900 6.04700 24.22800
C  -0.89000 6.50200 22.79600
C  -0.19300 7.91800 22.64700
C  0.25500 8.22400 24.09000
C  -0.50900 5.46800 21.62900
C  -1.01100 9.00400 22.02000
C  -2.07600 9.69800 22.93200
N  0.75900 9.01700 26.80200
C  1.03300 9.88100 25.70400
C  1.36600 11.17700 26.17800
C  1.37000 11.07900 27.58200
C  1.04900 9.72800 27.88600
C  1.61200 12.36300 25.24900
C  1.66300 11.70800 28.83500
O  2.02200 12.85400 29.08400
C  1.48600 10.64200 29.97300
C  2.72100 10.72900 30.74900
O  3.79500 10.27500 30.40100
O  2.50700 11.51800 31.85700
C  3.62900 11.62300 32.73300
H  -0.32600 3.86400 30.27100
H  -1.48500 4.25300 24.07800
H  0.91500 10.24600 23.70400
H  1.76000 8.12800 31.71700
H  -0.07100 5.83500 32.00400
H  2.76000 6.06800 32.14300
H  2.46000 4.85100 30.96000
H  1.76100 4.53300 32.47400
H  -1.23100 7.79300 32.04700
H  -0.46900 9.31400 31.51800
H  -1.21600 8.42400 34.06300
H  -0.16600 9.70000 33.84200
H  -2.13500 1.34900 28.94000
H  -0.50200 1.85900 29.64700
H  -0.57900 0.95800 28.14900
H  -1.19100 -0.02800 26.42100
H  -2.43600 -0.10500 25.17700
H  -2.85000 0.53600 26.68600
H  -1.97200 6.57000 22.68800
H  0.64500 8.04600 21.96300
H  -0.19900 5.93900 20.69600
H  -1.28500 4.76400 21.32900
H  0.39400 4.92600 21.90900
H  -1.66900 8.56200 21.27200
H  -0.32400 9.68400 21.51700
H  -2.04500 10.78800 22.91200
H  -2.01700 9.48600 24.00000
H  -3.01000 9.48500 22.41200
H  1.25400 13.21800 25.82200
H  1.12000 12.34700 24.27600
H  2.70000 12.39200 25.19400
H  0.66800 11.01800 30.58700
H  4.54900 12.07200 32.35900
H  4.07900 10.69400 33.08400
H  3.25600 12.09900 33.64000
Mg 44.55800 4.92600 46.25700
C  42.61600 7.85500 46.05100
C  41.52700 3.18100 45.72900
C  46.32400 2.24900 45.45300
C  47.45100 6.94800 45.80500
N  42.36400 5.43700 45.85500
C  41.86800 6.70600 45.85300
C  40.37000 6.69400 45.84900
C  39.96600 5.20500 45.83000
C  41.35900 4.52800 45.81700
C  39.09900 4.71700 47.01100
C  39.69100 7.58700 44.77500
C  40.43100 7.97400 43.48700
H  39.79400 7.71700 42.07100
N  43.93100 2.96900 45.87900
C  42.66900 2.41700 45.79400
C  42.77100 0.96600 45.72600
C  44.19900 0.65500 45.69800
C  44.93000 1.97000 45.64800
C  41.52300 0.04900 45.68900
C  44.74600 -0.77900 45.64700
O  43.99900 -1.73600 45.77600
C  46.18000 -1.13300 45.39800
N  46.62800 4.59100 45.67500
C  47.14700 3.37900 45.47100
C  48.66300 3.41200 45.22900
C  48.98200 4.87000 45.37600
C  47.63000 5.50900 45.65000
C  49.54800 2.35900 45.97200
C  49.75300 5.57200 44.27300
C  51.14200 5.99300 44.65700
N  45.00700 6.99600 46.17800
C  46.27900 7.62200 46.02000
C  46.04100 9.01000 46.12200
C  44.65400 9.11000 46.23800
C  44.03500 7.86800 46.12700
C  47.00600 10.17600 46.13900
C  43.50700 10.11800 46.32500
O  43.53800 11.36200 46.45700
C  42.19100 9.26500 46.23500
C  41.38300 9.37000 47.51500
O  41.49400 8.55600 48.42700
O  40.59500 10.51800 47.55600
C  39.81600 10.74600 48.73600
H  40.65300 2.58200 45.46400
H  47.05000 1.45100 45.28200
H  48.34300 7.57700 45.77600
H  40.10000 7.19600 46.77800
H  39.38800 4.88800 44.96200
H  39.54000 3.82900 47.46400
H  38.07200 4.61900 46.65700
H  38.97100 5.48500 47.77500
H  39.34800 8.50500 45.25000
H  38.73000 7.16300 44.48500
H  41.33900 7.37000 43.49100
H  40.58500 9.05400 43.49600
H  41.70400 -0.80100 45.03200
H  40.60000 0.53800 45.37700
H  41.36900 -0.44400 46.64900
H  46.27100 -2.21800 45.44700
H  46.63000 -0.75100 46.31500
H  46.56000 -0.77600 44.44100
H  48.71600 3.14700 44.17300
H  49.52200 5.02700 46.30900
H  48.95100 1.50400 46.29200
H  50.12400 2.84100 46.76200
H  50.28600 1.91200 45.30700
H  49.24800 6.37900 43.74100
H  49.92700 4.86500 43.46200
H  51.15200 6.38300 45.67600
H  51.52500 6.76600 43.99200
H  51.91300 5.22400 44.64300
H  47.79500 10.03500 46.87800
H  46.46200 11.11000 46.27900
H  47.47200 10.18200 45.15400
H  41.48600 9.54800 45.45300
H  39.22800 11.65800 48.64000
H  40.47300 10.87000 49.59700
H  39.08200 9.95500 48.88800

