158

Mg 26.09500 1.24100 29.22300
C  28.01300 0.86900 32.13100
C  23.35500 1.75600 31.30900
C  24.11700 1.62400 26.47000
C  28.66800 0.19800 27.31500
N  25.72000 1.23100 31.55000
C  26.74500 1.25000 32.52800
C  26.16500 1.47100 33.89100
C  24.58700 1.62400 33.58500
C  24.53100 1.53000 32.05000
C  23.51400 0.72300 34.29100
C  26.83600 2.66700 34.71800
C  27.23300 2.28000 36.12100
H  27.20300 3.27800 37.30700
N  24.05400 1.61500 28.96800
C  23.12300 1.88500 29.93500
C  21.84900 2.16600 29.33900
C  22.08900 2.18500 27.95100
C  23.48600 1.79200 27.73300
C  20.57600 2.39800 30.11700
C  21.10500 2.66000 26.89200
O  21.42700 2.93300 25.76100
C  19.61300 3.08400 27.24900
N  26.30900 1.03700 27.04900
C  25.43800 1.23700 26.10700
C  26.01800 1.15300 24.71300
C  27.59000 0.74500 24.97800
C  27.52800 0.63900 26.52000
C  25.31000 0.17100 23.68000
C  28.61800 1.80800 24.39400
C  29.72300 1.22400 23.48900
N  27.94300 0.71700 29.55900
C  28.97000 0.43800 28.69100
C  30.23000 0.25800 29.37900
C  29.92100 0.41000 30.74900
C  28.46700 0.66700 30.80300
C  31.54900 -0.01100 28.69000
C  30.44800 0.50600 32.08800
O  31.62100 0.40700 32.47700
C  29.21300 0.78600 32.99400
C  29.11800 -0.36200 33.92700
O  28.66600 -1.49000 33.65100
O  29.66800 0.07300 35.11900
C  29.61600 -0.95300 36.19100
H  22.55400 2.08400 31.97400
H  23.47400 1.79800 25.60500
H  29.47900 -0.20800 26.70700
H  26.18900 0.59900 34.54400
H  24.34600 2.66100 33.82200
H  22.96900 0.19400 33.50800
H  22.96300 1.41300 34.92900
H  24.00100 -0.03800 34.90100
H  26.15100 3.49000 34.92300
H  27.66200 3.03900 34.11100
H  28.30100 2.07300 36.05900
H  26.63200 1.44900 36.49100
H  20.28500 3.44800 30.14100
H  20.60400 2.12500 31.17200
H  19.67600 2.03200 29.62300
H  19.10200 2.13000 27.37500
H  19.15900 3.67200 26.45200
H  19.53600 3.67800 28.16000
H  25.98000 2.18300 24.35900
H  27.75900 -0.29500 24.69800
H  25.51200 -0.87500 23.91100
H  25.63100 0.35800 22.65500
H  24.22000 0.20400 23.66800
H  29.17200 2.21300 25.24100
H  28.20000 2.72100 23.97100
H  29.45400 0.19300 23.25700
H  30.73600 1.16300 23.88600
H  29.68200 1.82700 22.58200
H  31.52500 0.52200 27.74000
H  31.57800 -1.08700 28.52300
H  32.46200 0.32800 29.18000
H  29.43600 1.70500 33.53700
H  28.62700 -0.90700 36.64800
H  30.37900 -0.75900 36.94500
H  29.72500 -1.98200 35.84900
Mg 26.77500 50.78600 26.22000
C  24.94200 52.12000 28.78200
C  29.20100 49.81700 28.48300
C  28.56800 49.55700 23.69300
C  24.50900 52.19600 23.94200
N  26.97200 50.89500 28.33400
C  26.05100 51.40100 29.23600
C  26.44700 51.09000 30.70900
C  27.93500 50.61900 30.53200
C  28.05500 50.35300 29.05900
C  29.11400 51.67100 30.78800
C  25.50500 49.99900 31.42700
C  25.10800 50.27500 32.87600
H  26.14200 50.65200 33.94000
N  28.59600 49.86400 26.16000
C  29.53100 49.57100 27.15100
C  30.66900 49.00200 26.64100
C  30.33700 48.60100 25.35100
C  29.14100 49.36800 24.99000
C  31.84400 48.72300 27.51400
C  30.99800 47.71700 24.45400
O  30.53300 47.42100 23.36200
C  32.25600 46.97900 24.84900
N  26.66100 51.06900 24.20100
C  27.43900 50.30900 23.35200
C  27.01500 50.47700 21.84800
C  25.61100 51.10800 22.01000
C  25.58500 51.46800 23.54000
C  28.00100 51.24700 20.93200
C  24.40800 50.07800 21.82400
C  23.14100 50.64200 21.22300
N  25.12300 52.01400 26.30000
C  24.26700 52.50800 25.31600
C  23.08900 53.18100 25.91300
C  23.35100 53.05000 27.28000
C  24.59100 52.39300 27.43700
C  21.95400 53.69100 25.22000
C  22.82200 53.29200 28.61400
O  21.73600 53.82500 28.93000
C  23.85800 52.65600 29.58500
C  24.33200 53.64900 30.61200
O  25.06800 54.61400 30.39400
O  23.75900 53.43800 31.84500
C  24.27600 54.15400 33.03900
H  29.88300 49.39900 29.22700
H  29.08100 49.10200 22.84300
H  23.88000 52.67000 23.18600
H  26.31500 51.94200 31.37500
H  28.14800 49.78300 31.19900
H  29.61100 52.16900 29.95500
H  29.87500 51.27400 31.46000
H  28.65400 52.57100 31.19600
H  26.09100 49.08300 31.49300
H  24.66600 49.90100 30.73900
H  24.87500 49.28100 33.25600
H  24.17900 50.84500 32.87100
H  31.84700 47.67400 27.81100
H  31.88100 49.37700 28.38500
H  32.79700 49.00300 27.06400
H  31.98400 46.34800 25.69500
H  33.03100 47.71200 25.07500
H  32.58200 46.29700 24.06400
H  26.95700 49.46000 21.46000
H  25.55900 52.01700 21.41000
H  28.11500 50.72200 19.98400
H  28.90600 51.35800 21.53000
H  27.60200 52.25000 20.78000
H  24.02800 49.72500 22.78300
H  24.68600 49.21400 21.22100
H  22.84900 50.04300 20.35900
H  23.28000 51.70700 21.04000
H  22.24900 50.43000 21.81200
H  21.11700 53.82500 25.90500
H  21.63600 52.90800 24.53100
H  22.23400 54.59700 24.68300
H  23.33400 51.82500 30.05600
H  25.28900 54.54100 32.93400
H  24.18900 53.49300 33.90100
H  23.61200 54.98200 33.28900

