158

Mg 24.12100 -6.03000 46.08300
C  26.24700 -3.69100 44.39500
C  21.61000 -4.88800 43.96900
C  22.38000 -8.82700 46.74600
C  26.99900 -7.44100 47.54900
N  23.95100 -4.50100 44.53600
C  24.92100 -3.65200 43.96500
C  24.39700 -2.63400 43.00500
C  22.84500 -2.82200 43.10700
C  22.77400 -4.19300 43.91100
C  22.17700 -1.65300 43.79800
C  24.84800 -2.86800 41.55800
C  25.29600 -1.62700 40.79200
H  24.54900 -1.28500 39.44400
N  22.18700 -6.78100 45.44700
C  21.34200 -6.14200 44.60600
C  20.03900 -6.90300 44.59300
C  20.22600 -8.07800 45.43600
C  21.66100 -7.90900 45.96100
C  18.95900 -6.35000 43.82000
C  19.23000 -9.19000 45.79600
O  18.12000 -9.09100 45.31000
C  19.41900 -10.35700 46.66600
N  24.60800 -7.87400 47.04900
C  23.73000 -8.89400 47.21500
C  24.25400 -10.04800 48.12900
C  25.68000 -9.44200 48.47200
C  25.79000 -8.19100 47.61300
C  23.42800 -10.44900 49.41700
C  26.86300 -10.42100 48.37300
C  27.98500 -10.40200 49.45200
N  26.20900 -5.57100 46.19400
C  27.21200 -6.29300 46.75500
C  28.40300 -5.50700 46.63300
C  28.13400 -4.55800 45.64900
C  26.78300 -4.66200 45.36800
C  29.73400 -5.81500 47.20300
C  28.67100 -3.53000 44.79000
O  29.79100 -3.05900 44.63100
C  27.42600 -2.91000 43.97300
C  27.29700 -1.49000 44.31200
O  26.99200 -1.08700 45.42700
O  27.56400 -0.69700 43.18600
C  27.56200 0.76700 43.45600
H  20.85600 -4.43500 43.32200
H  21.70000 -9.67600 46.84200
H  27.84400 -7.75300 48.16600
H  24.64100 -1.63900 43.37900
H  22.44300 -2.99200 42.10800
H  22.25500 -0.78700 43.14100
H  22.45900 -1.47000 44.83500
H  21.09700 -1.79500 43.82200
H  24.19000 -3.54700 41.01600
H  25.82600 -3.32800 41.41700
H  26.37200 -1.52900 40.64700
H  25.20100 -0.76200 41.44800
H  19.41500 -6.21000 42.84000
H  18.60700 -5.38700 44.18800
H  18.12000 -7.01400 43.61100
H  18.46200 -10.87800 46.69600
H  19.52200 -9.97900 47.68300
H  20.18700 -11.00200 46.23800
H  24.47200 -10.90600 47.49300
H  25.59700 -9.07100 49.49300
H  22.43700 -9.99800 49.47300
H  23.92400 -10.50400 50.38600
H  23.19300 -11.48000 49.15300
H  27.30400 -10.22400 47.39600
H  26.35900 -11.38600 48.43600
H  28.89700 -10.28800 48.86600
H  27.97000 -11.39700 49.89500
H  27.79000 -9.67400 50.24000
H  29.84400 -6.90000 47.22500
H  29.65600 -5.38600 48.20100
H  30.44600 -5.19600 46.65600
H  27.57300 -3.08800 42.90800
H  28.28300 1.08200 44.21000
H  26.53300 0.94500 43.76900
H  27.74700 1.23900 42.49200
Mg 46.75500 24.65100 27.99700
C  48.11000 27.04100 30.42200
C  45.99900 22.63800 30.80100
C  45.81700 22.44200 25.88300
C  47.84600 26.88100 25.55400
N  46.88300 24.97200 30.37000
C  47.49000 25.99000 31.07400
C  47.29000 25.73700 32.61000
C  46.69200 24.32300 32.67400
C  46.44600 23.92800 31.18700
C  47.50900 23.19100 33.44900
C  46.46500 26.88700 33.23800
C  45.78900 26.65200 34.68200
H  46.25700 27.58200 35.86500
N  46.12300 22.70300 28.27700
C  45.82900 22.08200 29.44500
C  45.29000 20.73700 29.12600
C  45.24500 20.66700 27.75100
C  45.65100 21.97100 27.22800
C  45.08900 19.75600 30.19700
C  44.85500 19.51100 26.92500
O  44.80100 19.56200 25.70000
C  44.38900 18.28000 27.52100
N  47.05800 24.57900 25.99500
C  46.40900 23.59200 25.29800
C  46.61500 23.71400 23.80300
C  47.02300 25.29600 23.76500
C  47.31600 25.64100 25.21700
C  47.63600 22.70400 23.22800
C  45.87000 26.07400 23.07500
C  46.06100 27.56800 22.74000
N  47.71700 26.58600 27.89000
C  48.18300 27.28400 26.82400
C  48.89000 28.46800 27.28000
C  48.96800 28.39000 28.66900
C  48.23900 27.22900 29.04600
C  49.62400 29.45200 26.37200
C  49.37000 29.09600 29.87000
O  50.09200 30.11100 30.03900
C  48.71100 28.24600 31.06900
C  49.88000 27.95100 31.92100
O  50.79600 27.16900 31.73400
O  49.70800 28.71900 33.02900
C  50.47000 28.48300 34.30800
H  45.85100 22.06600 31.72000
H  45.56000 21.69400 25.13000
H  48.25000 27.53300 24.77700
H  48.24600 25.86300 33.11800
H  45.79100 24.21200 33.27700
H  46.91200 22.87300 34.30400
H  48.51700 23.56300 33.63700
H  47.75400 22.34800 32.80400
H  45.68500 27.21500 32.55000
H  47.05600 27.75400 33.53600
H  45.92600 25.60400 34.94800
H  44.77800 26.89400 34.35700
H  44.07200 19.39700 30.35600
H  45.36100 20.11100 31.19100
H  45.77800 18.91800 30.09400
H  44.96600 17.88900 28.36000
H  44.21200 17.49300 26.78800
H  43.48300 18.68700 27.97000
H  45.64400 23.64600 23.31300
H  47.91300 25.35100 23.13800
H  48.27300 22.22500 23.97200
H  48.10900 23.25000 22.41100
H  46.93600 21.93800 22.89500
H  45.03700 26.09900 23.77800
H  45.58000 25.57000 22.15300
H  47.14500 27.64900 22.65700
H  45.73200 28.20500 23.56100
H  45.54200 27.83900 21.82000
H  49.82400 29.06600 25.37200
H  50.58700 29.68700 26.82500
H  49.17100 30.44200 26.43400
H  48.01000 28.85200 31.64200
H  50.08400 27.59500 34.80900
H  50.22600 29.30000 34.98700
H  51.52700 28.56500 34.05600

