158

Mg 55.41600 24.42800 45.35700
C  52.63900 26.38600 44.67400
C  53.62300 21.61400 44.50400
C  58.28500 22.66400 45.40500
C  57.10300 27.41300 46.24100
N  53.39100 24.03300 44.55400
C  52.42100 25.00100 44.41200
C  51.15600 24.35500 43.96100
C  51.32400 22.80400 44.25900
C  52.87100 22.77100 44.45200
C  50.73500 22.25500 45.64600
C  50.56900 24.64400 42.50400
C  49.00700 24.59900 42.29400
H  48.45500 24.12200 40.86800
N  55.97000 22.39800 44.92200
C  55.04600 21.37600 44.68200
C  55.75700 20.21700 44.33500
C  57.14600 20.43900 44.64600
C  57.22200 21.87100 45.01600
C  55.02100 19.06700 43.74400
C  58.17500 19.41300 44.69000
O  57.93100 18.23000 44.37400
C  59.58900 19.76000 45.11000
N  57.35800 24.89600 45.67700
C  58.38200 23.98400 45.73500
C  59.66900 24.65000 46.21800
C  59.31200 26.15700 46.24800
C  57.85700 26.20300 45.96000
C  60.27300 24.09700 47.51600
C  60.14200 27.11400 45.26200
C  61.38700 27.67200 45.82400
N  54.95600 26.48900 45.57500
C  55.71900 27.59000 45.92400
C  54.89400 28.81900 45.94000
C  53.67400 28.36600 45.41900
C  53.79600 26.98500 45.19500
C  55.37100 30.11600 46.52600
C  52.33700 28.82800 45.03700
O  51.74800 29.88200 45.16800
C  51.65100 27.54700 44.45800
C  51.45200 27.75800 43.01400
O  52.28600 27.70300 42.08400
O  50.12600 27.95000 42.78600
C  49.88500 28.92100 41.71000
H  53.04000 20.69900 44.38400
H  59.23000 22.13600 45.55400
H  57.56600 28.36500 46.50700
H  50.40400 24.78100 44.62600
H  50.86100 22.18000 43.49500
H  50.08400 23.04300 46.02700
H  51.47800 22.00300 46.40300
H  50.11600 21.37700 45.46400
H  50.88100 23.75100 41.96300
H  50.83700 25.52400 41.91900
H  48.73700 25.64700 42.42600
H  48.59100 23.98600 43.09400
H  54.47300 18.41400 44.42400
H  55.63000 18.38700 43.14900
H  54.27000 19.44300 43.04900
H  59.95600 20.39500 44.30300
H  60.24000 18.88600 45.07400
H  59.53000 20.16600 46.11900
H  60.30700 24.42800 45.36300
H  59.43300 26.49600 47.27700
H  59.91200 23.06900 47.48000
H  59.89000 24.62100 48.39200
H  61.35400 24.19200 47.41200
H  59.39500 27.84400 44.94900
H  60.47000 26.42800 44.48000
H  61.54400 27.32300 46.84500
H  61.35200 28.76100 45.78200
H  62.28300 27.33700 45.30200
H  56.28000 30.45000 46.02500
H  55.47700 29.91100 47.59100
H  54.57700 30.86300 46.52400
H  50.76000 27.29400 45.03300
H  50.59500 29.74200 41.80100
H  48.90600 29.39900 41.74900
H  49.95300 28.45700 40.72600
Mg 48.30100 45.79900 42.68400
C  45.19200 46.76500 41.56300
C  48.02900 42.86600 40.95000
C  51.74000 45.21100 43.20400
C  48.77900 48.98500 44.01900
N  46.94600 45.06200 41.08100
C  45.62200 45.53800 40.96200
C  44.78700 44.72200 39.97600
C  45.55500 43.34500 40.14200
C  46.95300 43.76100 40.74400
C  44.82700 42.25400 41.05300
C  44.93100 45.22200 38.51800
C  43.83200 44.79200 37.49800
H  44.20200 43.72000 36.53700
N  49.71500 44.25700 42.20800
C  49.30700 43.11300 41.53400
C  50.48600 42.20600 41.52400
C  51.62400 42.87500 42.21600
C  51.03500 44.16200 42.62300
C  50.44400 40.77100 40.90500
C  52.97300 42.21800 42.47700
O  53.36400 41.23000 41.91300
C  53.97100 42.82100 43.40000
N  50.08700 47.00300 43.31900
C  51.35700 46.51100 43.48400
C  52.29800 47.66200 43.99500
C  51.28400 48.71100 44.51500
C  49.97400 48.28200 43.89900
C  53.52000 47.34000 44.93700
C  51.75200 50.16500 44.23200
C  51.56900 51.10100 45.45900
N  47.20800 47.44000 42.84900
C  47.48900 48.63400 43.49200
C  46.27400 49.48300 43.39500
C  45.29800 48.65300 42.86000
C  45.97800 47.51900 42.42300
C  46.07900 50.83600 43.94400
C  43.88600 48.59900 42.45800
O  42.89000 49.32700 42.65600
C  43.81400 47.47100 41.42100
C  42.71100 46.61900 41.94000
O  41.57300 46.64300 41.41400
O  43.06000 45.85400 43.00300
C  42.21900 44.68800 43.30500
H  47.91900 41.83100 40.62100
H  52.74900 45.00900 43.57000
H  48.88100 49.99100 44.42900
H  43.74500 44.72100 40.29600
H  45.68500 42.82600 39.19300
H  43.84500 42.70800 41.18800
H  45.29900 42.14200 42.02900
H  44.73700 41.26500 40.60500
H  45.88000 44.83700 38.14400
H  45.01700 46.30700 38.57900
H  43.49100 45.65500 36.92500
H  42.92400 44.48900 38.02000
H  50.69500 40.88200 39.85000
H  49.46600 40.29200 40.95400
H  51.16900 40.10900 41.38000
H  53.52000 43.07900 44.35800
H  54.24700 43.78400 42.97100
H  54.84500 42.17700 43.49400
H  52.70400 48.04600 43.06000
H  51.18600 48.45000 45.56900
H  53.43500 47.79200 45.92500
H  54.36300 47.81100 44.43300
H  53.72700 46.27900 45.07700
H  51.18700 50.59700 43.40600
H  52.80800 50.17200 43.96000
H  51.06600 50.63700 46.30700
H  50.92500 51.95600 45.25300
H  52.57700 51.41000 45.73600
H  45.63000 51.39100 43.12000
H  46.96500 51.36300 44.29700
H  45.31600 50.79600 44.72100
H  43.60400 47.74700 40.38800
H  42.76000 43.76800 43.52700
H  41.52500 44.50000 42.48500
H  41.44300 44.96100 44.02000

