158

Mg 30.37000 58.03100 40.32100
C  27.96000 56.04300 39.25100
C  32.70500 55.84900 39.08300
C  32.82900 60.40500 40.54500
C  27.96000 60.67400 40.76000
N  30.32000 56.25800 39.09000
C  29.15200 55.56400 38.88900
C  29.45700 54.19700 38.31900
C  30.95700 53.98900 38.69500
C  31.36200 55.45500 38.92600
C  31.04400 53.06900 39.90500
C  29.25300 54.19000 36.81500
C  28.25000 53.12500 36.31900
H  27.53700 53.44700 35.00700
N  32.49800 58.17600 39.89600
C  33.22800 57.10200 39.47000
C  34.67000 57.43900 39.51200
C  34.78600 58.74600 39.97000
C  33.30100 59.19600 40.14100
C  35.86100 56.42000 39.34300
C  36.08800 59.51700 40.26600
O  37.19200 59.01800 40.03100
C  36.02800 60.89400 40.80900
N  30.37500 60.27200 40.55700
C  31.53000 60.90200 40.82200
C  31.30200 62.39200 41.37400
C  29.70700 62.52200 41.37200
C  29.25000 61.05100 40.80700
C  32.08000 62.80000 42.61300
C  29.15700 63.66500 40.46200
C  28.22200 64.66000 41.27100
N  28.40300 58.28900 40.13600
C  27.54600 59.39900 40.48800
C  26.12900 58.90700 40.27700
C  26.25600 57.61300 39.78700
C  27.65200 57.33900 39.72400
C  24.94000 59.73700 40.55400
C  25.48700 56.54000 39.15100
O  24.31500 56.53200 38.80200
C  26.56100 55.37100 38.91300
C  26.19900 54.24200 39.88600
O  26.92100 53.70600 40.75200
O  25.05900 53.60000 39.44500
C  24.76200 52.21500 39.80700
H  33.37000 55.01900 38.83600
H  33.55900 61.13900 40.89200
H  27.21000 61.37900 41.12400
H  28.86400 53.41200 38.78800
H  31.54200 53.46200 37.94100
H  30.10700 53.02300 40.45900
H  31.73600 53.64300 40.52200
H  31.42800 52.07300 39.68200
H  30.23400 54.19900 36.34000
H  28.92700 55.20000 36.56300
H  27.49900 52.94600 37.08800
H  28.89400 52.29700 36.02100
H  35.84600 56.15000 38.28700
H  35.82200 55.49100 39.91100
H  36.87300 56.76600 39.55200
H  35.54000 60.96500 41.78100
H  35.48200 61.35400 39.98600
H  37.04300 61.28900 40.84600
H  31.71800 62.92400 40.51800
H  29.37000 62.66500 42.39900
H  32.26500 61.85600 43.12600
H  31.54700 63.47200 43.28500
H  33.08000 63.15100 42.35800
H  28.64300 63.27600 39.58300
H  30.00600 64.21300 40.05300
H  27.50600 64.14200 41.90900
H  27.63700 65.29300 40.60500
H  28.80700 65.31900 41.91300
H  25.02300 60.57200 39.85900
H  24.95500 60.12800 41.57200
H  23.99100 59.25900 40.31500
H  26.51400 54.98700 37.89400
H  23.69100 52.10500 39.97800
H  25.27900 51.82700 40.68500
H  25.08300 51.52900 39.02400
Mg -11.58900 16.17500 41.48100
C  -8.45300 14.66400 41.18500
C  -10.09400 19.05600 40.45200
C  -14.65100 17.42200 40.87800
C  -13.02300 13.06700 42.16900
N  -9.55600 16.70400 40.60700
C  -8.38600 15.94600 40.71000
C  -7.14800 16.72300 40.32100
C  -7.63700 18.17200 40.46000
C  -9.18900 17.98900 40.50600
C  -7.09700 18.94000 41.74100
C  -6.58100 16.42400 38.88400
C  -5.05600 16.43400 38.76200
H  -4.64500 16.93500 37.40300
N  -12.33800 17.91600 40.86700
C  -11.54700 19.02200 40.58300
C  -12.41400 20.14400 40.25500
C  -13.78500 19.76500 40.33800
C  -13.60800 18.31100 40.71800
C  -11.89700 21.46900 39.94500
C  -15.02500 20.49600 39.91600
O  -14.89900 21.62600 39.49200
C  -16.43000 19.96700 40.06300
N  -13.63100 15.32100 41.46100
C  -14.67700 16.03700 41.26400
C  -15.97200 15.22800 41.48300
C  -15.44300 13.82300 41.94200
C  -13.93700 14.10900 41.96900
C  -16.94900 15.92800 42.51800
C  -15.72700 12.70800 40.96600
C  -16.18500 11.36200 41.63100
N  -10.90500 14.24500 41.82900
C  -11.55700 13.09400 42.19500
C  -10.57800 12.05600 42.48900
C  -9.33200 12.62800 42.13400
C  -9.60800 13.90900 41.63600
C  -10.90700 10.63000 42.96400
C  -7.87400 12.43800 42.10500
O  -7.08600 11.62400 42.60700
C  -7.29300 13.71600 41.40200
C  -6.29300 14.28300 42.39300
O  -6.57700 14.84200 43.45000
O  -5.02500 14.01300 41.98800
C  -3.98600 14.55800 42.82300
H  -9.66800 20.03900 40.24100
H  -15.63900 17.87400 40.77500
H  -13.51700 12.10600 42.32800
H  -6.32500 16.50800 41.00400
H  -7.49000 18.73500 39.53800
H  -7.95300 19.09200 42.39900
H  -6.87000 19.99100 41.56200
H  -6.35200 18.31700 42.23500
H  -6.87100 17.03800 38.03200
H  -6.80500 15.38300 38.65200
H  -4.66200 15.42200 38.85800
H  -4.56700 17.03400 39.53000
H  -12.14800 21.66000 38.90200
H  -10.84700 21.70200 40.11800
H  -12.33900 22.25200 40.56100
H  -17.24700 20.68100 39.96400
H  -16.47700 19.65600 41.10700
H  -16.59500 19.08400 39.44500
H  -16.42500 15.20100 40.49100
H  -15.86300 13.52200 42.90100
H  -17.89100 16.16200 42.02100
H  -16.45700 16.85400 42.81700
H  -17.16300 15.25200 43.34600
H  -14.99700 12.42200 40.20900
H  -16.63900 12.94700 40.41900
H  -16.21400 11.47000 42.71500
H  -15.47700 10.61600 41.27200
H  -17.22700 11.06700 41.50600
H  -11.84500 10.68300 43.51600
H  -10.10400 10.12800 43.50400
H  -11.07100 10.15500 41.99700
H  -6.83200 13.40800 40.46300
H  -4.17100 15.63200 42.83400
H  -3.00800 14.19500 42.50600
H  -4.18100 14.24200 43.84800

