158

Mg -9.96600 40.65200 43.34700
C  -8.86300 37.42100 42.55900
C  -6.93500 41.77800 41.95500
C  -11.13300 43.75100 43.51200
C  -13.15300 39.48500 44.09400
N  -8.07400 39.65800 42.24000
C  -7.80400 38.31600 42.26200
C  -6.33000 38.04700 41.81500
C  -5.76400 39.54300 41.80500
C  -6.95900 40.45900 42.06000
C  -4.51500 39.77700 42.74900
C  -6.32300 37.30900 40.43400
C  -5.00600 36.53500 40.12300
H  -3.98200 37.22200 39.13800
N  -9.18700 42.54600 42.73400
C  -7.93400 42.76600 42.18100
C  -7.76000 44.14300 42.08100
C  -8.96400 44.81200 42.47000
C  -9.84500 43.69700 42.91300
C  -6.44200 44.82300 41.60100
C  -9.29100 46.35600 42.54000
O  -8.41900 47.21700 42.33400
C  -10.73400 46.86500 42.73900
N  -11.87500 41.51000 43.89400
C  -12.00500 42.82700 44.06100
C  -13.39500 43.26300 44.43000
C  -14.14400 41.78600 44.61900
C  -13.00000 40.82500 44.24200
C  -13.59000 44.29600 45.57400
C  -15.45500 41.67900 43.91300
C  -16.48200 40.76500 44.59000
N  -10.85100 38.87600 43.33900
C  -12.20100 38.55000 43.68400
C  -12.34200 37.07400 43.60000
C  -11.09900 36.62600 43.19200
C  -10.21900 37.77600 42.93400
C  -13.46800 36.17600 43.89000
C  -10.29200 35.45700 42.90000
O  -10.60000 34.27000 42.83100
C  -8.87400 35.88600 42.38900
C  -7.83800 35.03200 42.97200
O  -7.45000 35.13200 44.09100
O  -7.43000 34.09800 42.09000
C  -6.44000 33.10800 42.53800
H  -5.91900 42.15000 41.80500
H  -11.63000 44.72300 43.48800
H  -14.11500 39.02800 44.33600
H  -5.92100 37.45200 42.63200
H  -5.31400 39.70200 40.82500
H  -3.58900 39.43500 42.28800
H  -4.52600 39.08500 43.59200
H  -4.28300 40.79600 43.05800
H  -6.44100 38.07500 39.66700
H  -7.12000 36.58800 40.25500
H  -5.29500 35.56600 39.71800
H  -4.52300 36.36200 41.08500
H  -6.53300 45.48600 40.74000
H  -5.63800 44.09600 41.48900
H  -6.09300 45.56000 42.32300
H  -10.91600 47.84500 42.29800
H  -10.86400 46.84900 43.82200
H  -11.47100 46.23600 42.24000
H  -13.88900 43.57800 43.51100
H  -14.29800 41.65200 45.68900
H  -12.71800 44.93300 45.72400
H  -13.94500 43.74800 46.44600
H  -14.28700 45.05700 45.22100
H  -15.15800 41.30400 42.93400
H  -15.87100 42.68200 43.81500
H  -16.06800 40.13400 45.37600
H  -16.78700 40.08900 43.79100
H  -17.26400 41.43600 44.94600
H  -14.11100 36.52600 44.69800
H  -13.26400 35.16700 44.24800
H  -14.00800 35.91900 42.97900
H  -8.85500 35.75200 41.30700
H  -5.90200 32.69800 41.68300
H  -6.83900 32.45000 43.30900
H  -5.64300 33.70900 42.97700
Mg 0.39800 43.01100 26.53700
C  2.49600 42.24600 29.21000
C  -2.24600 41.89300 28.43900
C  -1.59400 43.39600 23.89100
C  3.12300 44.02000 24.60700
N  0.18600 41.94200 28.57100
C  1.17500 41.88400 29.52300
C  0.55000 41.78000 30.88400
C  -0.96500 41.52300 30.62400
C  -1.03900 41.84500 29.09900
C  -1.54900 40.17800 30.85000
C  0.80700 43.06400 31.75200
C  1.08700 42.83600 33.27800
H  0.53000 41.59800 33.94600
N  -1.63900 42.65100 26.19600
C  -2.60000 42.25600 27.12800
C  -3.89500 42.15600 26.46100
C  -3.72100 42.53400 25.07400
C  -2.29000 42.88600 24.98400
C  -5.14400 41.75200 27.19600
C  -4.67000 42.70500 23.97000
O  -4.44400 43.22700 22.90900
C  -6.05100 42.22800 24.15900
N  0.68100 43.62000 24.55900
C  -0.32200 43.81100 23.65400
C  0.07100 44.49800 22.35100
C  1.52200 44.79300 22.73600
C  1.83700 44.11700 24.05000
C  -0.07300 43.61000 21.12800
C  2.09500 46.24400 22.42900
C  1.98200 47.29500 23.51500
N  2.40400 43.08700 26.75100
C  3.38600 43.51100 25.88400
C  4.67100 43.38900 26.55100
C  4.36800 42.89600 27.81300
C  2.94100 42.74200 27.96400
C  6.03800 43.75000 25.89700
C  4.95500 42.54300 29.05900
O  6.10200 42.34300 29.39700
C  3.74900 42.30200 30.04300
C  4.03800 41.07300 30.85200
O  3.79600 39.92500 30.49300
O  4.64300 41.41400 32.01200
C  5.03000 40.25100 32.86500
H  -3.17300 41.62700 28.95000
H  -2.26600 43.41800 23.03000
H  3.94000 44.45700 24.02900
H  1.08300 40.94000 31.33000
H  -1.60600 42.26800 31.09600
H  -1.08800 39.66100 31.69100
H  -1.28800 39.58100 29.97600
H  -2.63900 40.16700 30.89200
H  -0.09600 43.66900 31.67200
H  1.66600 43.67900 31.48400
H  0.74400 43.71800 33.82000
H  2.17500 42.86600 33.33600
H  -5.87100 42.55800 27.30000
H  -5.03600 41.40300 28.22300
H  -5.61900 40.91500 26.68400
H  -6.42200 42.19100 23.13400
H  -6.61900 42.96500 24.72800
H  -6.05400 41.21300 24.55400
H  -0.53800 45.38600 22.17900
H  2.15000 44.04400 22.25400
H  0.88600 43.29400 20.71800
H  -0.66100 44.14300 20.38100
H  -0.65800 42.71400 21.33900
H  1.51800 46.61400 21.58200
H  3.05400 46.03300 21.95400
H  1.75400 46.90800 24.50800
H  1.36600 48.16000 23.27200
H  3.05400 47.47100 23.60600
H  6.25500 43.02400 25.11300
H  6.73100 43.64800 26.73200
H  6.01700 44.74300 25.44700
H  3.64400 43.05600 30.82300
H  5.00500 40.54400 33.91400
H  6.10500 40.09500 32.77300
H  4.54200 39.31100 32.60700

