158

Mg -1.83700 17.14900 26.39800
C  -1.86500 14.92000 29.00300
C  -2.94200 19.63400 28.51600
C  -1.90600 19.21500 23.68900
C  -1.23900 14.41000 24.14100
N  -2.52700 17.20700 28.41100
C  -2.27100 16.26700 29.33200
C  -2.62000 16.73500 30.76000
C  -3.34900 18.12100 30.49000
C  -2.89200 18.35900 29.10500
C  -4.85100 18.06000 30.64900
C  -1.39500 16.80300 31.76800
C  -1.60600 17.67700 33.04300
H  -1.27000 16.98500 34.40800
N  -2.29200 19.07400 26.19900
C  -2.79500 19.96200 27.16100
C  -2.86100 21.31400 26.63000
C  -2.43900 21.17700 25.25100
C  -2.20300 19.80500 24.96700
C  -3.28400 22.47100 27.47400
C  -2.31700 22.30800 24.17000
O  -2.18000 22.07900 22.94300
C  -2.33200 23.80300 24.54500
N  -1.64900 16.83500 24.30200
C  -1.75100 17.83600 23.39500
C  -1.31700 17.34600 22.03400
C  -0.81000 15.95500 22.24500
C  -1.28100 15.68900 23.68500
C  -2.41000 17.55600 20.90500
C  0.66300 15.59100 22.00000
C  1.65500 16.35000 22.73700
N  -1.62000 15.06400 26.45800
C  -1.38400 14.12800 25.46800
C  -1.25400 12.84100 26.15900
C  -1.37300 13.11600 27.56100
C  -1.66400 14.47100 27.67300
C  -1.03900 11.51300 25.54500
C  -1.25200 12.55400 28.82800
O  -1.03500 11.42300 29.26400
C  -1.79300 13.61400 29.79000
C  -1.01500 13.55400 31.13000
O  0.12900 13.98400 31.23500
O  -1.60600 12.71000 32.03300
C  -0.79700 12.33600 33.22200
H  -3.39100 20.43200 29.11200
H  -1.73600 19.81400 22.79200
H  -0.90900 13.66600 23.41300
H  -3.28000 15.96000 31.14900
H  -3.00600 18.88400 31.18800
H  -5.37400 18.94800 31.00400
H  -5.13800 17.41900 31.48200
H  -5.22500 17.58500 29.74200
H  -0.58800 17.23600 31.17800
H  -1.13400 15.81000 32.13600
H  -2.55200 18.21700 33.04000
H  -0.84700 18.45900 33.04000
H  -4.02200 22.29400 28.25700
H  -3.74000 23.29000 26.91800
H  -2.38300 22.82400 27.97600
H  -1.92700 23.88200 25.55400
H  -3.38800 24.07100 24.58800
H  -1.80400 24.38100 23.78700
H  -0.38000 17.82200 21.74400
H  -1.32800 15.22600 21.62100
H  -2.13100 18.43300 20.32000
H  -3.42700 17.72200 21.26000
H  -2.52200 16.75500 20.17400
H  0.80400 16.00500 21.00100
H  0.72000 14.50400 21.95700
H  1.13000 16.75400 23.60200
H  2.00100 17.17300 22.11100
H  2.46500 15.71600 23.09700
H  -0.91200 11.64600 24.47000
H  -2.02300 11.06100 25.66300
H  -0.37700 10.79700 26.03400
H  -2.77100 13.18200 30.00000
H  0.20700 11.97800 32.99500
H  -1.45300 11.64700 33.75500
H  -0.56500 13.25500 33.75900
Mg 34.88800 49.63600 25.58200
C  35.39800 47.63300 28.50800
C  33.28800 52.01300 27.53600
C  34.30400 51.06300 22.77800
C  36.01400 46.75400 23.79400
N  34.39400 49.75200 27.77000
C  34.71900 48.84200 28.79400
C  34.22700 49.42400 30.14500
C  33.39700 50.63200 29.73300
C  33.73800 50.89000 28.27300
C  31.84600 50.52000 30.03400
C  35.48700 49.75100 31.09700
C  35.41300 49.38200 32.54600
H  33.98100 49.51400 33.11900
N  33.96000 51.38200 25.20700
C  33.32200 52.25800 26.12800
C  32.81700 53.36800 25.38000
C  33.17700 53.10200 23.98400
C  33.80100 51.80700 23.92400
C  32.09600 54.51000 26.05600
C  32.98300 54.02400 22.80200
O  33.18000 53.74800 21.61900
C  32.37000 55.45400 22.94300
N  35.16700 49.06700 23.54300
C  34.95200 49.87800 22.57700
C  35.56600 49.51500 21.21600
C  35.93100 48.00200 21.48400
C  35.67900 47.89100 23.05300
C  34.49700 49.59600 20.05500
C  37.40700 47.62800 21.10500
C  38.50400 47.93100 22.08900
N  35.58300 47.63500 25.97300
C  36.03400 46.61800 25.14100
C  36.49600 45.47200 25.95200
C  36.24100 45.89100 27.27300
C  35.71700 47.13300 27.21400
C  37.14700 44.25600 25.45300
C  36.31200 45.44000 28.71800
O  36.69300 44.31900 29.17500
C  35.73700 46.53900 29.55400
C  34.58400 45.99700 30.34000
O  33.46500 45.69400 29.90000
O  34.96600 45.78600 31.63200
C  34.06700 45.01800 32.51200
H  32.93800 52.79500 28.21300
H  34.08400 51.56000 21.83100
H  36.43800 45.92400 23.22500
H  33.58800 48.79200 30.76200
H  33.80600 51.50100 30.24900
H  31.31600 50.80100 29.12400
H  31.66300 51.28600 30.78700
H  31.60900 49.55800 30.48800
H  35.66800 50.82600 31.12100
H  36.31700 49.30000 30.55400
H  36.07000 50.04100 33.11400
H  35.72700 48.33900 32.58300
H  32.41100 55.53300 25.85200
H  32.19600 54.59200 27.13800
H  31.05200 54.52600 25.74200
H  31.99900 55.69700 21.94700
H  33.06600 56.21800 23.28900
H  31.56000 55.32800 23.66100
H  36.44700 50.09200 20.93600
H  35.22200 47.30900 21.03100
H  34.31300 50.66000 19.90600
H  33.63600 49.00900 20.37500
H  34.72500 49.06300 19.13100
H  37.70500 48.17900 20.21300
H  37.55400 46.59000 20.80900
H  38.08500 48.43700 22.95900
H  39.22500 48.67900 21.75800
H  39.10600 47.11100 22.47900
H  37.40800 43.56700 26.25500
H  38.00100 44.49000 24.81800
H  36.40000 43.75000 24.84100
H  36.42400 46.96800 30.28400
H  33.28000 45.65700 32.91400
H  34.63700 44.80100 33.41500
H  33.70900 44.10900 32.02800

