158

Mg 26.05400 1.21600 28.88400
C  27.95100 0.94000 31.77000
C  23.24300 1.50500 30.87200
C  24.12700 1.54500 26.05800
C  28.83800 0.63400 26.91200
N  25.67100 1.33300 31.10500
C  26.65200 1.19400 32.08600
C  26.07200 1.38300 33.48500
C  24.48000 1.32300 33.14400
C  24.44400 1.33300 31.60800
C  23.68300 0.13600 33.76800
C  26.63500 2.64100 34.17500
C  26.94700 2.41300 35.71900
H  26.47700 3.38500 36.82300
N  23.91200 1.38200 28.51600
C  22.98000 1.64300 29.50400
C  21.71000 1.83700 28.83800
C  21.95100 1.83600 27.41300
C  23.37900 1.62800 27.23100
C  20.38300 2.05600 29.64200
C  20.92200 2.04400 26.28500
O  21.21000 1.98700 25.10100
C  19.44600 2.16100 26.61700
N  26.39300 0.72100 26.71700
C  25.45000 1.14500 25.80500
C  26.06600 1.35900 24.41100
C  27.69400 1.14400 24.67500
C  27.65900 0.82000 26.15400
C  25.47200 0.37600 23.35300
C  28.58000 2.34200 24.35000
C  29.88300 2.07600 23.67500
N  28.05400 0.98000 29.22300
C  29.02600 0.62600 28.29800
C  30.28300 0.43900 29.07400
C  29.87500 0.57500 30.40200
C  28.55900 0.83900 30.43300
C  31.62200 0.20700 28.58000
C  30.36500 0.63200 31.77600
O  31.52100 0.58100 32.16900
C  29.12800 0.60900 32.69300
C  28.96000 -0.75400 33.31200
O  28.52300 -1.71900 32.81400
O  29.45800 -0.78600 34.58300
C  28.99300 -1.90900 35.44800
H  22.40400 1.46700 31.57000
H  23.49800 1.83800 25.21500
H  29.76100 0.39800 26.37800
H  26.33300 0.55500 34.14400
H  24.00800 2.28100 33.36100
H  23.44300 -0.56400 32.96800
H  22.81000 0.49900 34.31100
H  24.16800 -0.33500 34.62300
H  25.88500 3.42200 34.04900
H  27.50300 3.00800 33.62700
H  28.03500 2.36900 35.77800
H  26.58500 1.43000 36.02100
H  20.26500 3.13800 29.57400
H  20.35700 1.64900 30.65200
H  19.62100 1.46400 29.13400
H  18.85200 2.17500 25.70400
H  19.34700 3.13600 27.09400
H  19.00800 1.38900 27.25100
H  25.81400 2.37900 24.11700
H  28.00100 0.24500 24.14200
H  25.01400 -0.53500 23.73900
H  26.33500 0.15500 22.72600
H  24.69600 0.86900 22.76600
H  28.83200 2.78300 25.31400
H  27.88300 3.01700 23.85400
H  29.63600 2.21400 22.62300
H  30.19400 1.07100 23.96100
H  30.65800 2.76200 24.01800
H  31.57200 0.04400 27.50300
H  32.01400 -0.68700 29.06600
H  32.28700 1.04200 28.79900
H  29.35000 1.36100 33.45100
H  29.78000 -2.62400 35.21000
H  28.00700 -2.25100 35.13000
H  29.02400 -1.80300 36.53200
Mg 0.08000 43.63700 25.60800
C  2.00900 43.92600 28.33500
C  -2.78500 43.43000 27.54000
C  -1.66200 42.78000 22.83400
C  3.03100 43.98100 23.65600
N  -0.38700 43.79800 27.68800
C  0.58800 43.88300 28.65800
C  0.01800 43.94700 30.07800
C  -1.48800 43.62000 29.79700
C  -1.59200 43.66400 28.23700
C  -2.12000 42.39200 30.44200
C  0.28400 45.34500 30.76300
C  0.84000 45.31400 32.20300
H  0.44000 44.15600 33.17600
N  -1.94400 43.18600 25.21100
C  -2.99900 43.14100 26.16400
C  -4.23100 42.64900 25.52100
C  -3.88600 42.48900 24.14100
C  -2.44100 42.70300 24.01600
C  -5.49100 42.46600 26.35100
C  -4.83300 42.02500 22.96100
O  -4.43600 41.88700 21.76400
C  -6.21000 41.84200 23.15700
N  0.62100 43.43300 23.52800
C  -0.29900 43.18200 22.58500
C  0.41500 43.11000 21.20000
C  1.68900 44.00200 21.40300
C  1.80500 43.83000 22.92600
C  0.56500 41.67900 20.71600
C  1.60400 45.47600 20.80300
C  1.47000 46.77700 21.69700
N  2.11300 43.93800 25.88000
C  3.15300 44.01000 25.01800
C  4.43300 44.12600 25.77300
C  4.03600 44.08500 27.13200
C  2.63800 44.03500 27.07800
C  5.87700 44.18200 25.28400
C  4.46900 44.04000 28.51800
O  5.55600 43.99300 29.07200
C  3.11100 43.93600 29.40700
C  3.11000 42.65300 30.29300
O  3.12900 41.45100 29.96500
O  3.50500 43.11400 31.52400
C  3.83800 42.12800 32.50600
H  -3.70200 43.37700 28.13100
H  -2.16500 42.52900 21.89800
H  3.95300 44.16100 23.09800
H  0.42100 43.09300 30.62400
H  -2.02600 44.48700 30.18100
H  -2.19900 41.67700 29.62300
H  -3.10500 42.76300 30.72400
H  -1.56700 41.90500 31.24400
H  -0.59000 45.98700 30.66000
H  0.90500 45.96600 30.11800
H  0.60200 46.26500 32.68000
H  1.90900 45.17400 32.04300
H  -5.36200 41.54500 26.92100
H  -6.39000 42.41800 25.73600
H  -5.70300 43.14800 27.17400
H  -6.68300 41.56900 22.21300
H  -6.65800 42.78600 23.46700
H  -6.29800 41.00300 23.84700
H  -0.20100 43.56700 20.42500
H  2.55200 43.48100 20.98800
H  0.26700 40.93500 21.45500
H  1.54700 41.41300 20.32500
H  -0.19700 41.47400 19.96400
H  0.80200 45.49600 20.06600
H  2.54300 45.55500 20.25500
H  1.80900 46.55700 22.70900
H  0.42500 47.08300 21.74600
H  2.16300 47.49000 21.25200
H  6.06500 43.27300 24.71300
H  6.60300 44.34200 26.08100
H  6.11000 45.01400 24.61900
H  3.04100 44.82300 30.03600
H  3.44000 41.12400 32.35600
H  3.54100 42.57000 33.45700
H  4.92400 42.17400 32.57600

