158

Mg 48.07300 16.16300 28.63700
C  46.11200 16.11300 31.58200
C  50.50300 17.91300 30.29800
C  49.85600 16.22000 25.77200
C  45.41200 14.63200 26.96900
N  48.21300 16.98200 30.65900
C  47.34300 16.81000 31.70600
C  47.95100 17.44200 33.02700
C  49.18100 18.23300 32.48500
C  49.35100 17.72200 31.06800
C  49.03000 19.80700 32.38200
C  48.26700 16.34000 34.09000
C  47.80600 16.46400 35.50900
H  47.50800 17.89400 36.09400
N  49.94400 16.89400 28.14900
C  50.84800 17.54200 28.95400
C  52.10400 17.76500 28.27600
C  51.97300 17.23400 27.00500
C  50.58200 16.68200 26.93900
C  53.27600 18.55000 28.81400
C  52.99700 17.13100 25.74800
O  52.69800 16.67300 24.64900
C  54.37000 17.45400 25.99500
N  47.56500 15.76400 26.60800
C  48.50700 15.82300 25.56100
C  48.09600 15.03700 24.33800
C  46.67100 14.38500 24.81600
C  46.54400 14.92400 26.21500
C  47.92800 15.87200 23.04400
C  46.54100 12.87400 24.61100
C  45.76800 12.44700 23.33800
N  46.20800 15.42200 29.11300
C  45.18300 14.82300 28.32300
C  43.94700 14.59600 29.10200
C  44.30200 15.02600 30.39600
C  45.66100 15.57400 30.33300
C  42.79200 13.89800 28.50100
C  43.86700 15.14600 31.74800
O  42.78100 14.78000 32.17000
C  45.06800 15.83400 32.59400
C  44.49500 16.94000 33.38800
O  44.26400 18.09400 33.02500
O  44.17400 16.41400 34.66500
C  43.34500 17.19800 35.53900
H  51.32900 18.50200 30.70400
H  50.50800 16.32500 24.90200
H  44.67100 14.21600 26.28400
H  47.13100 18.07300 33.37000
H  50.04000 18.08500 33.14000
H  48.97800 20.11700 31.33800
H  49.96500 20.23600 32.74300
H  48.16300 20.12200 32.96300
H  49.35100 16.34400 34.20100
H  47.99300 15.37700 33.65700
H  48.63900 16.05700 36.08000
H  46.90300 15.85500 35.56000
H  54.14800 17.89700 28.77800
H  52.98600 18.84500 29.82200
H  53.44800 19.43100 28.19600
H  55.02000 17.25700 25.14300
H  54.77600 16.85300 26.80800
H  54.35300 18.52000 26.22500
H  48.75800 14.18300 24.19100
H  46.00200 14.84200 24.08700
H  47.17100 15.53900 22.33400
H  48.85000 15.92300 22.46700
H  47.81800 16.92700 23.29700
H  46.04200 12.44500 25.48000
H  47.50800 12.38200 24.51100
H  46.03300 11.46900 22.93700
H  45.92200 13.16800 22.53500
H  44.70600 12.26600 23.50200
H  42.76900 14.05900 27.42300
H  41.94300 14.29600 29.05700
H  42.86900 12.83100 28.71000
H  45.46900 15.12300 33.31700
H  42.41000 17.43000 35.02800
H  43.79200 18.17300 35.73200
H  43.08800 16.63400 36.43600
Mg 9.34100 48.31200 26.04200
C  6.75200 48.66100 28.56000
C  11.62900 49.62900 28.17000
C  11.54300 48.26900 23.46100
C  6.71200 47.62900 23.74800
N  9.21100 48.87300 28.16100
C  8.06900 48.98100 28.98900
C  8.49100 49.42300 30.45800
C  9.99400 49.98900 30.21600
C  10.33200 49.43100 28.77400
C  10.16000 51.54100 30.29100
C  8.42800 48.38000 31.57700
C  8.91300 48.82000 32.94800
H  8.23800 48.28600 34.21100
N  11.36100 48.76600 25.85900
C  12.08900 49.31800 26.86400
C  13.40600 49.50000 26.33300
C  13.47500 48.89400 25.07700
C  12.08700 48.61600 24.74100
C  14.51200 50.14800 27.10500
C  14.72200 48.61700 24.16200
O  14.57300 47.89300 23.16600
C  16.11100 49.14000 24.56200
N  9.15400 48.07400 23.91000
C  10.20900 48.00000 23.15100
C  9.87000 47.61700 21.62500
C  8.36800 47.30800 21.74000
C  8.03800 47.63500 23.23700
C  10.23300 48.58300 20.47500
C  8.00000 45.87000 21.32800
C  8.27900 44.82400 22.42600
N  7.14600 48.15400 26.06300
C  6.25200 47.93000 25.02100
C  4.95300 47.98300 25.62100
C  5.04600 48.26700 26.99900
C  6.43000 48.29100 27.25400
C  3.59600 47.77100 24.84500
C  4.35000 48.44700 28.31700
O  3.14100 48.38600 28.63100
C  5.47400 48.75600 29.34800
C  5.24900 47.86000 30.47600
O  5.88000 46.82600 30.64900
O  4.42100 48.46900 31.35000
C  4.20200 47.66800 32.52500
H  12.44800 49.95400 28.81500
H  12.28500 48.23100 22.66000
H  5.90100 47.40500 23.05200
H  7.86600 50.30200 30.61800
H  10.71200 49.57800 30.92600
H  10.09400 51.94300 29.28000
H  11.11100 51.77800 30.76700
H  9.33000 51.93100 30.88000
H  8.76800 47.39500 31.25600
H  7.35800 48.24500 31.72900
H  8.81700 49.90000 33.05100
H  9.90900 48.41400 33.12500
H  14.09000 50.90900 27.76100
H  15.28900 50.67600 26.55300
H  14.98600 49.35000 27.67800
H  16.90200 48.70900 23.94800
H  16.25700 48.88000 25.61000
H  16.14400 50.22600 24.47300
H  10.45400 46.70000 21.54200
H  7.84000 48.06700 21.16300
H  11.09600 49.16600 20.79600
H  9.43700 49.24800 20.14300
H  10.64600 47.96000 19.68100
H  8.59100 45.61000 20.45000
H  6.96800 45.91300 20.97900
H  7.34900 44.31100 22.66900
H  8.74200 45.21800 23.33100
H  8.93700 44.15600 21.87000
H  3.40800 46.70100 24.76000
H  3.78600 48.24200 23.88100
H  2.79200 48.34900 25.30000
H  5.33300 49.78900 29.66600
H  3.60700 48.25300 33.22700
H  5.14400 47.48900 33.04200
H  3.80500 46.71000 32.19100

