158

Mg 16.29800 -1.70700 27.74300
C  15.46500 0.48700 30.40300
C  18.26200 -3.44600 29.97000
C  17.66200 -3.37500 25.15000
C  14.36400 0.40200 25.59600
N  16.83400 -1.44500 29.96100
C  16.30600 -0.52700 30.84400
C  16.69100 -0.89700 32.34300
C  17.82500 -2.06700 32.14900
C  17.62500 -2.38400 30.59000
C  19.30200 -1.67600 32.42300
C  15.40000 -1.32200 33.19100
C  15.25600 -0.77500 34.58900
H  16.45700 -0.31600 35.42300
N  17.63300 -3.31200 27.62500
C  18.29300 -3.89200 28.66500
C  19.06500 -4.96100 28.16300
C  18.87800 -4.97600 26.67300
C  18.05100 -3.83100 26.43600
C  20.04600 -5.60900 28.94400
C  19.51400 -5.93800 25.65200
O  19.23100 -5.83700 24.46500
C  20.38900 -7.06900 26.15800
N  16.26900 -1.37000 25.68800
C  16.79100 -2.33300 24.85000
C  16.46400 -1.99100 23.39800
C  15.39200 -0.87400 23.56700
C  15.25800 -0.58000 25.05400
C  17.77500 -1.54200 22.61600
C  14.05300 -1.13500 22.79100
C  14.06500 -0.43300 21.43300
N  15.09900 -0.05200 27.89100
C  14.35300 0.71100 26.96000
C  13.57400 1.70400 27.59900
C  14.02900 1.66600 28.91700
C  14.94100 0.60900 29.04500
C  12.67700 2.64700 26.84000
C  13.85500 2.36100 30.18300
O  13.17300 3.32000 30.50300
C  14.64100 1.51500 31.28100
C  15.51500 2.46500 32.18800
O  16.67600 2.76800 31.99300
O  14.81100 2.94700 33.17300
C  15.45300 3.97500 34.01500
H  18.78400 -4.01000 30.74600
H  18.17700 -3.70200 24.24400
H  13.84400 1.07000 24.90500
H  17.06300 -0.07900 32.96100
H  17.58400 -2.98700 32.68100
H  19.68800 -2.32400 33.21000
H  19.16000 -0.66300 32.79700
H  19.92800 -1.68300 31.53000
H  15.24400 -2.39800 33.26800
H  14.59900 -0.82000 32.64800
H  14.75600 -1.47200 35.26200
H  14.52600 0.02500 34.46200
H  20.00300 -5.41700 30.01700
H  21.01700 -5.33700 28.53000
H  19.82500 -6.67200 28.85700
H  20.60800 -7.65500 25.26600
H  19.72500 -7.66900 26.77900
H  21.29900 -6.78300 26.68500
H  16.16600 -2.94500 22.96500
H  15.97300 -0.00600 23.25400
H  18.69400 -1.77600 23.15300
H  17.81800 -0.50100 22.29400
H  17.86300 -2.11700 21.69400
H  13.25400 -0.74900 23.42400
H  14.04700 -2.20200 22.56900
H  13.09400 0.04700 21.30300
H  14.06300 -1.19100 20.65000
H  14.86200 0.30700 21.36100
H  12.41800 3.51400 27.44700
H  11.86500 2.14600 26.31300
H  13.15600 3.06700 25.95600
H  13.95100 0.91700 31.87600
H  15.61000 4.88100 33.42900
H  16.36500 3.57400 34.45700
H  14.83400 4.19400 34.88500
Mg 9.56200 48.01900 24.86500
C  7.55800 47.93500 27.68300
C  12.18800 49.18600 26.74600
C  11.47500 47.76600 22.08000
C  6.77700 47.13800 23.02700
N  9.84000 48.42700 26.95600
C  8.88000 48.32900 27.90700
C  9.39900 48.85000 29.19500
C  10.74100 49.58400 28.78600
C  11.00200 48.98800 27.38600
C  10.57300 51.12500 28.88300
C  9.71500 47.77600 30.27900
C  9.06500 47.94700 31.64000
H  9.05700 46.88600 32.65300
N  11.54200 48.33000 24.49400
C  12.51500 48.77200 25.41100
C  13.82900 48.73200 24.82600
C  13.59000 48.33800 23.41000
C  12.19900 48.13200 23.26400
C  15.08000 48.99900 25.62200
C  14.56200 48.42500 22.32500
O  14.28900 48.05000 21.17200
C  15.90300 48.95200 22.58700
N  9.17700 47.68400 22.86600
C  10.11500 47.51400 21.88100
C  9.50700 47.18700 20.51100
C  8.00400 47.15100 20.83800
C  7.95800 47.34700 22.31200
C  9.93600 48.15100 19.40500
C  7.38800 45.81800 20.32300
C  7.84900 44.54700 20.95200
N  7.49300 47.68400 25.17200
C  6.46000 47.33600 24.36100
C  5.24600 47.11100 25.10200
C  5.61700 47.32400 26.41000
C  6.98300 47.66000 26.40000
C  3.91500 46.64000 24.50100
C  5.20600 47.35300 27.80600
O  4.12000 47.07200 28.21400
C  6.45400 47.70000 28.68700
C  6.70800 46.57800 29.60300
O  7.48900 45.66800 29.37100
O  5.95000 46.75800 30.75600
C  6.02100 45.72800 31.83100
H  12.98200 49.72300 27.26700
H  11.96300 47.64400 21.11000
H  5.85800 46.83100 22.52300
H  8.63300 49.58600 29.43900
H  11.62100 49.40200 29.40300
H  10.82200 51.72600 28.00800
H  11.27000 51.37100 29.68400
H  9.56800 51.37100 29.22500
H  10.77800 47.85200 30.51100
H  9.61100 46.75800 29.90400
H  8.05500 48.34800 31.55800
H  9.65300 48.70100 32.16400
H  14.92600 48.85900 26.69200
H  15.47700 50.01000 25.53800
H  15.92200 48.31800 25.49800
H  16.46300 49.00500 21.65300
H  16.48500 48.20900 23.13200
H  15.82900 49.92800 23.06800
H  9.82100 46.21400 20.13000
H  7.55600 48.02900 20.37400
H  10.57400 48.95600 19.77000
H  9.09500 48.58800 18.86600
H  10.43900 47.62300 18.59500
H  7.65700 45.80900 19.26700
H  6.30100 45.89700 20.34400
H  8.85700 44.71500 21.33300
H  7.87900 43.78500 20.17400
H  7.15400 44.23700 21.73200
H  3.49400 47.17400 23.64900
H  3.20000 46.67500 25.32300
H  4.05000 45.63500 24.10200
H  6.39500 48.54600 29.37200
H  6.72400 44.90700 31.68700
H  5.05900 45.22400 31.92200
H  6.19100 46.40200 32.67100

