158

Mg 24.87900 -4.64800 46.74000
C  26.82600 -2.27800 45.08300
C  22.28200 -3.75800 44.63400
C  23.26400 -7.42300 47.76100
C  27.79600 -5.64500 48.47500
N  24.59700 -3.06700 45.18800
C  25.52000 -2.17900 44.66000
C  25.01600 -1.28200 43.50000
C  23.41600 -1.72400 43.56200
C  23.39900 -2.90900 44.54700
C  22.54000 -0.48100 44.18200
C  25.73800 -1.69500 42.16100
C  26.39200 -0.54600 41.40000
H  25.89200 -0.35200 39.96900
N  22.97000 -5.37500 46.42600
C  22.07800 -4.90600 45.44600
C  20.91900 -5.79700 45.40100
C  21.13400 -6.74000 46.43000
C  22.49600 -6.53800 46.98400
C  19.76200 -5.67200 44.37700
C  20.20700 -7.93400 46.84600
O  19.17200 -8.17700 46.28200
C  20.52600 -8.83000 48.07100
N  25.46700 -6.27400 47.96300
C  24.56700 -7.23600 48.29300
C  25.28100 -8.29600 49.19700
C  26.47600 -7.49400 49.71600
C  26.60500 -6.42400 48.65800
C  24.38700 -9.09300 50.19800
C  27.76000 -8.34300 50.13200
C  28.10400 -8.30300 51.63000
N  26.94900 -4.09700 46.82600
C  27.98000 -4.60500 47.55900
C  29.13100 -3.83700 47.22900
C  28.71800 -2.89000 46.27000
C  27.36400 -3.11600 46.07500
C  30.51200 -3.99700 47.83300
C  29.25600 -1.76400 45.46800
O  30.30500 -1.21600 45.48100
C  28.02600 -1.34400 44.66700
C  27.79100 0.07000 44.97600
O  27.40600 0.48300 46.01400
O  28.07400 0.83800 43.83800
C  27.91300 2.27100 43.95700
H  21.42600 -3.41000 44.05200
H  22.92900 -8.46000 47.82700
H  28.66200 -6.01700 49.02700
H  25.11800 -0.21800 43.71400
H  22.94300 -2.07700 42.64600
H  21.81300 -0.13200 43.44900
H  23.09500 0.36600 44.58700
H  21.97000 -0.92700 44.99800
H  24.96500 -2.06900 41.49000
H  26.36000 -2.57000 42.34900
H  27.46600 -0.72100 41.33400
H  26.29400 0.40600 41.92200
H  19.21200 -6.58900 44.16300
H  20.08700 -5.21000 43.44500
H  19.04000 -4.92500 44.70400
H  21.03200 -8.24400 48.83900
H  21.22900 -9.62000 47.80900
H  19.57800 -9.13200 48.51600
H  25.52200 -9.04700 48.44400
H  26.02700 -7.04900 50.60400
H  23.32200 -8.99700 49.98900
H  24.56000 -8.77400 51.22600
H  24.76300 -10.11600 50.18800
H  28.66000 -8.02400 49.60600
H  27.53800 -9.36600 49.83000
H  27.19700 -7.96400 52.13100
H  28.87100 -7.58400 51.91700
H  28.35600 -9.30500 51.97700
H  30.75200 -5.06000 47.81700
H  30.47200 -3.68400 48.87700
H  31.30600 -3.39000 47.39800
H  28.46400 -1.47200 43.67800
H  26.95600 2.63200 43.58000
H  28.71200 2.79200 43.43000
H  27.82000 2.66900 44.96800
Mg 54.31900 24.45300 43.60800
C  51.66800 26.70900 43.50700
C  52.17300 21.92100 43.04900
C  56.96700 22.47300 43.08400
C  56.50400 27.17700 44.12500
N  52.20700 24.38200 43.02800
C  51.31800 25.37300 43.09600
C  49.96100 24.88500 42.80700
C  49.99700 23.39000 43.16200
C  51.56400 23.18300 43.04300
C  49.30200 22.99300 44.47400
C  49.67800 25.17300 41.27600
C  48.31700 24.98100 40.78800
H  48.18300 24.65200 39.34200
N  54.51500 22.48200 43.06000
C  53.54800 21.58700 42.90400
C  54.08200 20.27900 42.73700
C  55.46200 20.34900 42.77100
C  55.69800 21.79500 42.97800
C  53.29200 19.01000 42.48100
C  56.51400 19.19900 42.69300
O  56.22400 18.05200 42.57700
C  57.98700 19.49000 42.67900
N  56.44300 24.83700 43.52500
C  57.32600 23.84500 43.39000
C  58.78900 24.32100 43.47000
C  58.58600 25.81700 43.82900
C  57.08100 25.94600 43.73800
C  59.72000 23.64600 44.49100
C  59.43200 26.81900 42.94200
C  58.84200 27.19300 41.55200
N  54.16200 26.49400 43.92200
C  55.09000 27.44100 44.26800
C  54.45200 28.68700 44.59600
C  53.09400 28.43100 44.36400
C  52.98700 27.15000 43.82400
C  55.14900 29.95900 45.14600
C  51.79300 28.99700 44.27700
O  51.33900 30.09600 44.49300
C  50.86800 27.96100 43.70300
C  50.34400 28.40600 42.39700
O  51.02600 28.66500 41.40800
O  48.94300 28.46500 42.40200
C  48.31600 28.91300 41.14000
H  51.49300 21.08300 42.88600
H  57.85600 21.84200 43.14500
H  57.20600 28.01300 44.14500
H  49.30000 25.40900 43.49700
H  49.54000 22.85400 42.33000
H  48.39400 22.43400 44.24600
H  49.05200 23.89500 45.03300
H  49.97700 22.46400 45.14700
H  50.43300 24.59000 40.74800
H  49.90300 26.22700 41.11800
H  47.90100 25.97500 40.95300
H  47.89800 24.14900 41.35500
H  52.59700 18.98800 41.64100
H  52.66600 18.76700 43.33900
H  53.79300 18.06200 42.28800
H  58.50000 18.56800 42.40600
H  58.25400 19.90600 43.65100
H  58.13300 20.16600 41.83700
H  59.33900 24.24000 42.53200
H  58.93400 26.05200 44.83500
H  59.92700 24.27600 45.35700
H  60.70100 23.55700 44.02400
H  59.25300 22.70700 44.78700
H  60.37600 26.30900 42.75400
H  59.73900 27.65700 43.56800
H  58.39400 28.18200 41.45700
H  58.14100 26.42800 41.21900
H  59.74100 27.06400 40.95000
H  54.74800 30.29900 46.10000
H  54.98600 30.78000 44.44800
H  56.23000 29.82800 45.19800
H  50.03700 27.91300 44.40700
H  48.66000 28.26700 40.33200
H  48.68600 29.93000 41.01100
H  47.24200 28.83700 41.31100

