158

Mg 49.73400 44.86100 42.00300
C  46.28400 44.54200 41.12200
C  49.91400 41.36800 41.51200
C  53.03700 45.11400 42.03100
C  49.31600 48.20900 42.44000
N  48.27000 43.21700 41.31800
C  46.93400 43.32200 41.10300
C  46.35800 41.94200 40.72100
C  47.38800 40.93400 41.22800
C  48.62100 41.89500 41.40700
C  47.06900 40.12600 42.57400
C  46.00800 41.83200 39.24000
C  44.60500 41.36900 38.91700
H  44.22300 41.53300 37.46700
N  51.28500 43.43100 41.88500
C  51.12900 42.06600 41.65100
C  52.46400 41.45500 41.77900
C  53.40100 42.51300 41.93300
C  52.58000 43.76100 41.92600
C  52.77600 39.94900 41.57300
C  54.92600 42.41500 41.85600
O  55.55300 41.30900 41.75500
C  55.87300 43.59400 41.90100
N  50.97800 46.44200 42.06500
C  52.32200 46.29300 42.17800
C  52.94800 47.70200 42.51800
C  51.74300 48.65700 42.70300
C  50.61600 47.71100 42.45200
C  53.97400 47.86100 43.68800
C  51.79500 49.89700 41.67800
C  52.30700 51.15700 42.31700
N  48.17900 46.15700 41.78100
C  48.15400 47.49200 42.10000
C  46.70900 48.02300 41.95600
C  46.00700 46.86600 41.54100
C  46.92700 45.77100 41.40600
C  46.17600 49.36300 42.22100
C  44.69100 46.44100 40.95700
O  43.67100 47.09800 40.72200
C  44.84800 44.84100 40.77700
C  43.79400 44.21200 41.61400
O  42.60600 43.97400 41.27300
O  44.27000 43.96500 42.83300
C  43.48100 43.12400 43.74600
H  49.91200 40.27600 41.48400
H  54.08300 45.36800 42.21900
H  49.21600 49.25000 42.75200
H  45.45500 41.83800 41.32300
H  47.60200 40.17400 40.47600
H  48.03000 40.21400 43.08100
H  46.91800 39.05000 42.49400
H  46.37400 40.59800 43.26900
H  46.53600 41.04800 38.69700
H  46.19000 42.82800 38.83600
H  43.95100 41.91600 39.59600
H  44.46600 40.30000 39.08400
H  53.49100 39.84800 40.75600
H  51.85300 39.39800 41.39200
H  53.43900 39.64700 42.38300
H  55.62200 44.17700 41.01500
H  56.87000 43.15300 41.89600
H  55.53700 44.03900 42.83800
H  53.49100 47.95900 41.60900
H  51.69300 49.08100 43.70600
H  54.84400 48.45300 43.40400
H  54.32500 46.84000 43.84200
H  53.59900 48.28300 44.62000
H  50.80200 50.06300 41.26100
H  52.37900 49.69600 40.77900
H  53.12200 51.54300 41.70400
H  52.77100 50.72800 43.20500
H  51.40700 51.75100 42.47400
H  45.36900 49.49200 41.50100
H  46.96300 50.06600 41.94900
H  45.78700 49.76100 43.15800
H  44.59400 44.73300 39.72300
H  42.88200 42.38900 43.20800
H  42.82600 43.75000 44.35100
H  44.20100 42.65000 44.41300
Mg 16.52400 51.98200 26.43400
C  18.30600 50.61300 29.17100
C  14.15100 52.99500 28.56400
C  15.00600 53.10300 23.80800
C  18.91200 50.39400 24.27100
N  16.23500 51.72000 28.62000
C  17.09000 51.20600 29.61100
C  16.45000 51.36000 30.95200
C  15.16700 52.13700 30.70700
C  15.13300 52.23400 29.17700
C  13.92900 51.62000 31.44400
C  17.47700 52.02800 31.95600
C  16.77600 52.54900 33.20600
H  16.09200 51.50500 34.04100
N  14.81000 53.00600 26.18700
C  13.97900 53.34900 27.22200
C  12.81400 53.98000 26.61000
C  13.10900 54.10500 25.22200
C  14.41200 53.44400 25.04900
C  11.60200 54.52200 27.38400
C  12.24300 54.58000 24.11200
O  12.59500 54.68000 22.93100
C  10.82900 54.89600 24.43100
N  16.92100 51.72500 24.37200
C  16.15500 52.34300 23.54100
C  16.60200 52.24800 22.05500
C  17.95600 51.48200 22.17900
C  17.94000 51.14100 23.65200
C  15.63700 51.38500 21.15800
C  19.19300 52.26700 21.78400
C  20.15700 51.39300 20.95700
N  18.21600 50.60200 26.62400
C  19.06000 50.13300 25.68400
C  20.12400 49.32500 26.32600
C  19.92400 49.59500 27.71400
C  18.67500 50.31600 27.80800
C  21.10200 48.51800 25.51700
C  20.37800 49.30100 29.04100
O  21.45300 48.74600 29.40000
C  19.36200 49.90500 30.00600
C  18.80100 48.85200 30.90600
O  17.97600 47.95500 30.69200
O  19.33600 49.02800 32.16200
C  18.93900 47.97100 33.19800
H  13.43700 53.41700 29.27600
H  14.54900 53.53500 22.91500
H  19.69300 49.88300 23.70300
H  16.28700 50.35600 31.34600
H  15.28500 53.14600 31.10400
H  13.25500 51.18700 30.70500
H  13.49400 52.51900 31.88100
H  14.29000 50.83600 32.10800
H  18.05000 52.86000 31.54600
H  18.18700 51.27200 32.29200
H  16.20300 53.47300 33.13100
H  17.65300 52.89000 33.75800
H  12.00700 54.48600 28.39500
H  10.71000 53.90500 27.27000
H  11.36100 55.56300 27.17000
H  10.39600 54.09000 25.02400
H  10.22800 54.99400 23.52800
H  11.01400 55.86200 24.90200
H  16.77100 53.19800 21.54700
H  17.85700 50.52000 21.67600
H  14.77000 51.99100 20.89300
H  15.31800 50.45100 21.62200
H  16.06600 51.15600 20.18300
H  19.64100 52.48400 22.75300
H  19.05300 53.16000 21.17300
H  19.73400 50.41800 20.71800
H  21.13500 51.29500 21.42900
H  20.23600 51.96800 20.03400
H  21.52600 47.76500 26.18200
H  21.89400 49.19400 25.19500
H  20.56600 48.01400 24.71300
H  19.99100 50.56700 30.60200
H  17.86700 48.08600 33.35300
H  19.42700 48.17200 34.15200
H  19.19000 46.97100 32.84500

