158

Mg 24.39000 -7.78400 46.68300
C  27.06700 -5.63700 45.44800
C  22.50700 -6.45900 44.09500
C  22.13600 -10.12100 47.46800
C  26.86300 -9.34600 48.73600
N  24.78400 -6.36400 44.99500
C  25.82200 -5.53500 44.74200
C  25.66100 -4.56100 43.60700
C  24.11300 -4.75100 43.24500
C  23.77100 -5.90600 44.19900
C  23.26100 -3.43700 43.44900
C  26.56900 -4.87200 42.33200
C  27.46200 -3.72200 42.02500
H  27.43000 -3.06100 40.71500
N  22.52100 -8.05300 46.03400
C  21.95500 -7.48200 44.95700
C  20.61000 -8.01600 44.77800
C  20.39200 -9.06300 45.76800
C  21.76600 -9.16500 46.48300
C  19.57600 -7.39700 43.84800
C  19.13900 -9.85200 45.95600
O  18.20300 -9.68400 45.17000
C  18.89300 -10.93200 46.94600
N  24.48500 -9.51900 47.78500
C  23.42300 -10.28400 48.07000
C  23.74000 -11.48000 48.97600
C  25.24000 -11.28100 49.28900
C  25.57400 -9.99300 48.54900
C  22.84600 -11.64900 50.17900
C  26.10200 -12.43700 48.87300
C  27.22800 -12.85600 49.89300
N  26.49600 -7.47700 47.16500
C  27.31000 -8.17100 48.01900
C  28.68000 -7.51900 48.06400
C  28.54800 -6.48600 47.07900
C  27.28900 -6.65200 46.51000
C  29.76400 -7.93000 48.94900
C  29.24200 -5.33100 46.45300
O  30.30800 -4.81200 46.71000
C  28.29800 -4.79400 45.33600
C  28.07300 -3.43300 45.53600
O  27.31500 -3.02300 46.37800
O  28.83000 -2.68300 44.65100
C  28.74200 -1.25200 44.87600
H  21.86900 -6.03000 43.32000
H  21.38200 -10.87400 47.70800
H  27.64300 -9.87000 49.29000
H  25.94600 -3.55300 43.90700
H  23.93400 -5.04600 42.21100
H  22.59100 -3.16500 42.63400
H  24.00500 -2.64000 43.46300
H  22.67600 -3.41500 44.36800
H  25.97900 -5.11400 41.44700
H  27.14900 -5.76000 42.58500
H  28.46600 -4.09600 42.22600
H  27.32900 -2.85700 42.67400
H  18.55700 -7.35500 44.23100
H  19.71300 -7.96700 42.92900
H  19.83700 -6.35800 43.64600
H  19.44000 -11.83000 46.65700
H  17.86300 -11.26500 46.81300
H  19.09800 -10.44100 47.89700
H  23.48000 -12.39200 48.43900
H  25.22000 -11.07000 50.35800
H  22.35200 -12.60600 50.01000
H  22.14300 -10.81700 50.21600
H  23.40700 -11.68000 51.11300
H  26.53300 -12.31600 47.87900
H  25.49800 -13.33500 48.74300
H  26.97000 -13.87700 50.17500
H  27.20800 -12.27200 50.81300
H  28.19200 -12.95300 49.39400
H  30.47400 -7.14000 49.19300
H  30.27200 -8.70900 48.37900
H  29.40600 -8.32800 49.89800
H  28.76400 -4.96700 44.36600
H  27.67600 -1.02300 44.86600
H  29.21200 -0.67600 44.07900
H  29.10400 -1.00100 45.87300
Mg 26.47200 51.17500 26.88800
C  24.20100 52.22800 29.37700
C  28.55800 50.11400 29.45200
C  28.69400 49.91700 24.63400
C  24.35100 52.19700 24.42700
N  26.33400 51.19700 29.19100
C  25.26600 51.55800 29.96200
C  25.50100 51.32500 31.46700
C  26.99300 50.74900 31.43200
C  27.37400 50.77600 29.96500
C  27.90500 51.35800 32.49300
C  24.46400 50.43000 32.24300
C  23.94200 51.01900 33.62500
H  25.02000 51.55900 34.67200
N  28.39300 50.18100 27.01800
C  29.05100 49.89000 28.18500
C  30.34000 49.31700 27.86500
C  30.42900 49.21600 26.39100
C  29.07800 49.69100 25.92300
C  31.40600 49.04500 28.89500
C  31.56700 48.73900 25.43400
O  31.58400 48.83800 24.21500
C  32.82400 48.08300 26.12600
N  26.49500 50.99700 24.76900
C  27.57300 50.48000 24.11900
C  27.27300 50.49900 22.59300
C  25.79700 51.07600 22.57800
C  25.49500 51.48300 24.00200
C  28.27900 51.49600 21.79900
C  24.65000 50.07300 22.00200
C  24.11800 50.55700 20.67600
N  24.79000 52.15700 26.86500
C  24.01300 52.55300 25.80300
C  22.79400 53.29600 26.23100
C  22.88600 53.18000 27.64600
C  24.05800 52.43100 28.00000
C  21.74500 54.04600 25.46800
C  22.28700 53.59300 28.90800
O  21.34200 54.35100 29.14900
C  23.08400 52.97800 30.09800
C  23.49200 54.04800 31.09000
O  24.17600 55.03100 30.88600
O  22.86100 53.81900 32.30500
C  23.01000 54.77800 33.41600
H  29.23500 49.71700 30.21100
H  29.27500 49.37200 23.88700
H  23.62300 52.45300 23.65400
H  25.43300 52.30900 31.93100
H  26.97600 49.66100 31.50000
H  28.72800 51.80700 31.93800
H  28.31700 50.69500 33.25300
H  27.41600 52.18100 33.01400
H  24.89600 49.44300 32.40800
H  23.59900 50.30200 31.59200
H  23.26000 50.33800 34.13400
H  23.31900 51.81900 33.22600
H  31.04300 49.42600 29.85000
H  32.36000 49.45000 28.55800
H  31.49400 47.96400 29.00800
H  33.39900 47.52800 25.38300
H  32.57600 47.43500 26.96700
H  33.59600 48.78500 26.44200
H  27.32000 49.41900 22.45000
H  25.72700 52.03100 22.05700
H  28.58000 51.00600 20.87200
H  29.07500 51.87100 22.44200
H  27.79900 52.46000 21.63300
H  23.83700 49.93400 22.71500
H  25.13400 49.09900 21.92100
H  24.50000 51.51400 20.32100
H  23.05200 50.68900 20.86300
H  24.26300 49.84400 19.86500
H  22.13200 54.14500 24.45400
H  21.45600 54.97200 25.96500
H  20.95700 53.29400 25.42700
H  22.40300 52.32600 30.64400
H  21.94200 54.97600 33.51500
H  23.56400 55.70100 33.24800
H  23.31400 54.44600 34.40900

