158

Mg 45.86700 3.98400 48.09700
C  44.57900 7.12300 47.24300
C  42.72200 2.65300 47.36000
C  47.12000 0.89700 48.45800
C  49.11900 5.30800 48.40200
N  43.93400 4.81500 47.35900
C  43.66200 6.15300 47.10600
C  42.21800 6.37000 46.62500
C  41.58100 5.01800 46.86800
C  42.83700 4.09600 47.15800
C  40.53600 4.97700 47.97000
C  42.12900 6.78700 45.12800
C  40.87800 7.77800 44.86800
H  40.05800 7.59700 43.61800
N  45.07500 2.10300 47.84600
C  43.77000 1.70700 47.58500
C  43.67500 0.29200 47.56200
C  44.95600 -0.20300 47.74100
C  45.79300 0.99300 48.05100
C  42.40700 -0.44600 47.13400
C  45.34500 -1.61200 47.58300
O  44.52200 -2.42100 47.22900
C  46.74700 -2.03500 47.60600
N  47.85100 3.24100 48.59500
C  48.08400 1.88900 48.73400
C  49.60900 1.68400 49.20300
C  50.24200 3.06600 48.91900
C  49.06700 3.95700 48.57700
C  49.76000 1.11100 50.64700
C  51.44000 3.12000 47.92400
C  52.81000 2.50900 48.41000
N  46.67200 5.81300 47.95800
C  48.05600 6.24300 48.11000
C  48.09100 7.68100 47.79700
C  46.75000 8.08600 47.55200
C  45.91000 6.90100 47.66900
C  49.41500 8.48600 47.81100
C  45.92000 9.27700 47.28700
O  46.17800 10.45400 47.22800
C  44.46800 8.65400 46.99100
C  43.48700 9.24700 47.91600
O  43.11600 8.78000 48.99600
O  42.90400 10.30000 47.30700
C  41.67500 10.76700 47.98500
H  41.70800 2.25600 47.28000
H  47.43600 -0.08100 48.82800
H  50.11200 5.73500 48.55700
H  41.74200 7.17200 47.18900
H  41.07700 4.55700 46.01900
H  40.27000 6.00100 48.23500
H  40.78800 4.38300 48.84900
H  39.70900 4.48900 47.45600
H  42.04300 5.88500 44.52300
H  43.05000 7.30800 44.86700
H  41.22300 8.81100 44.90300
H  40.22600 7.61700 45.72700
H  42.51000 -0.75300 46.09300
H  41.56000 0.24000 47.13400
H  42.09700 -1.23700 47.81600
H  46.76700 -3.08400 47.30900
H  47.03600 -2.13700 48.65200
H  47.43700 -1.46700 46.98200
H  50.00300 0.87700 48.58600
H  50.57400 3.36700 49.91300
H  50.00800 0.05500 50.54200
H  48.87900 1.13100 51.28900
H  50.61600 1.64800 51.05500
H  51.65200 4.17700 47.76200
H  51.21400 2.54000 47.02900
H  53.01100 1.68600 47.72500
H  52.67100 2.01200 49.37000
H  53.65600 3.18800 48.52300
H  49.72800 8.57300 48.85100
H  49.17800 9.46500 47.39500
H  50.20000 8.08900 47.16700
H  44.34200 8.90900 45.93900
H  41.20400 11.28200 47.14800
H  41.85000 11.46700 48.80200
H  40.96700 9.98700 48.26700
Mg 42.77400 41.10600 26.31700
C  42.00900 43.60800 28.71500
C  43.66400 39.00700 28.86000
C  43.43700 38.98200 23.95100
C  42.24100 43.61600 23.86400
N  42.81100 41.33900 28.52100
C  42.27600 42.40100 29.29000
C  42.29300 42.03700 30.81600
C  43.06800 40.63200 30.79700
C  43.16300 40.21500 29.32100
C  44.43400 40.62000 31.60700
C  40.84500 42.03400 31.38000
C  40.54700 43.03800 32.53900
H  39.94300 42.39600 33.81100
N  43.45700 39.26300 26.42700
C  43.81400 38.55300 27.53100
C  44.25900 37.23000 27.13000
C  44.13800 37.16200 25.65900
C  43.62600 38.49000 25.30100
C  44.65200 36.23200 28.19200
C  44.38000 36.01700 24.72200
O  44.03300 35.98400 23.53200
C  44.94400 34.79600 25.35300
N  43.10800 41.33800 24.18300
C  43.20900 40.21900 23.43900
C  43.40700 40.53800 21.97900
C  43.01200 42.02100 21.91800
C  42.75400 42.38200 23.40500
C  44.94300 40.38100 21.55100
C  41.81600 42.37600 20.99600
C  42.01500 43.59300 20.08700
N  42.24000 43.17900 26.29000
C  42.06800 44.03000 25.21200
C  41.55600 45.38900 25.64700
C  41.48600 45.28200 27.09700
C  42.02000 43.98000 27.37600
C  41.22500 46.52800 24.73900
C  41.18600 45.94700 28.32800
O  40.75900 47.04500 28.60200
C  41.60800 44.87500 29.44700
C  42.70700 45.41500 30.33700
O  43.88000 45.12500 30.19900
O  42.11500 46.05700 31.43900
C  43.19900 46.62900 32.25400
H  43.89200 38.31900 29.67600
H  43.46000 38.17300 23.21800
H  42.20500 44.44500 23.15500
H  42.89500 42.79000 31.32400
H  42.47000 39.91500 31.35900
H  44.40500 39.90800 32.43200
H  44.51000 41.59700 32.08400
H  45.22600 40.43400 30.88200
H  40.67400 41.11400 31.93900
H  40.10100 42.23200 30.60900
H  39.75700 43.74600 32.28700
H  41.41000 43.64900 32.80200
H  45.73000 36.07200 28.16400
H  44.09800 35.32100 27.96700
H  44.60200 36.44800 29.25900
H  45.39600 34.09000 24.65600
H  44.17500 34.34300 25.97800
H  45.78900 35.22400 25.89300
H  42.78900 39.92300 21.32400
H  43.86200 42.56000 21.49800
H  45.52800 40.35400 22.47000
H  45.47500 41.10200 20.93100
H  45.10200 39.47600 20.96400
H  40.90100 42.50400 21.57600
H  41.66100 41.53800 20.31700
H  41.46700 43.30300 19.19100
H  43.01100 43.95600 19.83400
H  41.35800 44.30400 20.58900
H  41.00000 46.09500 23.76400
H  42.06400 47.22100 24.80200
H  40.42700 47.06200 25.25400
H  40.77900 44.78000 30.14900
H  43.94600 47.20300 31.70500
H  43.54800 45.89800 32.98200
H  42.63600 47.29100 32.91200

