158

Mg 16.94800 -1.74400 27.76500
C  15.70900 0.64300 30.29000
C  18.74100 -3.21800 30.12200
C  18.60800 -3.31200 25.24700
C  15.47300 0.48000 25.38100
N  17.24400 -1.22700 29.91300
C  16.59500 -0.36200 30.79600
C  17.07600 -0.57400 32.26400
C  18.03800 -1.83000 32.19000
C  18.07100 -2.07300 30.61900
C  19.49000 -1.74700 32.86400
C  15.86500 -0.64200 33.16200
C  15.97900 -0.07600 34.56700
H  17.35700 0.31600 35.17500
N  18.44700 -3.12900 27.71400
C  19.04000 -3.65600 28.84500
C  19.88800 -4.74800 28.45200
C  19.82700 -4.83800 27.04100
C  18.90400 -3.75800 26.60600
C  20.59400 -5.64000 29.43900
C  20.31500 -5.89500 26.15500
O  20.18000 -5.83600 24.90600
C  21.04300 -7.13300 26.74100
N  16.93600 -1.54700 25.66200
C  17.70900 -2.32200 24.87000
C  17.70800 -1.82100 23.44600
C  16.53300 -0.71800 23.39300
C  16.30400 -0.56900 24.91300
C  19.16900 -1.35900 23.00800
C  15.29400 -1.14000 22.46000
C  14.09700 -1.78100 23.18200
N  15.67000 -0.00100 27.77400
C  15.17000 0.71200 26.74800
C  14.34300 1.85100 27.22500
C  14.58200 1.80800 28.63100
C  15.32800 0.68400 28.91000
C  13.47100 2.81600 26.43100
C  14.38400 2.49300 29.83500
O  13.79100 3.58600 29.99500
C  15.02600 1.77600 30.98400
C  16.07400 2.59300 31.68200
O  17.17800 2.78600 31.24400
O  15.49700 3.09800 32.87000
C  16.50000 3.93500 33.56600
H  19.02200 -3.79800 31.00400
H  19.26000 -3.66000 24.44300
H  15.06400 1.23200 24.70300
H  17.63600 0.35100 32.40300
H  17.59200 -2.71400 32.64400
H  19.48600 -0.81700 33.43100
H  20.25200 -1.59400 32.10000
H  19.64300 -2.53800 33.59900
H  15.53600 -1.65800 33.37800
H  15.00500 -0.18800 32.66900
H  15.57900 -0.80200 35.27500
H  15.32800 0.79700 34.61900
H  20.20800 -6.65900 29.39500
H  20.36300 -5.19300 30.40600
H  21.66200 -5.64000 29.22300
H  21.21200 -7.76600 25.87000
H  20.29400 -7.59500 27.38500
H  21.99800 -6.79100 27.13900
H  17.51300 -2.62800 22.73900
H  16.78400 0.21800 22.89400
H  19.90100 -1.44900 23.81000
H  19.14500 -0.30500 22.73000
H  19.59600 -2.00200 22.23900
H  15.56500 -1.76600 21.60900
H  14.86100 -0.21800 22.06900
H  13.28200 -1.07000 23.31400
H  14.48800 -2.08400 24.15300
H  13.79500 -2.70500 22.69000
H  13.03100 3.53000 27.12800
H  12.61400 2.28700 26.01500
H  14.03700 3.27200 25.61900
H  14.16100 1.46900 31.57200
H  16.73400 4.81300 32.96400
H  17.43200 3.42100 33.80500
H  16.06500 4.27000 34.50800
Mg -12.60200 38.05200 41.97700
C  -10.33900 35.50400 41.00500
C  -10.50400 40.38100 40.55100
C  -15.24800 40.10700 42.04000
C  -14.68400 35.27600 43.10800
N  -10.72500 37.96600 40.76400
C  -10.04800 36.83200 40.46900
C  -8.78300 37.20700 39.60100
C  -8.80100 38.77200 39.64400
C  -10.03600 39.08400 40.46100
C  -7.45600 39.37200 40.20000
C  -8.86500 36.58000 38.17700
C  -7.66300 35.71400 37.67600
H  -6.68400 36.54700 36.77700
N  -12.81400 40.01400 41.55400
C  -11.77600 40.87400 41.06200
C  -12.28500 42.16600 40.87900
C  -13.57700 42.17200 41.47500
C  -13.94500 40.71200 41.73200
C  -11.42500 43.24400 40.24200
C  -14.51200 43.37800 41.67000
O  -14.29100 44.45300 41.13900
C  -15.92100 43.25500 42.29600
N  -14.66900 37.68400 42.34600
C  -15.54800 38.67800 42.25900
C  -16.98900 38.24800 42.56000
C  -16.81900 36.67400 42.91800
C  -15.31200 36.51100 42.83200
C  -17.71000 39.21500 43.58100
C  -17.71300 35.61600 42.11000
C  -18.19800 34.39800 42.86700
N  -12.58500 35.88100 42.14200
C  -13.37700 34.97600 42.68300
C  -12.69100 33.70600 42.85100
C  -11.47500 33.86800 42.20800
C  -11.52200 35.16000 41.66400
C  -13.22600 32.57500 43.61000
C  -10.19000 33.18300 41.87800
O  -9.71200 32.17000 42.34400
C  -9.44400 34.28900 40.97500
C  -8.10500 34.64200 41.60600
O  -7.79800 35.58200 42.36700
O  -7.20600 33.75200 41.16800
C  -5.90800 33.69600 41.88800
H  -9.80500 41.15000 40.21400
H  -16.12700 40.74400 41.92000
H  -15.27600 34.38300 43.31800
H  -7.91400 36.92100 40.19500
H  -8.93300 39.16000 38.63400
H  -7.11000 40.11300 39.48000
H  -6.69000 38.61200 40.35800
H  -7.73900 39.93900 41.08700
H  -8.98200 37.44000 37.51700
H  -9.77600 35.98700 38.09400
H  -8.12500 34.88000 37.14700
H  -7.04700 35.31700 38.48200
H  -12.09100 43.91500 39.70000
H  -10.71300 42.79900 39.54600
H  -10.90700 43.76000 41.05100
H  -16.62300 43.01500 41.49700
H  -16.25900 44.18800 42.74600
H  -15.70800 42.51000 43.06300
H  -17.60800 38.33300 41.66700
H  -17.13300 36.57200 43.95700
H  -18.49900 39.81000 43.12000
H  -16.87500 39.62600 44.14800
H  -18.23000 38.61100 44.32400
H  -17.11200 35.30200 41.25600
H  -18.60200 36.09800 41.70200
H  -17.59700 33.56100 42.51100
H  -19.27200 34.29300 42.71000
H  -17.92600 34.51900 43.91500
H  -13.85000 32.86000 44.45700
H  -12.51400 31.79000 43.86400
H  -13.96100 32.10000 42.96200
H  -9.21700 34.02900 39.94100
H  -5.80300 34.40100 42.71300
H  -5.25100 33.90200 41.04300
H  -5.66800 32.70300 42.26900

