158

Mg 8.72300 3.55600 27.07300
C  10.34100 2.16400 29.78500
C  6.90700 5.50400 29.33600
C  7.56600 5.14400 24.51400
C  10.39000 1.25100 25.03700
N  8.44900 3.60400 29.37800
C  9.32100 2.99900 30.21700
C  9.02700 3.51400 31.60600
C  7.84300 4.51800 31.46100
C  7.71800 4.56900 30.00400
C  6.46500 4.19800 32.08500
C  10.28500 4.18100 32.32400
C  9.86000 4.47300 33.83400
H  10.86600 4.17100 35.00200
N  7.33100 5.16600 26.93200
C  6.73800 5.85200 27.98300
C  5.86700 6.78100 27.37400
C  6.12400 6.83600 25.98000
C  7.07300 5.71400 25.74400
C  4.76400 7.47600 28.18800
C  5.50900 7.80400 24.92000
O  5.77600 7.73500 23.72700
C  4.61300 8.93100 25.46900
N  8.91500 3.25200 25.04700
C  8.38300 4.04200 24.16900
C  8.59700 3.63100 22.65700
C  9.59900 2.37900 22.87300
C  9.62700 2.28600 24.40100
C  7.31800 3.16900 21.85900
C  11.06900 2.61100 22.34900
C  11.75400 1.37700 21.71200
N  9.90000 1.84400 27.28300
C  10.54400 1.06400 26.42400
C  11.44400 0.10600 27.08500
C  11.40400 0.54600 28.36300
C  10.37400 1.60100 28.48400
C  12.21200 -1.01600 26.52400
C  11.95700 0.37600 29.68400
O  12.76300 -0.47500 30.02000
C  11.27800 1.38700 30.66600
C  10.66000 0.54800 31.66500
O  9.64500 -0.15600 31.44200
O  11.20400 0.83300 32.86900
C  10.47200 0.38000 34.06200
H  6.30300 6.10800 30.01700
H  7.11600 5.65100 23.65800
H  10.72800 0.40800 24.43000
H  8.65200 2.75900 32.29700
H  8.02500 5.51500 31.86200
H  5.79100 3.79600 31.32900
H  5.84100 5.00800 32.46200
H  6.58500 3.63100 33.00900
H  10.40500 5.12900 31.79900
H  11.19400 3.58700 32.22900
H  8.94200 3.96900 34.13800
H  9.64900 5.54100 33.88200
H  5.29500 8.40000 28.41800
H  4.58200 7.01900 29.16100
H  3.80700 7.65000 27.69600
H  3.54700 8.82100 25.66800
H  4.61800 9.69600 24.69200
H  5.21500 9.43300 26.22600
H  9.08200 4.53100 22.28000
H  9.14400 1.50800 22.40200
H  6.51700 3.28900 22.58900
H  7.30600 2.11300 21.59100
H  7.13000 3.78200 20.97700
H  11.70200 2.99400 23.14900
H  11.05700 3.43500 21.63500
H  12.72200 1.25800 22.20000
H  11.92700 1.55000 20.65000
H  11.15300 0.47000 21.78100
H  11.90800 -1.92100 27.05000
H  13.26700 -0.84000 26.73400
H  12.23400 -1.05400 25.43400
H  12.16300 1.89000 31.05600
H  11.04000 -0.24700 34.74900
H  9.64500 -0.26300 33.75900
H  10.08800 1.22000 34.64200
Mg 23.92000 -5.55400 45.57400
C  25.93000 -2.99600 44.47000
C  21.34100 -4.00400 43.67300
C  22.19800 -8.26400 45.92900
C  26.59700 -7.02000 47.13000
N  23.70500 -3.75200 44.15600
C  24.70300 -2.93700 43.83700
C  24.37100 -1.90800 42.77700
C  22.83000 -1.96500 42.69400
C  22.60200 -3.37900 43.50900
C  22.05400 -0.86200 43.39600
C  25.16200 -2.01500 41.44500
C  25.43500 -0.64700 40.72300
H  25.17600 -0.57600 39.25000
N  22.01900 -6.08900 44.85300
C  21.06100 -5.28700 44.25200
C  19.78100 -5.96700 44.23700
C  19.96400 -7.29600 44.79500
C  21.36800 -7.20800 45.30400
C  18.47100 -5.40600 43.62800
C  18.92900 -8.38100 44.88700
O  17.77100 -8.16300 44.49800
C  19.30400 -9.83900 45.35100
N  24.39300 -7.53200 46.19200
C  23.50600 -8.48900 46.31500
C  23.99600 -9.63600 47.23500
C  25.40500 -9.22600 47.54400
C  25.46500 -7.86500 46.93500
C  23.11100 -9.99100 48.49200
C  26.47500 -10.21100 46.99800
C  26.85500 -11.29300 47.92000
N  25.88500 -5.11300 45.84600
C  26.83200 -5.74500 46.60600
C  28.03300 -4.91200 46.56800
C  27.66300 -3.87200 45.74600
C  26.37300 -4.02800 45.30700
C  29.38800 -5.21700 47.04600
C  28.23000 -2.65000 45.15200
O  29.30600 -2.12500 45.38500
C  27.12200 -2.04900 44.28000
C  26.75900 -0.71200 44.80700
O  26.02500 -0.48900 45.77400
O  27.46800 0.21300 44.11800
C  27.25600 1.59600 44.35500
H  20.52600 -3.52200 43.12800
H  21.59600 -9.09500 46.30400
H  27.43400 -7.48400 47.65700
H  24.66700 -0.95300 43.21200
H  22.45500 -2.00300 41.67100
H  22.09200 -0.01600 42.71000
H  22.68900 -0.68500 44.26500
H  21.06800 -1.19300 43.72100
H  24.74500 -2.64600 40.66000
H  26.18200 -2.34800 41.63500
H  26.49100 -0.37500 40.73800
H  24.86600 0.17700 41.15400
H  18.55700 -4.54500 42.96500
H  17.95100 -5.16300 44.55400
H  17.94900 -6.17800 43.06200
H  18.37600 -10.35600 45.10600
H  19.24200 -9.75400 46.43600
H  20.25500 -10.27100 45.04000
H  23.91500 -10.33400 46.40200
H  25.59700 -9.13700 48.61400
H  23.79100 -10.39600 49.24300
H  22.36700 -10.66600 48.07000
H  22.41100 -9.21700 48.80500
H  27.36800 -9.68600 46.65700
H  26.13800 -10.73800 46.10500
H  26.14100 -11.22200 48.74000
H  27.88000 -11.20200 48.28200
H  26.59200 -12.26500 47.50400
H  29.86900 -6.00900 46.47100
H  29.28300 -5.54600 48.07900
H  29.99900 -4.31500 47.00200
H  27.47900 -1.94600 43.25600
H  26.68500 2.13600 43.60000
H  28.20200 2.13800 44.34700
H  26.89000 1.75300 45.37000

