158

Mg 34.93300 3.33300 30.41600
C  32.62500 4.44600 32.85200
C  37.31400 3.56700 32.61000
C  37.17900 2.92100 27.76100
C  32.36500 3.58000 28.01100
N  34.90200 4.04900 32.37600
C  33.91300 4.22400 33.34100
C  34.28700 4.26900 34.78300
C  35.82200 4.12800 34.63900
C  36.01600 3.91700 33.09900
C  36.66900 5.28100 35.37700
C  33.61800 3.04400 35.48600
C  33.10500 3.38800 36.89100
H  33.74500 4.55200 37.59100
N  36.98100 3.06100 30.21400
C  37.76700 3.30500 31.30600
C  39.09000 2.97200 30.88500
C  39.09900 2.65100 29.48400
C  37.73600 2.86900 29.06400
C  40.26100 3.15700 31.84400
C  40.30800 2.29100 28.55800
O  40.24700 2.14700 27.33700
C  41.68400 1.98200 29.06800
N  34.72000 3.24300 28.17100
C  35.85000 3.05400 27.37500
C  35.35500 3.02500 25.88600
C  33.84600 3.20300 25.96600
C  33.60000 3.26800 27.43600
C  36.04200 3.99600 24.81000
C  33.09500 2.08700 25.13800
C  32.66800 0.70200 25.74100
N  32.87300 3.89300 30.41800
C  31.93100 3.84900 29.30700
C  30.62100 4.29800 29.81300
C  30.83500 4.44100 31.23000
C  32.24300 4.23100 31.52400
C  29.37200 4.54900 28.99500
C  30.22100 4.82600 32.42600
O  29.07500 5.12500 32.68900
C  31.37000 4.73300 33.51800
C  31.26900 5.99600 34.26400
O  31.99800 6.95300 34.19500
O  30.35400 5.78700 35.22900
C  30.34800 6.82000 36.21600
H  38.10900 3.60500 33.35700
H  37.95300 2.89100 26.99100
H  31.53300 3.77100 27.32900
H  34.04300 5.27200 35.13300
H  36.13000 3.15400 35.02000
H  36.90900 6.01000 34.60300
H  37.62200 4.84700 35.67700
H  36.11100 5.64000 36.24200
H  34.27300 2.20200 35.71100
H  32.90900 2.64600 34.76000
H  33.28500 2.46400 37.44000
H  32.02400 3.50800 36.96400
H  41.22800 2.74400 31.55700
H  39.98400 2.67900 32.78300
H  40.49200 4.21000 32.00300
H  41.60700 1.21000 29.83400
H  42.04300 2.95000 29.41800
H  42.23100 1.51000 28.25200
H  35.69300 2.03000 25.59400
H  33.59200 4.17100 25.53400
H  36.78300 3.41300 24.26400
H  36.53100 4.84300 25.28900
H  35.25400 4.50200 24.25100
H  33.54500 1.92700 24.15800
H  32.17700 2.61300 24.87600
H  31.76800 0.98800 26.28500
H  33.41600 0.43900 26.49000
H  32.63200 -0.07200 24.97400
H  29.54500 5.36000 28.28800
H  28.58100 4.76700 29.71300
H  29.15800 3.62100 28.46500
H  31.17200 3.90200 34.19500
H  29.69100 7.64200 35.93200
H  31.33100 7.23500 36.44000
H  29.97600 6.37900 37.14100
Mg -5.99100 25.25500 25.54300
C  -4.42300 26.37800 28.28800
C  -7.88500 23.18700 27.65600
C  -7.11400 23.43300 22.85000
C  -3.69000 26.80600 23.54600
N  -6.08400 24.83900 27.71000
C  -5.45600 25.50200 28.71300
C  -5.98500 25.24400 30.12000
C  -6.85300 23.98500 29.85700
C  -6.91000 23.95300 28.26600
C  -6.29500 22.70000 30.40100
C  -6.68200 26.49200 30.78800
C  -6.07800 26.88500 32.13300
H  -5.52100 25.74500 32.97900
N  -7.50000 23.74600 25.26000
C  -8.16700 23.11200 26.26900
C  -9.08800 22.16900 25.66400
C  -8.80900 22.14000 24.28200
C  -7.79800 23.12900 24.07700
C  -9.94900 21.29700 26.37500
C  -9.53100 21.23600 23.21700
O  -9.39000 21.46400 22.00800
C  -10.49100 20.14500 23.57800
N  -5.39800 25.07200 23.41800
C  -6.03800 24.24600 22.51800
C  -5.32500 24.37100 21.12100
C  -4.34600 25.62500 21.37100
C  -4.50000 25.92300 22.89500
C  -4.64400 23.13000 20.58600
C  -4.74800 26.92300 20.47500
C  -3.56200 27.42200 19.63900
N  -4.32400 26.41000 25.86500
C  -3.49400 27.06100 24.93100
C  -2.64300 27.93000 25.64600
C  -2.96700 27.65800 27.00600
C  -3.98900 26.72400 27.04900
C  -1.76300 28.94500 24.95200
C  -2.61100 27.95400 28.35100
O  -1.69400 28.61400 28.85500
C  -3.56300 27.11400 29.18200
C  -2.51500 26.31100 30.01900
O  -1.92400 25.33800 29.59200
O  -2.43600 26.76300 31.29000
C  -1.39400 26.05700 32.14600
H  -8.45900 22.55100 28.33300
H  -7.44100 23.06800 21.87400
H  -3.12500 27.44300 22.86200
H  -5.19200 24.90500 30.78700
H  -7.90200 24.04900 30.14400
H  -5.21900 22.79700 30.54400
H  -6.38700 21.93700 29.62700
H  -6.83900 22.40700 31.29900
H  -7.76300 26.35900 30.83800
H  -6.53800 27.30200 30.07300
H  -6.87100 27.32600 32.73600
H  -5.40900 27.74600 32.11900
H  -10.93100 21.24500 25.90300
H  -10.18800 21.73700 27.34300
H  -9.42400 20.35100 26.50400
H  -10.13400 19.50300 24.38300
H  -10.73200 19.51800 22.72000
H  -11.39400 20.62400 23.95800
H  -6.14500 24.62700 20.45100
H  -3.38000 25.24100 21.04200
H  -3.57600 23.26700 20.41800
H  -5.12000 22.90900 19.63100
H  -4.78800 22.25400 21.22000
H  -4.91600 27.77600 21.13300
H  -5.74700 26.80500 20.05600
H  -2.73200 26.71900 19.56700
H  -3.23000 28.29400 20.20200
H  -4.01900 27.61300 18.66800
H  -1.38000 28.60600 23.98900
H  -0.93000 29.10400 25.63700
H  -2.28600 29.89700 24.86500
H  -4.14900 27.73700 29.85900
H  -1.86200 25.65900 33.04700
H  -0.73100 26.87000 32.44000
H  -0.80300 25.25600 31.70200

