158

Mg 0.81200 7.59700 25.18600
C  1.45700 9.70500 27.97200
C  1.22200 4.86600 27.19500
C  0.60500 5.56300 22.45300
C  0.88500 10.30100 23.18400
N  1.57700 7.36500 27.38900
C  1.54300 8.35200 28.32800
C  1.71700 7.62700 29.68600
C  1.81100 6.14000 29.40800
C  1.51800 6.08800 27.89400
C  3.15000 5.45600 29.81200
C  0.54200 7.98100 30.70800
C  0.84100 8.06400 32.18600
H  2.17100 7.60700 32.78300
N  0.76600 5.49500 24.93200
C  0.97000 4.57800 25.89600
C  0.82400 3.20400 25.30100
C  0.59300 3.42300 23.92400
C  0.65700 4.90500 23.65600
C  0.97000 1.89300 26.08100
C  0.48400 2.37000 22.82800
O  0.57900 2.60800 21.62200
C  0.13500 1.01400 23.25100
N  0.85700 7.87800 23.04100
C  0.64000 6.87800 22.11700
C  0.69200 7.49500 20.72700
C  0.72500 9.03400 20.97100
C  0.86400 9.10300 22.48400
C  1.89700 6.94300 19.89800
C  -0.50300 9.81100 20.30700
C  -1.84100 9.52900 21.01600
N  0.98700 9.62700 25.50100
C  1.00000 10.64700 24.52600
C  1.04600 11.93700 25.18900
C  1.33600 11.57400 26.57200
C  1.25500 10.20300 26.66700
C  1.16000 13.35100 24.70100
C  1.65800 12.05000 27.86800
O  1.83500 13.20400 28.28500
C  1.67000 10.96300 28.85200
C  3.00200 11.02400 29.57700
O  4.03900 10.59000 29.15600
O  2.80900 11.54600 30.84600
C  3.96200 11.46300 31.67000
H  1.45200 3.99000 27.80400
H  0.24600 4.95200 21.62100
H  0.81000 11.18400 22.54500
H  2.63600 7.98800 30.14800
H  1.05300 5.46100 29.79900
H  3.88100 6.21300 30.09800
H  3.56700 4.73500 29.10800
H  2.91300 4.95600 30.75100
H  -0.23200 7.22900 30.55200
H  0.03900 8.89900 30.40500
H  0.07400 7.45900 32.66800
H  0.73000 9.06200 32.60900
H  1.91100 1.44000 25.76900
H  0.14800 1.17900 26.02400
H  0.95900 2.04500 27.16000
H  0.97700 0.60900 23.81200
H  -0.09900 0.43900 22.35500
H  -0.79500 0.94900 23.81500
H  -0.22400 7.14500 20.25100
H  1.62000 9.49600 20.55500
H  2.57700 7.73600 19.58700
H  1.45500 6.40200 19.06200
H  2.41600 6.28500 20.59500
H  -0.48800 9.45900 19.27600
H  -0.37900 10.89000 20.40600
H  -2.39700 8.78100 20.45100
H  -2.50800 10.37500 21.17900
H  -1.50100 9.11400 21.96500
H  0.58800 13.93400 25.42400
H  0.73900 13.47600 23.70400
H  2.08700 13.92400 24.74000
H  0.81600 11.08900 29.51700
H  4.98100 11.50600 31.28500
H  3.99800 10.54500 32.25700
H  3.86800 12.31500 32.34300
Mg 6.60600 53.81500 41.47100
C  5.86800 50.38800 41.50100
C  9.50500 53.13900 39.72800
C  6.94000 57.13100 40.79800
C  3.52000 54.45500 42.92500
N  7.48100 51.97000 40.50800
C  6.97000 50.64700 40.70800
C  7.99500 49.67600 40.01200
C  9.30100 50.58700 39.87400
C  8.78700 52.00600 40.04500
C  10.43200 50.27500 40.90400
C  7.53800 48.94200 38.64200
C  6.14500 49.31200 37.99400
H  5.90100 48.53600 36.64400
N  7.95800 55.00600 40.33900
C  9.10100 54.53300 39.86400
C  9.95700 55.68000 39.49600
C  9.34200 56.83300 39.84600
C  7.95100 56.33400 40.32700
C  11.37500 55.38600 38.96100
C  9.94000 58.20600 39.76700
O  11.02300 58.35800 39.20800
C  9.29000 59.40400 40.35100
N  5.31100 55.45100 41.65000
C  5.68600 56.73900 41.32600
C  4.52900 57.77300 41.61700
C  3.50800 56.94100 42.42600
C  4.14900 55.55000 42.32300
C  5.00400 59.04000 42.41000
C  2.05900 56.90300 41.86700
C  0.95600 56.91500 42.88900
N  5.02400 52.69400 42.18700
C  3.94600 53.11600 42.89900
C  3.31600 51.89500 43.44300
C  4.06600 50.74200 42.94400
C  4.99100 51.30800 42.14200
C  2.20600 51.76600 44.42600
C  4.09800 49.34300 42.90100
O  3.43500 48.51200 43.53100
C  5.34600 49.04000 42.08000
C  5.10000 47.91500 41.11200
O  4.10000 47.89000 40.37800
O  6.03100 46.91500 41.32100
C  5.84200 45.78500 40.41500
H  10.39700 52.86400 39.16100
H  7.03600 58.21100 40.67000
H  2.57000 54.58800 43.44700
H  8.25600 48.91800 40.75100
H  9.74700 50.57700 38.87900
H  11.27800 50.02000 40.26600
H  10.06400 49.59200 41.67000
H  10.70300 51.16300 41.47500
H  7.44400 47.92800 39.03100
H  8.46000 49.12600 38.09100
H  6.17000 50.37900 37.77400
H  5.30300 49.07400 38.64400
H  11.70800 54.45100 38.51100
H  12.14300 55.57400 39.71100
H  11.53800 56.08500 38.14100
H  8.88200 59.13000 41.32400
H  8.56900 59.89100 39.69500
H  10.08000 60.09100 40.65500
H  3.93700 57.93600 40.71700
H  3.44500 57.29700 43.45400
H  4.98700 59.93900 41.79400
H  6.03300 58.87600 42.72800
H  4.33400 59.23100 43.24800
H  1.93600 56.00300 41.26500
H  1.92500 57.82300 41.29900
H  0.20700 56.12700 42.81000
H  0.45300 57.88200 42.87200
H  1.28300 56.90500 43.92800
H  2.12800 50.79500 44.91600
H  1.30300 51.85600 43.82200
H  2.20400 52.61000 45.11600
H  6.11500 48.60900 42.72000
H  4.75500 45.69700 40.43200
H  6.30000 44.85100 40.74000
H  6.18900 45.91500 39.39000

