158

Mg 6.43300 54.37600 39.68000
C  5.91300 50.95800 39.50900
C  9.67600 53.96400 39.04700
C  6.63600 57.60700 39.03400
C  2.91800 54.70700 39.95800
N  7.59400 52.66400 39.19600
C  7.26600 51.37800 39.25000
C  8.50000 50.53200 38.84100
C  9.66500 51.46700 39.09300
C  8.94700 52.81600 39.15800
C  10.30600 51.23400 40.53200
C  8.41000 50.04000 37.41400
C  8.48500 51.12300 36.37000
H  7.17300 51.51500 35.57400
N  7.95100 55.62000 39.06800
C  9.22600 55.29500 38.89800
C  10.09900 56.50200 38.64100
C  9.19200 57.59400 38.55700
C  7.82600 56.99600 38.92500
C  11.60400 56.60400 38.41400
C  9.58000 59.07400 38.38400
O  10.74700 59.39400 38.37400
C  8.51600 60.11300 38.35000
N  5.01800 55.98800 39.38100
C  5.42100 57.27000 39.38200
C  4.30700 58.24900 39.73500
C  3.12200 57.35100 39.99800
C  3.71500 55.90100 39.79000
C  4.66500 59.17000 40.93700
C  1.88700 57.50000 39.02700
C  0.72900 58.21800 39.68400
N  4.67700 53.14300 39.82600
C  3.33300 53.41700 39.98100
C  2.58000 52.09100 40.13700
C  3.58800 51.11200 39.99100
C  4.81900 51.79300 39.72000
C  1.03400 51.90700 40.48800
C  3.86800 49.68700 40.03800
O  3.13000 48.72900 40.15200
C  5.41100 49.55500 39.78800
C  5.41000 48.69900 38.61000
O  4.96400 48.86300 37.51000
O  6.09000 47.47800 38.86700
C  6.05200 46.46600 37.82000
H  10.74800 53.89000 38.85200
H  6.53900 58.66900 38.79800
H  1.86800 54.92900 40.15600
H  8.63200 49.64300 39.45800
H  10.43900 51.47000 38.32500
H  10.10800 50.23700 40.92400
H  9.98600 52.01100 41.22800
H  11.39500 51.20100 40.52400
H  7.51500 49.43500 37.27000
H  9.12400 49.23600 37.23600
H  9.11300 50.70500 35.58300
H  9.03900 52.01100 36.67400
H  11.84300 56.85000 37.38000
H  12.13900 55.67100 38.59200
H  12.10300 57.37400 39.00300
H  9.12500 61.00700 38.21900
H  7.89400 60.20600 39.24100
H  7.79000 59.89800 37.56600
H  4.06200 58.87300 38.87600
H  2.75200 57.39500 41.02300
H  5.74800 59.17900 41.06100
H  4.26100 58.70400 41.83600
H  4.30000 60.19200 40.83300
H  1.56400 56.64300 38.43500
H  2.20600 58.22500 38.27800
H  -0.02000 58.47600 38.93500
H  1.21000 59.02700 40.23400
H  0.31000 57.52000 40.40800
H  0.68800 52.92400 40.67300
H  0.93700 51.35000 41.42000
H  0.52000 51.46900 39.63300
H  6.04000 48.99300 40.47900
H  7.03400 46.00000 37.73900
H  5.87000 46.85400 36.81800
H  5.34700 45.65900 38.01900
Mg -5.37900 26.02100 26.31200
C  -3.71400 27.18900 29.28000
C  -7.16300 23.81900 28.49700
C  -6.43200 24.25700 23.67800
C  -3.33700 27.82800 24.49600
N  -5.47300 25.65200 28.67700
C  -4.76100 26.30600 29.66800
C  -5.34400 25.92500 31.06200
C  -6.12100 24.67700 30.68400
C  -6.28700 24.69000 29.14700
C  -5.39900 23.28100 31.02100
C  -6.23900 26.99100 31.75000
C  -6.28600 27.13400 33.23300
H  -5.64300 25.96300 33.95700
N  -6.69100 24.36900 26.06700
C  -7.35600 23.66100 27.12000
C  -8.31400 22.70700 26.45100
C  -8.03100 22.75500 25.07900
C  -6.99800 23.80800 24.86600
C  -9.33200 21.90800 27.17300
C  -8.60600 21.96000 23.99600
O  -8.27800 22.01400 22.84300
C  -9.84700 21.16300 24.21600
N  -4.95000 26.03500 24.29400
C  -5.47000 25.20300 23.40900
C  -4.78900 25.38400 22.00500
C  -4.03700 26.78400 22.25600
C  -4.07000 26.87300 23.76900
C  -3.89900 24.11400 21.78400
C  -4.70400 27.93300 21.47500
C  -4.01900 28.35400 20.25500
N  -3.93500 27.33500 26.77600
C  -3.17700 28.01900 25.84900
C  -2.18900 28.81400 26.49900
C  -2.35400 28.54700 27.86800
C  -3.42700 27.63600 27.96500
C  -1.27500 29.80700 25.84200
C  -1.87600 28.92400 29.20300
O  -0.94900 29.60700 29.63600
C  -2.79900 28.07200 30.13800
C  -1.99700 27.22900 31.05200
O  -1.35500 26.26500 30.60800
O  -1.89300 27.82900 32.28700
C  -1.42100 26.75600 33.23100
H  -7.78400 23.14100 29.08600
H  -6.69100 23.74400 22.75000
H  -2.65600 28.30900 23.79000
H  -4.60300 25.62500 31.80300
H  -7.10400 24.59100 31.14800
H  -6.11500 22.63600 31.52800
H  -4.49800 23.50400 31.59200
H  -5.17800 22.75100 30.09500
H  -7.25700 26.96600 31.36300
H  -5.78900 27.86400 31.27800
H  -7.32500 27.14200 33.56400
H  -5.73500 28.01400 33.56300
H  -10.27400 22.38600 26.90300
H  -9.07000 22.04300 28.22200
H  -9.38500 20.82800 27.04200
H  -10.38500 21.09000 23.27100
H  -10.51500 21.61600 24.94800
H  -9.56700 20.14600 24.49400
H  -5.52900 25.60300 21.23600
H  -3.01900 26.62000 21.90100
H  -4.06700 23.68600 20.79600
H  -4.06100 23.30000 22.49200
H  -2.84300 24.36400 21.88200
H  -4.79500 28.81400 22.11000
H  -5.75300 27.69000 21.30700
H  -3.42200 29.23500 20.49300
H  -4.68700 28.55900 19.41900
H  -3.43500 27.63100 19.68600
H  -1.64800 30.83100 25.86900
H  -0.94000 29.39600 24.88900
H  -0.36100 29.93900 26.42100
H  -3.40900 28.80300 30.66900
H  -2.12600 25.92700 33.18300
H  -1.29400 27.09600 34.25900
H  -0.46100 26.36800 32.88900

