158

Mg 40.19400 9.61700 29.55200
C  42.33000 11.23400 31.95000
C  38.17700 8.75000 31.95800
C  38.35600 8.35200 27.08000
C  42.64900 10.38000 27.11200
N  40.43100 9.77300 31.86700
C  41.21700 10.57700 32.55300
C  40.69000 10.81900 33.98900
C  39.51400 9.74000 34.06600
C  39.29900 9.30700 32.55500
C  39.72000 8.50500 35.02200
C  40.22600 12.26100 34.28000
C  39.60700 12.47000 35.64100
H  40.38200 13.32900 36.75200
N  38.50700 8.58000 29.53300
C  37.76400 8.35000 30.67500
C  36.58200 7.62400 30.29500
C  36.68600 7.39700 28.86500
C  37.84300 8.21300 28.42200
C  35.51600 7.22000 31.24800
C  35.83000 6.58800 27.94600
O  35.92400 6.64000 26.73600
C  34.69100 5.80100 28.61400
N  40.54700 9.27400 27.36700
C  39.55900 8.78900 26.55200
C  39.85300 8.98300 25.05600
C  41.33500 9.37800 25.13100
C  41.57400 9.71900 26.60700
C  39.40100 7.76500 24.05200
C  41.72500 10.52300 24.17500
C  41.33400 11.88600 24.63600
N  42.11000 10.53700 29.46600
C  42.93700 10.75900 28.40300
C  44.17300 11.47900 28.91200
C  43.88800 11.68200 30.27900
C  42.62400 11.14000 30.54600
C  45.36700 11.97700 28.15200
C  44.45800 12.29500 31.44400
O  45.53400 12.88600 31.44100
C  43.46700 12.02100 32.63100
C  44.18100 11.32000 33.74800
O  44.78400 10.22000 33.65300
O  43.98700 12.02700 34.92900
C  44.56500 11.31600 36.11700
H  37.36300 8.77800 32.68500
H  37.67900 8.01500 26.29200
H  43.47700 10.50700 26.41200
H  41.52200 10.54000 34.63500
H  38.56800 10.16000 34.40500
H  39.63100 7.59200 34.43300
H  38.93000 8.68300 35.75200
H  40.71600 8.49300 35.46400
H  39.67600 12.63400 33.41700
H  41.15200 12.83100 34.36400
H  39.56200 11.44400 36.00600
H  38.59500 12.84500 35.49100
H  34.56700 7.63300 30.90500
H  35.83500 7.45700 32.26300
H  35.27900 6.15900 31.33600
H  35.08900 5.12300 29.36900
H  34.29300 5.26500 27.75300
H  33.97600 6.46800 29.09400
H  39.27300 9.88200 24.84700
H  41.96200 8.52100 24.88700
H  39.00700 6.87500 24.54200
H  40.24900 7.56000 23.39900
H  38.57600 8.09500 23.42100
H  41.22600 10.38900 23.21500
H  42.79700 10.62700 24.00700
H  40.55400 11.83500 25.39700
H  41.03500 12.49100 23.78000
H  42.26200 12.25200 25.07500
H  45.28700 11.55800 27.14900
H  46.22700 11.45500 28.57100
H  45.52200 13.05600 28.10900
H  43.04900 12.97300 32.95700
H  45.63900 11.45700 36.23700
H  44.42000 10.24100 36.00800
H  44.15400 11.72600 37.03900
Mg 36.10000 50.30500 25.64400
C  35.96700 48.33200 28.55400
C  34.42300 52.72900 27.59800
C  36.00200 52.07900 22.93800
C  37.19400 47.40900 23.85600
N  35.19600 50.45100 27.83000
C  35.46200 49.59100 28.82500
C  35.00800 50.15800 30.13700
C  34.15300 51.37200 29.74400
C  34.52500 51.47200 28.23700
C  32.59800 51.24800 30.13800
C  36.19900 50.63500 30.99600
C  36.46700 49.75300 32.25800
H  35.16800 49.38300 33.05500
N  35.31800 52.19000 25.28100
C  34.75900 53.05200 26.21500
C  34.65000 54.34500 25.62200
C  35.08400 54.24100 24.21300
C  35.48600 52.80600 24.07000
C  34.20300 55.52800 26.42500
C  35.08100 55.28100 23.09900
O  35.54300 54.97200 21.97900
C  34.60300 56.69500 23.38800
N  36.30600 49.76600 23.61600
C  36.32800 50.74200 22.73200
C  36.91100 50.25600 21.40400
C  37.46200 48.85600 21.73200
C  36.91900 48.58300 23.16400
C  35.99900 50.34400 20.16100
C  38.95000 48.62200 21.58900
C  39.39000 47.92800 20.31700
N  36.53500 48.29400 26.02900
C  36.97000 47.22900 25.24300
C  37.26900 46.07300 26.06200
C  36.81300 46.45500 27.33800
C  36.46100 47.82800 27.31900
C  37.77400 44.67000 25.64200
C  36.63500 46.02200 28.70700
O  36.74200 44.86500 29.07100
C  36.15300 47.21200 29.56800
C  34.96500 46.75700 30.30800
O  33.81000 46.79600 29.88100
O  35.33900 46.24100 31.51300
C  34.36200 45.33400 32.14500
H  34.02700 53.54400 28.20800
H  36.23300 52.65400 22.03800
H  37.73300 46.65500 23.27900
H  34.31000 49.49400 30.64600
H  34.63000 52.28400 30.10200
H  32.25100 50.22200 30.25900
H  32.01600 51.65500 29.31100
H  32.37400 51.91100 30.97400
H  36.15600 51.65600 31.37700
H  37.07300 50.53500 30.35200
H  37.19800 50.23800 32.90600
H  36.98900 48.92900 31.77200
H  33.60500 55.15600 27.25700
H  33.46000 56.09600 25.86500
H  35.04300 56.12100 26.78600
H  35.31300 57.24800 24.00300
H  33.60800 56.69600 23.83400
H  34.47000 57.23100 22.44800
H  37.74000 50.94700 21.25200
H  36.95100 48.10400 21.13100
H  36.48100 51.08300 19.52100
H  35.06900 50.71700 20.59000
H  35.96900 49.40400 19.61200
H  39.27800 47.98400 22.40900
H  39.48800 49.52900 21.86300
H  39.28200 48.69700 19.55200
H  38.84100 46.99500 20.19200
H  40.43000 47.61200 20.40300
H  38.50100 44.35600 26.39100
H  38.25700 44.71200 24.66600
H  37.03700 43.86800 25.65200
H  36.91900 47.38500 30.32400
H  34.92700 44.76100 32.88000
H  33.98100 44.60600 31.42800
H  33.51200 45.85100 32.58900

