158

Mg 49.20500 47.78100 42.75300
C  45.92300 48.38500 41.93700
C  49.22600 45.05300 40.65700
C  52.65500 47.52500 43.13200
C  49.26200 50.92500 44.39300
N  47.80500 46.98500 41.34200
C  46.47200 47.33600 41.19500
C  45.68000 46.32700 40.29400
C  46.75200 45.20400 40.01800
C  48.06900 45.81800 40.63300
C  46.32600 43.82600 40.67800
C  45.18700 47.03600 39.02300
C  43.66000 46.97100 38.70600
H  43.31400 46.42100 37.32500
N  50.67500 46.40400 42.11800
C  50.48500 45.32400 41.33100
C  51.74500 44.54700 41.20100
C  52.75300 45.29000 41.88100
C  52.04300 46.45300 42.43400
C  51.93200 43.21300 40.47600
C  54.21800 44.97300 41.85900
O  54.56800 43.90600 41.42700
C  55.31500 45.87700 42.30800
N  50.72000 49.05900 43.46000
C  52.06900 48.70100 43.58000
C  52.92300 49.87600 44.20400
C  51.75100 50.82900 44.65200
C  50.46000 50.22800 44.18800
C  53.92800 49.44700 45.36700
C  51.96300 52.26700 44.17200
C  51.62800 53.38600 45.16800
N  47.84500 49.33100 43.33400
C  48.00100 50.54600 43.90500
C  46.74300 51.30300 43.83100
C  45.84900 50.42200 43.21500
C  46.61900 49.33600 42.74700
C  46.52900 52.65200 44.47900
C  44.46600 50.21300 42.83300
O  43.46500 50.92900 43.18100
C  44.44100 48.77200 42.10300
C  43.79800 47.83800 43.03000
O  43.92200 47.73900 44.23600
O  42.84200 47.06900 42.44200
C  42.17700 46.07300 43.30200
H  49.10200 44.17000 40.02600
H  53.74400 47.53300 43.20700
H  49.16900 51.89500 44.88600
H  44.81600 45.93300 40.83000
H  47.01600 44.92100 38.99900
H  46.85600 43.64800 41.61300
H  46.47000 43.00600 39.97500
H  45.25000 43.80800 40.85600
H  45.71000 46.57300 38.18600
H  45.48300 48.08400 39.06400
H  43.14500 47.93200 38.71400
H  43.20900 46.21900 39.35300
H  52.46100 42.50100 41.10900
H  52.38600 43.33200 39.49200
H  50.98000 42.70500 40.32600
H  55.31900 46.77700 41.69300
H  56.17600 45.24000 42.10700
H  55.13600 46.13000 43.35300
H  53.40900 50.36300 43.35800
H  51.62100 50.88700 45.73300
H  54.25800 48.41800 45.22200
H  53.69000 49.68100 46.40400
H  54.82400 50.01600 45.11900
H  51.35200 52.45900 43.29100
H  53.02100 52.37400 43.93100
H  51.14000 52.97100 46.04900
H  51.11500 54.07700 44.49800
H  52.56600 53.88100 45.41900
H  47.12800 52.78200 45.38000
H  45.49100 52.75900 44.79400
H  46.71700 53.47800 43.79300
H  44.00400 48.83800 41.10700
H  41.54500 45.51200 42.61300
H  41.59400 46.41700 44.15700
H  42.92400 45.32500 43.56700
Mg 36.12100 49.34200 24.99800
C  36.51900 47.47600 28.04100
C  35.29200 52.09600 26.93100
C  35.57900 51.19600 22.16500
C  37.03200 46.51700 23.15900
N  35.73700 49.62300 27.28300
C  36.07900 48.81100 28.29400
C  36.01500 49.60500 29.62500
C  35.59000 51.03000 29.20000
C  35.53000 50.92800 27.68400
C  34.20000 51.46500 29.83000
C  37.37000 49.52400 30.43400
C  37.28000 48.82000 31.81100
H  35.94200 48.87000 32.51900
N  35.54300 51.39600 24.63200
C  35.27200 52.31500 25.54300
C  34.97600 53.56200 24.90100
C  35.08700 53.33600 23.51200
C  35.39200 51.89600 23.35200
C  34.68900 54.81200 25.65300
C  34.95900 54.33100 22.35400
O  35.15600 54.03200 21.15400
C  34.62700 55.86300 22.70300
N  36.12100 48.78000 23.03800
C  36.02800 49.79700 22.01400
C  36.18800 49.16300 20.57600
C  36.72700 47.73900 20.98800
C  36.66500 47.62400 22.46200
C  34.97200 49.11200 19.62000
C  37.97900 47.25700 20.30100
C  39.21300 47.84300 20.95900
N  36.70100 47.43800 25.42100
C  37.06600 46.36000 24.58100
C  37.49700 45.20400 25.35400
C  37.15400 45.56000 26.68800
C  36.79600 46.97300 26.73100
C  38.09200 43.89500 24.66000
C  37.11400 45.06000 28.11800
O  37.43600 44.01500 28.67500
C  36.77700 46.32400 29.00500
C  35.52900 46.01100 29.85400
O  34.44300 46.57600 29.69400
O  35.82900 45.13700 30.85500
C  34.70200 44.58000 31.61100
H  35.08800 52.91500 27.62300
H  35.53300 51.81800 21.26900
H  37.47100 45.78000 22.48200
H  35.25800 49.10600 30.23100
H  36.39200 51.76600 29.25500
H  34.17300 52.51300 30.12600
H  34.01100 50.96500 30.78000
H  33.29000 51.17300 29.30500
H  37.80400 50.52200 30.50100
H  38.14400 49.03000 29.84600
H  38.10900 49.15400 32.43500
H  37.38500 47.75100 31.62500
H  35.54500 55.46900 25.80100
H  34.15700 54.63300 26.58700
H  33.92500 55.43000 25.18100
H  35.40000 56.21800 23.38400
H  33.65500 55.93800 23.19100
H  34.71900 56.36600 21.74000
H  36.95000 49.71100 20.02100
H  36.00200 47.01500 20.61700
H  33.99900 49.11800 20.11200
H  35.01200 48.16500 19.08100
H  35.02300 49.90400 18.87300
H  38.07000 47.67400 19.29700
H  37.96700 46.17000 20.22900
H  39.91400 48.33100 20.28200
H  39.67400 46.91400 21.29500
H  39.04000 48.43300 21.85900
H  37.44500 43.48500 23.88400
H  38.35400 43.18700 25.44600
H  39.09700 44.11000 24.29600
H  37.68600 46.58300 29.54700
H  34.26700 43.78200 31.01000
H  33.95200 45.32800 31.86900
H  35.04100 44.27100 32.60000

