158

Mg -2.49400 16.28400 26.57500
C  -2.86300 14.14700 29.16600
C  -3.57700 18.82400 28.49700
C  -2.00600 18.30600 23.88700
C  -1.99600 13.53400 24.40900
N  -3.15700 16.41600 28.57700
C  -3.16300 15.42500 29.44700
C  -3.62100 15.91000 30.82800
C  -3.95500 17.41800 30.58100
C  -3.59800 17.58800 29.13200
C  -5.40000 17.86100 30.84300
C  -2.61100 15.50300 32.07900
C  -2.68600 16.41600 33.28500
H  -1.48000 16.26600 34.34300
N  -2.65400 18.33300 26.27900
C  -3.14900 19.18200 27.17400
C  -3.20900 20.48900 26.56000
C  -2.49700 20.34700 25.32200
C  -2.29700 18.93400 25.13800
C  -3.69800 21.78200 27.28800
C  -2.02300 21.44700 24.36600
O  -1.41700 21.20600 23.31700
C  -2.26800 22.87400 24.65800
N  -2.26400 15.96900 24.32100
C  -2.03400 16.98800 23.50300
C  -1.86900 16.39800 22.06700
C  -1.44200 14.94300 22.29500
C  -1.97900 14.73700 23.72900
C  -3.13200 16.64000 21.14600
C  -0.04900 14.56200 22.21300
C  0.60100 14.77700 20.81200
N  -2.55800 14.28300 26.63800
C  -2.29400 13.22900 25.72300
C  -2.35200 11.94800 26.36500
C  -2.42000 12.28400 27.71400
C  -2.59500 13.67800 27.84600
C  -2.25500 10.50200 25.65600
C  -2.39400 11.65700 28.97300
O  -2.18300 10.49600 29.35000
C  -2.74100 12.87100 30.05600
C  -1.64000 12.83900 31.02600
O  -0.56400 13.37800 30.88800
O  -1.94600 12.00500 32.07300
C  -1.04100 12.04800 33.21900
H  -3.90500 19.69100 29.07400
H  -1.83500 18.92500 23.00400
H  -1.69700 12.71100 23.75700
H  -4.51600 15.31700 31.01400
H  -3.42700 18.21400 31.10700
H  -5.42200 18.83700 31.32700
H  -5.97800 17.18700 31.47400
H  -5.94200 17.86900 29.89700
H  -1.56000 15.45700 31.79100
H  -3.12500 14.60100 32.40900
H  -3.46700 16.06600 33.95900
H  -2.76400 17.47000 33.01800
H  -4.47100 22.40400 26.83700
H  -2.87000 22.47900 27.42200
H  -4.05100 21.49800 28.27900
H  -3.33600 23.05900 24.77800
H  -1.76600 23.46100 23.88800
H  -1.70600 23.09700 25.56500
H  -0.94200 16.88200 21.75900
H  -1.84900 14.24600 21.56200
H  -3.44500 17.65800 21.37500
H  -3.87900 15.87100 21.34400
H  -2.80300 16.59100 20.10800
H  -0.00900 13.50400 22.47300
H  0.51500 15.17300 22.91800
H  1.30700 15.59700 20.94000
H  -0.07100 15.11700 20.02400
H  1.12900 13.86800 20.52800
H  -3.06700 9.88800 26.04400
H  -1.33600 10.07000 26.05300
H  -2.24000 10.70700 24.58500
H  -3.74000 12.54000 30.34100
H  -1.56500 12.10700 34.17200
H  -0.30200 12.84600 33.15100
H  -0.59700 11.05200 33.24400
Mg -9.96600 40.65200 43.34700
C  -8.86300 37.42100 42.55900
C  -6.93500 41.77800 41.95500
C  -11.13300 43.75100 43.51200
C  -13.15300 39.48500 44.09400
N  -8.07400 39.65800 42.24000
C  -7.80400 38.31600 42.26200
C  -6.33000 38.04700 41.81500
C  -5.76400 39.54300 41.80500
C  -6.95900 40.45900 42.06000
C  -4.51500 39.77700 42.74900
C  -6.32300 37.30900 40.43400
C  -5.00600 36.53500 40.12300
H  -3.98200 37.22200 39.13800
N  -9.18700 42.54600 42.73400
C  -7.93400 42.76600 42.18100
C  -7.76000 44.14300 42.08100
C  -8.96400 44.81200 42.47000
C  -9.84500 43.69700 42.91300
C  -6.44200 44.82300 41.60100
C  -9.29100 46.35600 42.54000
O  -8.41900 47.21700 42.33400
C  -10.73400 46.86500 42.73900
N  -11.87500 41.51000 43.89400
C  -12.00500 42.82700 44.06100
C  -13.39500 43.26300 44.43000
C  -14.14400 41.78600 44.61900
C  -13.00000 40.82500 44.24200
C  -13.59000 44.29600 45.57400
C  -15.45500 41.67900 43.91300
C  -16.48200 40.76500 44.59000
N  -10.85100 38.87600 43.33900
C  -12.20100 38.55000 43.68400
C  -12.34200 37.07400 43.60000
C  -11.09900 36.62600 43.19200
C  -10.21900 37.77600 42.93400
C  -13.46800 36.17600 43.89000
C  -10.29200 35.45700 42.90000
O  -10.60000 34.27000 42.83100
C  -8.87400 35.88600 42.38900
C  -7.83800 35.03200 42.97200
O  -7.45000 35.13200 44.09100
O  -7.43000 34.09800 42.09000
C  -6.44000 33.10800 42.53800
H  -5.91900 42.15000 41.80500
H  -11.63000 44.72300 43.48800
H  -14.11500 39.02800 44.33600
H  -5.92100 37.45200 42.63200
H  -5.31400 39.70200 40.82500
H  -3.58900 39.43500 42.28800
H  -4.52600 39.08500 43.59200
H  -4.28300 40.79600 43.05800
H  -6.44100 38.07500 39.66700
H  -7.12000 36.58800 40.25500
H  -5.29500 35.56600 39.71800
H  -4.52300 36.36200 41.08500
H  -6.53300 45.48600 40.74000
H  -5.63800 44.09600 41.48900
H  -6.09300 45.56000 42.32300
H  -10.91600 47.84500 42.29800
H  -10.86400 46.84900 43.82200
H  -11.47100 46.23600 42.24000
H  -13.88900 43.57800 43.51100
H  -14.29800 41.65200 45.68900
H  -12.71800 44.93300 45.72400
H  -13.94500 43.74800 46.44600
H  -14.28700 45.05700 45.22100
H  -15.15800 41.30400 42.93400
H  -15.87100 42.68200 43.81500
H  -16.06800 40.13400 45.37600
H  -16.78700 40.08900 43.79100
H  -17.26400 41.43600 44.94600
H  -14.11100 36.52600 44.69800
H  -13.26400 35.16700 44.24800
H  -14.00800 35.91900 42.97900
H  -8.85500 35.75200 41.30700
H  -5.90200 32.69800 41.68300
H  -6.83900 32.45000 43.30900
H  -5.64300 33.70900 42.97700

