158

Mg 35.65800 2.07500 30.35400
C  33.25300 3.24800 32.64800
C  38.08300 2.17300 32.73100
C  37.90200 1.37100 27.97900
C  33.19600 2.66400 27.80200
N  35.65500 2.78700 32.36500
C  34.56500 3.16400 33.11800
C  35.01200 3.34400 34.58800
C  36.55200 3.41300 34.45400
C  36.78200 2.69200 33.10100
C  37.13100 4.84900 34.47200
C  34.55000 2.31300 35.63900
C  34.33900 2.87000 37.12800
H  35.06700 4.07700 37.69000
N  37.69000 1.70000 30.36100
C  38.50900 1.62200 31.46300
C  39.76200 0.97800 31.08000
C  39.71200 0.73100 29.65900
C  38.42000 1.32000 29.27800
C  40.84500 0.81300 32.03400
C  40.70400 0.22000 28.70900
O  40.48000 -0.09100 27.52500
C  42.17700 -0.01000 29.18100
N  35.64300 2.34500 28.14900
C  36.73800 1.87900 27.42600
C  36.39900 1.87900 25.94500
C  34.84700 2.01100 25.84900
C  34.53300 2.43600 27.33900
C  37.35400 2.79900 25.15400
C  34.25500 0.66900 25.48000
C  32.78400 0.48600 25.21900
N  33.57700 2.69100 30.17900
C  32.77200 2.89900 29.10700
C  31.45700 3.25500 29.63700
C  31.56900 3.36600 31.04300
C  32.90100 3.07600 31.32000
C  30.29800 3.60200 28.75600
C  30.88400 3.71400 32.23300
O  29.72200 4.04100 32.37300
C  31.94000 3.60000 33.36100
C  31.94000 4.96200 34.02600
O  32.29900 6.03200 33.54400
O  31.51700 4.86500 35.34700
C  31.73100 6.10200 36.09700
H  38.76200 2.14400 33.58600
H  38.55600 0.98900 27.19300
H  32.46400 2.62900 26.99300
H  34.59900 4.25500 35.02200
H  37.19500 2.83200 35.11500
H  36.82500 5.24000 35.44200
H  36.80500 5.36900 33.57100
H  38.21700 4.76200 34.48000
H  35.27500 1.50500 35.72700
H  33.58800 1.93500 35.29200
H  34.40900 1.97500 37.74600
H  33.29800 3.19300 37.13000
H  40.86400 -0.22400 32.37100
H  40.66300 1.35900 32.95900
H  41.86200 1.08500 31.75100
H  42.17500 -0.60000 30.09800
H  42.51500 1.00600 29.37900
H  42.76600 -0.39300 28.34800
H  36.65900 0.83900 25.74900
H  34.63300 2.80900 25.13900
H  37.71200 3.48200 25.92400
H  36.82100 3.31700 24.35700
H  38.12300 2.14000 24.75100
H  34.61400 -0.08100 26.18500
H  34.78100 0.30300 24.59900
H  32.34600 1.37100 24.75900
H  32.29500 0.00400 26.06600
H  32.60200 -0.19800 24.39000
H  30.61300 3.95900 27.77500
H  29.60900 4.32500 29.19400
H  29.82300 2.65200 28.51300
H  31.49400 2.92100 34.08700
H  31.18000 5.90700 37.01700
H  31.30900 6.91400 35.50500
H  32.79700 6.25800 36.26800
Mg 47.85800 25.25500 28.68800
C  48.58400 27.53100 31.17400
C  47.13800 22.87300 31.27100
C  47.25400 23.08200 26.26000
C  49.00400 27.55400 26.34600
N  47.62700 25.27200 30.99600
C  47.99800 26.39200 31.77200
C  47.68800 26.20900 33.23700
C  47.37100 24.64400 33.26000
C  47.40200 24.17900 31.73400
C  48.25900 23.77700 34.11600
C  46.56800 27.23200 33.87200
C  47.00700 28.12800 35.07200
H  46.06400 28.40300 36.28300
N  47.16200 23.21100 28.75600
C  46.98100 22.44100 29.92400
C  46.60700 21.11100 29.46000
C  46.61000 21.13800 28.02000
C  46.96200 22.51700 27.59200
C  46.29800 19.97700 30.40600
C  46.28600 19.94600 27.08000
O  46.43700 20.02000 25.90400
C  45.97400 18.67100 27.59900
N  48.09400 25.37700 26.58700
C  47.77600 24.33700 25.77900
C  48.07100 24.59400 24.26400
C  48.40700 26.10800 24.27700
C  48.56800 26.40900 25.79900
C  49.12100 23.66300 23.61600
C  47.47200 27.08400 23.57300
C  48.02100 28.01100 22.44300
N  48.79000 27.11600 28.70300
C  49.09600 27.95000 27.70400
C  49.54000 29.25100 28.22600
C  49.37000 29.12600 29.61800
C  48.88800 27.80000 29.82700
C  50.05900 30.40300 27.45400
C  49.49800 29.86400 30.81300
O  49.87100 30.96100 31.13000
C  49.05300 28.80100 31.87100
C  50.19700 28.51300 32.81600
O  51.17800 27.82600 32.51200
O  49.88300 29.10000 34.04400
C  51.04000 29.05800 35.00500
H  47.00600 22.13100 32.06200
H  47.11400 22.27800 25.53500
H  49.26000 28.31900 25.61000
H  48.56200 26.44300 33.84500
H  46.32100 24.66600 33.55100
H  48.78200 23.01200 33.54200
H  47.66400 23.24600 34.85800
H  49.06800 24.41400 34.47500
H  45.73300 26.68700 34.31200
H  46.24700 27.80100 33.00000
H  47.08400 29.10900 34.60400
H  48.05000 27.98300 35.35400
H  47.02200 19.21100 30.12800
H  45.27100 19.64000 30.26400
H  46.53800 20.21900 31.44200
H  46.90000 18.38000 28.09500
H  45.62200 18.08000 26.75400
H  45.11000 18.91300 28.21800
H  47.10100 24.57100 23.76600
H  49.40400 26.12800 23.83700
H  49.62900 24.05300 22.73300
H  48.72900 22.72700 23.21900
H  49.86300 23.35700 24.35300
H  47.08800 27.75100 24.34500
H  46.57400 26.53700 23.28600
H  47.86300 29.08800 22.49600
H  47.57900 27.67000 21.50600
H  49.09700 27.91700 22.30000
H  49.63700 31.30900 27.88700
H  49.73800 30.21000 26.43000
H  51.14700 30.37900 27.50800
H  48.22300 29.08400 32.51900
H  50.84700 28.37300 35.83100
H  51.16300 30.04600 35.45000
H  51.99300 28.97200 34.48300

