158

Mg 48.73600 35.63300 27.21300
C  46.48600 34.28100 29.54700
C  49.15800 38.22400 29.30900
C  50.43000 37.13100 24.77100
C  48.01900 33.10200 24.98900
N  47.95700 36.06800 29.23000
C  47.13400 35.42000 30.07800
C  47.25500 35.89600 31.51500
C  47.85600 37.28500 31.27000
C  48.42200 37.18700 29.83600
C  46.82600 38.42600 31.57300
C  48.24100 34.98000 32.33000
C  47.91500 35.06400 33.80100
H  48.90700 35.77900 34.74200
N  49.74100 37.43100 27.06800
C  49.78200 38.36800 28.05800
C  50.63100 39.39100 27.64100
C  51.03500 39.08600 26.26000
C  50.41000 37.84400 25.93400
C  50.98700 40.65300 28.49700
C  51.93700 39.83000 25.31500
O  52.15500 39.49400 24.18900
C  52.46600 41.14400 25.69700
N  49.07600 35.17300 25.18800
C  49.87100 35.90700 24.40300
C  49.99900 35.34000 22.96200
C  49.35500 33.99700 23.06000
C  48.84300 34.05700 24.50500
C  49.39800 36.25100 21.87000
C  50.29000 32.84900 22.82200
C  49.88800 31.83300 21.68100
N  47.60800 33.95100 27.19600
C  47.41100 33.06000 26.25000
C  46.28200 32.22500 26.63700
C  45.84300 32.68700 27.83100
C  46.73300 33.75900 28.19500
C  45.89100 31.03500 25.72600
C  44.90800 32.47300 28.91300
O  43.96200 31.70600 29.03000
C  45.34500 33.44800 30.02700
C  45.58400 32.74600 31.34300
O  46.36500 31.87600 31.48700
O  44.67100 33.28100 32.22000
C  44.53000 32.68800 33.53200
H  49.31400 38.96800 30.09200
H  50.86500 37.51400 23.84600
H  47.62200 32.42800 24.22600
H  46.23400 35.84300 31.89300
H  48.61900 37.49900 32.01900
H  46.56300 38.92500 30.64000
H  47.39000 39.12300 32.19200
H  45.94700 38.06300 32.10600
H  49.24000 35.39400 32.19500
H  48.15500 33.95300 31.97400
H  47.88000 34.03800 34.16800
H  46.90800 35.47900 33.84400
H  52.03500 40.61100 28.79300
H  50.30500 40.82000 29.33100
H  50.79400 41.52700 27.87400
H  53.02100 40.94900 26.61500
H  51.65300 41.83400 25.92100
H  53.03800 41.58300 24.87900
H  51.04400 35.32800 22.65200
H  48.54400 33.83600 22.34900
H  48.86300 37.05300 22.38000
H  48.76100 35.76400 21.13200
H  50.19200 36.78100 21.34400
H  50.60200 32.27100 23.69200
H  51.21900 33.25100 22.41800
H  50.73100 31.96000 21.00200
H  48.96400 32.05400 21.14700
H  49.78400 30.80800 22.03800
H  45.12100 31.29600 25.00100
H  45.51700 30.18400 26.29500
H  46.74800 30.60800 25.20400
H  44.48300 34.11500 30.03500
H  45.01300 33.32000 34.27700
H  44.76700 31.63500 33.68500
H  43.49400 32.65400 33.87000
Mg 16.83500 51.43500 27.22100
C  19.24700 50.07200 29.51300
C  14.68500 51.73900 29.87900
C  14.59000 52.43300 25.06900
C  19.01700 50.61800 24.67200
N  16.98000 50.95700 29.44800
C  18.10500 50.53400 30.15800
C  17.90000 50.82100 31.66200
C  16.36800 51.11600 31.67400
C  15.96500 51.29800 30.27900
C  15.53700 50.07400 32.47700
C  18.77400 52.04600 32.16900
C  19.09800 51.96000 33.74400
H  18.15300 51.10500 34.67000
N  14.94000 52.08300 27.41900
C  14.18200 52.08200 28.63000
C  12.81100 52.55900 28.32500
C  12.75100 52.75500 26.88000
C  14.10800 52.41800 26.40100
C  11.69400 52.58100 29.40000
C  11.62400 53.32900 26.04600
O  11.73600 53.51400 24.83700
C  10.24300 53.56800 26.73000
N  16.86500 51.61200 25.17400
C  15.83400 52.12400 24.50900
C  16.18000 52.18800 22.98200
C  17.60400 51.61300 22.89600
C  17.85500 51.23800 24.33500
C  15.26500 51.40500 22.04100
C  18.67900 52.67400 22.38500
C  19.69400 52.10200 21.25400
N  18.71600 50.49800 27.05100
C  19.50700 50.24000 25.93200
C  20.68800 49.53300 26.34900
C  20.64800 49.53000 27.71500
C  19.48200 50.10700 28.11000
C  21.72900 48.89800 25.43000
C  21.45100 49.18900 28.90400
O  22.53500 48.68000 28.95200
C  20.54100 49.59600 30.12600
C  20.27200 48.43500 31.06800
O  19.98300 47.28800 30.71700
O  20.42400 48.97500 32.35300
C  20.13300 47.97000 33.32500
H  14.00800 51.89900 30.72000
H  13.89000 52.80000 24.31600
H  19.68000 50.35000 23.84700
H  18.13700 49.96200 32.28900
H  16.30900 52.13200 32.06300
H  14.72700 49.61600 31.90800
H  15.07700 50.57900 33.32700
H  16.17500 49.21100 32.66600
H  18.17100 52.93200 31.97000
H  19.64100 52.09600 31.51000
H  19.13800 53.01000 34.03500
H  20.09300 51.52000 33.81600
H  11.94700 52.37400 30.43900
H  10.91300 51.86700 29.13800
H  11.38400 53.62500 29.35400
H  10.28000 54.42300 27.40600
H  10.01200 52.64200 27.25700
H  9.53800 53.50800 25.90200
H  16.17200 53.25500 22.75600
H  17.75100 50.68200 22.34800
H  15.87200 50.91200 21.28100
H  14.54600 52.06100 21.55100
H  14.67100 50.68000 22.59700
H  19.31500 53.00200 23.20700
H  18.17000 53.58500 22.07200
H  20.63500 52.65100 21.29100
H  19.35700 52.07400 20.21800
H  19.95100 51.07200 21.50500
H  22.04600 47.99300 25.94900
H  22.48000 49.67600 25.29000
H  21.24000 48.67600 24.48100
H  20.98100 50.47300 30.60000
H  20.70400 47.07600 33.07300
H  19.07200 47.72300 33.29000
H  20.37200 48.22500 34.35700

