158

Mg 6.72800 53.93100 41.81500
C  6.46500 50.44200 41.49600
C  9.81000 53.73600 40.32100
C  6.72100 57.19600 41.75300
C  3.53400 53.87800 43.22500
N  7.82100 52.32000 40.73100
C  7.61500 50.98300 40.78000
C  8.62600 50.14900 40.05100
C  9.81400 51.17200 40.09400
C  9.16200 52.51800 40.31700
C  10.94100 50.81400 41.06300
C  8.26900 49.68700 38.63300
C  7.24400 50.48600 37.85200
H  6.89800 50.16800 36.40300
N  8.14500 55.28900 41.20500
C  9.36800 55.07100 40.63700
C  10.05900 56.33400 40.47800
C  9.19500 57.33900 40.96900
C  8.01900 56.66200 41.43300
C  11.41100 56.44800 39.94900
C  9.55900 58.77500 40.95600
O  10.46900 59.19000 40.26800
C  8.77900 59.69200 41.88000
N  5.12800 55.36300 42.13400
C  5.50900 56.72900 42.19000
C  4.47000 57.54200 42.91100
C  3.39000 56.42300 43.37600
C  4.06400 55.15100 42.90500
C  5.01400 58.54300 43.92000
C  1.95200 56.47300 42.82300
C  0.78100 56.60100 43.82500
N  5.20000 52.47800 42.27400
C  4.03700 52.62600 42.90000
C  3.53500 51.32700 43.29900
C  4.44500 50.44100 42.78000
C  5.41100 51.15600 42.09900
C  2.23800 51.01800 43.98100
C  4.77300 48.99900 42.55800
O  4.25000 47.96000 42.90900
C  6.01300 48.97000 41.59800
C  5.52400 48.25000 40.38400
O  4.85100 48.65600 39.43300
O  5.74600 46.89300 40.53200
C  5.29400 46.10400 39.39500
H  10.85300 53.67900 40.00500
H  6.56600 58.27600 41.79800
H  2.59000 53.81100 43.76900
H  9.00300 49.28000 40.59000
H  10.34100 51.26200 39.14500
H  11.87300 50.80100 40.49800
H  10.91000 49.79500 41.44800
H  10.92100 51.63600 41.77800
H  7.86300 48.68100 38.73200
H  9.19100 49.72000 38.05200
H  7.48400 51.54300 37.97300
H  6.29500 50.29200 38.35100
H  11.39900 56.66600 38.88200
H  11.93300 55.52500 40.20000
H  11.90900 57.18100 40.58400
H  8.42800 59.31000 42.83900
H  7.91000 60.07900 41.34700
H  9.49300 60.48600 42.09800
H  3.97500 58.13900 42.14600
H  3.36800 56.48300 44.46400
H  4.88800 59.56800 43.57200
H  6.07300 58.42400 44.15200
H  4.40900 58.56300 44.82700
H  1.80700 55.55500 42.25300
H  1.87300 57.34400 42.17300
H  0.29700 57.57600 43.76900
H  1.00000 56.44800 44.88200
H  -0.00800 55.89800 43.55800
H  1.47700 51.54200 43.40200
H  2.19300 51.18400 45.05800
H  2.02700 49.95100 43.91600
H  6.79400 48.40400 42.10700
H  5.82100 46.49600 38.52500
H  4.22300 46.26900 39.27200
H  5.49300 45.04200 39.53600
Mg 1.07400 42.80800 25.93700
C  3.13600 43.14100 28.72900
C  -1.62200 42.33600 27.96500
C  -0.73400 42.11700 23.12400
C  3.83900 43.23100 23.90100
N  0.81800 42.73200 28.13300
C  1.81600 42.91900 29.09800
C  1.17700 43.04200 30.48700
C  -0.31700 42.56300 30.19400
C  -0.45500 42.60700 28.70500
C  -0.73300 41.21100 30.80700
C  1.32600 44.42600 31.20100
C  1.36400 44.52500 32.74000
H  0.89500 43.23700 33.53000
N  -0.87000 42.27400 25.58500
C  -1.84500 42.29100 26.51800
C  -3.13300 42.24700 25.81900
C  -2.89600 42.12600 24.41600
C  -1.42900 42.16800 24.33100
C  -4.47700 42.36000 26.48700
C  -3.87200 41.97200 23.20800
O  -3.51200 41.78200 22.10500
C  -5.29700 42.14200 23.44900
N  1.51700 42.59100 23.81300
C  0.59800 42.33800 22.87000
C  1.21500 42.40900 21.47800
C  2.70700 42.85600 21.73400
C  2.69800 42.88000 23.27900
C  1.10800 41.15500 20.61400
C  2.92000 44.33300 21.18300
C  2.19100 45.53300 21.87200
N  3.08400 43.10400 26.17900
C  4.09900 43.29100 25.23700
C  5.34100 43.52500 25.94800
C  5.00600 43.38100 27.30800
C  3.60100 43.27100 27.39400
C  6.66000 43.92700 25.29000
C  5.52000 43.41800 28.67200
O  6.67000 43.57200 29.03300
C  4.32900 43.34100 29.60300
C  4.53800 42.18100 30.49900
O  4.81000 41.04500 30.17100
O  4.52200 42.65400 31.78200
C  5.00200 41.75700 32.85800
H  -2.52500 42.19500 28.56300
H  -1.32900 41.92800 22.22800
H  4.69400 43.52500 23.28800
H  1.61400 42.26600 31.11600
H  -0.97300 43.27100 30.70000
H  -1.43300 41.47300 31.60000
H  0.14500 40.65700 31.13900
H  -1.24300 40.54400 30.11200
H  0.40200 44.94500 30.94400
H  2.18000 45.02000 30.87500
H  0.85000 45.43700 33.04400
H  2.41400 44.71100 32.96500
H  -4.87100 43.23800 25.97400
H  -4.43600 42.62400 27.54400
H  -5.15400 41.55600 26.19800
H  -5.63500 41.41300 24.18500
H  -5.87800 41.99200 22.53900
H  -5.39700 43.13100 23.89500
H  0.69900 43.25600 21.02700
H  3.44900 42.14600 21.37000
H  2.08500 40.78200 20.30800
H  0.56400 41.44000 19.71300
H  0.59600 40.31700 21.08800
H  2.57800 44.47500 20.15800
H  4.00100 44.45200 21.24900
H  1.74600 45.29500 22.83800
H  1.47000 45.93800 21.16300
H  2.82700 46.40800 22.00500
H  7.03400 43.08400 24.70900
H  7.45400 44.36600 25.89500
H  6.49700 44.68600 24.52500
H  4.28900 44.32700 30.06600
H  4.60900 42.15200 33.79500
H  6.09100 41.77200 32.81500
H  4.67800 40.71800 32.80300

