158

Mg 30.08600 58.91100 40.13100
C  27.45000 57.00700 39.11300
C  32.29700 56.44100 38.89200
C  32.89400 61.10200 40.23800
C  27.99500 61.57700 40.93900
N  29.89400 56.97600 39.00200
C  28.66000 56.37500 38.77300
C  28.88100 55.08600 37.98300
C  30.37200 54.76900 38.39800
C  30.93100 56.19000 38.66000
C  30.51500 53.88100 39.67800
C  28.67900 55.38100 36.47900
C  27.55200 54.56800 35.84000
H  26.89300 55.16300 34.62300
N  32.28500 58.75900 39.76700
C  32.90400 57.60600 39.27700
C  34.27000 57.80200 39.28100
C  34.56600 59.13400 39.65000
C  33.22800 59.75800 39.91500
C  35.27200 56.78100 38.87000
C  35.99900 59.67500 39.83800
O  36.96800 59.05000 39.61400
C  36.11900 61.05100 40.50800
N  30.41500 61.09300 40.37000
C  31.65300 61.69100 40.50500
C  31.50600 63.21500 41.04900
C  29.90200 63.27200 41.25800
C  29.39600 61.87000 40.84900
C  32.34500 63.58600 42.33400
C  29.12200 64.42700 40.41300
C  28.27000 65.43800 41.27500
N  28.12300 59.28400 40.12700
C  27.34000 60.38500 40.50600
C  25.95500 60.10800 40.35600
C  25.93000 58.76000 39.81900
C  27.23300 58.29900 39.66900
C  24.81200 61.05100 40.60800
C  25.07900 57.66500 39.39500
O  23.86100 57.64800 39.38800
C  25.99300 56.49700 38.94500
C  25.75500 55.43700 39.86300
O  26.21300 55.35100 40.97200
O  24.99000 54.59600 39.17800
C  24.26300 53.43800 39.86700
H  32.83700 55.52800 38.63400
H  33.79700 61.71500 40.20200
H  27.25900 62.32800 41.23400
H  28.20100 54.28700 38.27600
H  30.92800 54.28800 37.59200
H  31.01100 54.47300 40.44600
H  31.14000 52.98800 39.64900
H  29.48400 53.64900 39.94700
H  29.60400 55.11500 35.96600
H  28.48200 56.43600 36.29000
H  26.82100 54.33700 36.61600
H  28.05500 53.71200 35.38900
H  35.68100 57.11200 37.91500
H  34.87400 55.83900 38.49400
H  36.07500 56.77800 39.60600
H  35.55600 61.33200 41.39800
H  35.78000 61.86600 39.86800
H  37.18300 61.11700 40.73400
H  31.80400 63.99300 40.34500
H  29.57800 63.37500 42.29300
H  33.29500 63.05800 42.41900
H  31.75400 63.35600 43.22100
H  32.62000 64.64100 42.32400
H  28.36300 63.95400 39.79000
H  29.72000 64.97800 39.68700
H  27.20300 65.23200 41.18500
H  28.41600 66.44200 40.87700
H  28.64400 65.30100 42.28900
H  25.07400 61.98600 40.11400
H  24.73900 61.27900 41.67100
H  23.90500 60.57800 40.23100
H  25.83600 56.25000 37.89500
H  24.76400 53.31900 40.82700
H  24.47500 52.56600 39.24800
H  23.17900 53.53500 39.93000
Mg 17.06900 52.79300 26.43400
C  18.67300 51.10000 29.10700
C  14.48100 53.67500 28.56700
C  15.50900 54.29800 23.83800
C  19.41300 51.44400 24.36200
N  16.54200 52.25500 28.55200
C  17.36300 51.63900 29.48300
C  16.93200 51.90800 30.92600
C  15.45900 52.45900 30.63500
C  15.47500 52.91000 29.18700
C  14.32700 51.44100 30.96500
C  17.83700 52.96500 31.66600
C  18.31500 52.60200 33.06500
H  17.43800 53.13500 34.27400
N  15.24300 53.93400 26.23500
C  14.35300 54.18500 27.25300
C  13.30100 54.92700 26.69600
C  13.53000 55.11000 25.29600
C  14.80200 54.40200 25.03400
C  12.09200 55.50100 27.50200
C  12.81300 56.02600 24.33200
O  13.19400 56.03000 23.20300
C  11.68000 56.88500 24.71400
N  17.36000 52.82100 24.32300
C  16.64500 53.55500 23.42500
C  17.22200 53.45400 21.98000
C  18.42100 52.52900 22.23700
C  18.41400 52.28000 23.74600
C  16.16000 53.01800 21.01200
C  19.85700 53.15900 21.76000
C  20.10400 53.20400 20.21600
N  18.76900 51.56200 26.61200
C  19.59100 51.08700 25.68100
C  20.65800 50.33400 26.24100
C  20.45500 50.42700 27.64400
C  19.22700 51.12600 27.79300
C  21.81300 49.76400 25.46800
C  20.92700 50.12100 28.96900
O  21.95900 49.59400 29.42300
C  19.75300 50.44400 29.95000
C  19.11200 49.22800 30.58800
O  18.17500 48.51800 30.20600
O  19.66800 49.19900 31.81100
C  19.22600 48.16800 32.71600
H  13.68400 53.92200 29.27100
H  15.03400 54.76800 22.97400
H  20.00200 51.07900 23.51900
H  16.79000 51.04800 31.58000
H  15.22900 53.33100 31.24800
H  14.38100 50.58400 30.29400
H  13.30800 51.82600 30.93500
H  14.54800 51.16200 31.99500
H  17.43300 53.96200 31.84000
H  18.71900 52.98500 31.02500
H  19.38000 52.82000 33.14100
H  18.37900 51.51900 33.17400
H  12.11000 56.58100 27.35700
H  12.19400 55.28600 28.56500
H  11.18800 55.04500 27.10000
H  12.07300 57.55100 25.48200
H  10.85500 56.22500 24.98300
H  11.38700 57.52500 23.88100
H  17.65000 54.42900 21.74300
H  18.28200 51.60600 21.67400
H  16.06400 51.93600 21.10400
H  16.38100 53.35700 20.00000
H  15.14600 53.37200 21.19600
H  20.61100 52.55900 22.27000
H  19.87200 54.20100 22.07900
H  20.40700 54.21900 19.96000
H  19.19300 52.83800 19.74100
H  20.94300 52.54900 19.98400
H  22.21500 50.67800 25.03000
H  21.41300 49.06200 24.73600
H  22.65300 49.40500 26.06200
H  20.07700 51.13300 30.73100
H  18.16000 48.08300 32.50100
H  19.35500 48.69900 33.65900
H  19.86700 47.28700 32.70600

