158

Mg 50.55200 45.13700 42.99000
C  47.54500 46.36800 41.69700
C  49.99800 42.18500 41.29300
C  53.74100 44.41000 43.27900
C  51.31000 48.48700 43.85100
N  48.86500 44.40700 41.59300
C  47.74600 45.04500 41.25000
C  46.83300 44.08900 40.42900
C  47.59700 42.71900 40.41100
C  48.91100 43.12900 41.08800
C  46.93600 41.61700 41.33200
C  46.51500 44.69700 39.07300
C  44.97300 44.62400 38.71100
H  44.49100 43.42000 37.77600
N  51.63700 43.35900 42.67000
C  51.24900 42.26200 41.98800
C  52.31500 41.30400 41.97700
C  53.40900 41.92100 42.62100
C  52.95900 43.28900 42.92000
C  52.18100 39.84700 41.48000
C  54.80700 41.26000 42.91500
O  55.12300 40.23800 42.34800
C  55.89000 41.97400 43.79800
N  52.24900 46.27300 43.38400
C  53.46400 45.73100 43.52300
C  54.55400 46.70700 43.84300
C  53.75500 48.01300 44.01800
C  52.33700 47.60000 43.72800
C  55.47100 46.56400 45.07600
C  54.33300 49.17400 43.19600
C  54.80900 50.37600 43.97500
N  49.58100 47.03400 42.98300
C  50.02200 48.24300 43.41000
C  48.88200 49.21100 43.37900
C  47.81300 48.50000 42.66700
C  48.40100 47.20700 42.42400
C  48.82600 50.48800 44.14500
C  46.41100 48.47300 42.27600
O  45.54600 49.36100 42.35800
C  46.25200 47.14300 41.49900
C  44.93700 46.59900 41.98900
O  44.86600 45.82800 42.97800
O  43.88800 46.92700 41.24400
C  42.50300 46.44000 41.65200
H  49.70200 41.20600 40.91200
H  54.78200 44.09400 43.18400
H  51.55000 49.51500 44.13100
H  45.94800 43.94600 41.04900
H  47.69800 42.28600 39.41600
H  45.85600 41.72100 41.44200
H  47.36400 41.60400 42.33400
H  47.28700 40.73600 40.79500
H  46.95000 44.10400 38.26800
H  46.98800 45.67100 38.95300
H  44.66500 45.48000 38.11000
H  44.40200 44.61700 39.64000
H  52.81000 39.55300 40.63900
H  51.16400 39.77500 41.09500
H  52.29200 39.04900 42.21400
H  55.45900 42.43000 44.68900
H  56.42100 42.64700 43.12500
H  56.59000 41.22500 44.16800
H  55.24700 46.61100 43.00700
H  53.83700 48.24900 45.07900
H  55.97900 47.49100 45.34000
H  56.07700 45.66600 44.95600
H  54.87400 46.29400 45.94700
H  53.51300 49.55000 42.58400
H  55.09000 48.71300 42.56100
H  54.21300 51.26700 43.77700
H  55.86200 50.57300 43.77500
H  54.68500 50.26800 45.05300
H  48.00800 50.42700 44.86300
H  48.67200 51.33900 43.48200
H  49.77300 50.70400 44.63900
H  46.08400 47.59500 40.52100
H  41.87500 47.24200 41.26300
H  42.40300 46.29300 42.72700
H  42.12800 45.58000 41.09800
Mg 10.11500 48.24100 25.38000
C  7.94200 48.64600 27.92500
C  12.73300 49.14400 27.44800
C  12.22400 47.65400 22.76900
C  7.45300 47.76600 23.05000
N  10.28300 48.66900 27.45400
C  9.25300 48.62400 28.38500
C  9.78800 48.63900 29.84100
C  11.26100 49.22900 29.56600
C  11.50800 49.02300 28.08600
C  11.57400 50.67400 30.00900
C  9.64000 47.23000 30.53900
C  10.40000 47.10300 31.83600
H  9.59600 46.61500 33.04600
N  12.18700 48.38100 25.14100
C  13.03400 48.71700 26.13300
C  14.42300 48.67600 25.61500
C  14.28800 48.12800 24.29100
C  12.85900 48.01900 24.01900
C  15.72000 48.96000 26.39300
C  15.36100 47.56700 23.36200
O  15.21300 46.95300 22.31600
C  16.74900 47.76200 23.71500
N  9.86600 47.83400 23.16300
C  10.90300 47.67000 22.31400
C  10.44800 47.10200 20.97500
C  8.94500 46.90100 21.22300
C  8.70400 47.55400 22.55600
C  10.74000 47.90200 19.72600
C  8.38900 45.47200 21.11700
C  8.82700 44.46400 22.26100
N  8.12100 48.46100 25.41300
C  7.14800 48.22100 24.45200
C  5.80900 48.36200 24.97300
C  6.07900 48.61600 26.36100
C  7.48500 48.60300 26.55300
C  4.47000 48.23000 24.27400
C  5.53300 48.76300 27.65700
O  4.37800 48.88100 28.01000
C  6.65100 48.72100 28.73100
C  6.24200 47.51700 29.61500
O  6.18600 46.37300 29.19400
O  5.96300 47.91700 30.93900
C  5.69200 46.83600 31.85800
H  13.51000 49.43200 28.16000
H  12.90900 47.42700 21.95000
H  6.66200 47.55900 22.32600
H  9.14700 49.29000 30.43600
H  11.96500 48.67000 30.18300
H  11.92400 51.33700 29.21800
H  12.22300 50.66100 30.88500
H  10.65000 51.19000 30.27100
H  10.05300 46.48000 29.86500
H  8.56800 47.06400 30.64500
H  10.76300 48.10300 32.07100
H  11.19600 46.40000 31.59000
H  15.58300 49.29600 27.42100
H  16.30200 49.77400 25.96200
H  16.33000 48.05700 26.40500
H  16.82700 48.78600 24.07900
H  17.39700 47.73600 22.84000
H  17.06000 47.05800 24.48700
H  10.90900 46.13200 20.78900
H  8.32500 47.46600 20.52700
H  11.36900 48.68500 20.15000
H  9.87300 48.47300 19.39300
H  11.31500 47.38200 18.95900
H  8.59800 45.27600 20.06500
H  7.30700 45.57200 21.20600
H  7.90100 43.98200 22.57600
H  9.39300 45.00600 23.01800
H  9.43500 43.72400 21.74000
H  4.12600 47.19800 24.21200
H  4.56300 48.72800 23.30900
H  3.64800 48.75600 24.75800
H  6.64600 49.61900 29.34900
H  6.06800 47.09800 32.84700
H  6.11500 45.87800 31.55500
H  4.61300 46.68600 31.88300

