158

Mg 1.60300 -0.92900 44.12800
C  4.89100 0.10900 43.62000
C  0.46500 1.79400 42.52000
C  -1.43900 -2.51500 44.00900
C  3.04300 -4.11300 45.05300
N  2.55700 0.63200 43.10200
C  3.88600 0.96000 43.21400
C  4.11300 2.48200 42.76300
C  2.65500 2.98300 42.47300
C  1.82800 1.71600 42.70200
C  2.22400 4.25200 43.20700
C  4.98500 2.51100 41.45500
C  5.15300 1.32100 40.41600
H  6.45900 1.25200 39.68600
N  -0.28100 -0.37600 43.35400
C  -0.49500 0.82100 42.80000
C  -1.91400 0.82300 42.46500
C  -2.52100 -0.33900 42.93000
C  -1.38200 -1.15500 43.42000
C  -2.46200 1.95100 41.81600
C  -3.97400 -0.75500 42.75800
O  -4.80000 0.00800 42.30800
C  -4.52600 -2.11800 43.01700
N  0.92500 -2.95700 44.50300
C  -0.39700 -3.31300 44.45000
C  -0.60600 -4.76400 44.97300
C  0.80300 -5.25000 45.19200
C  1.64900 -4.04200 44.88100
C  -1.49700 -4.83700 46.24100
C  1.16600 -6.60100 44.55100
C  0.88300 -7.86100 45.43200
N  3.61000 -1.90600 44.28700
C  3.97200 -3.14700 44.72700
C  5.39600 -3.15400 44.83700
C  5.80300 -1.85400 44.47700
C  4.70100 -1.18900 43.95300
C  6.19800 -4.23300 45.31700
C  6.95200 -0.93700 44.40600
O  8.12600 -1.16300 44.82500
C  6.36100 0.41100 43.87200
C  6.40400 1.38700 44.99900
O  5.85200 1.38200 46.07600
O  7.29900 2.45500 44.64300
C  7.65400 3.48300 45.61100
H  0.16400 2.73100 42.04800
H  -2.42000 -2.97700 44.13800
H  3.42800 -5.05800 45.44000
H  4.57500 3.05900 43.56400
H  2.53800 3.23300 41.41800
H  1.45300 4.03500 43.94600
H  1.80200 4.95600 42.49000
H  3.04600 4.65500 43.79900
H  5.89200 2.86400 41.94600
H  4.70900 3.44500 40.96500
H  4.38400 1.54300 39.67700
H  4.86000 0.39700 40.91500
H  -2.08700 1.80500 40.80300
H  -2.27300 2.86900 42.37100
H  -3.52700 1.86100 41.60200
H  -4.07400 -2.93600 42.45600
H  -5.57600 -2.10300 42.72400
H  -4.45000 -2.36900 44.07500
H  -0.98800 -5.29900 44.10300
H  0.95600 -5.39700 46.26100
H  -2.13900 -3.96100 46.32500
H  -0.96900 -4.86100 47.19400
H  -2.29000 -5.58300 46.18800
H  2.22800 -6.64700 44.30800
H  0.70200 -6.74400 43.57500
H  0.48900 -8.74900 44.93700
H  0.13100 -7.61000 46.18000
H  1.81500 -8.13100 45.92800
H  5.67900 -4.53500 46.22600
H  7.17300 -3.80900 45.56000
H  6.26300 -5.12200 44.69100
H  7.05500 0.75900 43.10700
H  6.92500 3.51300 46.42100
H  7.65100 4.39700 45.01800
H  8.64700 3.23300 45.98300
Mg 7.88200 3.45100 27.25700
C  9.34300 1.85200 30.02600
C  6.10100 5.45200 29.37300
C  6.68400 5.02600 24.46300
C  9.06000 0.80200 25.18600
N  7.81100 3.65300 29.46300
C  8.63200 3.02500 30.39500
C  8.44700 3.55300 31.89200
C  7.37300 4.73000 31.62100
C  7.09100 4.66900 30.04800
C  6.10000 4.42200 32.44300
C  9.78200 3.89800 32.54000
C  9.74400 4.83400 33.72500
H  10.56600 4.57400 34.96600
N  6.55600 5.03800 26.98300
C  5.98100 5.72300 27.97100
C  5.18300 6.78200 27.39400
C  5.57500 6.82200 25.97000
C  6.29000 5.58400 25.73200
C  4.35600 7.77400 28.12300
C  5.29600 7.85300 24.93000
O  5.76200 7.78500 23.79400
C  4.67400 9.14500 25.35800
N  7.95500 3.07700 25.13800
C  7.36200 3.82700 24.20800
C  7.39500 3.26900 22.81500
C  7.96600 1.89200 23.03800
C  8.39300 1.93100 24.52700
C  5.93900 3.21500 22.15600
C  9.19800 1.48700 22.13300
C  8.97900 0.16700 21.39600
N  8.94400 1.67300 27.51600
C  9.36200 0.74800 26.59000
C  10.15900 -0.19800 27.31300
C  10.19400 0.12800 28.63000
C  9.45100 1.33500 28.71200
C  10.93000 -1.29600 26.70600
C  10.73500 -0.16700 29.91100
O  11.37300 -1.15400 30.30700
C  10.23800 0.99500 30.84700
C  9.55100 0.29300 31.93300
O  8.50600 -0.33700 31.94000
O  10.39800 0.41400 33.02900
C  9.85600 -0.05900 34.28200
H  5.45200 6.07100 29.99600
H  6.19300 5.50200 23.61100
H  9.27200 -0.07500 24.57200
H  8.04800 2.73700 32.49500
H  7.79100 5.67000 31.98300
H  6.08800 3.43800 32.91300
H  5.22500 4.42400 31.79300
H  5.97100 5.27600 33.10800
H  10.40400 4.37300 31.78000
H  10.18100 2.95400 32.91000
H  8.73500 5.10100 34.04100
H  10.07400 5.75200 33.23900
H  4.10200 7.45400 29.13300
H  3.39500 8.00100 27.66100
H  4.85800 8.74000 28.17100
H  3.71700 9.03000 25.86800
H  4.51600 9.64000 24.40000
H  5.42000 9.69600 25.93200
H  7.95500 3.96500 22.19000
H  7.17300 1.14500 22.99100
H  5.70900 2.23300 21.74200
H  5.78800 4.05800 21.48200
H  5.27100 3.39600 22.99700
H  10.13600 1.49400 22.68900
H  9.22300 2.24700 21.35100
H  8.21500 -0.47400 21.83600
H  9.88700 -0.40100 21.59900
H  8.88700 0.38400 20.33200
H  11.85900 -1.43400 27.25900
H  11.19500 -1.19300 25.65300
H  10.31200 -2.18000 26.86300
H  11.12000 1.55400 31.16000
H  9.70900 0.84000 34.88000
H  10.53500 -0.67900 34.86700
H  8.90400 -0.58900 34.29600

