158

Mg 0.90600 7.16800 26.52800
C  1.44100 9.45600 28.97200
C  1.13200 4.56200 28.81600
C  0.76100 4.88900 23.99500
C  1.05300 9.77300 24.19500
N  1.02600 7.02800 28.67200
C  1.30800 8.12800 29.49900
C  1.41800 7.68300 30.97700
C  1.61300 6.16000 30.86100
C  1.24700 5.88900 29.37700
C  2.98400 5.57800 31.27800
C  0.13400 8.08800 31.71800
C  0.21200 8.39300 33.26300
H  1.38700 7.89300 34.07900
N  0.95800 5.01900 26.41800
C  1.04400 4.15100 27.45900
C  0.85800 2.77400 26.93300
C  0.69900 2.86700 25.57200
C  0.82200 4.33200 25.23000
C  0.82400 1.65900 27.92200
C  0.37700 1.77200 24.63000
O  -0.01500 1.97200 23.44400
C  0.57700 0.35900 24.98000
N  0.74700 7.34100 24.48900
C  0.75300 6.29000 23.61700
C  0.45700 6.74900 22.13000
C  0.46000 8.31100 22.31500
C  0.73900 8.48800 23.73400
C  1.22400 6.17700 20.99200
C  -0.84100 8.91200 21.73100
C  -2.11700 8.89600 22.54800
N  1.13400 9.21400 26.56700
C  1.27200 10.13600 25.52100
C  1.63900 11.45500 26.08200
C  1.74500 11.17400 27.42700
C  1.33900 9.85700 27.65700
C  1.96000 12.65600 25.24900
C  2.17100 11.74800 28.60900
O  2.63100 12.87800 28.86300
C  1.81900 10.73400 29.66000
C  2.92700 10.63200 30.61200
O  4.09400 10.34100 30.35200
O  2.42200 11.08600 31.84200
C  3.43900 11.25000 32.88000
H  1.22300 3.68500 29.46100
H  0.60900 4.23600 23.13400
H  0.92900 10.61700 23.51400
H  2.26000 8.18600 31.45300
H  0.92800 5.65600 31.54300
H  3.61800 5.75100 30.40800
H  2.93700 4.49600 31.39500
H  3.44100 6.08700 32.12700
H  -0.64800 7.34300 31.57300
H  -0.27900 9.01000 31.30800
H  -0.67400 8.04400 33.79300
H  0.27700 9.47600 33.37000
H  0.16600 1.90800 28.75400
H  1.85400 1.63500 28.27900
H  0.51500 0.70700 27.49200
H  -0.32500 -0.04100 25.44300
H  1.52100 0.09100 25.45500
H  0.63900 -0.23200 24.06700
H  -0.59300 6.50100 21.97200
H  1.41200 8.60800 21.87500
H  0.63900 5.38200 20.52900
H  2.10700 5.64000 21.33900
H  1.43300 7.03600 20.35500
H  -0.99400 8.50600 20.73100
H  -0.65300 9.97800 21.59900
H  -2.73500 9.79000 22.63800
H  -2.00300 8.53800 23.57100
H  -2.82300 8.19900 22.09700
H  2.02300 12.38400 24.19600
H  2.93900 13.07700 25.48000
H  1.25300 13.48200 25.32400
H  0.94600 11.11400 30.19100
H  4.47000 11.43000 32.57500
H  3.25500 10.55100 33.69700
H  3.38700 12.26600 33.27100
Mg -1.47000 34.17400 25.70000
C  -3.15500 32.37400 28.41300
C  -0.19700 36.28200 28.09900
C  -0.16100 35.91200 23.18800
C  -2.99200 32.08500 23.50200
N  -1.74600 34.27500 28.02200
C  -2.33300 33.39100 28.89600
C  -1.94200 33.79900 30.30700
C  -1.07500 35.08900 30.18700
C  -1.02400 35.25100 28.67300
C  -1.54800 36.46400 30.88600
C  -1.28400 32.60000 31.09800
C  -1.71400 32.47900 32.63400
H  -0.75800 32.27300 33.78000
N  -0.24300 35.87400 25.70900
C  0.16300 36.55900 26.77900
C  1.01200 37.69300 26.34400
C  1.07300 37.55900 24.86900
C  0.25200 36.38700 24.51800
C  1.67900 38.72300 27.20700
C  1.76000 38.46300 23.87600
O  1.87900 38.23000 22.68200
C  2.42400 39.80200 24.29200
N  -1.62100 34.00300 23.65900
C  -0.99600 34.84300 22.78700
C  -1.40900 34.46300 21.34700
C  -1.85500 33.03900 21.53500
C  -2.14700 32.99700 23.02200
C  -2.29100 35.48700 20.58200
C  -0.79500 31.91300 21.09200
C  0.60300 32.02800 21.64800
N  -2.91500 32.65800 25.87000
C  -3.45900 31.94300 24.85400
C  -4.42800 31.02700 25.40300
C  -4.37700 31.15800 26.79300
C  -3.36500 32.12200 27.03300
C  -5.35400 30.17000 24.55100
C  -4.98500 30.81100 28.02700
O  -5.97700 30.17700 28.36000
C  -4.20700 31.48500 29.15300
C  -5.19500 32.13200 30.08200
O  -5.92400 33.06600 29.76300
O  -5.34100 31.42000 31.27100
C  -6.38400 31.90500 32.22400
H  0.16000 36.94200 28.89300
H  0.20600 36.45500 22.31500
H  -3.49400 31.47700 22.74600
H  -2.91700 34.05100 30.72400
H  -0.09000 34.90000 30.61300
H  -0.66700 37.07300 31.08800
H  -2.14200 36.40000 31.79800
H  -2.15100 37.06700 30.20700
H  -0.20600 32.75200 31.03800
H  -1.45100 31.68000 30.53800
H  -2.33900 31.58700 32.65300
H  -2.39700 33.29900 32.85500
H  1.38300 38.54100 28.24000
H  1.34600 39.75900 27.15100
H  2.76300 38.65900 27.11300
H  2.56700 40.41100 23.39900
H  3.35300 39.58400 24.81900
H  1.72000 40.28300 24.97100
H  -0.46800 34.46000 20.79600
H  -2.72100 32.87900 20.89200
H  -1.77700 35.81500 19.67900
H  -2.32200 36.33300 21.26900
H  -3.25500 35.06700 20.29600
H  -0.72000 31.93100 20.00400
H  -1.18800 30.95600 21.43500
H  1.29200 32.66400 21.09200
H  1.02600 31.03000 21.76400
H  0.45400 32.46800 22.63400
H  -5.16000 29.11100 24.71900
H  -5.29600 30.41300 23.49000
H  -6.37900 30.46500 24.77600
H  -3.69100 30.67800 29.67400
H  -5.73700 32.46300 32.90000
H  -6.91800 31.06900 32.67500
H  -7.13900 32.62200 31.90200

