158

Mg 47.51700 34.73100 27.15400
C  45.48400 33.46500 29.57500
C  47.99200 37.57300 29.05600
C  48.84400 36.24600 24.56000
C  46.55400 32.10900 25.01000
N  46.91000 35.37200 29.11000
C  46.16400 34.63000 29.98000
C  46.15700 35.24100 31.38400
C  46.65600 36.72800 31.14000
C  47.23800 36.56900 29.73200
C  45.54200 37.82900 31.19900
C  47.16400 34.52100 32.31500
C  46.84300 34.38900 33.81000
H  47.72900 34.96200 34.77200
N  48.49300 36.60600 26.91400
C  48.55200 37.61300 27.76300
C  49.26500 38.77700 27.20700
C  49.66800 38.31500 25.90600
C  49.01100 37.00000 25.75200
C  49.59400 39.96600 27.95000
C  50.48600 39.00900 24.84100
O  50.63800 38.49800 23.76500
C  51.11400 40.39100 25.15600
N  47.74400 34.23900 25.13500
C  48.41400 35.02500 24.30800
C  48.48500 34.32300 22.92100
C  47.72400 33.02800 23.04000
C  47.32100 33.10800 24.49200
C  48.22600 35.21600 21.69400
C  48.49300 31.68300 22.66100
C  47.89300 30.80800 21.55000
N  46.29400 33.07400 27.25300
C  46.07200 32.05600 26.33100
C  45.21100 31.07700 26.97300
C  44.97700 31.60000 28.27100
C  45.60300 32.82000 28.37300
C  44.79800 29.73600 26.44400
C  44.38700 31.26400 29.47000
O  43.82100 30.30100 29.78600
C  44.47000 32.54300 30.35700
C  44.67400 32.26000 31.81000
O  45.53700 31.59800 32.33400
O  43.71500 32.95300 32.56400
C  43.41900 32.54100 33.93700
H  48.22300 38.39300 29.73900
H  49.16000 36.73500 23.63600
H  46.37400 31.26100 24.34600
H  45.15400 35.28900 31.80700
H  47.49400 36.95200 31.80100
H  45.44200 38.29200 30.21700
H  45.69700 38.52100 32.02700
H  44.53900 37.42600 31.33500
H  48.12800 35.03000 32.32600
H  47.31400 33.56300 31.81800
H  46.82000 33.34400 34.12100
H  45.84700 34.65800 34.16200
H  50.67700 40.01200 27.84000
H  49.41900 39.81800 29.01500
H  49.09900 40.80100 27.45400
H  50.32300 40.97800 25.62300
H  51.34400 40.83800 24.18800
H  51.96100 40.17600 25.80800
H  49.53200 34.08900 22.72600
H  46.78600 33.10200 22.49000
H  47.55200 34.72500 20.99100
H  49.08500 35.47000 21.07400
H  47.68100 36.10100 22.02200
H  48.51100 31.07700 23.56800
H  49.49600 31.97100 22.34800
H  48.71000 30.70200 20.83600
H  47.02300 31.32700 21.14800
H  47.60600 29.84000 21.96100
H  45.19000 29.00500 27.15100
H  45.45000 29.67000 25.57400
H  43.73500 29.51900 26.33800
H  43.50500 33.04500 30.28400
H  43.45300 31.45400 34.00700
H  42.39900 32.87700 34.12600
H  44.12900 32.98100 34.63800
Mg -2.39200 34.55800 26.05300
C  -3.77100 32.36000 28.39800
C  -1.10500 36.47900 28.61300
C  -1.04900 36.46800 23.68800
C  -3.95400 32.52600 23.52800
N  -2.49900 34.42800 28.27000
C  -3.01000 33.37600 29.01300
C  -2.84200 33.63500 30.49000
C  -2.27000 35.14600 30.54200
C  -1.95500 35.40500 29.06200
C  -3.23800 36.23000 31.15600
C  -1.94600 32.55000 31.14100
C  -2.49300 31.90300 32.39600
H  -1.46900 32.06600 33.55200
N  -1.24700 36.28900 26.12300
C  -0.73100 36.82000 27.34400
C  0.01100 38.05900 26.92600
C  0.16300 38.04400 25.46700
C  -0.74000 36.88700 25.01200
C  0.69800 38.95100 27.89100
C  0.81600 39.09500 24.59200
O  0.82800 38.92800 23.36000
C  1.46200 40.35400 25.14400
N  -2.70000 34.71100 23.87900
C  -1.93200 35.51500 23.19400
C  -1.95600 35.17600 21.63600
C  -2.72800 33.86700 21.56400
C  -3.14900 33.65500 23.12100
C  -2.60200 36.34700 20.84300
C  -2.01800 32.57600 20.99100
C  -0.67900 32.74900 20.30600
N  -3.65500 32.88600 25.90900
C  -4.14000 32.12700 24.88200
C  -4.91100 31.02300 25.33400
C  -4.73300 31.05100 26.76600
C  -4.02800 32.22600 27.07000
C  -5.56000 30.00500 24.42700
C  -5.02800 30.35200 27.96000
O  -5.76800 29.38900 28.16800
C  -4.39600 31.15400 29.13700
C  -5.43800 31.58200 30.12400
O  -6.15500 32.54600 29.98500
O  -5.38200 30.70300 31.17900
C  -6.14200 30.97500 32.38100
H  -0.87800 37.12500 29.46400
H  -0.65200 37.01200 22.82900
H  -4.38900 31.89000 22.75500
H  -3.83100 33.59200 30.94700
H  -1.31500 35.23600 31.06000
H  -2.71000 36.78900 31.92800
H  -4.13400 35.80700 31.61100
H  -3.59800 36.94200 30.41400
H  -1.12800 33.14800 31.54300
H  -1.62600 31.73400 30.49300
H  -2.77400 30.86600 32.21300
H  -3.37400 32.39800 32.80400
H  1.76900 39.02000 27.69900
H  0.42700 38.56200 28.87200
H  0.24300 39.94100 27.86600
H  2.34600 40.15700 25.75100
H  0.76100 40.97300 25.70400
H  1.87900 41.03100 24.39900
H  -0.93000 35.12400 21.27100
H  -3.65700 34.06800 21.03100
H  -2.78500 37.31500 21.31100
H  -3.62800 36.07200 20.59800
H  -2.02000 36.57400 19.95000
H  -2.66200 32.01300 20.31500
H  -1.80100 31.88000 21.80200
H  -0.51500 33.68300 19.76700
H  -0.50800 31.91200 19.63000
H  0.02500 32.76700 21.13800
H  -6.24800 30.46000 23.71400
H  -6.10500 29.23300 24.97000
H  -4.77300 29.52200 23.84900
H  -3.70700 30.44500 29.59600
H  -5.66500 31.83600 32.85000
H  -6.09600 30.07500 32.99300
H  -7.18300 31.22000 32.17200

