158

Mg 24.46400 0.69500 29.45200
C  26.53200 1.03800 32.08600
C  21.84700 1.19200 31.53400
C  22.30500 0.18800 26.79100
C  27.15200 0.42600 27.26300
N  24.28100 1.22200 31.54800
C  25.31500 1.36400 32.48900
C  24.80700 1.68800 33.88300
C  23.25300 1.51500 33.66200
C  23.11300 1.38600 32.14100
C  22.66000 0.33100 34.38400
C  25.35700 2.97400 34.52800
C  26.14100 2.74900 35.83400
H  25.98700 3.60400 37.11500
N  22.44400 0.53700 29.23500
C  21.54500 0.76100 30.26000
C  20.21600 0.38200 29.81900
C  20.31900 0.11800 28.45300
C  21.71400 0.27900 28.08600
C  19.01200 0.48600 30.77800
C  19.25000 -0.27100 27.49000
O  19.46000 -0.68600 26.38700
C  17.82300 -0.15900 27.91500
N  24.71000 0.36500 27.35400
C  23.65200 0.36700 26.46700
C  24.23300 0.53800 24.97700
C  25.82500 0.56500 25.20600
C  25.90500 0.37800 26.68000
C  23.68700 -0.56000 23.99400
C  26.46500 1.96300 24.75300
C  25.67800 3.30000 25.06300
N  26.41400 0.64100 29.56500
C  27.41300 0.51100 28.65000
C  28.69900 0.42100 29.23400
C  28.42700 0.52600 30.59300
C  27.02600 0.77200 30.77800
C  29.97700 0.09100 28.33800
C  29.08400 0.47100 31.90500
O  30.17400 0.36200 32.29600
C  27.88100 0.78800 32.88300
C  27.70600 -0.29300 33.85300
O  27.11700 -1.35100 33.67700
O  28.26600 0.19500 35.02300
C  28.18000 -0.70600 36.19800
H  21.06600 1.47800 32.24200
H  21.66300 0.23100 25.90800
H  28.00300 0.47600 26.58100
H  25.24700 0.83100 34.39300
H  22.81000 2.40800 34.10400
H  22.07300 -0.23700 33.66200
H  21.89900 0.69600 35.07300
H  23.36000 -0.40300 34.78300
H  24.52000 3.66300 34.63800
H  26.01700 3.41400 33.78000
H  27.17000 2.88300 35.50200
H  26.07700 1.70100 36.12700
H  18.14000 -0.11000 30.50800
H  18.79200 1.55300 30.82700
H  19.31000 0.12700 31.76300
H  17.25400 -0.15800 26.98500
H  17.50500 0.84400 28.19900
H  17.65600 -1.00400 28.58300
H  23.91700 1.47200 24.51300
H  26.45100 -0.17800 24.71200
H  23.05900 -1.30600 24.48000
H  24.51800 -1.09800 23.53700
H  23.22700 0.00200 23.18000
H  26.47800 1.93400 23.66300
H  27.53300 2.04100 24.95600
H  26.45000 4.07000 25.06500
H  25.08500 3.41100 25.97100
H  25.12100 3.54100 24.15800
H  30.83100 0.19000 29.00900
H  30.04400 0.79100 27.50500
H  29.87300 -0.94000 28.00100
H  28.21200 1.68600 33.40500
H  27.33500 -0.29000 36.74800
H  29.06900 -0.79500 36.82400
H  27.95900 -1.70900 35.83400
Mg 45.54500 17.35100 28.71600
C  43.55600 16.86100 31.67200
C  47.58000 19.45300 30.55800
C  46.96700 18.12300 25.93300
C  42.89400 15.67700 27.05100
N  45.51000 18.14500 30.82900
C  44.71100 17.63800 31.88200
C  45.18100 18.05700 33.19800
C  46.29700 19.06200 32.81200
C  46.57600 18.84000 31.31700
C  46.05700 20.49500 33.31700
C  45.72000 16.88700 34.10900
C  46.12100 17.07100 35.55700
H  45.72800 18.34000 36.35000
N  47.20300 18.51100 28.33000
C  47.91600 19.32400 29.17700
C  48.98900 20.02000 28.51000
C  48.78500 19.59000 27.13000
C  47.59300 18.77300 27.05400
C  49.87200 21.06900 29.20100
C  49.72400 19.85600 25.87100
O  49.49100 19.39500 24.77600
C  50.83300 20.77600 26.05300
N  44.99500 16.99900 26.74300
C  45.80200 17.39800 25.77800
C  45.27900 16.98600 24.39700
C  44.02100 16.12300 24.79100
C  43.95900 16.27100 26.28900
C  45.03700 18.16800 23.38100
C  43.96800 14.60600 24.33900
C  44.74000 13.68600 25.30700
N  43.74700 16.30700 29.16100
C  42.83000 15.67400 28.36900
C  41.92000 14.96000 29.26300
C  42.12500 15.46400 30.50400
C  43.25100 16.28500 30.41400
C  40.76300 14.07100 28.80900
C  41.62400 15.47100 31.86400
O  40.58100 14.92400 32.32200
C  42.49100 16.29000 32.68900
C  41.73500 17.39500 33.40300
O  40.72500 17.93600 33.00700
O  42.21200 17.53100 34.75800
C  41.54300 18.44400 35.64000
H  48.21800 20.15900 31.09400
H  47.50600 18.27400 24.99500
H  42.07000 15.20300 26.51300
H  44.34600 18.52300 33.72000
H  47.26400 18.83900 33.26300
H  45.09000 20.50900 33.81900
H  46.08200 21.14200 32.44000
H  46.80000 20.78700 34.05800
H  46.48400 16.40100 33.50200
H  44.92200 16.15700 34.24000
H  47.21100 17.05300 35.57900
H  45.68400 16.18400 36.01500
H  50.74400 20.62900 29.68400
H  49.36600 21.69400 29.93700
H  50.23600 21.82900 28.51100
H  51.28500 20.65400 27.03700
H  50.45200 21.77700 25.85000
H  51.61200 20.56500 25.32100
H  45.90200 16.23800 23.90600
H  43.10600 16.54800 24.38000
H  45.67500 18.98300 23.72400
H  43.99500 18.48400 23.34100
H  45.25300 17.91100 22.34400
H  44.56300 14.56400 23.42700
H  42.96500 14.31400 24.02700
H  44.08600 13.13000 25.98000
H  45.57000 14.18600 25.80600
H  45.12700 12.94100 24.61200
H  41.11200 13.39900 28.02500
H  39.93500 14.67600 28.44100
H  40.39900 13.60900 29.72700
H  42.78000 15.51500 33.39900
H  41.82100 19.43900 35.29100
H  41.99400 18.31400 36.62400
H  40.46300 18.39500 35.77400

