158

Mg -1.58800 18.21200 27.76100
C  -2.03500 15.94300 30.35100
C  -2.39900 20.75200 29.74400
C  -1.32500 20.20700 24.91200
C  -1.32600 15.41400 25.63500
N  -2.03000 18.27100 29.81000
C  -2.13800 17.28400 30.76500
C  -2.56200 17.88500 32.17800
C  -2.89300 19.34800 31.86700
C  -2.49100 19.47600 30.38800
C  -4.42300 19.68500 31.99800
C  -1.42900 17.75200 33.25700
C  -1.83300 17.31900 34.61500
H  -0.69000 17.09100 35.67000
N  -1.85000 20.25900 27.39200
C  -2.13500 21.10400 28.36600
C  -2.04500 22.49100 27.83700
C  -1.74500 22.37400 26.45700
C  -1.63600 20.86800 26.19000
C  -2.36100 23.79600 28.58600
C  -1.53000 23.42100 25.42200
O  -1.33800 23.08800 24.25300
C  -1.40900 24.87100 25.78300
N  -1.20400 17.89300 25.64400
C  -1.10200 18.87600 24.68100
C  -0.69000 18.25800 23.28800
C  -0.61700 16.70900 23.58000
C  -1.11300 16.65900 25.05400
C  -1.73100 18.59300 22.18300
C  0.72900 16.09100 23.38700
C  1.96600 16.78100 24.12000
N  -1.65800 16.10800 27.92400
C  -1.58500 15.10000 26.96000
C  -1.84500 13.83400 27.61200
C  -1.97200 14.12300 28.89600
C  -1.85800 15.44800 29.02900
C  -1.86000 12.49800 26.85300
C  -2.17500 13.56100 30.26200
O  -2.21400 12.40800 30.65400
C  -2.18400 14.68100 31.23300
C  -1.04300 14.42700 32.10900
O  0.13400 14.72500 31.89800
O  -1.53100 13.66000 33.09500
C  -0.45300 13.18000 33.95800
H  -2.61400 21.62100 30.36900
H  -1.16600 20.74300 23.97400
H  -1.34400 14.60200 24.90600
H  -3.44700 17.36400 32.54300
H  -2.35400 20.03900 32.51600
H  -4.57600 20.42200 32.78600
H  -4.98600 18.79300 32.27400
H  -4.87700 20.14300 31.11900
H  -0.88000 18.68500 33.38800
H  -0.70000 17.03500 32.87900
H  -2.57700 16.52700 34.53000
H  -2.31000 18.20700 35.02900
H  -1.51600 24.46800 28.73300
H  -2.58200 23.46200 29.59900
H  -3.29500 24.24900 28.25200
H  -0.43900 24.95800 26.27200
H  -2.23800 25.23900 26.38900
H  -1.44100 25.34100 24.80000
H  0.32200 18.48400 22.95200
H  -1.29100 16.23600 22.86500
H  -2.53500 19.14300 22.67300
H  -2.03700 17.62500 21.78700
H  -1.40600 19.30100 21.42000
H  0.85600 16.18800 22.30900
H  0.59700 15.01500 23.49400
H  1.62100 17.19900 25.06600
H  2.29300 17.62400 23.51100
H  2.78600 16.08200 24.28600
H  -0.99200 12.39800 26.20100
H  -2.79200 12.46300 26.28900
H  -1.79500 11.65800 27.54400
H  -3.17200 14.54900 31.67300
H  0.31700 12.74200 33.32400
H  -0.86800 12.39600 34.59300
H  0.05200 13.84500 34.65900
Mg 26.47800 49.79800 25.95800
C  24.20900 50.93200 28.47100
C  28.60700 48.78100 28.45100
C  28.64900 48.78800 23.65600
C  24.28600 50.96000 23.62800
N  26.46600 50.01800 28.13100
C  25.41700 50.38000 29.02600
C  25.85300 50.26400 30.50900
C  27.23100 49.49600 30.43100
C  27.46500 49.51300 28.93100
C  28.31800 50.12500 31.30100
C  24.72600 49.75400 31.42800
C  25.07800 48.84300 32.63600
H  25.76200 49.62800 33.84100
N  28.40800 48.93900 26.00400
C  29.03400 48.48400 27.12800
C  30.18400 47.71100 26.67700
C  30.25300 47.79300 25.30500
C  29.11400 48.58300 24.93600
C  31.14000 46.98100 27.67300
C  31.24900 47.23200 24.35900
O  31.27400 47.33100 23.16600
C  32.39800 46.45200 24.98900
N  26.50300 50.03400 23.97000
C  27.44400 49.37900 23.20500
C  27.02500 49.26700 21.69200
C  25.49300 49.61500 21.85200
C  25.43300 50.24900 23.20500
C  27.73000 50.34900 20.82100
C  24.56400 48.27000 21.72200
C  23.93200 48.12400 20.28400
N  24.69200 50.88900 26.02900
C  23.93000 51.29000 24.93900
C  22.70800 51.81200 25.41400
C  22.72500 51.73000 26.77800
C  23.96400 51.16000 27.11400
C  21.59400 52.32400 24.59300
C  22.07800 51.91800 28.01800
O  21.04500 52.43500 28.21600
C  23.03600 51.43300 29.17500
C  23.31300 52.56600 30.12400
O  24.28400 53.35100 30.08300
O  22.41500 52.57700 31.14000
C  22.77000 53.42900 32.34000
H  29.30100 48.31500 29.15300
H  29.31900 48.57500 22.82000
H  23.40200 51.23500 23.04900
H  26.13200 51.28600 30.76700
H  27.10500 48.44300 30.68300
H  29.22100 50.23100 30.69900
H  28.63700 49.36000 32.00900
H  28.26800 51.15500 31.65400
H  24.04000 49.20000 30.78800
H  24.17400 50.62300 31.78400
H  25.70300 48.01000 32.31400
H  24.14000 48.36400 32.91600
H  32.19000 47.23900 27.53500
H  30.95000 45.93500 27.43300
H  30.87300 47.07400 28.72600
H  33.12000 46.13800 24.23500
H  31.86400 45.63800 25.48000
H  33.05900 47.03700 25.62900
H  27.27400 48.25400 21.37700
H  25.11000 50.34400 21.13800
H  27.15400 51.11500 20.30100
H  28.18600 49.86600 19.95700
H  28.47900 50.86000 21.42600
H  23.81000 48.28100 22.50900
H  25.24500 47.43000 21.86000
H  24.11100 47.09000 19.99100
H  24.44400 48.69000 19.50600
H  22.87100 48.36100 20.20900
H  21.04200 51.45100 24.24500
H  22.08800 52.78000 23.73500
H  20.95300 53.03400 25.11500
H  22.65900 50.60700 29.77700
H  22.89000 54.49100 32.12700
H  23.77000 53.11000 32.63200
H  22.18800 53.20100 33.23300

