158

Mg 1.06500 -1.79700 44.80000
C  4.47300 -1.39100 44.01900
C  0.41000 0.78100 42.53900
C  -2.23700 -2.61900 44.97000
C  1.87000 -4.78300 46.36000
N  2.32900 -0.62500 43.17900
C  3.68900 -0.57700 43.22800
C  4.21500 0.44000 42.13100
C  2.82800 1.22200 41.78600
C  1.78400 0.47400 42.50800
C  2.96100 2.76000 41.99600
C  4.88700 -0.32100 40.94100
C  6.27300 0.30900 40.55000
H  6.35000 1.50800 39.53100
N  -0.70200 -0.97900 43.88400
C  -0.71200 0.10300 43.08200
C  -2.09300 0.54900 42.89600
C  -3.00400 -0.42500 43.60000
C  -1.99100 -1.38900 44.23200
C  -2.50100 1.79100 42.06600
C  -4.53900 -0.44600 43.69300
O  -5.12300 0.48500 43.12300
C  -5.32000 -1.42500 44.40000
N  0.00700 -3.46600 45.66000
C  -1.36500 -3.52700 45.61600
C  -1.87600 -4.82300 46.35200
C  -0.55900 -5.54900 46.88500
C  0.47300 -4.62900 46.16700
C  -3.00100 -4.48700 47.45100
C  -0.36500 -7.10700 46.75500
C  -1.47200 -8.01500 47.31800
N  2.73800 -2.82900 45.24100
C  2.97800 -4.05600 45.86200
C  4.40200 -4.27600 46.16000
C  4.96900 -3.21400 45.46600
C  3.96900 -2.44300 44.90100
C  5.09700 -5.38700 46.90200
C  6.34000 -2.63600 45.09100
O  7.46800 -3.01200 45.36400
C  5.96200 -1.46900 44.13600
C  6.45100 -0.15200 44.67500
O  6.21300 0.19600 45.80700
O  7.29800 0.45700 43.79000
C  7.90500 1.72000 44.20500
H  0.14200 1.66700 41.95900
H  -3.28600 -2.80300 45.21100
H  2.25000 -5.56500 47.02100
H  4.93100 1.14400 42.55300
H  2.67800 1.18800 40.70700
H  3.89700 2.97200 42.51300
H  2.13500 3.09400 42.62300
H  2.95200 3.38800 41.10500
H  4.19200 -0.28700 40.10200
H  5.11700 -1.37700 41.07600
H  6.76700 -0.58300 40.16400
H  6.77400 0.58500 41.47800
H  -2.81500 1.46500 41.07500
H  -1.77500 2.60100 41.99400
H  -3.38200 2.18000 42.57700
H  -6.39700 -1.36800 44.24000
H  -5.11900 -1.28300 45.46100
H  -5.00200 -2.44600 44.18700
H  -2.26300 -5.49100 45.58200
H  -0.54600 -5.43700 47.96900
H  -3.86700 -5.13100 47.29400
H  -3.26500 -3.43300 47.36500
H  -2.71100 -4.61600 48.49400
H  0.55000 -7.39800 47.27200
H  -0.23200 -7.38700 45.71000
H  -1.83100 -8.60500 46.47500
H  -2.22400 -7.40600 47.81900
H  -1.09000 -8.77300 48.00200
H  5.31800 -6.22200 46.23900
H  4.56200 -5.68400 47.80500
H  6.00300 -4.87400 47.22600
H  6.46700 -1.62800 43.18300
H  8.93100 1.43300 44.43700
H  7.46700 2.03000 45.15300
H  7.73800 2.49500 43.45700
Mg 42.48700 41.25500 26.64200
C  41.92000 43.49900 29.30400
C  43.22300 38.76300 29.12900
C  43.60000 39.24400 24.21400
C  42.42700 43.92100 24.46900
N  42.60100 41.13600 28.96100
C  42.20300 42.17600 29.77700
C  42.26500 41.74000 31.29800
C  42.57400 40.21500 31.21200
C  42.95600 39.99800 29.72000
C  43.66900 39.81100 32.22100
C  41.06400 42.19700 32.08100
C  40.74000 41.27600 33.32300
H  40.31200 42.04300 34.59900
N  43.20700 39.23400 26.65400
C  43.30900 38.34200 27.67300
C  43.83200 37.09000 27.17600
C  44.14200 37.29500 25.78800
C  43.66200 38.63600 25.47800
C  44.20600 35.92900 27.99300
C  44.93100 36.35500 24.89400
O  45.22700 36.69300 23.77900
C  45.23500 34.86900 25.34900
N  42.99500 41.57200 24.61500
C  43.39500 40.59400 23.80600
C  43.47400 41.11400 22.27100
C  42.80300 42.50600 22.33800
C  42.81000 42.69100 23.91200
C  44.95400 41.10700 21.87500
C  41.38600 42.57300 21.70400
C  40.15700 41.69200 22.24300
N  42.11800 43.31500 26.81600
C  42.09900 44.21100 25.77400
C  41.78400 45.51300 26.31400
C  41.67200 45.28200 27.72800
C  41.90800 43.92000 27.95600
C  41.71700 46.79100 25.64800
C  41.48400 45.98000 28.98600
O  41.33900 47.18500 29.23000
C  41.60400 44.77300 30.06900
C  42.60700 45.30900 31.04500
O  43.84900 45.39700 30.90900
O  41.94400 45.58100 32.22800
C  42.68100 45.97000 33.40000
H  43.44400 37.96200 29.83800
H  43.78100 38.53600 23.40200
H  42.29100 44.70400 23.71900
H  43.14100 42.21400 31.74100
H  41.62200 39.70600 31.36300
H  44.53000 39.62100 31.58000
H  43.34600 38.91800 32.75500
H  43.97800 40.57700 32.93300
H  40.32700 42.43200 31.31300
H  41.35700 43.12500 32.57100
H  41.51100 40.53500 33.53200
H  39.82300 40.78400 32.99800
H  43.81900 34.97800 27.62900
H  43.91600 36.08700 29.03200
H  45.27500 35.88700 28.20400
H  45.52000 34.32200 24.45100
H  44.39500 34.31200 25.76400
H  45.99600 34.91900 26.12800
H  43.04800 40.41200 21.55300
H  43.39900 43.25400 21.81400
H  45.56100 41.03700 22.77800
H  45.23500 42.02500 21.35900
H  45.04700 40.27900 21.17300
H  41.57900 42.28100 20.67200
H  41.09300 43.60200 21.91600
H  39.43700 42.44800 22.55700
H  40.55800 41.01700 22.99800
H  39.82200 41.03600 21.44000
H  41.55700 46.75100 24.57000
H  42.67400 47.30800 25.71400
H  40.91800 47.40200 26.06900
H  40.61600 44.69500 30.52300
H  43.67700 45.52800 33.44400
H  42.07000 45.87600 34.29800
H  42.90400 47.03100 33.28500

