158

Mg 36.41800 2.33600 29.88300
C  34.31900 3.46000 32.52400
C  38.97600 2.03900 32.18600
C  38.52100 1.95800 27.36500
C  33.74200 2.74500 27.73400
N  36.57500 2.82300 32.07400
C  35.65500 3.14600 32.94100
C  36.12800 3.16400 34.38700
C  37.54100 2.56400 34.23700
C  37.69200 2.36000 32.74400
C  38.78400 3.27500 34.92200
C  35.21200 2.46600 35.43400
C  34.72100 3.27000 36.73300
H  35.48300 4.44100 37.33200
N  38.51900 2.01900 29.82200
C  39.37800 1.86100 30.86300
C  40.66300 1.50000 30.29600
C  40.56900 1.47000 28.88300
C  39.16100 1.88800 28.66700
C  41.81000 1.19500 31.14500
C  41.67300 1.14500 27.82000
O  41.50500 1.36300 26.63900
C  42.98500 0.32200 28.28200
N  36.17400 2.24500 27.82300
C  37.22200 2.13900 26.93900
C  36.72500 2.15500 25.42000
C  35.13900 2.02900 25.64000
C  34.96600 2.35800 27.17400
C  37.13000 3.46000 24.68700
C  34.46800 0.67500 25.29500
C  32.91300 0.56900 25.33800
N  34.40100 2.98200 29.99900
C  33.44700 3.11900 29.01900
C  32.20700 3.63000 29.52500
C  32.51700 3.74300 30.91800
C  33.83400 3.40000 31.16800
C  31.06500 3.88700 28.75300
C  31.96100 4.17700 32.18700
O  30.85800 4.65300 32.37700
C  33.11800 3.96000 33.27200
C  33.31200 5.27100 34.02700
O  34.39700 5.91800 34.14200
O  32.16700 5.62100 34.74100
C  32.30200 6.85400 35.51200
H  39.62700 1.64900 32.97100
H  39.17900 1.75400 26.51700
H  32.83800 2.65500 27.12800
H  36.23400 4.23300 34.57700
H  37.47700 1.52600 34.56400
H  39.31800 2.53100 35.51200
H  38.43300 4.07600 35.57200
H  39.47100 3.85500 34.30600
H  35.74400 1.59400 35.81500
H  34.30200 2.09500 34.96300
H  34.80600 2.47100 37.47000
H  33.65200 3.46700 36.64400
H  41.65200 1.19600 32.22400
H  42.70200 1.77200 30.90000
H  41.91300 0.11200 31.08000
H  43.52800 0.90700 29.02300
H  43.65900 0.16900 27.43900
H  42.79200 -0.59300 28.84200
H  37.17700 1.28300 24.94800
H  34.59500 2.72500 25.00100
H  37.44700 4.22300 25.39700
H  36.39100 3.81200 23.96800
H  37.99800 3.11600 24.12400
H  35.01900 -0.09500 25.83500
H  34.71900 0.47700 24.25300
H  32.69000 -0.08800 26.17800
H  32.41900 0.12900 24.47200
H  32.48400 1.55400 25.52500
H  30.63900 2.93700 28.43000
H  31.17100 4.63900 27.97200
H  30.33000 4.24000 29.47600
H  32.66900 3.17400 33.87900
H  32.44000 7.71000 34.85200
H  33.15800 6.70900 36.17000
H  31.43700 7.08600 36.13500
Mg 30.46900 57.06400 39.27800
C  28.03700 54.74100 38.38100
C  32.73500 54.75200 38.07900
C  32.80100 59.47200 39.50500
C  28.07100 59.49600 40.06900
N  30.33000 55.04400 38.17800
C  29.27200 54.23500 38.11200
C  29.59500 52.85400 37.54100
C  31.12900 52.85100 37.62300
C  31.44000 54.31000 37.98200
C  31.68900 51.81100 38.62500
C  29.00300 52.39800 36.21200
C  29.41100 53.08200 34.93700
H  28.34400 53.89700 34.19200
N  32.55000 57.07600 38.85300
C  33.29900 56.00900 38.48200
C  34.71300 56.45600 38.42400
C  34.76200 57.75700 38.87200
C  33.35400 58.15200 39.10900
C  35.83700 55.53700 37.88300
C  36.09300 58.49700 39.03200
O  37.13700 57.91700 38.85000
C  36.14300 59.94000 39.43400
N  30.44100 59.29600 39.59200
C  31.56900 60.04200 39.78900
C  31.24200 61.51700 39.99800
C  29.70400 61.51000 40.18500
C  29.37500 59.98300 40.00500
C  32.17800 62.33500 40.89000
C  28.90600 62.49900 39.15500
C  27.96000 63.60400 39.85400
N  28.47000 57.18900 39.23900
C  27.61200 58.24100 39.66500
C  26.26800 57.78200 39.31500
C  26.37500 56.41400 38.99400
C  27.70200 56.10400 38.85700
C  24.96200 58.44000 39.44700
C  25.61900 55.24700 38.62000
O  24.39300 55.07600 38.63400
C  26.70200 54.13700 38.32500
C  26.35700 53.11300 39.35400
O  26.95600 52.80600 40.41900
O  25.25500 52.48200 38.91700
C  24.62900 51.42200 39.69900
H  33.41400 53.97500 37.72200
H  33.59100 60.19900 39.70300
H  27.29100 60.25500 40.16600
H  29.14300 52.29300 38.35900
H  31.55300 52.63500 36.64200
H  32.19200 51.18700 37.88600
H  30.90500 51.23100 39.11200
H  32.41900 52.35700 39.22300
H  27.92700 52.43600 36.38400
H  29.19400 51.32800 36.13200
H  29.89800 52.34400 34.29800
H  30.08600 53.85700 35.30000
H  36.45800 56.05800 37.15400
H  35.47200 54.62100 37.41600
H  36.58100 55.20800 38.60800
H  37.19300 60.22900 39.41300
H  35.62800 59.98000 40.39400
H  35.55600 60.50100 38.70700
H  31.54600 61.86100 39.00900
H  29.37100 61.80800 41.17900
H  32.90900 61.74700 41.44600
H  31.46200 62.82100 41.55200
H  32.67500 63.18600 40.42300
H  28.34500 62.11400 38.30300
H  29.68300 63.09400 38.67600
H  27.45200 63.12500 40.69100
H  27.22900 63.97600 39.13600
H  28.62700 64.43100 40.10000
H  25.05600 59.52100 39.54400
H  24.46000 58.06000 40.33700
H  24.43100 58.13200 38.54600
H  26.54300 53.68100 37.34800
H  24.45400 50.56900 39.04400
H  23.74500 51.82100 40.19800
H  25.32400 51.04800 40.45100

