158

Mg 16.34600 52.50100 26.52200
C  18.10400 50.90300 29.17600
C  13.80500 53.12100 28.67900
C  14.60800 53.71500 23.86900
C  18.68400 51.00800 24.31700
N  16.09000 52.02600 28.66800
C  16.96300 51.58100 29.55400
C  16.45900 51.78900 31.01400
C  14.91600 52.15000 30.84200
C  14.91400 52.47600 29.27100
C  13.79500 51.10900 31.23100
C  17.29800 52.97700 31.70700
C  17.15900 53.19500 33.26300
H  16.40400 52.20900 34.19600
N  14.43400 53.26800 26.29200
C  13.50400 53.46700 27.30100
C  12.30400 54.10100 26.73700
C  12.57500 54.32900 25.37800
C  13.95300 53.77000 25.13400
C  11.11300 54.32300 27.67900
C  11.78800 55.10700 24.42300
O  12.07300 55.23800 23.22300
C  10.58500 55.91600 24.91300
N  16.54300 52.19500 24.31700
C  15.78800 53.00300 23.50800
C  16.37400 52.98400 22.02000
C  17.82200 52.35200 22.31600
C  17.72300 51.81400 23.69200
C  15.41600 52.04600 21.18100
C  19.04800 53.37800 22.22400
C  20.26200 52.88500 21.44400
N  18.12100 51.26500 26.67500
C  18.93300 50.77600 25.67400
C  19.87600 49.85300 26.29700
C  19.72000 49.99900 27.66900
C  18.55500 50.78400 27.86100
C  20.99300 49.22100 25.59600
C  20.26000 49.51800 28.98700
O  21.25100 48.85200 29.31700
C  19.23700 50.23900 30.00700
C  18.75100 49.22300 30.94900
O  18.15300 48.23700 30.57100
O  19.09300 49.45600 32.23500
C  18.69600 48.50000 33.35600
H  13.09000 53.42700 29.44500
H  14.28200 54.23600 22.96700
H  19.46500 50.77400 23.59000
H  16.56200 50.88300 31.61100
H  14.67300 53.06800 31.37800
H  13.05700 51.01500 30.43500
H  13.35900 51.39800 32.18800
H  14.31600 50.16200 31.37100
H  17.04200 53.90100 31.18800
H  18.33500 52.82000 31.41000
H  16.71000 54.18100 33.37800
H  18.15400 53.42400 33.64400
H  10.11100 54.22400 27.26200
H  11.17900 55.32900 28.09400
H  11.25000 53.52800 28.41100
H  10.31500 56.68900 24.19400
H  10.78400 56.40400 25.86700
H  9.66600 55.33100 24.94300
H  16.39600 54.01300 21.66000
H  17.99900 51.46600 21.70700
H  15.93400 51.16100 20.81100
H  14.89000 52.63800 20.43100
H  14.57200 51.74400 21.80000
H  19.40900 53.72100 23.19400
H  18.65700 54.22300 21.65700
H  20.41800 53.58800 20.62600
H  20.18300 51.85700 21.09000
H  21.09500 52.95100 22.14400
H  20.94800 48.13300 25.55300
H  21.84500 49.56800 26.18000
H  21.17100 49.61400 24.59400
H  19.82200 50.95100 30.59000
H  18.19900 47.61700 32.95300
H  17.89700 48.89600 33.98200
H  19.50200 48.18400 34.01900
Mg -10.63100 17.07500 40.28800
C  -7.16700 16.50900 40.66300
C  -9.97100 20.52800 40.06400
C  -13.94600 17.58500 39.34400
C  -11.03900 13.72500 39.33200
N  -8.78600 18.32000 40.33100
C  -7.46000 17.85600 40.37700
C  -6.51800 18.99200 40.12500
C  -7.35200 20.28600 40.32300
C  -8.80600 19.70300 40.27100
C  -7.11200 21.18500 41.63800
C  -5.83800 18.99200 38.72200
C  -4.30400 18.90800 38.76900
H  -3.69600 18.01700 37.74900
N  -11.82200 18.80400 39.82800
C  -11.32700 20.09200 39.81400
C  -12.40100 20.95800 39.54700
C  -13.63700 20.19500 39.43200
C  -13.21400 18.79800 39.54200
C  -12.28900 22.48400 39.42600
C  -15.13700 20.80100 39.33200
O  -15.24000 22.00100 39.30800
C  -16.28100 19.89400 39.31800
N  -12.22800 15.87800 39.39700
C  -13.52300 16.24400 39.32700
C  -14.48700 15.10500 39.04900
C  -13.50900 13.88900 38.85600
C  -12.15900 14.54300 39.15300
C  -15.50100 14.96200 40.28200
C  -13.66800 13.37000 37.44800
C  -13.35900 14.50500 36.45100
N  -9.44200 15.38600 40.36400
C  -9.70700 14.09000 39.82400
C  -8.59100 13.24400 40.04500
C  -7.57600 14.12000 40.43400
C  -8.10100 15.47800 40.48500
C  -8.40300 11.73400 39.62400
C  -6.15200 14.28100 40.79300
O  -5.31500 13.43100 40.98000
C  -5.85600 15.82000 40.88800
C  -5.17100 16.19500 42.09500
O  -4.11700 16.78600 42.03200
O  -5.77900 15.75500 43.27100
C  -5.02300 16.03500 44.48700
H  -9.63800 21.56500 40.14500
H  -15.00100 17.56900 39.06300
H  -11.15100 12.66500 39.09500
H  -5.69600 19.01300 40.84000
H  -7.21800 21.06500 39.57300
H  -6.10100 21.33200 42.01800
H  -7.72000 20.78600 42.45100
H  -7.59200 22.12200 41.35700
H  -6.06300 19.98100 38.32200
H  -6.26100 18.37600 37.92800
H  -3.81100 18.65400 39.70700
H  -3.83800 19.83500 38.43600
H  -12.69100 22.66300 38.42800
H  -11.29700 22.92800 39.51000
H  -12.87800 23.00400 40.18100
H  -17.19600 20.46900 39.45500
H  -16.27000 19.43000 40.30400
H  -16.37000 19.05400 38.62800
H  -15.10900 15.22800 38.16200
H  -13.71500 13.08500 39.56300
H  -14.95100 15.08200 41.21500
H  -15.96800 13.97800 40.25500
H  -16.31000 15.68400 40.39400
H  -14.61100 12.82800 37.38200
H  -12.84200 12.66400 37.35100
H  -14.13200 14.67800 35.70300
H  -12.43500 14.23200 35.94000
H  -13.03700 15.44800 36.89400
H  -8.13000 11.70800 38.56900
H  -9.32300 11.16300 39.75300
H  -7.71700 11.24200 40.31400
H  -5.20700 16.13300 40.07100
H  -5.12100 17.12100 44.50400
H  -3.98100 15.73400 44.38300
H  -5.45300 15.61300 45.39500

