158

Mg 25.08600 1.85900 29.26500
C  27.32700 1.38100 32.01600
C  22.54000 1.75300 31.46000
C  23.02100 1.74100 26.61400
C  27.92200 1.34100 27.18600
N  25.02300 1.67500 31.54500
C  26.04100 1.51700 32.46200
C  25.54000 1.69800 33.88500
C  23.98900 1.68300 33.56600
C  23.79100 1.65300 32.07500
C  23.23100 0.64100 34.36300
C  26.02500 2.95900 34.62300
C  25.15900 3.44100 35.78700
H  25.90500 4.22100 36.92700
N  23.03100 1.88400 29.10100
C  22.16200 1.84500 30.07700
C  20.88100 2.08500 29.55400
C  20.92100 1.95500 28.11400
C  22.31500 1.80000 27.89500
C  19.65400 2.05300 30.49900
C  19.84300 1.81700 27.01700
O  20.10100 1.69400 25.80400
C  18.39600 1.74400 27.47400
N  25.43500 1.40300 27.25900
C  24.41600 1.60000 26.33900
C  24.91300 1.55200 24.88300
C  26.51600 1.72000 25.14600
C  26.65900 1.41200 26.59200
C  24.45400 0.40000 24.01500
C  27.08000 3.14600 24.76700
C  26.82600 4.33100 25.65500
N  27.21400 1.48000 29.47000
C  28.16200 1.34900 28.54100
C  29.43100 1.07600 29.18900
C  29.15500 1.11400 30.55300
C  27.77200 1.37300 30.63700
C  30.82800 0.83300 28.64100
C  29.68200 1.02400 31.91100
O  30.81300 0.90900 32.32700
C  28.54600 1.21900 32.89000
C  28.47700 0.23700 34.03100
O  27.67500 -0.73200 34.05400
O  29.37800 0.51000 35.05500
C  29.59200 -0.61300 35.90100
H  21.76400 1.75500 32.22800
H  22.37100 1.90500 25.75200
H  28.73900 1.46200 26.47100
H  25.63600 0.86600 34.58400
H  23.64400 2.66000 33.90400
H  23.64600 -0.33700 34.11900
H  22.15100 0.65200 34.21400
H  23.34400 0.78400 35.43800
H  26.12500 3.73400 33.86400
H  27.05900 2.85200 34.94900
H  24.77800 2.51600 36.21900
H  24.33900 4.10200 35.50600
H  19.20600 3.02000 30.73100
H  19.96500 1.65900 31.46700
H  18.88300 1.36500 30.15300
H  17.93300 0.76200 27.57000
H  17.91300 2.29000 26.66300
H  18.18600 2.32700 28.37100
H  24.59600 2.48100 24.40900
H  27.15200 0.99800 24.63400
H  25.15600 0.18200 23.21000
H  23.45900 0.62100 23.63000
H  24.39500 -0.44900 24.69500
H  26.46900 3.46200 23.92100
H  28.11200 3.02800 24.43700
H  26.82300 3.91900 26.66400
H  25.89500 4.89000 25.56400
H  27.60300 5.08900 25.55400
H  31.02000 -0.16700 29.03200
H  31.57900 1.58300 28.89000
H  30.83300 0.73000 27.55600
H  28.70300 2.16900 33.40100
H  28.79900 -0.65200 36.64800
H  30.51600 -0.54300 36.47400
H  29.64300 -1.50800 35.28000
Mg 53.58400 25.51300 44.03800
C  50.74800 27.46500 43.93800
C  51.72200 22.87000 42.80200
C  56.42700 23.76100 43.84000
C  55.44800 28.42000 45.08300
N  51.56300 25.25700 43.43600
C  50.59800 26.21800 43.35100
C  49.23200 25.72100 42.78500
C  49.43600 24.19800 42.94600
C  51.02000 24.05000 43.14200
C  48.51500 23.44700 43.99700
C  48.97200 26.22700 41.26200
C  50.15600 26.29600 40.30000
H  50.10100 25.51500 38.93600
N  53.99500 23.58400 43.40500
C  53.13700 22.67400 42.86900
C  53.84400 21.49600 42.47900
C  55.21700 21.74900 42.86600
C  55.29900 23.07700 43.37000
C  53.16400 20.31300 41.96700
C  56.16000 20.62600 42.81700
O  55.81400 19.47500 42.52500
C  57.52600 20.74900 43.48800
N  55.70600 26.09900 44.13700
C  56.65600 25.12500 44.24300
C  57.97100 25.67000 44.87000
C  57.68000 27.20300 45.08200
C  56.20100 27.25200 44.73500
C  58.35800 25.00200 46.25000
C  58.45100 28.15300 44.15700
C  58.33100 27.89800 42.61200
N  53.18800 27.48400 44.50500
C  54.00800 28.56400 45.00000
C  53.20400 29.62300 45.42800
C  51.95900 29.28400 44.92200
C  51.95000 27.98300 44.42000
C  53.59700 30.90100 46.17900
C  50.58800 29.78400 44.82300
O  50.07300 30.81800 45.18900
C  49.77300 28.66200 44.08500
C  49.50700 29.12800 42.69200
O  50.33400 29.32500 41.79800
O  48.21700 29.39900 42.56400
C  47.67800 29.95300 41.36000
H  51.14700 22.02000 42.42800
H  57.34100 23.18200 43.98800
H  55.98800 29.26200 45.52200
H  48.35400 26.06800 43.33000
H  49.17800 23.70300 42.01000
H  49.03300 22.76000 44.66600
H  47.79100 22.89600 43.39700
H  48.01600 24.26000 44.52400
H  48.51900 27.21900 41.27900
H  48.19700 25.64100 40.76900
H  51.04100 25.84700 40.75100
H  50.46700 27.30800 40.03900
H  53.61700 19.89900 41.06700
H  52.10400 20.47400 41.77600
H  53.25700 19.49500 42.68100
H  57.91100 19.73500 43.38400
H  57.55800 21.02800 44.54100
H  58.10300 21.42900 42.86100
H  58.82500 25.62300 44.19400
H  57.68300 27.56300 46.11000
H  59.01900 24.16600 46.02300
H  57.44500 24.56300 46.65400
H  58.81200 25.65000 46.99900
H  59.49800 28.04800 44.44300
H  58.00300 29.14100 44.26900
H  59.28400 27.58700 42.18300
H  58.05500 28.84800 42.15400
H  57.59700 27.17200 42.26100
H  54.46500 30.86100 46.83600
H  52.79300 31.34400 46.76800
H  53.90500 31.66800 45.46800
H  48.80800 28.40700 44.52500
H  46.59800 30.05900 41.46900
H  47.85200 29.44500 40.41100
H  47.99900 30.99100 41.27900

