158

Mg 23.06500 -7.50300 46.22200
C  25.72900 -5.33600 44.86600
C  20.87100 -5.89200 44.27700
C  21.04600 -10.14300 46.58600
C  25.73100 -9.33600 47.75900
N  23.28500 -5.79000 44.78000
C  24.42600 -5.06000 44.35000
C  23.99500 -3.97900 43.25800
C  22.43200 -4.06700 43.27600
C  22.15500 -5.36600 44.07900
C  21.74600 -2.93900 43.93800
C  24.75900 -4.13300 41.84200
C  24.72200 -2.80700 40.98600
H  23.93300 -2.77800 39.64000
N  21.19700 -7.92600 45.56100
C  20.38100 -7.11500 44.84400
C  19.15700 -7.76600 44.44500
C  19.11900 -8.95400 45.26500
C  20.50300 -9.09800 45.79200
C  18.09400 -7.12900 43.56400
C  17.94700 -9.97200 45.39300
O  16.90000 -9.84200 44.68700
C  18.00000 -11.09000 46.36800
N  23.36600 -9.39900 46.98600
C  22.29600 -10.25900 47.13400
C  22.68600 -11.55800 47.91000
C  24.21600 -11.29000 48.18400
C  24.51200 -9.95100 47.50700
C  21.89300 -11.84100 49.18700
C  25.08200 -12.55200 47.88700
C  26.35300 -12.70800 48.70700
N  25.28100 -7.29700 46.49600
C  26.17000 -8.12200 47.19600
C  27.49200 -7.55400 47.06500
C  27.39100 -6.48300 46.17800
C  25.99700 -6.41800 45.77100
C  28.73500 -8.08000 47.64600
C  28.13300 -5.32000 45.62500
O  29.24900 -4.91100 45.87700
C  27.07900 -4.62200 44.62100
C  27.14900 -3.22700 45.09100
O  26.54400 -2.89700 46.11100
O  27.64900 -2.36500 44.12700
C  27.70300 -0.91700 44.50400
H  20.18100 -5.15800 43.85700
H  20.40800 -11.02200 46.69900
H  26.53200 -9.93200 48.20000
H  24.30100 -2.97700 43.55900
H  22.04000 -4.21300 42.26900
H  22.45400 -2.58900 44.68900
H  20.86400 -3.11000 44.55500
H  21.65700 -2.16500 43.17600
H  24.24900 -4.98000 41.38400
H  25.79400 -4.45800 41.94800
H  25.77500 -2.85800 40.70700
H  24.55100 -1.95700 41.64600
H  18.16300 -7.77300 42.68700
H  18.29600 -6.07200 43.38900
H  17.08400 -7.20200 43.96600
H  18.36300 -10.75300 47.33900
H  18.58700 -11.91300 45.96000
H  17.01800 -11.53800 46.52400
H  22.61900 -12.28000 47.09700
H  24.32900 -11.14100 49.25800
H  22.48000 -11.59500 50.07200
H  21.60800 -12.89100 49.12400
H  20.98800 -11.23500 49.13800
H  25.27100 -12.43000 46.82000
H  24.50600 -13.44900 48.11500
H  27.16200 -12.79900 47.98300
H  26.41200 -13.49100 49.46300
H  26.62300 -11.79400 49.23700
H  29.49600 -8.15600 46.87000
H  28.57600 -9.02100 48.17200
H  29.06900 -7.45400 48.47400
H  27.37600 -4.70400 43.57600
H  28.70300 -0.61900 44.81800
H  27.00100 -0.71300 45.31300
H  27.39600 -0.40100 43.59500
Mg 30.12400 59.32200 39.31400
C  27.39800 57.38200 38.36500
C  32.17600 56.83800 38.46900
C  32.71700 61.49700 39.55200
C  27.87800 61.98100 39.38200
N  29.75000 57.40800 38.48200
C  28.61800 56.75300 38.18200
C  28.93500 55.32700 37.55200
C  30.27200 55.09000 38.31100
C  30.79500 56.57100 38.44700
C  29.96300 54.36700 39.67600
C  28.85000 55.33500 35.96000
C  27.78200 54.34700 35.48100
H  26.72400 54.81600 34.49500
N  32.26100 59.15900 39.11600
C  32.87000 58.00500 38.81000
C  34.32100 58.27200 38.89200
C  34.52400 59.65800 39.17200
C  33.13100 60.14800 39.30200
C  35.31200 57.19900 38.68600
C  35.87300 60.28300 39.29700
O  36.92100 59.66500 39.28900
C  35.94600 61.74300 39.38900
N  30.30900 61.46400 39.46800
C  31.45800 62.08800 39.70400
C  31.18700 63.57900 39.78600
C  29.63200 63.70400 39.61900
C  29.23100 62.29600 39.42400
C  31.84300 64.40500 40.95300
C  29.21600 64.60000 38.38300
C  28.14000 65.62400 38.63000
N  28.00300 59.68800 39.05800
C  27.26400 60.81900 39.14100
C  25.88300 60.56500 38.83900
C  25.87400 59.14900 38.59900
C  27.19500 58.70700 38.62100
C  24.71800 61.53900 38.91700
C  25.07100 57.94100 38.34200
O  23.84000 57.81600 38.34200
C  26.00700 56.77800 38.22800
C  25.78300 55.72600 39.25800
O  25.85600 55.95200 40.48600
O  25.60600 54.48300 38.64100
C  25.49400 53.35500 39.52900
H  32.82500 55.98100 38.27900
H  33.56300 62.18500 39.62100
H  27.23800 62.86500 39.33700
H  28.22100 54.64200 38.00800
H  31.00800 54.50600 37.76000
H  30.52400 54.69100 40.55200
H  29.99800 53.28200 39.57700
H  28.98400 54.71900 40.00300
H  29.81200 55.02900 35.55000
H  28.66300 56.35000 35.60800
H  27.27200 54.02500 36.39000
H  28.21400 53.40200 35.15000
H  35.72600 57.25200 37.67900
H  34.79300 56.25900 38.87600
H  36.17000 57.33400 39.34500
H  37.02100 61.91800 39.35700
H  35.55200 61.96800 40.38100
H  35.45600 62.19500 38.52700
H  31.66500 63.94600 38.87800
H  29.30200 63.85700 40.64700
H  31.49900 64.20400 41.96700
H  31.70000 65.46600 40.74700
H  32.91300 64.22500 40.84700
H  28.84300 64.00500 37.54900
H  30.12000 65.15400 38.12900
H  28.41800 66.67400 38.54600
H  27.66100 65.41300 39.58600
H  27.31600 65.30200 37.99300
H  25.04300 62.52300 38.57800
H  24.31000 61.59100 39.92600
H  23.87600 61.21200 38.30600
H  25.76500 56.30400 37.27700
H  24.47600 53.24500 39.90100
H  26.31200 53.37600 40.25000
H  25.53700 52.46500 38.90200

