158

Mg 25.84000 0.79800 29.63400
C  27.92300 0.52400 32.56400
C  23.11100 0.83000 31.66000
C  24.00000 1.08500 26.85200
C  28.61600 -0.08000 27.76500
N  25.63000 0.70700 31.84200
C  26.56800 0.75500 32.84400
C  25.90200 0.89800 34.20300
C  24.37700 0.81500 33.94200
C  24.38500 0.69700 32.39700
C  23.63400 -0.37200 34.68300
C  26.37400 2.12000 35.06500
C  26.62200 1.87500 36.53000
H  26.27200 2.97300 37.52900
N  23.83200 1.01200 29.30400
C  22.87500 1.02500 30.27500
C  21.58100 1.27100 29.63000
C  21.81100 1.41400 28.23100
C  23.22200 1.14400 28.05400
C  20.25200 1.48400 30.39700
C  20.87900 1.83200 27.10700
O  21.22600 2.04200 25.91800
C  19.49900 2.35300 27.41300
N  26.29600 0.58200 27.63000
C  25.31400 0.73000 26.66100
C  25.98300 0.75900 25.30800
C  27.44500 0.42900 25.60400
C  27.50500 0.30500 27.07600
C  25.26500 -0.04300 24.18800
C  28.39700 1.48700 25.07300
C  28.28800 2.86800 25.83000
N  27.83300 0.26800 30.01800
C  28.83000 -0.03500 29.16600
C  30.03100 -0.35600 29.92600
C  29.71400 -0.03200 31.22800
C  28.40600 0.31800 31.25400
C  31.40100 -0.76000 29.30200
C  30.34300 0.01900 32.53900
O  31.49000 -0.13600 32.91500
C  29.16100 0.41200 33.47400
C  29.14000 -0.56800 34.64600
O  28.61100 -1.70500 34.70100
O  29.80000 0.02700 35.68500
C  29.97000 -0.66100 36.94000
H  22.27800 0.94000 32.35700
H  23.43400 1.19800 25.92500
H  29.43400 -0.48900 27.16900
H  26.13900 -0.04800 34.69000
H  23.93700 1.75100 34.28400
H  23.63500 -1.33400 34.17000
H  22.58000 -0.10800 34.76300
H  24.11100 -0.53900 35.64900
H  25.60900 2.89600 35.05400
H  27.30200 2.48800 34.62500
H  27.67400 1.72200 36.76800
H  26.03400 1.01700 36.85700
H  20.47500 1.35600 31.45600
H  19.59600 0.68500 30.05100
H  19.67700 2.39800 30.24300
H  19.72700 3.26000 27.97300
H  18.95000 1.65400 28.04400
H  18.93800 2.68800 26.54100
H  25.87300 1.81200 25.04800
H  27.74900 -0.56300 25.27000
H  24.29800 -0.38400 24.56100
H  25.90600 -0.84400 23.82000
H  25.02600 0.65900 23.39000
H  28.18900 1.61900 24.01100
H  29.36600 0.98900 25.10400
H  29.28800 3.26300 26.01000
H  27.70700 2.78300 26.74900
H  27.77300 3.55200 25.15600
H  31.33500 -1.82000 29.05800
H  32.21000 -0.54000 29.99900
H  31.50900 -0.20000 28.37300
H  29.45200 1.34600 33.95600
H  30.04000 -1.71600 36.67500
H  29.23900 -0.40000 37.70600
H  30.90900 -0.33000 37.38500
Mg 48.64600 14.95900 28.82800
C  46.56500 15.20700 31.69400
C  51.07700 16.72400 30.37800
C  50.20500 14.93400 25.98900
C  45.75200 13.51800 27.18600
N  48.69200 15.97000 30.72700
C  47.79300 15.87800 31.81400
C  48.43200 16.47600 33.09200
C  49.75900 17.14800 32.58400
C  49.89400 16.61000 31.14600
C  49.67700 18.71200 32.53900
C  48.69900 15.55700 34.24100
C  48.08500 15.89900 35.58600
H  48.91600 15.48300 36.79900
N  50.49600 15.67600 28.26300
C  51.34200 16.36700 29.03800
C  52.53700 16.64300 28.29100
C  52.31800 16.17800 26.97600
C  50.96600 15.56800 26.99300
C  53.76400 17.37500 28.95600
C  53.14700 16.23600 25.67700
O  52.81100 15.65500 24.62200
C  54.49500 16.90200 25.79600
N  47.95200 14.47900 26.78200
C  48.91000 14.53100 25.77100
C  48.31400 13.88900 24.53400
C  46.88800 13.34500 24.93300
C  46.81300 13.72900 26.39100
C  48.29100 14.85600 23.25500
C  46.71100 11.83900 24.78600
C  47.83400 10.81300 25.24500
N  46.64000 14.28100 29.38000
C  45.62600 13.74700 28.56400
C  44.47500 13.50000 29.39000
C  44.77900 13.98900 30.65500
C  46.11800 14.46200 30.57300
C  43.22500 12.80800 29.03900
C  44.24500 14.24800 31.93800
O  43.12400 14.05700 32.44500
C  45.46200 15.01000 32.69300
C  44.86300 16.22000 33.31000
O  44.41500 17.18100 32.66400
O  44.72200 16.10300 34.69200
C  44.04400 17.09500 35.53100
H  51.77700 17.18600 31.07700
H  50.75600 14.54000 25.13200
H  44.80800 13.15100 26.77600
H  47.79100 17.27500 33.46500
H  50.63200 17.00300 33.22100
H  50.54100 19.20800 32.98100
H  48.76600 19.09300 33.00200
H  49.61100 19.07100 31.51200
H  49.76700 15.54600 34.45400
H  48.45100 14.56500 33.86200
H  47.06300 15.52100 35.60300
H  47.97900 16.98300 35.53900
H  53.37500 17.95300 29.79400
H  54.37100 18.05300 28.35600
H  54.41700 16.64200 29.42900
H  55.16800 16.23200 26.33000
H  54.52600 17.90600 26.21800
H  54.95900 16.88100 24.81000
H  49.09900 13.17400 24.28900
H  46.13700 13.96700 24.44500
H  48.87600 14.34400 22.49000
H  48.65300 15.87100 23.41900
H  47.28800 14.87700 22.82900
H  46.46300 11.47700 23.78800
H  45.81700 11.49700 25.30600
H  47.53600 9.78500 25.03400
H  47.93100 10.94400 26.32200
H  48.74700 11.07300 24.71000
H  42.90300 12.76400 27.99900
H  42.38800 13.11500 29.66700
H  43.37800 11.74200 29.20300
H  45.81800 14.30700 33.44700
H  44.70300 17.24300 36.38700
H  43.01300 16.86700 35.80000
H  44.01000 18.04100 34.99200

