158

Mg 29.31600 58.16100 40.94200
C  26.31500 56.77200 39.75000
C  31.06200 55.45100 39.58500
C  32.10600 59.93200 41.27900
C  27.42700 61.26200 41.39000
N  28.73900 56.37700 39.75700
C  27.43700 55.99100 39.36500
C  27.39100 54.65200 38.66600
C  28.92400 54.16600 38.88100
C  29.61500 55.38000 39.50700
C  29.05200 53.02100 39.93600
C  26.99700 54.79100 37.19800
C  26.03800 53.79500 36.67700
H  26.25400 53.48100 35.18800
N  31.32000 57.74100 40.48900
C  31.84100 56.53300 39.99700
C  33.33200 56.65000 40.07900
C  33.66500 57.94200 40.57900
C  32.34900 58.59300 40.87500
C  34.25700 55.45100 39.74600
C  35.08900 58.51000 40.77200
O  36.05200 57.78900 40.50300
C  35.35100 59.90900 41.32000
N  29.74000 60.31400 41.29800
C  31.02000 60.73600 41.44200
C  31.04100 62.25900 41.85200
C  29.56700 62.69600 41.76200
C  28.83800 61.35400 41.56800
C  31.70500 62.69300 43.25800
C  29.22600 63.80100 40.73400
C  28.71700 65.11400 41.37100
N  27.33100 58.84200 40.87900
C  26.71800 60.08500 41.02200
C  25.32200 60.00300 40.83500
C  25.08500 58.66500 40.43700
C  26.39700 58.04700 40.37800
C  24.34200 61.14300 41.04900
C  24.08900 57.68400 40.09600
O  22.87400 57.70400 40.09700
C  24.86600 56.44200 39.57100
C  24.56100 55.24800 40.39700
O  24.78300 55.19100 41.61100
O  24.01200 54.25200 39.63800
C  23.52100 52.99600 40.32000
H  31.64600 54.56400 39.33200
H  32.95100 60.60400 41.44600
H  26.87600 62.20500 41.35200
H  26.61200 54.02200 39.09500
H  29.51600 53.95600 37.99000
H  28.26900 52.28300 39.76100
H  28.99100 53.49600 40.91500
H  29.95100 52.44200 39.72500
H  27.94400 54.83200 36.66000
H  26.55200 55.74800 36.92500
H  24.99200 54.07700 36.79700
H  26.22700 52.81200 37.10800
H  34.86800 55.64100 38.86400
H  33.69900 54.51800 39.66500
H  34.90200 55.29900 40.61100
H  35.09800 60.74500 40.66700
H  36.42600 59.98600 41.48000
H  34.92100 59.98400 42.31900
H  31.59400 62.80900 41.09100
H  29.22000 63.07700 42.72300
H  32.72200 62.31400 43.35900
H  31.15100 62.35000 44.13200
H  31.79400 63.77800 43.30600
H  28.64200 63.42100 39.89600
H  30.11400 64.16900 40.22000
H  29.42500 65.27400 42.18500
H  27.70300 64.99800 41.75400
H  28.71700 65.97900 40.70800
H  23.31200 60.79000 40.99300
H  24.48200 61.88600 40.26300
H  24.44400 61.48500 42.07900
H  24.54600 56.19900 38.55800
H  22.54200 53.23800 40.73300
H  24.12900 52.82600 41.20900
H  23.44400 52.14500 39.64300
Mg -4.75900 24.58800 26.47400
C  -2.82500 26.35400 28.70700
C  -5.79600 22.62200 29.09500
C  -6.17400 22.54000 24.11600
C  -3.11600 26.34800 23.94100
N  -4.43200 24.57700 28.64700
C  -3.56700 25.40800 29.33800
C  -3.81300 25.23200 30.78000
C  -4.40600 23.79400 30.98900
C  -4.94600 23.63100 29.50900
C  -3.35600 22.68100 31.35700
C  -4.64800 26.38600 31.40500
C  -4.34200 26.77300 32.86500
H  -5.34000 26.41200 33.91300
N  -5.72700 22.78500 26.61700
C  -6.05300 22.19100 27.75800
C  -6.79300 21.01500 27.35400
C  -7.08500 20.97800 25.95900
C  -6.34000 22.21400 25.51700
C  -7.17900 19.98700 28.45900
C  -7.88800 20.06100 25.13100
O  -8.17200 20.36900 23.97300
C  -8.40200 18.76100 25.78200
N  -4.71800 24.49400 24.36900
C  -5.37400 23.56800 23.60200
C  -5.23500 23.86900 22.05700
C  -4.27100 25.10900 22.06400
C  -3.93800 25.27200 23.57600
C  -4.77300 22.67900 21.23900
C  -4.88000 26.40100 21.43200
C  -4.09900 27.11200 20.35000
N  -3.44800 26.10900 26.32000
C  -2.85100 26.70900 25.19500
C  -1.91900 27.76300 25.59100
C  -1.87000 27.65600 26.96600
C  -2.79800 26.60600 27.32900
C  -1.11300 28.67900 24.61800
C  -1.25500 28.15400 28.20300
O  -0.41300 29.05000 28.34100
C  -1.85300 27.34100 29.37600
C  -0.74000 26.64100 30.17900
O  0.02900 25.86200 29.66200
O  -0.75000 27.05900 31.46300
C  0.27200 26.36400 32.28900
H  -6.14100 22.08100 29.97900
H  -6.82000 22.13600 23.33300
H  -2.75000 26.89900 23.07200
H  -2.81100 25.19700 31.20600
H  -5.29400 23.84300 31.61900
H  -3.38100 21.75500 30.78400
H  -3.24000 22.56300 32.43400
H  -2.37500 23.08000 31.09700
H  -5.67400 26.02300 31.34600
H  -4.64800 27.29000 30.79600
H  -4.28300 27.85300 32.73700
H  -3.31300 26.41600 32.92600
H  -7.34100 20.33400 29.48000
H  -6.41000 19.23400 28.28400
H  -8.17700 19.60500 28.24400
H  -8.75600 18.02600 25.06000
H  -9.16100 19.04800 26.50900
H  -7.58300 18.25600 26.29600
H  -6.25000 24.10500 21.73700
H  -3.31100 24.76900 21.67700
H  -4.36900 21.79100 21.72300
H  -4.08200 22.93300 20.43400
H  -5.66900 22.45600 20.65900
H  -5.05700 27.06600 22.27600
H  -5.88900 26.12000 21.13200
H  -3.10000 26.71400 20.17000
H  -3.90200 28.14700 20.63000
H  -4.64800 27.07300 19.41000
H  -0.63300 29.52900 25.10400
H  -1.88700 29.11100 23.98500
H  -0.36900 27.97700 24.24200
H  -2.39200 28.00700 30.04900
H  1.16000 26.97800 32.14100
H  0.35600 25.30900 32.02600
H  0.00800 26.53800 33.33200

