158

Mg 45.00000 3.44200 47.03300
C  42.74800 5.98100 46.47100
C  42.51500 1.08600 46.99500
C  47.33500 0.85800 47.41000
C  47.61400 5.55900 46.25100
N  42.89400 3.58700 46.53800
C  42.09600 4.73400 46.51200
C  40.62300 4.38600 46.28300
C  40.66000 2.87900 46.64300
C  42.13500 2.42800 46.65300
C  39.85400 2.54000 47.91600
C  40.17300 4.67400 44.83700
C  38.76200 5.33200 44.65300
H  38.03300 4.97800 43.41600
N  44.91300 1.33100 47.23000
C  43.80200 0.56100 47.28100
C  44.07100 -0.78100 47.70300
C  45.44900 -0.85000 47.96600
C  45.98000 0.51500 47.55400
C  42.99500 -1.83600 47.96800
C  46.25300 -2.09300 48.49400
O  45.64300 -3.18400 48.63300
C  47.77600 -2.03300 48.94400
N  47.15200 3.17200 46.56100
C  47.86200 2.08300 46.94400
C  49.35200 2.30000 46.87800
C  49.47200 3.78200 46.46200
C  48.00700 4.22600 46.45700
C  50.12800 1.90800 48.17900
C  50.29800 3.99400 45.10500
C  51.71400 4.54900 45.29800
N  45.19600 5.38500 46.52800
C  46.33300 6.17700 46.25500
C  45.93600 7.59000 46.19700
C  44.55800 7.53700 46.35400
C  44.18300 6.18500 46.42000
C  46.76000 8.81000 45.98900
C  43.34800 8.37000 46.40400
O  43.19200 9.59500 46.53700
C  42.11400 7.38900 46.52800
C  41.34500 7.62500 47.82100
O  41.80700 7.77900 48.95600
O  40.04700 7.69400 47.41000
C  39.07000 8.09100 48.41000
H  41.73100 0.32600 46.99100
H  48.15700 0.16300 47.59400
H  48.39400 6.28300 46.00700
H  39.99900 4.98400 46.94800
H  40.15100 2.41000 45.80100
H  39.07600 3.22300 48.25700
H  40.58100 2.53900 48.72800
H  39.36600 1.56800 47.84800
H  40.24600 3.80100 44.18900
H  40.97000 5.28600 44.41400
H  38.87100 6.41600 44.68600
H  38.11500 4.99000 45.46200
H  43.14300 -2.15000 49.00100
H  42.99500 -2.57100 47.16300
H  42.06000 -1.27600 47.95400
H  48.36300 -2.15900 48.03500
H  47.92900 -2.88500 49.60600
H  47.87200 -1.14900 49.57500
H  49.74800 1.66300 46.08700
H  49.86100 4.46700 47.21500
H  50.84800 2.67500 48.46300
H  50.67000 0.96800 48.07700
H  49.41000 1.70300 48.97200
H  49.82900 4.72000 44.44100
H  50.30900 3.07000 44.52700
H  52.39600 4.06600 44.59800
H  52.05000 4.35300 46.31600
H  51.79100 5.62600 45.15000
H  47.80500 8.50000 45.98500
H  46.42200 9.60500 46.65400
H  46.58100 9.11700 44.95800
H  41.44200 7.45600 45.67200
H  39.19800 7.59700 49.37400
H  38.01800 7.98300 48.14600
H  39.14800 9.16300 48.59300
Mg 53.43000 23.68000 44.03900
C  50.60500 25.72200 43.59200
C  51.43200 20.92900 43.52700
C  56.21400 21.92200 43.71600
C  55.42100 26.61100 44.29000
N  51.34600 23.39300 43.36500
C  50.33600 24.38200 43.24300
C  48.97800 23.81200 43.21200
C  49.26700 22.25100 43.29300
C  50.77800 22.16700 43.44100
C  48.41400 21.54400 44.37400
C  48.22300 24.06100 41.94200
C  49.03400 24.02900 40.63800
H  48.41800 23.46200 39.30000
N  53.81600 21.66600 43.70400
C  52.86000 20.71900 43.65000
C  53.50000 19.42800 43.60900
C  54.89000 19.67000 43.73700
C  55.04900 21.13300 43.75700
C  52.80700 18.10400 43.43000
C  55.97700 18.59900 43.82300
O  55.69800 17.41700 43.77300
C  57.46200 18.80800 43.85800
N  55.50100 24.20200 43.75000
C  56.49500 23.26200 43.68900
C  57.90500 23.90500 43.90100
C  57.59200 25.42600 43.76600
C  56.09200 25.42600 43.96400
C  58.57700 23.60200 45.26200
C  57.80600 26.06200 42.31200
C  58.53500 27.35500 42.24600
N  53.14400 25.68200 44.06800
C  53.99400 26.67600 44.35900
C  53.22600 27.91400 44.76200
C  51.87400 27.51900 44.50800
C  51.89200 26.20900 43.95100
C  53.71800 29.26500 45.26100
C  50.53800 28.03700 44.44100
O  50.10500 29.15300 44.68100
C  49.65300 26.85900 43.86500
C  49.16300 27.30200 42.50200
O  49.80500 27.46200 41.51700
O  47.78800 27.38800 42.55400
C  47.15600 27.52600 41.23800
H  50.76800 20.06300 43.56200
H  57.13800 21.34600 43.78900
H  56.08600 27.44900 44.50900
H  48.42400 24.23500 44.05000
H  49.15700 21.69500 42.36200
H  48.03700 20.69600 43.80200
H  47.64400 22.25100 44.68300
H  49.00900 21.15600 45.20100
H  47.55300 24.92000 41.98700
H  47.44900 23.32600 41.72000
H  49.94100 23.47800 40.88900
H  49.32900 25.07300 40.53100
H  53.31800 17.49200 42.68600
H  51.75400 18.26600 43.20000
H  52.89400 17.62800 44.40700
H  57.89700 19.23300 42.95400
H  57.81600 17.77700 43.85100
H  57.81900 19.19500 44.81300
H  58.56100 23.52900 43.11600
H  58.08000 26.03800 44.52500
H  58.61900 24.52500 45.84000
H  59.48300 23.00800 45.14300
H  57.92700 22.93400 45.82600
H  56.85800 26.15700 41.78300
H  58.38300 25.30400 41.78200
H  59.40900 27.31900 41.59600
H  58.83900 27.73400 43.22200
H  57.92000 28.14400 41.81400
H  53.34500 30.00700 44.55500
H  54.79200 29.18400 45.43300
H  53.17000 29.44900 46.18500
H  48.82700 26.60000 44.52700
H  47.72400 27.04800 40.44000
H  47.12200 28.60500 41.08700
H  46.11800 27.22500 41.37700

