158

Mg 24.64300 -6.79000 47.16000
C  26.71500 -4.23100 45.95500
C  22.30800 -5.93600 44.78700
C  22.83500 -9.37000 48.15500
C  27.34400 -7.97400 49.03100
N  24.63400 -5.38400 45.47700
C  25.49500 -4.34800 45.25200
C  25.11400 -3.47900 44.12300
C  23.65600 -3.98300 43.71200
C  23.45400 -5.18300 44.68600
C  22.51400 -2.94400 43.79000
C  26.10800 -3.52700 42.89400
C  26.55100 -2.21500 42.22300
H  26.60200 -2.10700 40.68200
N  22.79100 -7.55600 46.49500
C  21.94600 -7.02300 45.55900
C  20.72500 -7.78500 45.50500
C  20.82000 -8.58500 46.67000
C  22.18400 -8.52600 47.16800
C  19.60100 -7.44400 44.49900
C  19.73100 -9.61800 47.05500
O  18.69700 -9.64900 46.33900
C  19.84900 -10.51800 48.30700
N  25.09100 -8.57300 48.24600
C  24.15300 -9.38900 48.64700
C  24.62000 -10.46300 49.65900
C  26.08800 -10.04600 49.75400
C  26.20300 -8.78200 48.94600
C  23.81600 -10.37900 50.99000
C  27.06400 -11.17900 49.28500
C  27.92700 -11.74200 50.39500
N  26.60800 -6.15200 47.61200
C  27.59800 -6.75500 48.31400
C  28.81900 -5.97400 48.32500
C  28.44500 -4.94800 47.49000
C  27.14600 -5.14700 46.98800
C  30.09700 -6.26800 48.96800
C  28.96100 -3.65300 46.80500
O  30.00000 -3.06500 46.82600
C  27.82600 -3.18200 45.85600
C  27.38100 -1.89500 46.32800
O  26.83200 -1.73100 47.39500
O  27.60000 -0.97200 45.37900
C  27.20900 0.39500 45.83200
H  21.63700 -5.45300 44.07200
H  22.24900 -10.21300 48.52600
H  28.22500 -8.28500 49.59700
H  25.16900 -2.47400 44.54100
H  23.65700 -4.37200 42.69400
H  22.99200 -1.96700 43.86000
H  21.77400 -2.99800 44.58900
H  21.98100 -2.92500 42.84000
H  25.79400 -4.20400 42.09900
H  27.01500 -4.06000 43.18100
H  27.58900 -2.10600 42.53800
H  26.15700 -1.35200 42.76000
H  19.62500 -8.25400 43.76900
H  19.70600 -6.47400 44.01400
H  18.65800 -7.41400 45.04500
H  20.27600 -10.17100 49.24800
H  20.45300 -11.35700 47.96200
H  18.85000 -10.88300 48.54400
H  24.55800 -11.47900 49.26900
H  26.23500 -9.86600 50.81900
H  23.19900 -9.48100 50.95000
H  24.48400 -10.45100 51.84800
H  23.18200 -11.26600 51.02700
H  27.72100 -10.88800 48.46600
H  26.49500 -12.01500 48.87800
H  27.92600 -11.12500 51.29400
H  28.96300 -11.83800 50.07100
H  27.63700 -12.72700 50.76300
H  30.30500 -7.33700 48.92200
H  30.15300 -5.97400 50.01600
H  30.85600 -5.71000 48.41900
H  28.14400 -3.10900 44.81600
H  27.16400 0.93700 44.88800
H  27.88200 0.84700 46.56000
H  26.19800 0.49500 46.22500
Mg -6.51600 24.92400 25.06300
C  -4.62400 26.22500 27.58100
C  -8.31300 23.00500 27.39500
C  -8.22300 23.48800 22.43300
C  -4.36200 26.47000 22.72300
N  -6.33500 24.60500 27.24500
C  -5.48600 25.25900 28.06900
C  -5.79800 24.93000 29.50100
C  -6.75200 23.64600 29.37300
C  -7.19200 23.73900 27.90000
C  -6.23400 22.24700 29.81200
C  -6.47500 26.11100 30.26100
C  -5.98600 26.31000 31.71600
H  -5.41300 25.07800 32.47900
N  -8.14600 23.48900 24.91100
C  -8.75300 22.86800 26.03600
C  -9.84700 22.14100 25.47700
C  -9.89100 22.30700 24.00000
C  -8.70100 23.09900 23.73100
C  -10.74800 21.51100 26.45900
C  -10.98000 21.90700 23.02200
O  -11.01500 22.37100 21.87300
C  -11.96500 20.87300 23.30200
N  -6.17000 24.85400 22.83800
C  -7.18600 24.36800 21.98100
C  -6.68300 24.62100 20.48700
C  -5.76500 25.82200 20.75200
C  -5.34000 25.65700 22.16400
C  -6.06800 23.39500 19.86600
C  -6.40800 27.21700 20.51600
C  -5.73500 28.02800 19.32900
N  -4.87500 26.13900 25.04800
C  -4.10700 26.69900 24.08500
C  -3.10900 27.61800 24.71900
C  -3.27000 27.43900 26.08000
C  -4.38200 26.58900 26.21900
C  -2.20100 28.46400 23.93100
C  -2.85400 27.87000 27.33300
O  -2.07100 28.76200 27.66400
C  -3.55400 26.95100 28.34800
C  -2.56000 26.08000 29.01500
O  -2.33800 24.91400 28.71400
O  -2.09000 26.68000 30.17000
C  -1.32600 25.90600 31.19200
H  -8.87700 22.48600 28.17300
H  -8.70100 22.94100 21.61800
H  -3.71400 26.82700 21.91900
H  -4.81100 24.74500 29.92500
H  -7.59700 23.80200 30.04300
H  -6.01300 21.73100 28.87700
H  -7.06100 21.67800 30.23600
H  -5.35900 22.25300 30.46200
H  -7.56400 26.10700 30.20600
H  -6.11100 26.97600 29.70700
H  -6.65400 26.77900 32.43800
H  -5.18600 27.04400 31.61700
H  -11.04800 20.58000 25.97900
H  -11.64600 22.12900 26.46800
H  -10.45500 21.20800 27.46400
H  -12.83300 21.38200 23.72000
H  -11.51400 20.14800 23.98000
H  -12.38500 20.37200 22.43000
H  -7.47300 25.05400 19.87400
H  -4.96300 25.70600 20.02300
H  -6.11600 22.48300 20.46100
H  -5.03400 23.57200 19.56900
H  -6.59500 23.20200 18.93200
H  -6.34900 27.92400 21.34300
H  -7.47300 27.06100 20.34100
H  -5.88400 29.10500 19.24900
H  -6.18300 27.56900 18.44800
H  -4.64900 27.93500 19.32000
H  -2.21700 28.42800 22.84100
H  -1.26500 28.10000 24.35400
H  -2.32500 29.51100 24.20700
H  -3.94500 27.67000 29.06800
H  -1.67200 24.87400 31.12600
H  -1.54000 26.35900 32.16100
H  -0.30400 25.90600 30.81600

