158

Mg 28.70500 58.64300 41.58800
C  26.01900 56.49700 40.23900
C  30.88200 56.64400 39.80500
C  30.96000 61.08900 42.00800
C  26.17300 60.90800 42.66100
N  28.44400 56.77400 40.12900
C  27.28100 56.07500 39.82700
C  27.63900 54.98400 38.75200
C  29.19500 54.89900 38.77700
C  29.55600 56.21000 39.61000
C  29.74900 53.55200 39.35700
C  26.99500 55.31700 37.40200
C  26.50000 54.13900 36.51900
H  27.30500 53.86600 35.24900
N  30.70500 58.70000 41.15400
C  31.41200 57.81000 40.35000
C  32.80300 58.33500 40.14600
C  32.81200 59.45800 41.05400
C  31.49300 59.83700 41.43800
C  33.90700 57.66300 39.25500
C  34.11400 60.15200 41.43900
O  35.20600 59.60000 41.22100
C  34.14200 61.47100 42.25100
N  28.58200 60.67900 42.24300
C  29.65800 61.50700 42.29900
C  29.37000 62.90200 42.85500
C  27.83300 62.77600 43.20400
C  27.42700 61.40200 42.60800
C  30.15500 63.26200 44.13100
C  27.05000 64.04900 42.66000
C  26.38600 64.99700 43.72300
N  26.56200 58.70000 41.51600
C  25.73200 59.63900 42.06100
C  24.42400 59.17500 41.96700
C  24.43500 57.95600 41.28700
C  25.78700 57.73100 40.95300
C  23.23000 59.94500 42.44900
C  23.64500 56.80900 40.73200
O  22.43000 56.64000 40.76400
C  24.63900 55.91500 40.01200
C  24.46200 54.55500 40.50400
O  24.57800 54.19700 41.66200
O  24.38400 53.77200 39.42600
C  24.04600 52.36000 39.59500
H  31.49500 56.00500 39.16700
H  31.68300 61.84900 42.31200
H  25.43900 61.63200 43.02000
H  27.21200 54.03600 39.08000
H  29.60600 54.98700 37.77100
H  30.09600 52.84300 38.60500
H  28.98200 52.96700 39.86500
H  30.58400 53.81700 40.00400
H  27.67800 55.84600 36.73700
H  26.17100 56.02100 37.51900
H  25.46100 54.30400 36.23500
H  26.67500 53.22400 37.08400
H  34.41400 56.99400 39.95000
H  34.69700 58.35600 38.96400
H  33.42400 57.08700 38.46600
H  33.82400 62.30400 41.62300
H  35.12700 61.61800 42.69500
H  33.46900 61.36800 43.10100
H  29.76600 63.58800 42.10600
H  27.71600 62.51300 44.25500
H  29.55000 63.63500 44.95800
H  30.75800 64.13500 43.88100
H  30.80200 62.41900 44.37200
H  26.23200 63.81100 41.98100
H  27.63400 64.72000 42.02900
H  26.75100 66.01700 43.60400
H  26.66700 64.71900 44.73900
H  25.30300 64.98100 43.60100
H  22.95900 60.76600 41.78400
H  23.56200 60.54500 43.29600
H  22.42400 59.27400 42.74500
H  24.30000 55.88500 38.97600
H  24.19300 52.07200 40.63600
H  24.57300 51.67300 38.93200
H  22.99700 52.29000 39.30800
Mg 36.13600 48.83800 24.97000
C  36.40200 47.06600 28.06100
C  34.49200 51.31900 26.64500
C  35.53700 50.23400 21.99600
C  37.66600 46.13500 23.36500
N  35.20800 49.00900 27.16200
C  35.73500 48.27000 28.24000
C  35.39500 48.96500 29.53000
C  34.52500 50.21300 28.97500
C  34.78700 50.23200 27.51000
C  33.05300 50.20000 29.39700
C  36.66800 49.38400 30.33700
C  36.68400 49.80800 31.83800
H  35.43500 49.60300 32.65300
N  35.22900 50.52700 24.46100
C  34.62000 51.50400 25.25700
C  34.27000 52.61200 24.42500
C  34.59200 52.35300 23.10600
C  35.14100 50.98600 23.15000
C  33.59600 53.79000 25.03600
C  34.52200 53.21600 21.86600
O  34.97900 52.93200 20.77900
C  33.89900 54.65300 21.98300
N  36.34800 48.10400 22.99500
C  36.01100 48.90000 21.94000
C  36.49900 48.31900 20.63700
C  37.46900 47.22500 21.09800
C  37.26600 47.16900 22.59500
C  35.30400 47.72900 19.78600
C  38.97500 47.42300 20.70200
C  39.81400 48.40000 21.56600
N  36.90500 47.02200 25.54700
C  37.40300 45.97200 24.74700
C  37.92200 44.96200 25.55600
C  37.53300 45.33600 26.87900
C  36.78200 46.53400 26.77700
C  38.58700 43.78600 25.08300
C  37.62900 44.97100 28.26600
O  38.21600 44.10800 28.91200
C  36.84300 46.07500 29.10400
C  35.98500 45.50500 30.16100
O  34.80800 45.15900 30.03400
O  36.59400 45.50600 31.36400
C  35.80600 45.14700 32.51000
H  33.88900 52.02000 27.22600
H  35.43500 50.74300 21.03500
H  38.22200 45.39200 22.78800
H  34.78000 48.38300 30.21500
H  34.97700 51.14900 29.30200
H  32.90600 51.04000 30.07700
H  32.74300 49.28600 29.90400
H  32.41900 50.32500 28.52000
H  37.00600 50.25600 29.77700
H  37.39000 48.57500 30.22500
H  37.05400 50.83200 31.88200
H  37.45400 49.22600 32.34300
H  33.08600 53.52200 25.96200
H  32.91100 54.06600 24.23500
H  34.32400 54.56400 25.27700
H  33.91200 55.10100 20.99000
H  34.52900 55.29100 22.60300
H  32.84600 54.58600 22.25800
H  37.05500 49.08200 20.09200
H  37.16100 46.29000 20.63000
H  34.71400 48.59300 19.47800
H  34.70500 47.04400 20.38500
H  35.74200 47.21700 18.92900
H  38.99200 47.62100 19.63100
H  39.49700 46.47000 20.78500
H  40.30100 49.06200 20.85100
H  40.51800 47.98400 22.28700
H  39.05200 49.00500 22.05700
H  37.81000 43.20100 24.58900
H  39.09100 43.36500 25.95200
H  39.42500 44.05400 24.44000
H  37.68100 46.48800 29.66600
H  35.29400 44.20100 32.33800
H  35.15600 45.93600 32.88800
H  36.49000 44.88900 33.31800

