158

Mg 7.30000 53.73300 41.63100
C  6.88700 50.26400 41.36900
C  10.67600 53.28800 40.86600
C  7.42900 57.03200 41.27900
C  3.91400 53.90200 42.47500
N  8.61500 51.95700 41.02900
C  8.24600 50.61300 41.06000
C  9.38900 49.71400 40.72100
C  10.60200 50.66600 41.03000
C  9.99900 52.09000 40.99700
C  11.37800 50.40200 42.32900
C  9.48300 49.15300 39.25700
C  9.20200 50.07100 38.02100
H  8.03600 49.83100 37.06500
N  8.84400 54.99700 41.05300
C  10.11300 54.60500 40.72400
C  10.85700 55.82000 40.47000
C  9.99900 56.93400 40.44800
C  8.70000 56.37700 40.87700
C  12.30600 55.80400 40.00400
C  10.39900 58.37500 40.14300
O  11.56600 58.66400 39.98900
C  9.39000 59.51200 40.15400
N  5.91800 55.19700 41.78000
C  6.27300 56.53400 41.69500
C  5.05300 57.44300 42.18500
C  4.13400 56.39300 42.79000
C  4.66300 55.04300 42.31700
C  5.32500 58.77100 43.10500
C  2.69600 56.67900 42.54000
C  1.68800 56.34600 43.69400
N  5.74100 52.39900 42.00800
C  4.37700 52.59400 42.34400
C  3.72000 51.29900 42.57000
C  4.70900 50.33800 42.20700
C  5.88500 51.04900 41.87000
C  2.24000 51.17500 42.98700
C  4.94100 48.93100 42.26900
O  4.17100 48.03100 42.63400
C  6.37000 48.81400 41.47500
C  5.98400 48.18500 40.14300
O  5.77200 48.69700 39.02200
O  5.96500 46.86200 40.27500
C  5.58100 46.14500 39.03500
H  11.76100 53.17100 40.86600
H  7.48800 58.11800 41.17300
H  2.93700 53.81700 42.95500
H  9.32000 48.94400 41.49000
H  11.30300 50.62600 40.19600
H  11.34300 51.25000 43.01300
H  12.38600 50.01600 42.17600
H  10.88500 49.50900 42.71200
H  8.71800 48.39500 39.08900
H  10.44100 48.63900 39.16800
H  10.13000 49.97500 37.45700
H  9.25600 51.10200 38.37200
H  12.78400 54.83800 39.84100
H  12.87200 56.13000 40.87700
H  12.53100 56.49700 39.19300
H  8.70200 59.44800 39.31200
H  9.93300 60.43500 39.95000
H  8.81600 59.60900 41.07500
H  4.64700 57.88600 41.27600
H  4.24700 56.41700 43.87400
H  6.39400 58.98000 43.14800
H  4.95300 58.52900 44.10100
H  4.65100 59.57000 42.79400
H  2.40400 56.16500 41.62500
H  2.57300 57.70100 42.18200
H  1.44100 57.29900 44.16200
H  2.12200 55.76700 44.50900
H  0.86100 55.83200 43.20400
H  1.67000 51.55900 42.14100
H  2.13500 51.89000 43.80300
H  1.82600 50.22600 43.32900
H  6.89100 48.20200 42.21100
H  6.37100 45.42200 38.83200
H  5.25600 46.74200 38.18400
H  4.72100 45.50300 39.22500
Mg -10.06500 40.50900 42.32000
C  -9.31100 37.22700 41.31800
C  -7.22700 41.45200 40.53900
C  -11.29200 43.66800 42.08100
C  -13.42500 39.25700 42.97500
N  -8.55500 39.45500 40.94400
C  -8.37000 38.07300 40.84600
C  -6.96600 37.68700 40.40700
C  -6.24800 39.10000 40.44100
C  -7.39500 40.11400 40.63600
C  -5.16900 39.26000 41.49600
C  -6.95200 37.14700 38.93600
C  -6.32000 35.75100 38.68900
H  -5.19300 35.63700 37.56900
N  -9.25000 42.31100 41.69000
C  -8.09500 42.47500 41.02800
C  -7.84900 43.88000 40.83400
C  -9.08500 44.55700 41.13700
C  -9.94400 43.51400 41.64000
C  -6.52000 44.48900 40.37900
C  -9.31200 46.02700 40.96400
O  -8.39000 46.70100 40.46600
C  -10.63400 46.74300 41.34400
N  -12.03100 41.35500 42.61800
C  -12.25100 42.73900 42.53300
C  -13.70300 43.10900 43.01500
C  -14.34900 41.65100 43.28000
C  -13.19000 40.69100 42.88800
C  -13.67600 43.95400 44.30100
C  -15.62300 41.39400 42.38300
C  -16.93600 41.33800 43.20300
N  -11.17900 38.61200 42.36400
C  -12.47800 38.25900 42.64100
C  -12.62600 36.81600 42.56800
C  -11.43300 36.36800 42.09800
C  -10.57600 37.53200 41.85600
C  -13.87300 35.97500 42.67600
C  -10.67700 35.19600 41.65700
O  -10.89600 34.02700 41.65700
C  -9.36900 35.73700 41.09600
C  -8.23200 35.04300 41.69200
O  -7.52400 35.56500 42.55000
O  -8.06300 33.81300 41.15500
C  -6.82800 33.15900 41.56100
H  -6.26800 41.68300 40.07100
H  -11.78100 44.64300 42.02600
H  -14.44300 38.94500 43.21800
H  -6.36500 37.04100 41.04800
H  -5.75700 39.31600 39.49200
H  -4.21700 39.67400 41.16600
H  -5.15600 38.43800 42.21100
H  -5.39500 40.07100 42.18900
H  -6.41800 37.90300 38.36000
H  -7.93900 37.10700 38.47500
H  -7.17500 35.23000 38.25900
H  -5.90800 35.30700 39.59500
H  -6.22900 45.10100 41.23300
H  -6.78500 45.16600 39.56700
H  -5.83400 43.69400 40.08800
H  -10.87900 46.68200 42.40400
H  -11.39200 46.46800 40.61000
H  -10.39400 47.78100 41.11500
H  -14.15900 43.70900 42.22800
H  -14.52100 41.32600 44.30600
H  -12.67100 43.75200 44.67000
H  -14.50500 43.74100 44.97700
H  -13.76300 44.98900 43.96900
H  -15.54300 40.57900 41.66400
H  -15.72400 42.36800 41.90500
H  -17.04000 42.31900 43.66700
H  -16.86100 40.49300 43.88700
H  -17.81400 41.25500 42.56300
H  -14.13500 35.70300 43.69800
H  -13.78200 35.04900 42.10800
H  -14.68800 36.51700 42.19700
H  -9.34200 35.51100 40.03000
H  -6.73600 33.00000 42.63600
H  -5.92900 33.67200 41.22200
H  -6.85500 32.19300 41.05800

