158

Mg 9.09200 48.06800 27.05200
C  7.00100 47.58600 29.94200
C  11.71300 48.27100 29.05600
C  10.71900 49.09800 24.30700
C  6.09900 48.01500 25.09200
N  9.25200 48.11000 29.31200
C  8.38100 47.72800 30.28300
C  9.05700 47.70800 31.62900
C  10.50900 48.15200 31.34600
C  10.52900 48.09800 29.77300
C  10.79600 49.58300 31.91300
C  9.02300 46.43800 32.49500
C  8.78100 46.59900 34.00700
H  9.23600 45.49600 34.98900
N  11.01300 48.44700 26.71500
C  11.94200 48.42500 27.68500
C  13.22000 48.48600 26.93800
C  12.99500 48.74100 25.56700
C  11.55400 48.76100 25.48000
C  14.55100 48.36300 27.68700
C  13.89700 48.99500 24.50000
O  13.51900 49.20800 23.31500
C  15.37100 48.86200 24.73100
N  8.50500 48.48500 25.00800
C  9.38100 49.00600 24.12200
C  8.60600 49.43200 22.79600
C  7.28500 48.63900 22.93100
C  7.26500 48.41000 24.43600
C  8.54600 51.02700 22.73800
C  7.31300 47.36100 22.14600
C  6.26900 47.30900 20.97000
N  6.94200 47.97700 27.32000
C  5.89800 47.94900 26.48300
C  4.67000 47.77300 27.18200
C  5.05400 47.71400 28.52900
C  6.47600 47.75500 28.55600
C  3.30800 47.78800 26.59100
C  4.49600 47.52900 29.85300
O  3.39300 47.50000 30.31700
C  5.79200 47.37300 30.78000
C  5.69400 46.07400 31.43400
O  5.88100 45.00600 30.87300
O  5.20900 46.26400 32.72000
C  5.07800 45.05400 33.50700
H  12.58700 48.18800 29.70400
H  11.21500 49.47400 23.41000
H  5.25200 48.08300 24.40500
H  8.55100 48.49600 32.18700
H  11.31800 47.58800 31.81000
H  10.96700 50.30200 31.11300
H  11.68500 49.54800 32.54300
H  10.13200 49.96500 32.68900
H  9.99800 45.95200 32.46400
H  8.26800 45.76900 32.08300
H  7.69500 46.61600 34.09100
H  9.19600 47.55200 34.33700
H  15.07800 49.31000 27.80800
H  15.24900 47.60700 27.32900
H  14.24600 47.93800 28.64300
H  15.87900 48.89800 23.76700
H  15.58400 47.96200 25.30800
H  15.68800 49.72700 25.31300
H  9.13800 49.05500 21.92200
H  6.56300 49.33000 22.49400
H  9.50800 51.43300 23.05000
H  7.73100 51.34100 23.39100
H  8.29500 51.39000 21.74100
H  7.17200 46.46800 22.75500
H  8.30200 47.15800 21.73400
H  6.86900 47.18600 20.06800
H  5.70600 48.24200 20.93900
H  5.53300 46.50900 21.05300
H  2.57300 47.39600 27.29300
H  3.25200 47.39400 25.57600
H  2.93000 48.80700 26.66600
H  5.75800 48.06400 31.62300
H  5.91000 45.14100 34.20500
H  5.11300 44.06500 33.05100
H  4.09700 45.22700 33.95000
Mg 0.08100 43.58900 26.16400
C  2.34700 42.88700 28.81300
C  -2.31100 42.17400 28.24800
C  -2.11500 43.54400 23.72100
C  2.70700 44.19600 23.99600
N  0.09100 42.76300 28.30100
C  1.07000 42.79600 29.27700
C  0.50700 42.31600 30.58600
C  -0.95300 41.94200 30.29100
C  -1.09100 42.32600 28.85600
C  -1.46000 40.48100 30.65300
C  0.47400 43.57500 31.57500
C  -0.19600 43.45000 32.97300
H  -0.55100 42.07100 33.54400
N  -2.05800 43.08600 26.01600
C  -2.79100 42.49000 26.95500
C  -4.18100 42.25500 26.49200
C  -4.14900 42.61500 25.14000
C  -2.76900 43.11900 24.90400
C  -5.24800 41.79900 27.41300
C  -5.32300 42.66400 24.11200
O  -5.22100 42.94000 22.93700
C  -6.70300 42.36400 24.56500
N  0.27400 43.91700 24.19100
C  -0.80200 43.95400 23.38700
C  -0.42900 44.21500 21.85000
C  1.05800 44.53400 22.02100
C  1.39600 44.21100 23.49800
C  -0.68700 42.97100 20.91600
C  1.53200 45.92800 21.69500
C  1.26100 47.14000 22.57900
N  2.16000 43.67800 26.34600
C  3.08900 43.92500 25.31900
C  4.43800 43.72400 25.95500
C  4.13500 43.42900 27.30300
C  2.77900 43.28900 27.47600
C  5.74300 43.93400 25.21400
C  4.86400 43.06200 28.49700
O  6.02200 42.94600 28.75200
C  3.63200 42.89500 29.62000
C  3.85600 41.74600 30.56500
O  3.68400 40.64700 30.20100
O  4.10200 42.16200 31.91800
C  4.29600 40.95800 32.83400
H  -3.06500 41.81100 28.95000
H  -2.75200 43.43800 22.84100
H  3.42800 44.58500 23.27500
H  1.11900 41.47900 30.92200
H  -1.55400 42.60100 30.91900
H  -0.71900 39.94600 31.24600
H  -1.77000 39.80100 29.85900
H  -2.32500 40.49900 31.31700
H  -0.05900 44.32500 30.99100
H  1.47800 43.96300 31.74800
H  -1.10600 44.03300 33.11200
H  0.54900 43.92900 33.60800
H  -5.64000 42.74000 27.79900
H  -4.95900 41.08100 28.18000
H  -6.11300 41.40000 26.88300
H  -6.95600 42.82400 25.52000
H  -6.71200 41.27800 24.66100
H  -7.48400 42.67600 23.87200
H  -1.02400 45.03500 21.44800
H  1.60800 43.84700 21.37800
H  0.23500 42.70600 20.39700
H  -1.55400 43.16700 20.28500
H  -0.95200 42.11100 21.53200
H  1.11600 46.24400 20.73800
H  2.60000 45.86500 21.48800
H  0.95500 47.95900 21.92900
H  2.23800 47.40200 22.98700
H  0.63100 46.95900 23.45100
H  5.50000 44.78600 24.57900
H  6.17800 43.16700 24.57300
H  6.50400 44.16700 25.95900
H  3.66300 43.79100 30.24000
H  3.68900 40.07100 32.65600
H  4.24300 41.24300 33.88500
H  5.32300 40.60700 32.73800

