158

Mg -10.82700 16.90900 42.27500
C  -7.24600 16.73600 42.31300
C  -10.52000 20.24600 42.26200
C  -14.07300 17.00900 41.53900
C  -10.88100 13.42500 42.22700
N  -9.06600 18.29200 42.26000
C  -7.71600 18.05000 42.29200
C  -6.95500 19.39400 42.32200
C  -8.03500 20.34200 42.75800
C  -9.32300 19.60000 42.38400
C  -7.98700 20.81400 44.19100
C  -6.31800 19.67500 40.95900
C  -4.76000 19.60600 40.88100
H  -4.24100 18.70600 39.84300
N  -12.03500 18.42400 41.87700
C  -11.75500 19.70500 41.87100
C  -12.87000 20.52100 41.58900
C  -13.96900 19.62300 41.34600
C  -13.36800 18.26900 41.51800
C  -12.82800 22.06700 41.51500
C  -15.31000 20.00500 40.71500
O  -15.58200 21.19400 40.77500
C  -16.26700 19.02500 40.17700
N  -12.19200 15.38900 41.95300
C  -13.53500 15.69700 41.70000
C  -14.41600 14.45900 41.80100
C  -13.36600 13.30700 41.89500
C  -12.06100 14.09700 42.05900
C  -15.36500 14.50200 43.05800
C  -13.47000 12.26900 40.76200
C  -13.69500 10.84900 41.22800
N  -9.43000 15.36200 42.21700
C  -9.62100 13.98100 42.34000
C  -8.29600 13.30600 42.35800
C  -7.37700 14.37100 42.37200
C  -8.09300 15.59100 42.31400
C  -8.05700 11.89900 42.59400
C  -5.92900 14.65400 42.52100
O  -5.01100 13.86000 42.61900
C  -5.78900 16.20900 42.36000
C  -5.06600 16.68400 43.61200
O  -5.49200 16.61300 44.72600
O  -3.80700 17.07900 43.34300
C  -2.90600 17.44500 44.45900
H  -10.54100 21.32400 42.43500
H  -15.15500 17.05000 41.39700
H  -10.94000 12.34300 42.36000
H  -6.14600 19.39200 43.05200
H  -8.07200 21.21300 42.10300
H  -6.95800 20.92100 44.53500
H  -8.56400 20.12300 44.80600
H  -8.42100 21.80400 44.33200
H  -6.74200 20.60600 40.58200
H  -6.66700 19.00500 40.17300
H  -4.43500 19.24300 41.85600
H  -4.41000 20.63700 40.83400
H  -12.14700 22.48600 42.25600
H  -13.77500 22.42400 41.92000
H  -12.51000 22.48700 40.56100
H  -17.14600 19.50700 39.75000
H  -16.58000 18.47500 41.06500
H  -15.75400 18.35900 39.48400
H  -14.98500 14.37000 40.87600
H  -13.46000 12.81600 42.86300
H  -14.96600 13.87600 43.85500
H  -16.28700 14.01100 42.74700
H  -15.49900 15.52900 43.40000
H  -12.52800 12.16700 40.22300
H  -14.23200 12.61600 40.06400
H  -14.70200 10.69700 40.83900
H  -13.59800 10.71200 42.30500
H  -12.96900 10.24300 40.68600
H  -7.43800 11.80900 43.48600
H  -7.47200 11.42500 41.80600
H  -8.93500 11.29100 42.81400
H  -5.24900 16.32500 41.42000
H  -2.31600 16.56700 44.72200
H  -3.44500 17.78700 45.34300
H  -2.23000 18.26600 44.22100
Mg -5.92100 25.41900 25.84300
C  -4.09300 26.94200 28.44300
C  -7.02800 23.13300 28.12800
C  -7.07900 23.71100 23.30000
C  -3.97100 27.53900 23.62200
N  -5.51500 25.08400 28.04200
C  -4.89900 25.90800 28.86900
C  -5.18500 25.58800 30.33800
C  -5.84100 24.16500 30.13700
C  -6.21500 24.11300 28.68400
C  -4.99000 22.93600 30.69800
C  -6.14000 26.54400 30.99500
C  -6.12900 26.74800 32.57900
H  -5.73900 25.48200 33.45600
N  -6.99900 23.69300 25.74900
C  -7.49000 22.94800 26.77900
C  -8.44200 21.96500 26.25100
C  -8.49300 22.19300 24.85800
C  -7.48700 23.22300 24.57700
C  -9.19400 20.98700 27.17400
C  -9.26500 21.34400 23.87500
O  -9.10000 21.51900 22.65100
C  -10.16300 20.20600 24.26000
N  -5.56700 25.59100 23.84400
C  -6.21500 24.76300 23.01600
C  -5.70900 24.96100 21.53900
C  -4.86200 26.25000 21.62500
C  -4.75400 26.45800 23.11900
C  -5.00500 23.71500 20.94200
C  -5.54600 27.47500 20.88000
C  -5.71500 27.27600 19.32000
N  -4.33900 26.94400 25.93600
C  -3.74100 27.70000 25.02600
C  -2.95400 28.68700 25.61000
C  -3.03600 28.43900 27.01200
C  -3.87900 27.35700 27.07800
C  -2.16600 29.85900 24.99700
C  -2.57100 28.91300 28.26900
O  -1.87500 29.90200 28.63200
C  -3.31700 27.93400 29.29800
C  -2.35000 27.30300 30.19200
O  -1.34200 26.75000 29.82400
O  -2.71700 27.44700 31.51600
C  -1.75600 26.90700 32.47800
H  -7.44100 22.47900 28.90000
H  -7.49500 23.32700 22.36600
H  -3.59700 28.33700 22.97700
H  -4.22500 25.46100 30.83700
H  -6.75000 24.12900 30.73700
H  -5.37900 22.61900 31.66500
H  -4.00600 23.37200 30.86700
H  -4.98000 22.13600 29.95800
H  -7.17100 26.29300 30.74400
H  -5.88500 27.54700 30.65200
H  -7.10100 27.13800 32.88100
H  -5.38900 27.52600 32.76700
H  -8.84800 20.00400 26.85400
H  -10.26500 21.05300 26.97900
H  -8.94900 21.27900 28.19500
H  -10.99500 20.55400 24.87200
H  -9.66700 19.48800 24.91300
H  -10.51900 19.74700 23.33700
H  -6.66400 25.12200 21.03900
H  -3.86300 26.07300 21.22600
H  -5.66600 23.19700 20.24800
H  -4.64900 23.04600 21.72500
H  -4.08000 23.94100 20.41100
H  -5.00100 28.37300 21.17100
H  -6.56100 27.65500 21.23300
H  -5.47900 28.15800 18.72400
H  -6.71600 27.11000 18.92100
H  -5.13200 26.42900 18.96000
H  -2.33200 29.96400 23.92400
H  -1.07800 29.87600 25.06100
H  -2.47300 30.77200 25.50700
H  -3.93700 28.59000 29.90800
H  -0.76300 27.26200 32.20400
H  -1.99900 25.84400 32.49400
H  -1.92400 27.28900 33.48500

