158

Mg 0.45500 8.18700 25.16400
C  1.56400 9.83100 28.00600
C  1.06300 5.20700 26.77800
C  -0.27700 6.54100 22.21800
C  0.54000 11.07600 23.33700
N  1.53500 7.64100 27.17900
C  1.46000 8.43300 28.23600
C  1.68100 7.63500 29.58500
C  1.42300 6.15200 29.12400
C  1.44100 6.37600 27.58800
C  2.51700 5.16000 29.50600
C  0.62200 8.03900 30.65600
C  0.93400 7.96400 32.12800
H  2.10000 7.07400 32.67100
N  0.38600 6.10700 24.59400
C  0.63000 5.08400 25.41000
C  0.38700 3.80400 24.71500
C  0.13800 4.19800 23.38900
C  0.04200 5.67000 23.37000
C  0.49000 2.44800 25.44200
C  -0.08400 3.29900 22.16200
O  -0.13800 3.67400 21.03000
C  -0.12400 1.84300 22.50000
N  0.09000 8.77300 23.00600
C  -0.26700 7.94600 22.05200
C  -0.55800 8.65200 20.68500
C  -0.60700 10.14600 21.17900
C  0.00500 10.00500 22.57200
C  0.54100 8.27900 19.66000
C  -2.03600 10.81600 21.24400
C  -2.08700 12.20000 20.55000
N  0.89600 10.13100 25.51000
C  1.00400 11.25000 24.66900
C  1.53200 12.41900 25.40600
C  1.77600 11.87300 26.69700
C  1.39000 10.47700 26.73000
C  1.63300 13.80700 24.77300
C  2.24500 12.26300 28.00400
O  2.76000 13.27200 28.50900
C  2.01800 10.98700 28.89000
C  3.20400 10.74500 29.70100
O  4.36000 10.54900 29.33700
O  2.70700 10.63400 31.02500
C  3.67300 10.42600 32.09700
H  1.25600 4.29000 27.33900
H  -0.52500 6.01600 21.29300
H  0.56400 12.01200 22.77400
H  2.71100 7.80400 29.90000
H  0.46000 5.72700 29.40800
H  2.96100 5.58100 30.40800
H  3.37500 5.09900 28.83700
H  2.08900 4.19200 29.76800
H  -0.24200 7.38900 30.51800
H  0.35100 9.08700 30.53100
H  -0.02200 7.71900 32.59200
H  1.14600 8.96100 32.51400
H  -0.27200 1.70300 25.21800
H  0.45900 2.49900 26.53100
H  1.43900 1.93200 25.29900
H  -0.41700 1.24900 21.63400
H  -0.90800 1.76400 23.25300
H  0.84800 1.51400 22.86800
H  -1.54600 8.46000 20.26600
H  0.08700 10.77700 20.62400
H  1.06900 9.12000 19.21100
H  -0.08400 7.76900 18.92700
H  1.19400 7.52100 20.09300
H  -2.37000 10.77400 22.28100
H  -2.79600 10.23600 20.72000
H  -1.11600 12.48000 20.14300
H  -2.14300 12.94500 21.34400
H  -2.85000 12.24000 19.77300
H  1.35500 14.60200 25.46400
H  1.05200 13.79500 23.85100
H  2.65700 13.98500 24.44300
H  1.13700 11.21900 29.48900
H  4.27700 11.32200 32.24400
H  4.35400 9.67600 31.69400
H  3.15100 10.20600 33.02800
Mg 47.14800 15.67300 28.06800
C  45.22500 15.27200 30.93100
C  49.41200 17.42100 29.90500
C  48.74800 16.52400 25.17200
C  44.41100 14.55600 26.12200
N  47.24300 16.38700 30.13000
C  46.42200 15.99000 31.14800
C  46.96100 16.51700 32.50900
C  48.17000 17.35700 32.16300
C  48.25000 17.08000 30.60500
C  48.17400 18.91700 32.57400
C  47.31500 15.33600 33.48400
C  46.92300 15.39100 35.03000
H  46.73500 16.85100 35.53900
N  48.91400 16.53400 27.65100
C  49.78300 17.12700 28.55100
C  51.00400 17.40800 27.91100
C  50.82700 17.24300 26.53700
C  49.47500 16.75200 26.39200
C  52.21100 17.76900 28.66000
C  51.82200 17.57400 25.34000
O  51.52400 17.44000 24.13800
C  53.18600 18.06400 25.61800
N  46.60300 15.66400 25.92900
C  47.44300 16.05300 24.94400
C  46.73700 16.00400 23.59200
C  45.45100 15.23100 23.89300
C  45.47400 15.13300 25.44400
C  46.53600 17.38700 23.04900
C  45.11600 13.89400 23.20900
C  45.72300 12.56500 23.79800
N  45.22600 15.10100 28.39400
C  44.27400 14.54000 27.56500
C  43.17400 13.99600 28.32100
C  43.54100 14.24400 29.65900
C  44.74500 14.92700 29.62800
C  41.84000 13.52000 27.73800
C  43.08500 14.14700 31.05600
O  42.04800 13.73500 31.57800
C  44.18800 14.88600 31.89900
C  43.59300 16.00400 32.58400
O  43.34000 17.10500 32.10500
O  43.21700 15.62100 33.83300
C  42.42600 16.51600 34.68100
H  50.15300 17.98500 30.47600
H  49.26100 16.76200 24.23800
H  43.66500 14.07200 25.48900
H  46.21500 17.16400 32.96900
H  49.14800 17.01000 32.49700
H  49.22700 19.15200 32.72600
H  47.51500 19.11100 33.42000
H  47.89800 19.55500 31.73500
H  48.38800 15.15200 33.43700
H  46.79200 14.44700 33.13100
H  47.62300 14.84800 35.66500
H  45.98700 14.84300 35.14300
H  52.61500 18.74300 28.38400
H  52.97700 17.02200 28.45300
H  52.17800 17.65500 29.74300
H  53.18200 18.99100 26.19100
H  53.67400 18.34300 24.68500
H  53.53800 17.20200 26.18500
H  47.41800 15.52400 22.88900
H  44.59800 15.87600 23.68100
H  47.12400 17.56700 22.14900
H  46.80200 18.17000 23.75900
H  45.51500 17.59700 22.72900
H  45.44600 13.96600 22.17200
H  44.02700 13.93900 23.23600
H  44.84400 12.05600 24.19400
H  46.44000 12.77400 24.59200
H  46.27700 11.99700 23.05200
H  41.86200 13.52600 26.64800
H  41.00900 14.18100 27.98300
H  41.60200 12.48800 27.99500
H  44.41700 14.06700 32.58000
H  41.90800 17.30600 34.13700
H  43.11100 17.02700 35.35700
H  41.68900 16.01400 35.30800

