158

Mg 25.82800 1.03900 28.76600
C  27.73100 0.61700 31.79200
C  22.98100 1.22900 30.84000
C  24.04500 1.09300 26.08100
C  28.65800 0.18000 27.04500
N  25.43800 1.01100 31.14300
C  26.34100 0.93900 32.11600
C  25.72600 1.10100 33.47800
C  24.20500 1.15200 33.16600
C  24.16000 1.15400 31.66200
C  23.31200 -0.00300 33.66400
C  26.38100 2.29500 34.28300
C  27.13300 2.09700 35.67500
H  26.92100 3.12600 36.87400
N  23.78800 1.12700 28.48600
C  22.82300 1.20600 29.44800
C  21.48200 1.19300 28.81000
C  21.78800 1.15500 27.41700
C  23.20800 1.16400 27.28800
C  20.19300 0.93400 29.47600
C  20.85600 1.06500 26.19400
O  21.26100 1.14200 25.02200
C  19.35700 0.95000 26.41100
N  26.29100 0.55300 26.83800
C  25.40300 0.87500 25.86300
C  26.11200 1.01000 24.50400
C  27.52600 0.51800 24.81100
C  27.47800 0.38000 26.31700
C  25.44300 0.21000 23.34400
C  28.68900 1.31000 24.16500
C  29.24200 0.72300 22.83800
N  27.77200 0.47500 29.30000
C  28.82800 0.16200 28.40200
C  30.02200 0.01200 29.16100
C  29.66200 0.14400 30.50100
C  28.25900 0.40700 30.51800
C  31.43200 -0.27600 28.62200
C  30.13200 0.11300 31.85900
O  31.25600 -0.16900 32.23500
C  28.90100 0.35100 32.78400
C  28.58500 -0.80600 33.68200
O  27.79500 -1.68400 33.43700
O  29.28300 -0.57400 34.84600
C  28.74800 -1.41100 35.93700
H  22.12100 1.39900 31.49200
H  23.45400 1.36000 25.20200
H  29.63500 0.08200 26.56600
H  25.86400 0.15400 34.00100
H  23.83700 2.15000 33.40300
H  22.55500 0.50100 34.26500
H  23.89100 -0.73900 34.22300
H  22.77400 -0.58000 32.91200
H  25.66900 3.07300 34.55600
H  27.03300 2.83600 33.59700
H  28.19100 2.29100 35.50000
H  26.91300 1.09300 36.03900
H  19.70800 0.03000 29.10800
H  19.59800 1.84500 29.41200
H  20.36600 0.72700 30.53200
H  18.73600 1.28700 25.58100
H  19.09900 1.59900 27.24700
H  19.06400 -0.09700 26.48800
H  26.07000 2.07100 24.26000
H  27.73700 -0.45500 24.36700
H  25.25500 1.03700 22.66000
H  24.42200 -0.14700 23.48200
H  26.16300 -0.51100 22.95700
H  29.57300 1.38200 24.79900
H  28.27800 2.28200 23.89100
H  29.08700 1.49900 22.08900
H  28.75300 -0.18600 22.48800
H  30.30100 0.52500 23.00500
H  31.55200 0.20200 27.65000
H  31.58800 -1.35300 28.55100
H  32.13500 0.25100 29.26800
H  29.09700 1.26600 33.34200
H  28.91100 -2.44600 35.63300
H  27.69800 -1.22900 36.16500
H  29.42300 -1.40500 36.79300
Mg 10.12700 48.60400 24.79000
C  7.85500 48.83600 27.44100
C  12.54100 49.81600 26.81300
C  12.15500 48.39800 22.08600
C  7.31400 47.96600 22.68000
N  10.12600 49.30000 26.83100
C  9.15100 49.12800 27.80200
C  9.59200 49.61600 29.24100
C  10.84300 50.38900 28.75100
C  11.27100 49.80400 27.37900
C  10.72900 51.95700 28.66500
C  9.93800 48.47400 30.22600
C  9.52800 48.71100 31.66600
H  9.59700 47.58000 32.75600
N  12.11500 48.87600 24.56100
C  12.97700 49.37700 25.51900
C  14.37400 49.20900 24.99100
C  14.23600 48.78900 23.64200
C  12.76500 48.71900 23.33300
C  15.56700 49.52400 25.81900
C  15.30400 48.44700 22.59800
O  15.06500 47.97500 21.51900
C  16.70300 48.71800 22.99300
N  9.80800 48.32100 22.66800
C  10.81000 48.19700 21.80400
C  10.24800 47.63200 20.40000
C  8.76300 47.41800 20.73400
C  8.59400 47.96200 22.10100
C  10.48100 48.41100 19.17400
C  8.30300 45.86600 20.48100
C  8.35800 44.91100 21.71200
N  7.97000 48.44700 24.99700
C  7.05400 48.21700 24.02600
C  5.74800 48.34100 24.65800
C  5.94700 48.57500 25.96500
C  7.37000 48.66700 26.13500
C  4.49100 48.05100 24.04200
C  5.35100 48.75600 27.25800
O  4.17100 48.75100 27.56200
C  6.60000 48.91600 28.28900
C  6.56300 47.79600 29.19300
O  7.08100 46.73500 28.98200
O  5.86500 48.10100 30.26900
C  5.44500 47.02000 31.11000
H  13.35100 50.15600 27.46200
H  12.74100 48.25600 21.17500
H  6.45900 47.69300 22.05800
H  8.91200 50.34300 29.68400
H  11.65400 50.07500 29.40800
H  9.78000 52.13500 29.17000
H  10.58400 52.22200 27.61700
H  11.62400 52.51800 28.93400
H  11.02500 48.47600 30.30700
H  9.70400 47.46700 29.87900
H  8.60300 49.28600 31.62600
H  10.30500 49.38400 32.02700
H  16.12600 48.59500 25.92200
H  15.27500 49.75700 26.84300
H  16.21400 50.34400 25.50600
H  16.82100 49.76000 23.29100
H  17.35100 48.67600 22.11800
H  17.13900 48.10600 23.78300
H  10.74100 46.66000 20.40500
H  8.11700 48.03300 20.10800
H  9.53400 48.84700 18.85600
H  10.80700 47.81600 18.32100
H  11.19700 49.20300 19.39000
H  8.99200 45.50400 19.71800
H  7.27000 45.95500 20.14600
H  7.35900 44.64600 22.05800
H  8.99900 45.38000 22.45700
H  8.86400 43.95800 21.55100
H  4.61100 47.05000 23.62700
H  4.17800 48.84600 23.36500
H  3.76300 47.91900 24.84200
H  6.60400 49.83100 28.88200
H  5.46900 47.32900 32.15500
H  6.16800 46.21500 30.97600
H  4.41300 46.75000 30.88700

