158

Mg 8.50500 3.55800 27.03700
C  9.83000 1.69100 29.85700
C  6.72600 5.39600 29.07800
C  7.10800 4.80100 24.28600
C  9.90100 0.90700 24.90000
N  8.32400 3.45500 29.23900
C  8.98000 2.75300 30.23200
C  8.63300 3.33000 31.64100
C  7.60200 4.44900 31.26800
C  7.46600 4.40200 29.76400
C  6.26100 4.42300 31.98700
C  9.86100 3.92500 32.38700
C  9.54800 4.40800 33.77000
H  10.65700 5.09500 34.60700
N  7.07400 4.94300 26.70200
C  6.55400 5.67000 27.68700
C  5.81400 6.70500 27.06000
C  5.91200 6.57300 25.67600
C  6.73800 5.39100 25.50300
C  4.94400 7.76800 27.84500
C  5.40500 7.45700 24.57000
O  5.71800 7.27700 23.38700
C  4.41300 8.55800 24.92600
N  8.43900 2.88600 24.91100
C  7.79700 3.65900 23.98500
C  8.11900 3.28000 22.55800
C  9.08900 2.08600 22.76000
C  9.23100 1.95900 24.21900
C  6.90600 2.97000 21.69300
C  10.37000 2.09500 21.92200
C  10.60700 0.80200 21.18900
N  9.65200 1.74600 27.24300
C  10.16800 0.80600 26.26900
C  10.78900 -0.32300 26.95500
C  10.83300 0.13800 28.34500
C  10.09100 1.27300 28.45200
C  11.61800 -1.41100 26.32800
C  11.33700 -0.21800 29.72600
O  12.04000 -1.14700 30.02700
C  10.70200 0.84200 30.71900
C  9.97800 0.15300 31.81900
O  8.88000 -0.42300 31.76400
O  10.64300 0.39000 33.00500
C  10.01600 -0.04500 34.27200
H  6.21300 6.10900 29.72600
H  6.63400 5.21900 23.39500
H  10.25600 0.12300 24.22800
H  8.10700 2.62800 32.28700
H  7.90600 5.47500 31.47500
H  5.52800 3.87500 31.39500
H  5.91500 5.45400 32.07200
H  6.36500 4.03700 33.00100
H  10.40400 4.62000 31.74600
H  10.45400 3.01400 32.46800
H  9.29000 3.46100 34.24400
H  8.78600 5.18800 33.75000
H  5.54900 8.67200 27.78600
H  4.78700 7.47600 28.88400
H  3.93800 7.81500 27.42700
H  3.61600 8.07400 25.49000
H  4.08800 9.05800 24.01400
H  4.92000 9.29600 25.54700
H  8.63700 4.15600 22.16800
H  8.44800 1.21500 22.62600
H  6.05700 2.64300 22.29300
H  7.20500 2.21300 20.96800
H  6.61200 3.87400 21.15900
H  11.20800 2.28900 22.59200
H  10.32000 2.99800 21.31400
H  9.83200 0.04700 21.31600
H  11.47900 0.27600 21.57700
H  10.88800 1.02800 20.16000
H  11.08400 -1.95700 25.55000
H  11.77200 -2.27000 26.98100
H  12.54600 -1.00800 25.92400
H  11.50900 1.42100 31.16800
H  9.79200 0.87200 34.81700
H  10.76000 -0.44300 34.96200
H  9.13300 -0.68300 34.24600
Mg 46.94900 24.56800 27.71200
C  47.58300 26.79300 30.33800
C  45.69200 22.31000 30.10300
C  46.41800 22.40600 25.28100
C  48.47300 26.73100 25.47700
N  46.55000 24.58400 29.98200
C  46.89600 25.62500 30.78700
C  46.59800 25.30100 32.25000
C  46.05900 23.83400 32.12800
C  46.11300 23.53400 30.64400
C  46.91800 22.74900 32.86200
C  45.64300 26.31800 32.91500
C  46.13700 26.99800 34.23400
H  45.28000 26.87800 35.52600
N  46.08600 22.66300 27.67600
C  45.59300 21.94500 28.72400
C  45.07200 20.71400 28.25300
C  45.27800 20.64000 26.86500
C  45.91300 21.93400 26.51900
C  44.35400 19.60600 29.19000
C  45.00200 19.49100 25.82900
O  45.32200 19.48200 24.69700
C  44.30600 18.21600 26.34200
N  47.58900 24.50000 25.71000
C  47.00800 23.58800 24.86100
C  47.47700 23.84600 23.41800
C  47.86800 25.32900 23.48800
C  47.99300 25.52400 24.95400
C  48.64100 22.87100 23.06200
C  46.85800 26.30400 22.86800
C  45.45600 26.39900 23.46100
N  47.87200 26.42600 27.80200
C  48.44600 27.19300 26.79400
C  49.10900 28.31100 27.43300
C  48.80400 28.17500 28.85600
C  48.00100 27.04900 28.97000
C  50.06800 29.30300 26.92700
C  48.98200 28.78500 30.09400
O  49.63800 29.80200 30.41100
C  48.19100 27.91800 31.11500
C  49.10500 27.43900 32.13800
O  49.94800 26.60500 31.91400
O  48.96100 28.11500 33.30700
C  50.03300 28.10400 34.32200
H  45.48200 21.58400 30.89100
H  46.00300 21.71600 24.54400
H  48.97900 27.40700 24.78600
H  47.56100 25.18500 32.74800
H  45.07100 23.77200 32.58400
H  46.35700 22.11400 33.54800
H  47.78500 23.15600 33.38200
H  47.36400 22.06600 32.13800
H  44.65100 25.87000 32.98600
H  45.47800 27.19100 32.28500
H  46.26500 28.06000 34.02000
H  47.09600 26.51400 34.41700
H  44.58600 19.72100 30.24800
H  44.56900 18.54900 29.03400
H  43.27000 19.70900 29.13100
H  44.87100 17.68800 27.11000
H  44.11800 17.47700 25.56300
H  43.41000 18.56900 26.85200
H  46.66500 23.81500 22.69100
H  48.80000 25.52800 22.95900
H  48.39200 21.81100 23.10700
H  49.56800 23.10400 23.58500
H  48.88300 23.12300 22.03000
H  46.77400 26.13400 21.79500
H  47.29300 27.28800 23.04600
H  45.40000 27.19800 24.20000
H  45.31300 25.44400 23.96600
H  44.71500 26.52400 22.67200
H  50.56700 29.74600 27.78800
H  49.55000 30.06400 26.34400
H  50.87100 28.92800 26.29300
H  47.45100 28.55800 31.59700
H  50.25900 27.07800 34.61400
H  49.56900 28.65700 35.13800
H  50.95600 28.58800 34.00500

