158

Mg 24.58000 -4.64900 45.58000
C  26.25100 -1.84400 44.16100
C  21.70400 -3.86900 43.84000
C  23.39700 -7.63700 46.48000
C  27.56600 -5.27100 47.27000
N  24.03700 -3.02000 44.16900
C  24.92600 -2.08000 43.67700
C  24.26300 -1.30900 42.57100
C  22.73300 -1.84300 42.53000
C  22.81300 -2.91500 43.66900
C  21.62300 -0.76800 42.78000
C  24.96000 -1.43400 41.18400
C  25.16300 -0.25700 40.32000
H  24.85700 -0.44900 38.83200
N  22.73800 -5.57200 45.28200
C  21.68800 -5.09700 44.53900
C  20.74000 -6.13600 44.32500
C  21.14300 -7.28200 45.05000
C  22.44800 -6.88500 45.69700
C  19.45800 -5.95900 43.46900
C  20.33000 -8.49000 45.17200
O  19.30800 -8.65800 44.61100
C  20.79500 -9.59100 45.96100
N  25.43900 -6.28700 46.65600
C  24.69700 -7.40400 46.88200
C  25.51300 -8.30900 47.78700
C  26.72500 -7.44400 48.24400
C  26.62200 -6.25500 47.29300
C  24.77900 -8.98600 48.97400
C  28.17500 -8.10300 48.06300
C  29.07800 -7.99100 49.27500
N  26.52700 -3.80200 45.70300
C  27.62800 -4.23600 46.40100
C  28.69300 -3.27300 46.29800
C  28.17900 -2.32200 45.41500
C  26.86900 -2.68000 45.08800
C  29.99900 -3.23000 46.95300
C  28.48100 -1.08700 44.80600
O  29.49200 -0.44200 44.96200
C  27.30800 -0.74200 43.76600
C  26.78800 0.60300 44.03900
O  26.20500 0.94300 45.06300
O  26.98300 1.44500 42.98500
C  26.45500 2.75100 42.98600
H  20.81700 -3.60200 43.26300
H  23.07700 -8.66900 46.64400
H  28.44100 -5.47900 47.88900
H  24.23900 -0.26700 42.89000
H  22.50500 -2.46000 41.66100
H  21.95100 0.26900 42.84900
H  20.99000 -1.03600 43.62600
H  20.96200 -0.93800 41.93000
H  24.57000 -2.27800 40.61700
H  25.93800 -1.88800 41.34200
H  26.22100 -0.07900 40.51400
H  24.70200 0.68400 40.61900
H  19.24400 -6.81300 42.82700
H  19.56700 -5.07600 42.83900
H  18.55800 -5.64400 43.99700
H  21.76500 -9.73400 45.48300
H  20.11500 -10.43100 45.82000
H  21.00800 -9.33300 46.99800
H  25.89600 -9.07200 47.11000
H  26.56000 -7.10700 49.26700
H  24.80200 -10.05700 48.76900
H  23.77500 -8.56100 48.99000
H  25.23200 -8.77600 49.94200
H  28.72000 -7.69600 47.21100
H  28.09800 -9.17300 47.87000
H  29.98200 -7.42700 49.04900
H  29.35500 -9.02200 49.49500
H  28.43800 -7.50600 50.01200
H  30.68100 -2.53200 46.46700
H  30.51900 -4.18800 46.91200
H  29.98800 -3.06800 48.03100
H  27.65100 -0.78000 42.73200
H  25.96000 3.02100 43.91800
H  25.77600 2.61200 42.14400
H  27.24100 3.42800 42.65200
Mg 1.23600 42.26300 25.43800
C  2.41600 42.44300 28.89400
C  -1.41800 40.41700 26.79700
C  0.25400 41.94500 22.41700
C  4.45500 43.56100 24.45000
N  0.64200 41.52500 27.62800
C  1.12000 42.02800 28.82400
C  0.07700 41.84500 30.01800
C  -1.01500 40.94000 29.29700
C  -0.58500 40.86800 27.80000
C  -1.32900 39.66500 29.99300
C  -0.48400 43.18500 30.68300
C  -0.44600 43.33900 32.20200
H  -0.59100 42.11100 33.10900
N  -0.32300 41.33500 24.68200
C  -1.36800 40.68100 25.30900
C  -2.35900 40.30700 24.38000
C  -1.93400 40.77800 23.06500
C  -0.61200 41.38400 23.34500
C  -3.66900 39.67100 24.82400
C  -2.64100 40.72800 21.71300
O  -2.22000 41.27900 20.75800
C  -3.94400 40.00600 21.61700
N  2.20000 42.77200 23.71400
C  1.53900 42.47400 22.53800
C  2.28600 42.91700 21.36000
C  3.41800 43.74900 21.94000
C  3.41900 43.30900 23.50200
C  2.86000 41.62500 20.60700
C  3.48200 45.24600 21.69300
C  4.01400 45.74500 20.28700
N  3.13900 42.70700 26.45900
C  4.30900 43.26900 25.89300
C  5.24300 43.45700 26.97000
C  4.49700 43.22000 28.15400
C  3.23100 42.74200 27.78500
C  6.64200 43.95800 26.82800
C  4.59200 43.14100 29.63700
O  5.57000 43.47100 30.32700
C  3.19800 42.64800 30.14300
C  3.41700 41.34900 30.76800
O  3.70900 40.30800 30.21300
O  3.21100 41.44300 32.12300
C  3.05200 40.22700 32.92600
H  -2.31100 39.92000 27.18400
H  -0.23800 41.96600 21.44200
H  5.44900 43.90000 24.15200
H  0.49200 41.20400 30.79600
H  -1.89600 41.57700 29.22400
H  -2.30900 39.78100 30.45600
H  -0.64600 39.23400 30.72500
H  -1.57700 38.83800 29.32900
H  -1.49800 43.32800 30.31100
H  0.26500 43.88700 30.31900
H  -1.24500 44.04600 32.42500
H  0.46800 43.86000 32.48700
H  -3.90600 39.86200 25.87100
H  -3.53800 38.62600 24.54600
H  -4.53300 39.97800 24.23400
H  -3.72500 38.97500 21.89300
H  -4.26500 40.04000 20.57600
H  -4.74800 40.45900 22.19700
H  1.71900 43.58600 20.71300
H  4.39200 43.42900 21.57000
H  3.07500 41.94700 19.58900
H  2.14900 40.79800 20.61900
H  3.72300 41.25000 21.15700
H  4.20800 45.70000 22.36800
H  2.51100 45.63600 21.99700
H  3.99800 44.93100 19.56200
H  5.00100 46.18700 20.42200
H  3.30700 46.42200 19.80700
H  7.10900 43.14900 26.26600
H  7.06700 44.13600 27.81600
H  6.86500 44.77400 26.14200
H  2.79000 43.37100 30.84900
H  2.04900 39.81400 32.82300
H  3.33100 40.28600 33.97800
H  3.73100 39.42100 32.64800

