158

Mg 27.07700 50.12300 26.74500
C  24.99800 51.06700 29.51200
C  29.34700 49.07100 29.15100
C  29.05400 49.49600 24.20800
C  24.74200 51.57500 24.65700
N  27.15800 50.12300 29.12200
C  26.19900 50.60800 30.00500
C  26.65900 50.41900 31.42600
C  28.11200 49.85800 31.33700
C  28.20400 49.62000 29.81500
C  29.28600 50.80500 31.83500
C  25.74200 49.54100 32.39100
C  25.54400 50.18100 33.87700
H  25.44100 49.14600 34.99200
N  28.91400 49.39400 26.69900
C  29.69700 49.03000 27.74400
C  30.84700 48.39800 27.19100
C  30.89700 48.57900 25.79600
C  29.56300 49.12900 25.53900
C  32.04900 47.82700 28.00800
C  32.00500 48.45100 24.81700
O  31.89200 48.63200 23.65100
C  33.34700 48.05300 25.11500
N  27.02700 50.63600 24.76000
C  27.90300 50.17400 23.88500
C  27.58900 50.47200 22.50400
C  26.09400 50.96000 22.56200
C  25.93000 51.09500 24.06600
C  28.53500 51.50800 21.86900
C  25.06100 49.92500 21.93100
C  23.83200 50.38900 21.11700
N  25.23000 51.13300 26.99800
C  24.43300 51.69500 25.99100
C  23.30100 52.34200 26.64500
C  23.47300 52.09300 28.00000
C  24.60200 51.31100 28.18800
C  22.26900 53.12300 25.86700
C  22.84200 52.32400 29.25800
O  21.75700 52.81700 29.45200
C  23.84700 51.67900 30.34100
C  24.20300 52.70200 31.33200
O  25.20400 53.31600 31.36600
O  23.21000 52.72000 32.33000
C  23.52900 53.55300 33.45400
H  30.10400 48.72800 29.85800
H  29.65300 49.15700 23.36000
H  23.88500 51.74700 24.00300
H  26.69300 51.42300 31.84900
H  28.22100 48.96000 31.94600
H  29.94500 51.08800 31.01500
H  29.90400 50.32300 32.59200
H  28.98900 51.72300 32.34100
H  26.21500 48.57300 32.56100
H  24.82100 49.31000 31.85600
H  24.57500 50.67300 33.79100
H  26.12400 51.05100 34.18600
H  31.97000 47.92600 29.09100
H  32.93400 48.45200 27.89000
H  32.14700 46.76200 27.79800
H  33.27700 47.04300 25.52000
H  33.63500 48.76600 25.88700
H  33.97000 47.97400 24.22400
H  27.59700 49.59200 21.86000
H  26.00800 51.85600 21.94700
H  29.50400 51.45700 22.36400
H  28.11500 52.51400 21.88600
H  28.79700 51.13400 20.88000
H  24.67800 49.21300 22.66200
H  25.66200 49.41800 21.17400
H  23.78500 50.02000 20.09200
H  23.72400 51.47300 21.07600
H  22.92000 50.01400 21.58100
H  22.83600 53.71300 25.14700
H  21.75300 53.77800 26.56800
H  21.46500 52.52700 25.43400
H  23.30500 50.86400 30.82000
H  23.63400 54.60100 33.17400
H  24.43100 53.18200 33.94100
H  22.68000 53.60700 34.13600
Mg 1.60900 42.42600 25.45900
C  3.29900 42.33600 28.62300
C  -1.28400 41.60600 27.23600
C  0.21900 41.51700 22.60900
C  4.71800 42.52500 23.93800
N  1.08700 42.02800 27.71200
C  1.95500 42.11800 28.78900
C  1.16200 42.21100 30.05400
C  -0.26200 41.70900 29.60500
C  -0.21000 41.81800 28.10000
C  -0.54500 40.29100 30.06400
C  1.21400 43.67700 30.71800
C  1.53500 43.83300 32.31200
H  1.33400 42.53100 33.03100
N  -0.27500 41.73900 25.01000
C  -1.34200 41.52200 25.85400
C  -2.55900 41.13300 25.06500
C  -2.11100 41.05500 23.73100
C  -0.69000 41.49100 23.72700
C  -3.89600 40.77700 25.68100
C  -2.86300 40.50300 22.58300
O  -2.36600 40.42600 21.42500
C  -4.31300 40.09000 22.76400
N  2.35900 42.18200 23.50300
C  1.54300 41.81300 22.49100
C  2.21500 41.92400 21.11600
C  3.68000 42.40700 21.54800
C  3.60400 42.46100 23.04600
C  2.11600 40.56900 20.36100
C  4.07500 43.75100 20.97700
C  4.98000 43.79700 19.75000
N  3.65800 42.44600 26.08800
C  4.79300 42.48000 25.33700
C  5.93900 42.63600 26.20700
C  5.43000 42.56200 27.48500
C  4.01300 42.40300 27.38000
C  7.45200 42.68800 25.78200
C  5.75600 42.57100 28.87400
O  6.79300 42.86600 29.48800
C  4.45900 42.40600 29.65200
C  4.66800 41.17600 30.52000
O  4.45200 40.04600 30.10900
O  5.13300 41.55700 31.78300
C  5.23800 40.49200 32.69000
H  -2.18400 41.37800 27.81100
H  -0.19100 41.53500 21.59700
H  5.63800 42.67100 23.37000
H  1.63700 41.56900 30.79500
H  -0.99400 42.41500 29.99800
H  0.35000 39.79700 30.44100
H  -1.02700 39.72000 29.27000
H  -1.42100 40.23700 30.71100
H  0.18200 44.02700 30.73100
H  1.74100 44.38200 30.07600
H  0.97800 44.70000 32.66700
H  2.61600 43.97500 32.31800
H  -4.15500 39.75700 25.39900
H  -4.58500 41.56400 25.37400
H  -3.82500 40.89400 26.76200
H  -4.17000 39.21800 23.40300
H  -4.80700 39.71600 21.86800
H  -4.81800 40.88200 23.31800
H  1.77900 42.59700 20.37800
H  4.43700 41.68100 21.25000
H  1.40900 40.67800 19.53900
H  1.65200 39.79800 20.97600
H  3.08200 40.22200 19.99200
H  4.32900 44.35500 21.84800
H  3.19100 44.27100 20.60700
H  5.91300 44.32100 19.95700
H  4.64700 44.33000 18.86000
H  5.16100 42.76800 19.43800
H  7.88900 41.69100 25.74500
H  7.97700 43.50800 26.27200
H  7.50500 42.92500 24.72000
H  4.35800 43.20900 30.38200
H  4.30800 40.24500 33.20100
H  5.94100 40.75300 33.48200
H  5.59300 39.57700 32.21600

