158

Mg 43.07500 3.49500 46.82300
C  41.39400 6.60700 47.01600
C  39.81900 1.91100 46.83100
C  44.42400 0.62900 46.12900
C  46.06600 5.25900 46.28100
N  40.94400 4.24800 46.93600
C  40.54100 5.53900 47.03200
C  39.00900 5.70200 47.19600
C  38.57500 4.18800 47.14500
C  39.84300 3.35800 46.98800
C  37.69900 3.69000 48.36400
C  38.21000 6.45600 46.13600
C  38.84600 6.49700 44.65000
H  38.08600 5.76800 43.48800
N  42.24700 1.49400 46.46700
C  40.91300 1.03700 46.63500
C  40.91800 -0.36900 46.41100
C  42.25900 -0.77700 46.16600
C  43.09500 0.42100 46.21400
C  39.69000 -1.20400 46.56300
C  42.69400 -2.26800 45.93700
O  41.84900 -3.16800 45.74800
C  44.07200 -2.62300 45.53700
N  44.96700 3.04600 46.21900
C  45.25800 1.74000 46.10100
C  46.78300 1.61400 46.03300
C  47.34600 3.03900 45.79200
C  46.05400 3.84400 46.13700
C  47.34600 1.01500 47.30800
C  47.93100 3.28700 44.42300
C  49.16400 4.04100 44.27400
N  43.69700 5.49000 46.75000
C  44.91200 6.04700 46.51900
C  44.75600 7.52000 46.56900
C  43.39600 7.68900 46.72600
C  42.82500 6.50300 46.88300
C  45.85200 8.60900 46.42600
C  42.37900 8.81700 46.80400
O  42.44700 10.06500 46.72600
C  41.06900 8.10400 46.95800
C  40.52300 8.65800 48.27100
O  40.96400 8.54700 49.38200
O  39.36700 9.32600 48.00900
C  38.82300 10.00400 49.20600
H  38.84200 1.42200 46.81900
H  45.00300 -0.29600 46.10300
H  46.96400 5.87000 46.17000
H  38.86800 6.17900 48.16500
H  38.09500 3.92000 46.20400
H  37.80000 2.61800 48.53200
H  36.65600 3.92700 48.15700
H  37.94200 4.11200 49.33900
H  38.10300 7.45300 46.56400
H  37.21300 6.07200 45.91600
H  39.79700 5.97000 44.56600
H  38.93600 7.56900 44.47700
H  39.82600 -2.18800 47.01300
H  39.06100 -1.10700 45.67900
H  39.03100 -0.72500 47.28700
H  44.56700 -2.69700 46.50600
H  44.35700 -1.85300 44.82100
H  44.11600 -3.56000 44.98200
H  46.99100 1.06400 45.11500
H  47.99000 3.45900 46.56500
H  46.66300 0.54500 48.01600
H  47.84700 1.81500 47.85200
H  48.10700 0.30800 46.97600
H  47.21400 3.82700 43.80300
H  47.90200 2.39000 43.80400
H  49.00400 4.93500 43.67200
H  49.90900 3.41600 43.78200
H  49.50900 4.31500 45.27200
H  46.90100 8.31200 46.41400
H  45.71500 9.25700 47.29100
H  45.76200 9.13800 45.47700
H  40.37300 8.24700 46.13200
H  38.57100 9.20800 49.90700
H  37.83800 10.40800 48.97200
H  39.43400 10.79000 49.65100
Mg -11.56400 38.52300 42.37500
C  -9.50600 35.81200 41.86900
C  -9.08100 40.50300 40.95900
C  -13.70200 41.17700 42.22100
C  -14.08500 36.40100 43.33000
N  -9.66700 38.16100 41.18700
C  -9.00900 36.95000 41.23000
C  -7.68600 37.01000 40.48200
C  -7.40700 38.52400 40.53100
C  -8.80600 39.09700 40.88300
C  -6.23300 38.98600 41.63000
C  -7.92000 36.35000 39.07900
C  -6.81400 35.64200 38.23800
H  -6.32600 36.36500 36.96300
N  -11.38000 40.60900 41.87500
C  -10.23100 41.19200 41.36900
C  -10.52900 42.60700 41.06600
C  -11.90600 42.86300 41.35600
C  -12.35800 41.55800 41.83100
C  -9.49600 43.57800 40.29400
C  -12.72800 44.07300 41.19600
O  -12.21400 45.15500 40.72900
C  -14.27200 44.16700 41.29300
N  -13.62700 38.74800 42.57300
C  -14.25100 39.94000 42.61300
C  -15.56000 39.81900 43.34400
C  -15.78000 38.25800 43.45900
C  -14.42000 37.73300 43.02000
C  -15.49200 40.64400 44.68500
C  -17.02900 37.64200 42.65200
C  -17.79700 36.66900 43.39900
N  -11.84100 36.51500 42.66600
C  -12.85700 35.80800 43.11200
C  -12.41900 34.51800 43.46400
C  -11.06300 34.38000 42.98600
C  -10.81900 35.69200 42.41100
C  -13.30900 33.39600 44.09200
C  -9.93100 33.58500 42.82900
O  -9.88500 32.41900 43.09900
C  -8.85200 34.43000 41.98500
C  -7.62900 34.44500 42.92300
O  -7.61100 34.62400 44.11700
O  -6.55000 34.10400 42.19600
C  -5.32600 33.89800 43.00000
H  -8.37600 41.22100 40.53500
H  -14.39700 41.99800 42.40900
H  -14.80100 35.75300 43.84000
H  -6.85700 36.49100 40.96200
H  -7.01600 38.88200 39.57900
H  -5.26600 39.14000 41.15200
H  -6.12400 38.23600 42.41300
H  -6.42400 39.94800 42.10500
H  -8.22500 37.22500 38.50600
H  -8.84500 35.77400 39.10500
H  -7.22400 34.65800 38.01100
H  -5.94900 35.62000 38.90100
H  -8.64900 43.01300 39.90300
H  -9.33600 44.43600 40.94800
H  -10.00300 43.98500 39.42000
H  -14.63100 43.35200 40.66500
H  -14.70600 45.14000 41.06700
H  -14.53000 44.06100 42.34700
H  -16.30300 40.18500 42.63500
H  -15.94800 38.07400 44.52000
H  -15.93400 40.14700 45.54900
H  -15.99000 41.61300 44.65100
H  -14.43900 40.85200 44.87300
H  -16.61100 37.16800 41.76400
H  -17.74600 38.39100 42.31600
H  -18.84500 36.93900 43.27400
H  -17.70200 36.75700 44.48100
H  -17.69000 35.64700 43.03500
H  -12.71200 32.53500 44.39200
H  -14.17200 33.08100 43.50600
H  -13.81800 33.83100 44.95200
H  -8.83900 34.03500 40.97000
H  -5.48200 33.02500 43.63300
H  -5.09500 34.65400 43.75100
H  -4.47200 33.67700 42.36100

