158

Mg 26.85400 50.91600 26.23100
C  25.25300 52.19700 29.01900
C  29.01800 49.25300 28.29500
C  28.58700 50.04700 23.47800
C  24.66100 52.55400 24.21800
N  27.01600 50.64400 28.44100
C  26.31300 51.32300 29.37700
C  26.81500 51.00400 30.79000
C  28.19700 50.37700 30.44800
C  28.00700 49.93600 28.95100
C  29.41600 51.33600 30.64400
C  25.77300 49.94800 31.50300
C  24.82500 50.47400 32.62000
H  24.96500 49.77600 33.95400
N  28.53500 49.69600 25.94000
C  29.27100 48.99600 26.87600
C  30.30500 48.21500 26.24900
C  30.26800 48.52800 24.80300
C  29.12100 49.51900 24.69800
C  31.16300 47.22800 27.07800
C  30.98200 47.79500 23.62800
O  30.86400 48.15100 22.44900
C  31.82400 46.61700 23.87300
N  26.81800 51.56600 24.17600
C  27.53500 50.90700 23.23000
C  27.21500 51.26400 21.75800
C  25.81000 51.94400 22.00300
C  25.72700 51.99500 23.56600
C  28.20600 52.26400 21.20900
C  24.72700 51.22600 21.20500
C  23.50500 52.11500 20.76800
N  25.37000 52.22300 26.46700
C  24.48500 52.77100 25.58500
C  23.48900 53.60800 26.30100
C  23.75700 53.33800 27.61200
C  24.87500 52.47600 27.67500
C  22.36100 54.21600 25.57400
C  23.35000 53.56300 28.97200
O  22.43100 54.20500 29.39200
C  24.32300 52.88900 29.91900
C  24.86300 53.90900 30.83900
O  25.81600 54.64800 30.72500
O  24.05200 53.93900 31.99900
C  24.36800 54.95300 33.11800
H  29.67500 48.69700 28.96700
H  29.11800 49.65600 22.60700
H  23.92400 52.95200 23.51800
H  26.84600 51.98500 31.26300
H  28.46100 49.53500 31.08800
H  29.71600 51.64100 29.64100
H  30.16900 50.68400 31.08700
H  29.11700 52.16000 31.29100
H  26.41900 49.14200 31.85100
H  25.00000 49.56800 30.83400
H  23.80900 50.37900 32.23900
H  25.11300 51.51400 32.77200
H  31.21800 47.45000 28.14400
H  32.12200 47.33300 26.57100
H  30.79100 46.23800 26.81200
H  32.69200 46.93600 24.45100
H  32.00100 46.04100 22.96400
H  31.14900 45.99000 24.45500
H  27.27800 50.40600 21.08900
H  25.72400 52.95900 21.61600
H  27.81400 53.08700 20.61200
H  28.93000 51.70600 20.61600
H  28.69500 52.68900 22.08600
H  24.31000 50.47000 21.87100
H  25.20200 50.73800 20.35400
H  22.75800 51.89200 21.53000
H  23.06000 51.85000 19.80900
H  23.78900 53.16700 20.75800
H  22.76300 54.88000 24.80900
H  21.82900 54.72000 26.38100
H  21.61900 53.55300 25.13000
H  23.73200 52.20800 30.53200
H  23.38300 55.04200 33.57600
H  24.67900 55.90600 32.68900
H  25.11400 54.55100 33.80400
Mg -11.96000 17.76800 40.48300
C  -8.82800 16.03300 40.10800
C  -10.16700 20.63700 39.48700
C  -14.82700 19.34500 39.86200
C  -13.52700 14.75000 40.95200
N  -9.74900 18.19300 39.67900
C  -8.67900 17.38000 39.72100
C  -7.39800 18.07700 39.09300
C  -7.86500 19.58500 39.08300
C  -9.36300 19.48300 39.43400
C  -7.15400 20.40100 40.21600
C  -7.01600 17.45800 37.70600
C  -5.62100 16.88000 37.44100
H  -5.61500 15.45400 36.89600
N  -12.40900 19.77600 39.91300
C  -11.54600 20.78900 39.58500
C  -12.33500 22.00400 39.52300
C  -13.75700 21.59700 39.48400
C  -13.71400 20.17200 39.74400
C  -11.67600 23.35500 39.35800
C  -14.93600 22.58400 39.34300
O  -14.75500 23.74700 38.97400
C  -16.35700 22.18100 39.67400
N  -13.87400 17.07700 40.40700
C  -14.88100 17.96100 40.10300
C  -16.21000 17.20400 39.99500
C  -15.87300 15.82900 40.74400
C  -14.33500 15.88400 40.72500
C  -17.34600 17.94400 40.61100
C  -16.40400 14.57200 39.98000
C  -17.02300 13.36200 40.79500
N  -11.33800 15.78300 40.59600
C  -12.08800 14.67900 40.85700
C  -11.24500 13.51200 40.93600
C  -9.94900 14.01500 40.66200
C  -10.04700 15.41100 40.45900
C  -11.64300 12.03700 41.21300
C  -8.55300 13.67200 40.70200
O  -8.05500 12.67500 41.13800
C  -7.75800 14.96400 40.18500
C  -6.77100 15.34100 41.26900
O  -7.09100 15.98400 42.28800
O  -5.49600 14.83300 40.93900
C  -4.45300 14.79300 41.97500
H  -9.60700 21.55500 39.29300
H  -15.79600 19.73900 39.55000
H  -14.13500 13.87100 41.17700
H  -6.47100 17.90200 39.63900
H  -7.78100 20.17600 38.17000
H  -6.22200 19.96100 40.56800
H  -7.69100 20.50300 41.15900
H  -6.85600 21.38000 39.84100
H  -7.25900 18.19700 36.94200
H  -7.74300 16.67900 37.47400
H  -4.86600 16.99000 38.21900
H  -5.21000 17.55700 36.69200
H  -10.86300 23.55000 40.05800
H  -12.40200 24.12800 39.61000
H  -11.28600 23.47300 38.34700
H  -16.70800 21.49200 38.90700
H  -16.99600 23.06100 39.74700
H  -16.45700 21.65500 40.62400
H  -16.50600 17.09800 38.95200
H  -16.23700 15.91300 41.76800
H  -17.13600 18.96800 40.91800
H  -17.75100 17.37900 41.45000
H  -18.21200 17.93200 39.94900
H  -15.53500 14.15000 39.47400
H  -17.00500 14.98400 39.16900
H  -16.98800 13.55900 41.86700
H  -16.52600 12.42600 40.53700
H  -17.98700 13.20800 40.31200
H  -12.42100 11.82200 40.48000
H  -12.01200 11.85900 42.22300
H  -10.85300 11.33700 40.93900
H  -7.25200 14.65800 39.26900
H  -4.94700 14.62900 42.93200
H  -3.86100 15.69900 41.83900
H  -3.88300 13.91800 41.66200

