158

Mg 16.63200 -1.51300 28.01800
C  15.21800 0.41200 30.61600
C  18.56300 -3.10800 30.47500
C  18.31000 -3.12800 25.50400
C  14.78100 0.24400 25.72600
N  16.77200 -1.46000 30.32900
C  16.15200 -0.54300 31.09100
C  16.65400 -0.64000 32.54500
C  17.89600 -1.58100 32.38600
C  17.73300 -2.13100 30.98100
C  19.28800 -0.94400 32.65500
C  15.63700 -1.11100 33.58700
C  15.96600 -0.90900 35.09800
H  17.24400 -0.26200 35.55500
N  18.14800 -2.99800 27.98600
C  18.79600 -3.56800 29.10300
C  19.59200 -4.73400 28.70800
C  19.64400 -4.68200 27.22300
C  18.67200 -3.54600 26.83400
C  20.17700 -5.65600 29.70100
C  20.36600 -5.60800 26.18300
O  20.22100 -5.61100 24.97900
C  21.35400 -6.61700 26.66000
N  16.68000 -1.30000 25.88800
C  17.39300 -2.18300 25.12500
C  17.10000 -1.92800 23.63800
C  15.97600 -0.86700 23.66600
C  15.76600 -0.59300 25.20200
C  18.38700 -1.37300 22.88700
C  14.64300 -1.29800 23.03000
C  13.94500 -0.37000 22.08100
N  15.22300 0.02700 28.11200
C  14.47800 0.50700 27.07700
C  13.52800 1.45800 27.66100
C  13.81700 1.48600 29.02500
C  14.84600 0.57700 29.23700
C  12.47300 2.16300 26.81000
C  13.47200 2.11900 30.29100
O  12.69400 3.02900 30.59200
C  14.44200 1.44900 31.34300
C  15.29400 2.66200 31.81200
O  15.66700 3.56500 31.08300
O  15.43500 2.56500 33.16900
C  15.91700 3.81000 33.81100
H  19.28300 -3.59200 31.13800
H  18.84500 -3.62000 24.68800
H  14.23400 0.91500 25.06000
H  17.10900 0.32000 32.78800
H  17.81600 -2.44300 33.04900
H  19.05200 0.00300 33.14000
H  19.81700 -0.91000 31.70200
H  19.87700 -1.53800 33.35300
H  15.47900 -2.18600 33.50100
H  14.66600 -0.62000 33.51500
H  16.01500 -1.91500 35.51500
H  15.12800 -0.43500 35.60900
H  20.48700 -6.60300 29.26100
H  19.41000 -5.84700 30.45200
H  20.99400 -5.20300 30.26300
H  20.87500 -7.58100 26.83100
H  21.95500 -6.14900 27.44000
H  22.08400 -6.66900 25.85300
H  16.90000 -2.89300 23.17200
H  16.35800 0.08600 23.30000
H  19.08200 -2.20300 22.76300
H  18.78000 -0.48000 23.37400
H  18.08100 -0.89800 21.95400
H  13.88500 -1.59700 23.75300
H  14.87600 -2.28900 22.64000
H  12.97700 -0.14200 22.52800
H  13.76300 -0.92400 21.16000
H  14.53200 0.52800 21.88800
H  12.90400 3.00500 26.26800
H  11.60000 2.49900 27.36900
H  12.09600 1.50500 26.02800
H  14.04400 1.03300 32.26900
H  16.86400 4.12700 33.37400
H  16.17700 3.48700 34.81900
H  15.15100 4.58400 33.84600
Mg 55.28700 24.43200 44.49300
C  52.62700 26.62600 43.67200
C  53.48300 21.78200 43.21000
C  58.09900 22.64100 44.77400
C  57.04700 27.40400 45.54400
N  53.30000 24.30400 43.70200
C  52.40400 25.27100 43.44600
C  51.02900 24.60000 43.03200
C  51.28400 23.06800 43.28100
C  52.85100 23.02400 43.25500
C  50.71900 22.50400 44.60400
C  50.65600 24.82200 41.51900
C  51.76100 25.10800 40.51900
H  52.37200 23.81200 40.02200
N  55.73100 22.44700 44.08800
C  54.84700 21.52900 43.57500
C  55.50500 20.27000 43.62300
C  56.85400 20.49300 44.00700
C  56.96800 21.90500 44.33300
C  54.82900 18.97100 43.31500
C  57.88000 19.35000 44.07900
O  57.59100 18.19600 43.69100
C  59.27700 19.67700 44.48400
N  57.31500 25.03200 44.87600
C  58.28100 24.05000 44.99000
C  59.63700 24.73700 45.16900
C  59.21400 26.15500 45.69000
C  57.74500 26.24500 45.27800
C  60.65300 24.11700 46.09800
C  60.05400 27.32400 45.01000
C  60.80100 28.10700 46.09600
N  54.98800 26.66500 44.66800
C  55.79800 27.65900 45.12800
C  54.96300 28.85300 45.16700
C  53.71500 28.52100 44.57600
C  53.80800 27.17900 44.28400
C  55.39200 30.14800 45.91100
C  52.39500 29.04700 44.28300
O  51.84000 30.11100 44.42100
C  51.66200 27.88400 43.51000
C  51.46800 28.37700 42.15500
O  52.41300 28.77500 41.49000
O  50.12800 28.38900 41.80200
C  49.69500 28.81000 40.49000
H  52.83200 20.93800 42.97000
H  58.99400 22.06900 45.02900
H  57.60200 28.25700 45.94000
H  50.20800 25.01300 43.61800
H  50.87700 22.39000 42.53000
H  51.52300 21.96200 45.10200
H  50.07700 21.64100 44.42900
H  50.24700 23.23000 45.26700
H  50.01300 25.70200 41.51700
H  49.96600 24.04600 41.18900
H  52.48300 25.76900 40.99900
H  51.31600 25.65800 39.68900
H  55.24400 18.49800 42.42500
H  53.78200 19.19600 43.11400
H  54.94800 18.32800 44.18800
H  59.63200 20.45200 43.80400
H  59.89600 18.78500 44.39000
H  59.24200 20.03600 45.51200
H  59.93200 24.84500 44.12500
H  59.21600 26.13900 46.78000
H  60.24300 23.43200 46.84000
H  61.20000 24.93100 46.57300
H  61.46100 23.62700 45.55400
H  59.47600 28.00900 44.39100
H  60.82300 26.94300 44.33700
H  61.76000 28.46300 45.72000
H  61.03600 27.48600 46.96000
H  60.27700 29.01200 46.40500
H  56.46200 30.33900 45.99200
H  54.87500 30.34700 46.84900
H  55.07100 30.98100 45.28500
H  50.69100 27.85600 44.00400
H  49.09800 29.72200 40.50400
H  49.07200 28.00600 40.10000
H  50.50100 28.90200 39.76100

