158

Mg 23.67500 -5.67400 45.88500
C  25.73900 -3.35900 44.11600
C  21.13200 -4.90300 43.59500
C  21.82500 -8.10300 47.18700
C  26.36600 -6.60600 47.86500
N  23.50500 -4.27200 44.06300
C  24.42000 -3.42200 43.59700
C  23.87100 -2.65000 42.35800
C  22.30500 -2.88200 42.53000
C  22.29900 -4.14400 43.40400
C  21.60500 -1.74400 43.32800
C  24.49200 -3.01400 40.97400
C  24.98500 -1.81300 40.17900
H  24.80000 -1.88700 38.59100
N  21.69600 -6.43000 45.44100
C  20.81900 -5.93900 44.48100
C  19.55100 -6.58900 44.70000
C  19.76200 -7.66900 45.55500
C  21.14100 -7.41900 46.13000
C  18.34800 -6.07800 43.93700
C  18.75200 -8.71700 45.96600
O  17.70200 -8.63900 45.36100
C  18.93000 -9.70000 47.05300
N  24.10200 -7.25400 47.23900
C  23.06800 -8.05700 47.72000
C  23.58600 -9.05300 48.75000
C  24.91700 -8.38700 49.24000
C  25.18500 -7.38800 48.05600
C  22.60600 -9.44000 49.89800
C  26.07400 -9.41200 49.54600
C  26.44600 -9.68800 50.97300
N  25.68000 -5.10400 46.02600
C  26.63000 -5.49200 46.93400
C  27.89000 -4.88200 46.62700
C  27.49500 -3.92400 45.64100
C  26.22100 -4.13300 45.26000
C  29.32800 -5.11200 47.26500
C  28.01600 -2.84600 44.83000
O  29.16400 -2.32000 44.82400
C  26.84500 -2.44500 43.78400
C  26.48000 -0.99400 44.01300
O  26.55900 -0.39700 45.08600
O  26.16300 -0.38700 42.90100
C  26.00400 1.04900 42.80400
H  20.34600 -4.57600 42.91100
H  21.17000 -8.87600 47.59400
H  27.21400 -6.58700 48.55300
H  24.08300 -1.62800 42.67300
H  21.74600 -3.00100 41.60200
H  22.31400 -0.93600 43.51100
H  21.30100 -2.14700 44.29400
H  20.81100 -1.23800 42.78100
H  23.70900 -3.53000 40.41800
H  25.30500 -3.73100 41.08900
H  25.94100 -1.38300 40.47900
H  24.29700 -1.02100 40.47100
H  17.96600 -5.35100 44.65400
H  17.59000 -6.84400 43.77700
H  18.57700 -5.72700 42.93100
H  18.14800 -10.45800 47.09100
H  19.04700 -9.19700 48.01300
H  19.81800 -10.30700 46.87700
H  23.77600 -9.92400 48.12300
H  24.75800 -7.88000 50.19100
H  21.62900 -8.95900 49.85700
H  23.04300 -9.26800 50.88200
H  22.49900 -10.49500 49.64700
H  27.04900 -9.13700 49.14500
H  25.80100 -10.29500 48.96800
H  27.29300 -9.12400 51.36300
H  26.65500 -10.74000 51.16600
H  25.49400 -9.48500 51.46400
H  29.59500 -6.14300 47.03200
H  29.20700 -4.94300 48.33500
H  30.11400 -4.47000 46.86700
H  27.27200 -2.53400 42.78500
H  26.01800 1.59100 43.75000
H  24.96000 1.21100 42.53700
H  26.50900 1.49700 41.94900
Mg 16.20600 -2.18200 27.57600
C  14.79600 -0.59200 30.37500
C  18.11400 -4.02100 29.75800
C  17.60900 -3.77600 24.90400
C  14.32900 -0.21200 25.49600
N  16.50500 -2.22700 29.80100
C  15.79700 -1.53800 30.79200
C  16.38300 -1.71200 32.20700
C  17.51500 -2.69500 31.83200
C  17.42000 -2.97100 30.36100
C  18.95100 -2.28600 32.34300
C  15.33300 -2.16300 33.16400
C  15.19700 -1.41800 34.50800
H  16.51100 -0.81800 35.02600
N  17.66500 -3.65500 27.38000
C  18.30000 -4.34400 28.43400
C  19.20300 -5.29800 27.95900
C  18.97700 -5.37400 26.51600
C  18.01400 -4.24300 26.19800
C  20.12700 -6.04900 28.79500
C  19.51000 -6.30900 25.46200
O  19.10300 -6.19800 24.26500
C  20.40600 -7.44200 25.89200
N  16.01300 -2.06800 25.44000
C  16.69900 -2.79000 24.51000
C  16.35800 -2.17400 23.09000
C  15.07900 -1.31400 23.35700
C  15.10300 -1.19100 24.87400
C  17.61400 -1.44600 22.56800
C  13.66800 -1.79500 22.69700
C  13.23100 -1.26800 21.27900
N  14.84700 -0.74100 27.79200
C  14.12200 -0.01000 26.88400
C  13.16200 0.87400 27.54600
C  13.48100 0.67800 28.91700
C  14.49000 -0.29100 29.01000
C  12.17400 1.70700 26.90300
C  13.02400 1.12200 30.21500
O  12.25200 2.00700 30.52400
C  13.87600 0.35200 31.15100
C  14.65500 1.26400 31.93900
O  15.69700 1.78700 31.65700
O  13.98000 1.54500 33.06800
C  14.63600 2.48600 34.03100
H  18.60200 -4.66500 30.49200
H  18.13500 -4.17800 24.03500
H  13.76100 0.50000 24.89300
H  16.90100 -0.80300 32.51300
H  17.33500 -3.64800 32.33000
H  19.04300 -1.25400 32.68100
H  19.70400 -2.49600 31.58300
H  19.28000 -2.84200 33.22200
H  15.53400 -3.22500 33.30900
H  14.34400 -2.11800 32.70800
H  14.78900 -2.00500 35.33100
H  14.40300 -0.69500 34.31900
H  19.50300 -6.38900 29.62100
H  20.83500 -5.28400 29.11200
H  20.60400 -6.91000 28.32600
H  19.97800 -7.98500 26.73400
H  21.43000 -7.10700 26.06100
H  20.27300 -8.18200 25.10300
H  16.16900 -2.97800 22.37800
H  15.33900 -0.35000 22.92100
H  18.17500 -2.02900 21.83900
H  18.29100 -1.29700 23.40900
H  17.36600 -0.50000 22.08700
H  12.81700 -1.74900 23.37700
H  13.77800 -2.86100 22.49900
H  12.26900 -0.84200 21.56500
H  13.22400 -2.04300 20.51400
H  13.94600 -0.56100 20.85900
H  12.27600 1.71300 25.81800
H  12.23600 2.67900 27.39200
H  11.16300 1.35300 27.10700
H  13.27100 -0.27700 31.80500
H  14.49400 3.49600 33.64700
H  15.69600 2.25500 34.13400
H  14.05100 2.42800 34.94800

