158

Mg 2.18700 -2.08600 44.14900
C  5.68900 -1.52600 43.32900
C  1.48100 0.52400 42.06900
C  -0.89800 -3.14200 44.29200
C  3.31100 -5.23400 45.33800
N  3.48800 -0.67000 42.86900
C  4.84300 -0.71800 42.61300
C  5.22100 0.22500 41.49900
C  3.95500 1.11800 41.40200
C  2.87600 0.32000 42.14900
C  3.98200 2.60600 41.91700
C  5.57100 -0.54500 40.10200
C  6.75300 0.06000 39.37200
H  6.50900 0.57700 37.95300
N  0.45200 -1.34000 43.35200
C  0.32300 -0.27800 42.48800
C  -1.10100 0.03200 42.42800
C  -1.77500 -0.95500 43.17200
C  -0.75600 -1.82900 43.71700
C  -1.66600 1.14800 41.58900
C  -3.26200 -1.13600 43.17900
O  -3.95200 -0.37400 42.53600
C  -3.98800 -2.20900 43.99900
N  1.33000 -3.89800 44.93900
C  0.03600 -4.13400 44.63300
C  -0.36200 -5.59300 44.78300
C  1.00800 -6.27100 45.05800
C  1.95900 -5.08300 45.03000
C  -1.48200 -5.84700 45.92100
C  1.37600 -7.41100 44.06100
C  1.44200 -8.80200 44.66700
N  4.08100 -3.06900 44.60800
C  4.33400 -4.34200 45.07600
C  5.76600 -4.53500 45.20800
C  6.35900 -3.44900 44.56600
C  5.26300 -2.63200 44.09800
C  6.44400 -5.53900 46.07100
C  7.57200 -2.76800 44.19500
O  8.75800 -2.98600 44.43100
C  7.20300 -1.58100 43.26300
C  7.86800 -0.34100 43.77000
O  8.78500 0.23400 43.22800
O  7.28300 0.12000 44.92600
C  7.45100 1.58600 45.16100
H  1.24300 1.46800 41.57400
H  -1.91000 -3.55300 44.30200
H  3.64800 -6.23700 45.61000
H  6.10600 0.80300 41.76700
H  3.70500 1.20500 40.34500
H  3.63700 3.27400 41.12800
H  4.97200 2.91800 42.24900
H  3.29800 2.69700 42.76000
H  4.72200 -0.46500 39.42300
H  5.76000 -1.60200 40.29100
H  7.47500 -0.75600 39.39200
H  7.09300 0.93300 39.92900
H  -0.91000 1.86000 41.26100
H  -2.44600 1.72400 42.08700
H  -2.25500 0.67200 40.80500
H  -4.99800 -1.87600 44.23700
H  -3.44600 -2.35000 44.93400
H  -3.99800 -3.08200 43.34600
H  -0.80900 -5.88800 43.83400
H  0.81500 -6.66900 46.05500
H  -1.26400 -6.69600 46.57000
H  -2.47700 -5.89000 45.47800
H  -1.44200 -5.02500 46.63600
H  2.34600 -7.23800 43.59300
H  0.78700 -7.41000 43.14400
H  1.56200 -8.68200 45.74400
H  2.27400 -9.42800 44.34500
H  0.52000 -9.37700 44.58400
H  6.45000 -6.39500 45.39700
H  5.89900 -5.79500 46.98000
H  7.45800 -5.15500 46.18300
H  7.61500 -1.73700 42.26700
H  7.03800 1.92700 44.21100
H  8.48700 1.89600 45.29000
H  6.87500 2.07100 45.94900
Mg 25.50500 1.17900 28.99400
C  27.41100 0.80500 32.04700
C  22.66100 1.51800 31.09400
C  23.56300 1.13500 26.37400
C  28.30300 0.31300 27.22800
N  25.16300 1.19900 31.31100
C  26.08000 1.12000 32.30800
C  25.43300 1.35500 33.67100
C  23.95700 1.38300 33.26700
C  23.90100 1.32300 31.80400
C  22.89500 0.31400 33.85900
C  25.99800 2.55500 34.41400
C  26.73900 2.31800 35.78400
H  26.43900 3.22300 36.96500
N  23.40600 1.29400 28.75500
C  22.44400 1.50500 29.70600
C  21.17500 1.75000 29.01300
C  21.48200 1.81100 27.59900
C  22.83900 1.38700 27.49900
C  19.90100 1.90500 29.74600
C  20.56800 2.18100 26.40100
O  20.91600 2.07100 25.27400
C  19.24600 2.70200 26.69100
N  25.87900 0.57500 27.08700
C  24.92900 0.85500 26.13500
C  25.51700 0.80500 24.69600
C  27.04400 0.42000 25.02600
C  27.08700 0.47100 26.53100
C  24.90100 -0.23600 23.74300
C  28.09100 1.37700 24.39700
C  28.77100 0.85300 23.11100
N  27.48200 0.63400 29.49200
C  28.52000 0.36200 28.60900
C  29.71500 0.19200 29.35900
C  29.37600 0.39400 30.76900
C  27.93900 0.56300 30.73700
C  31.11900 0.02600 28.75000
C  29.85000 0.48000 32.18300
O  30.99300 0.29100 32.62400
C  28.59300 0.83700 33.06700
C  28.48400 -0.28500 34.07700
O  28.10700 -1.37800 33.76200
O  28.94200 0.18300 35.31500
C  28.84300 -0.74000 36.46200
H  21.77300 1.59100 31.72600
H  23.03200 0.96300 25.43600
H  29.24000 0.00700 26.75700
H  25.63500 0.43100 34.21200
H  23.50900 2.35700 33.46500
H  23.22000 0.15700 34.88800
H  22.87300 -0.58400 33.24100
H  21.92200 0.79200 33.97400
H  25.13600 3.14600 34.72100
H  26.44900 3.26100 33.71700
H  27.75100 2.64400 35.54400
H  26.63300 1.25000 35.97800
H  19.80000 1.16400 30.54000
H  18.97500 1.59700 29.26100
H  19.71300 2.85900 30.23800
H  18.78800 3.14000 25.80500
H  19.38400 3.41100 27.50700
H  18.58400 1.93200 27.08800
H  25.49400 1.78600 24.22000
H  27.49800 -0.53100 24.74800
H  25.67300 -0.96500 23.49500
H  24.62300 0.36600 22.87800
H  24.04100 -0.67700 24.24600
H  28.89400 1.68700 25.06600
H  27.68900 2.36300 24.16300
H  28.53200 -0.16900 22.81800
H  29.85900 0.84000 23.17100
H  28.45500 1.47500 22.27300
H  31.25000 0.49300 27.77400
H  31.22900 -1.05300 28.64100
H  31.80700 0.32700 29.54100
H  28.79800 1.76900 33.59500
H  29.12300 -1.73000 36.10100
H  27.87500 -0.82000 36.95600
H  29.45500 -0.46500 37.32000

