158

Mg 41.51200 42.17700 26.62900
C  40.72300 44.55200 29.17600
C  42.51400 40.01600 29.00600
C  42.26200 40.07300 24.25000
C  40.58100 44.55800 24.27900
N  41.76200 42.38000 28.85300
C  41.28900 43.41500 29.69600
C  41.47900 43.05400 31.18400
C  42.09100 41.59400 31.07500
C  42.15000 41.27400 29.60200
C  43.45400 41.31400 31.91100
C  40.15700 43.14700 32.00200
C  40.05000 42.37100 33.37300
H  39.58100 43.08400 34.75700
N  42.27000 40.26100 26.63300
C  42.58200 39.50000 27.72100
C  43.05900 38.29100 27.28100
C  43.05500 38.30900 25.90500
C  42.54900 39.58100 25.52400
C  43.54900 37.18800 28.20800
C  43.41000 37.22700 24.91400
O  43.19000 37.33600 23.74400
C  43.99500 36.02800 25.38400
N  41.46400 42.32100 24.60400
C  41.69800 41.26700 23.83400
C  41.43300 41.56500 22.29800
C  40.90100 42.99200 22.39900
C  40.93500 43.33800 23.85400
C  42.70400 41.43400 21.34500
C  39.50900 43.00800 21.77200
C  38.41800 42.21600 22.45700
N  40.86300 44.17800 26.64000
C  40.57800 45.02900 25.59000
C  40.14600 46.29700 26.06000
C  40.06400 46.15100 27.50000
C  40.59000 44.85000 27.79000
C  39.53700 47.38200 25.17300
C  39.69800 46.78200 28.76400
O  39.19300 47.87400 28.98100
C  40.12500 45.78200 29.85800
C  41.14500 46.49800 30.73900
O  42.28100 46.70700 30.31000
O  40.78000 46.53600 32.02300
C  41.84900 46.72900 33.01800
H  42.54600 39.25100 29.78500
H  42.48100 39.42600 23.39700
H  40.22600 45.30800 23.56800
H  42.19400 43.76500 31.59800
H  41.35200 40.92900 31.52200
H  43.77100 42.22300 32.42200
H  44.33500 40.96400 31.37300
H  43.23200 40.51500 32.61900
H  39.36600 42.89700 31.29600
H  40.07200 44.21200 32.21900
H  40.93900 41.78400 33.60300
H  39.24000 41.66800 33.17900
H  42.74000 36.45900 28.25100
H  43.71500 37.51300 29.23500
H  44.40900 36.66300 27.79100
H  44.98800 36.26600 25.76500
H  44.16900 35.33400 24.56200
H  43.31400 35.59800 26.11900
H  40.73800 40.72700 22.24000
H  41.53600 43.76800 21.97200
H  43.61800 41.37300 21.93600
H  42.69700 42.24800 20.62000
H  42.65300 40.47800 20.82300
H  39.70900 42.69900 20.74600
H  39.20900 44.05400 21.70600
H  38.67700 41.49300 23.23100
H  38.07300 41.56300 21.65600
H  37.61800 42.86100 22.82000
H  38.74000 47.85200 25.74900
H  39.05700 47.12200 24.22900
H  40.30100 48.11600 24.92100
H  39.26500 45.56000 30.49100
H  41.60400 47.71300 33.41800
H  42.86900 46.65700 32.64100
H  41.67300 45.98700 33.79700
Mg -1.14000 34.52400 26.36900
C  -3.23300 33.33900 28.74100
C  -0.12200 37.03600 28.68400
C  0.58500 35.93200 23.94700
C  -2.91100 32.62700 23.86000
N  -1.76000 35.12800 28.36300
C  -2.46200 34.38200 29.24500
C  -2.22300 34.66900 30.69600
C  -1.51700 36.11700 30.64300
C  -1.08100 36.10900 29.16600
C  -2.30700 37.37900 31.05400
C  -1.28800 33.55200 31.41600
C  -1.95500 32.84500 32.55600
H  -1.30400 32.94100 33.87100
N  0.20400 36.18200 26.32500
C  0.47600 37.12000 27.36200
C  1.41700 38.03400 26.83800
C  1.71600 37.62300 25.47900
C  0.82600 36.50300 25.16500
C  1.94000 39.07100 27.71300
C  2.76800 38.12600 24.50200
O  3.03500 37.56100 23.41900
C  3.52800 39.36800 24.87500
N  -1.05400 34.19800 24.16900
C  -0.11400 34.83200 23.44100
C  -0.05800 34.28900 22.00000
C  -1.04400 33.12300 22.06300
C  -1.70900 33.29800 23.39800
C  -0.46200 35.34900 20.89000
C  -0.43600 31.76900 21.74000
C  0.25900 31.07200 22.85500
N  -2.70800 33.18500 26.23000
C  -3.31500 32.41200 25.24900
C  -4.27900 31.50800 25.77700
C  -4.32700 31.83500 27.18200
C  -3.36900 32.92100 27.35600
C  -5.05100 30.53800 25.02200
C  -4.82800 31.41000 28.44800
O  -5.59600 30.56000 28.71600
C  -4.13200 32.34200 29.51700
C  -5.25000 33.01900 30.31400
O  -5.64400 34.15400 30.25900
O  -5.69800 32.05400 31.19000
C  -6.62600 32.37400 32.24300
H  0.27900 37.68500 29.46500
H  1.16300 36.17900 23.05400
H  -3.42100 32.05000 23.08600
H  -3.16300 34.79000 31.23300
H  -0.60700 36.11400 31.24300
H  -3.05100 36.97900 31.74300
H  -2.63100 38.00700 30.22400
H  -1.59300 38.06900 31.50400
H  -0.26900 33.78800 31.72000
H  -1.25900 32.81000 30.61800
H  -2.06900 31.80500 32.24900
H  -2.96600 33.23400 32.67500
H  1.32800 39.24500 28.59800
H  1.99300 40.01100 27.16400
H  2.93000 38.90800 28.13900
H  3.86200 39.46700 25.90700
H  2.86300 40.21700 24.71700
H  4.30200 39.60300 24.14400
H  0.92300 33.88900 21.74600
H  -1.94100 33.13100 21.44400
H  -1.34400 35.09700 20.30000
H  0.36100 35.47100 20.18500
H  -0.52300 36.33600 21.34800
H  0.33800 31.99300 21.00600
H  -1.22200 31.19300 21.25200
H  0.03100 31.63600 23.75900
H  1.32700 31.18400 22.66600
H  -0.03500 30.02800 22.96300
H  -4.86800 30.64800 23.95400
H  -6.09100 30.76400 25.25900
H  -4.99400 29.50800 25.37600
H  -3.50400 31.68800 30.12200
H  -7.50900 32.82700 31.79300
H  -6.24800 33.08900 32.97400
H  -6.95700 31.45300 32.72300

