158

Mg 9.40800 48.71800 26.02400
C  7.28500 48.61500 28.73900
C  11.93500 49.68100 27.98900
C  11.27300 48.68800 23.22500
C  6.60000 47.57100 24.09500
N  9.58700 49.14100 28.14700
C  8.59100 49.03100 29.12700
C  9.08900 49.40300 30.54100
C  10.64500 49.76900 30.21800
C  10.79900 49.41700 28.71900
C  10.93000 51.23700 30.53900
C  8.97400 48.21600 31.55900
C  9.61100 48.41000 32.94100
H  8.65400 48.56300 34.14300
N  11.33300 49.22600 25.62000
C  12.23400 49.45300 26.59800
C  13.53700 49.49100 25.99400
C  13.42100 49.19800 24.57700
C  11.96600 49.06600 24.38900
C  14.78400 49.82300 26.79500
C  14.50000 49.09700 23.53700
O  14.16100 48.92400 22.36800
C  15.94200 49.02200 23.82800
N  8.93700 48.33800 24.02500
C  9.93000 48.36400 22.98200
C  9.39900 47.97400 21.60900
C  8.02000 47.34900 22.02300
C  7.86800 47.67300 23.49500
C  9.42900 49.06100 20.56800
C  8.10500 45.83000 21.79900
C  8.71700 44.90400 22.83200
N  7.32700 48.18400 26.26700
C  6.36400 47.81800 25.41000
C  5.04700 47.74300 26.11000
C  5.35400 48.06200 27.45300
C  6.72400 48.35900 27.48100
C  3.80600 47.15700 25.60500
C  4.83200 48.23800 28.85700
O  3.74800 48.00500 29.39000
C  6.08100 48.40800 29.68100
C  6.15800 47.19900 30.46700
O  6.95800 46.35400 30.24200
O  5.40100 47.24200 31.66000
C  5.85200 46.28600 32.68600
H  12.79700 49.87100 28.63200
H  11.94900 48.48400 22.39200
H  5.72500 47.17400 23.57500
H  8.52900 50.22300 30.99000
H  11.18300 49.01000 30.78600
H  11.71600 51.47300 29.82300
H  11.27900 51.30900 31.56900
H  10.06400 51.89200 30.44500
H  9.29600 47.25800 31.14900
H  7.89800 48.18000 31.72900
H  10.07100 49.39300 32.83500
H  10.33900 47.60900 33.06600
H  14.51000 50.33400 27.71800
H  15.51200 50.46300 26.29600
H  15.29000 48.87200 26.95900
H  16.16800 48.25800 24.57200
H  16.32000 50.01900 24.05300
H  16.35100 48.55100 22.93400
H  10.17400 47.30700 21.23300
H  7.24600 47.81800 21.41500
H  9.88500 49.95400 20.99500
H  8.42000 49.31900 20.24800
H  10.07300 48.85200 19.71400
H  8.68900 45.55900 20.91900
H  7.09800 45.53700 21.50100
H  7.90200 44.26800 23.17700
H  9.09800 45.36800 23.74100
H  9.34500 44.16600 22.33200
H  3.70700 46.11500 25.91100
H  3.81100 47.23600 24.51800
H  2.97300 47.72600 26.01700
H  5.93500 49.27700 30.32200
H  6.92100 46.47900 32.76900
H  5.55700 45.25900 32.47200
H  5.42600 46.62100 33.63200
Mg -1.16900 33.98600 26.55800
C  -3.11800 32.16500 28.86200
C  0.12500 35.80100 29.16000
C  0.27000 36.05700 24.38500
C  -2.86900 32.41000 23.94000
N  -1.67500 34.08900 28.83800
C  -2.28300 33.10200 29.59500
C  -2.08500 33.29100 31.08500
C  -1.05500 34.46000 31.02900
C  -0.87600 34.86900 29.58200
C  -1.40900 35.67300 31.87300
C  -1.63700 32.02600 31.85500
C  -2.63300 31.59700 33.05300
H  -1.97600 30.95600 34.30000
N  0.26100 35.51800 26.76100
C  0.62700 36.12200 27.89900
C  1.66900 37.08000 27.56300
C  1.58900 37.26100 26.15600
C  0.68800 36.24800 25.68800
C  2.44500 37.96500 28.53800
C  2.36200 38.24700 25.33100
O  2.21700 38.33200 24.13500
C  3.39400 39.14600 25.87800
N  -1.46400 34.32500 24.41700
C  -0.64700 35.18500 23.75800
C  -0.87700 35.10300 22.25300
C  -1.79800 33.86900 22.11500
C  -2.00600 33.45200 23.56400
C  -1.40800 36.37400 21.54500
C  -1.25500 32.80900 21.16800
C  0.09800 32.20000 21.45100
N  -2.73600 32.57300 26.42200
C  -3.30400 32.02800 25.27700
C  -4.23600 30.95300 25.64500
C  -4.18200 30.90500 27.07200
C  -3.25200 31.91500 27.46800
C  -5.04800 30.16700 24.53600
C  -4.71800 30.23100 28.32800
O  -5.44600 29.29000 28.42300
C  -4.09500 31.14600 29.51000
C  -5.28000 31.69200 30.21700
O  -6.02600 32.56800 29.78100
O  -5.40700 31.01600 31.42100
C  -6.45500 31.54400 32.34200
H  0.72100 36.09500 30.02700
H  0.82700 36.62200 23.63400
H  -3.21500 31.86400 23.06000
H  -2.99000 33.73800 31.49800
H  -0.08200 34.09600 31.35900
H  -1.80600 35.48100 32.86900
H  -2.12700 36.24100 31.28200
H  -0.60200 36.40300 31.94300
H  -0.67200 32.29600 32.28300
H  -1.50200 31.19100 31.16700
H  -3.09600 30.72300 32.59600
H  -3.33400 32.37000 33.36900
H  2.39500 37.59500 29.56200
H  2.09800 38.99500 28.46300
H  3.50900 37.90000 28.31200
H  3.94000 39.60400 25.05300
H  4.07900 38.48700 26.41100
H  3.07400 39.94800 26.54200
H  0.02700 34.70800 21.78800
H  -2.82600 34.15600 21.89600
H  -1.37200 36.40500 20.45600
H  -0.79100 37.21300 21.86600
H  -2.38100 36.64900 21.95400
H  -1.20100 33.30200 20.19600
H  -2.01900 32.04700 21.01700
H  -0.03600 31.12400 21.33600
H  0.35000 32.46300 22.47800
H  0.92300 32.57600 20.84500
H  -4.42300 29.51500 23.92600
H  -5.54000 30.86300 23.85600
H  -5.77700 29.47700 24.96100
H  -3.63900 30.50400 30.26300
H  -6.22100 32.58400 32.57000
H  -6.51800 30.94700 33.25200
H  -7.40900 31.58200 31.81700

