158

Mg -12.18400 38.72000 41.36700
C  -9.86600 36.08900 40.58200
C  -9.89700 40.94800 39.69200
C  -14.47700 41.17300 41.29800
C  -14.51500 36.47500 42.18800
N  -10.09900 38.45700 40.14600
C  -9.38500 37.31600 40.04300
C  -8.12300 37.51700 39.17500
C  -8.08600 39.08900 39.00800
C  -9.45600 39.58500 39.66300
C  -6.79600 39.80600 39.55100
C  -8.15400 36.80100 37.78400
C  -7.00600 35.89200 37.42300
H  -5.90600 36.51000 36.56400
N  -12.12900 40.84700 40.79800
C  -11.04900 41.51300 40.24700
C  -11.44100 42.89100 40.02000
C  -12.79700 43.01500 40.38600
C  -13.22900 41.66200 40.85000
C  -10.54300 43.92800 39.33100
C  -13.63800 44.29600 40.36500
O  -13.05400 45.28500 40.00700
C  -15.09900 44.41400 40.76000
N  -14.12700 38.80000 41.65300
C  -14.83700 39.91400 41.73300
C  -16.23100 39.67600 42.26000
C  -16.30100 38.15100 42.28100
C  -14.90300 37.77800 42.08000
C  -16.48600 40.51300 43.48800
C  -17.30100 37.46900 41.34300
C  -18.15100 36.29700 41.94700
N  -12.16000 36.74100 41.54100
C  -13.21800 35.92100 41.92700
C  -12.75700 34.61400 42.15100
C  -11.45400 34.66900 41.55800
C  -11.14100 35.99200 41.20700
C  -13.47700 33.48700 42.81100
C  -10.30700 33.82500 41.26800
O  -10.11700 32.61200 41.53200
C  -9.28900 34.72400 40.65600
C  -7.98600 34.47800 41.42300
O  -7.27000 33.52900 41.27200
O  -7.77100 35.45100 42.37100
C  -6.73100 35.09000 43.26100
H  -9.24700 41.58400 39.08700
H  -15.33300 41.85000 41.30700
H  -15.34000 35.79200 42.40100
H  -7.29600 37.16500 39.79200
H  -8.17500 39.38300 37.96300
H  -6.23600 39.12700 40.19300
H  -6.92700 40.72000 40.13100
H  -6.09800 40.11200 38.77100
H  -8.42000 37.44500 36.94500
H  -8.98900 36.11900 37.93800
H  -7.22800 34.97300 36.88100
H  -6.51400 35.65100 38.36500
H  -11.07900 44.65900 38.72500
H  -9.81100 43.39200 38.72700
H  -9.87100 44.29200 40.10900
H  -15.41300 45.45300 40.65400
H  -15.27900 44.26100 41.82400
H  -15.84900 43.80900 40.25000
H  -16.92700 39.93900 41.46400
H  -16.62200 37.90500 43.29300
H  -15.62400 41.16600 43.62800
H  -16.60100 39.95600 44.41700
H  -17.35600 41.13400 43.27300
H  -16.65900 37.13700 40.52800
H  -17.92000 38.23400 40.87500
H  -19.13200 36.27800 41.47200
H  -18.28000 36.45900 43.01700
H  -17.65700 35.34000 41.78300
H  -12.71700 32.84300 43.25400
H  -14.14000 33.07400 42.05100
H  -13.94700 33.98100 43.66100
H  -9.10500 34.46200 39.61400
H  -5.81200 34.91300 42.70100
H  -6.91400 34.17400 43.82200
H  -6.65400 35.90100 43.98500
Mg -6.13400 25.16400 25.42500
C  -4.79500 26.54900 28.25900
C  -8.11800 23.12800 27.31400
C  -7.03600 23.53300 22.54300
C  -4.01300 27.27700 23.44300
N  -6.17500 24.67100 27.52500
C  -5.66900 25.53000 28.51400
C  -6.38400 25.18500 29.90400
C  -7.22600 23.91600 29.55400
C  -7.18900 23.88800 28.08900
C  -6.65100 22.58100 30.18400
C  -7.19500 26.36200 30.45900
C  -6.93300 26.64600 32.01100
H  -6.40600 25.52400 32.88800
N  -7.51500 23.75700 24.98300
C  -8.24600 22.93500 25.87700
C  -9.26600 22.22000 25.11000
C  -8.92300 22.32000 23.69300
C  -7.71800 23.21800 23.73500
C  -10.42100 21.53500 25.80700
C  -9.54400 21.58600 22.47800
O  -9.10200 21.59600 21.34400
C  -10.82300 20.82300 22.50000
N  -5.60500 25.33600 23.23700
C  -6.11400 24.52500 22.24700
C  -5.44300 24.88900 20.93800
C  -4.50500 26.05000 21.22300
C  -4.75000 26.30700 22.68800
C  -4.72100 23.65400 20.32100
C  -4.75900 27.30800 20.29000
C  -3.62600 27.62700 19.36200
N  -4.64900 26.57600 25.73200
C  -3.97700 27.47300 24.89400
C  -3.20600 28.37500 25.68800
C  -3.53900 28.13600 26.99800
C  -4.35400 26.95900 26.97500
C  -2.34100 29.44700 25.10200
C  -3.23700 28.54000 28.35900
O  -2.50000 29.42600 28.79200
C  -4.08300 27.51500 29.20100
C  -3.01700 26.92400 30.04200
O  -2.15700 26.12700 29.66800
O  -3.13000 27.36700 31.30300
C  -2.13900 26.80200 32.19300
H  -8.98200 22.71400 27.83800
H  -7.34800 22.99000 21.64900
H  -3.50400 28.01900 22.82500
H  -5.56600 24.94500 30.58400
H  -8.26000 23.89300 29.89700
H  -6.04200 22.21500 29.35700
H  -7.34600 21.81100 30.51800
H  -6.10800 22.75800 31.11200
H  -8.23400 26.11200 30.24200
H  -7.15600 27.26400 29.84700
H  -7.83300 26.96300 32.53800
H  -6.12200 27.36200 32.14700
H  -11.10000 21.07900 25.08700
H  -11.01200 22.28800 26.32900
H  -10.13300 20.76500 26.52300
H  -10.78700 20.05000 23.26700
H  -11.03800 20.32900 21.55200
H  -11.64000 21.48100 22.79500
H  -6.24700 25.19200 20.26700
H  -3.45800 25.75800 21.14300
H  -5.28200 23.27700 19.46600
H  -4.56800 22.85200 21.04200
H  -3.74500 23.92200 19.91500
H  -5.10500 28.05500 21.00300
H  -5.51400 26.89700 19.62000
H  -3.27000 28.53400 19.85000
H  -4.08200 27.88500 18.40700
H  -2.89600 26.81900 19.40500
H  -2.85300 29.95900 24.28800
H  -1.34600 29.07700 24.85400
H  -2.14100 30.20300 25.86200
H  -4.70100 28.07200 29.90600
H  -1.17200 26.61600 31.72400
H  -2.51600 25.90700 32.68700
H  -1.98400 27.53400 32.98600

