158

Mg 44.00500 4.69700 47.38600
C  42.09500 7.57400 47.36700
C  41.13800 2.74500 47.17900
C  45.96100 1.89700 46.66900
C  46.85800 6.60400 47.46700
N  41.85000 5.18700 47.07500
C  41.33000 6.39900 47.32400
C  39.77900 6.30500 47.58600
C  39.54500 4.73700 47.68500
C  40.89700 4.14700 47.33000
C  38.86200 4.37900 49.06300
C  38.94400 7.00900 46.46600
C  39.23000 6.58300 45.01400
H  39.11300 7.63000 43.92900
N  43.57600 2.60000 46.98000
C  42.31100 2.05100 47.05800
C  42.40100 0.61500 46.81200
C  43.77200 0.39000 46.48200
C  44.51400 1.65300 46.64200
C  41.19200 -0.39500 47.03700
C  44.44400 -1.00600 45.98400
O  43.72200 -2.00100 45.90900
C  45.91900 -1.19300 45.48500
N  46.10400 4.25400 47.03400
C  46.69500 3.05600 46.86500
C  48.23100 3.05200 46.93600
C  48.42100 4.58500 47.25700
C  47.02300 5.23400 47.24900
C  48.93700 1.97900 47.75700
C  49.36300 5.24300 46.23200
C  50.83100 5.42400 46.65600
N  44.48600 6.68200 47.40200
C  45.65800 7.35100 47.44900
C  45.37600 8.76700 47.46700
C  44.04200 8.87800 47.47700
C  43.51800 7.60800 47.36600
C  46.40500 9.84300 47.40900
C  42.96700 9.84500 47.34800
O  42.99400 11.05800 47.13000
C  41.62500 8.94200 47.32800
C  40.89100 9.29400 48.53100
O  40.95400 8.70700 49.58200
O  40.14900 10.45700 48.33900
C  39.40400 10.95700 49.47500
H  40.20300 2.18200 47.21200
H  46.66400 1.11300 46.38000
H  47.77100 7.18500 47.61300
H  39.59500 6.77900 48.55000
H  38.90100 4.36900 46.88700
H  38.55900 5.27800 49.60000
H  39.39900 3.72100 49.74600
H  37.91900 3.92700 48.75500
H  38.90200 8.09800 46.46200
H  37.91600 6.75400 46.72400
H  38.60600 5.72200 44.77200
H  40.25100 6.21300 44.91800
H  40.21500 0.06200 47.19100
H  41.49300 -0.90800 47.95100
H  41.12100 -0.90000 46.07400
H  46.68300 -1.18300 46.26200
H  46.09500 -0.35500 44.80900
H  46.04600 -2.14100 44.96200
H  48.49200 2.93200 45.88400
H  48.83200 4.57500 48.26700
H  48.25200 1.29200 48.25300
H  49.47500 2.52500 48.53300
H  49.53300 1.32400 47.12300
H  48.98300 6.25700 46.11400
H  49.40200 4.77600 45.24800
H  51.11800 5.03400 47.63300
H  50.83800 6.49500 46.85800
H  51.52000 5.17100 45.85000
H  47.43100 9.48700 47.31500
H  46.33600 10.50000 48.27600
H  46.24400 10.39600 46.48300
H  40.95000 9.22600 46.52100
H  38.57700 11.61700 49.21200
H  40.04700 11.34100 50.26700
H  38.82600 10.11000 49.84400
Mg 48.21200 36.38600 28.52600
C  46.03200 34.80700 30.54400
C  48.36900 38.97500 30.72200
C  49.78900 38.30900 26.05200
C  47.92200 33.77800 26.09600
N  47.39300 36.73400 30.46500
C  46.58800 35.90300 31.15400
C  46.54600 36.31000 32.61500
C  46.92100 37.85700 32.52900
C  47.64000 37.86100 31.16600
C  45.68100 38.75700 32.47900
C  47.43600 35.41200 33.55500
C  48.88500 35.93600 33.72500
H  49.29800 36.20400 35.16300
N  49.17700 38.26800 28.54200
C  49.09200 39.19600 29.52500
C  49.72600 40.41800 29.16900
C  50.29100 40.17600 27.86600
C  49.77200 38.82400 27.43400
C  49.79300 41.60500 29.98100
C  51.13100 41.17900 26.96900
O  51.56600 40.83800 25.89300
C  51.40200 42.59500 27.48200
N  48.80100 36.07500 26.36200
C  49.34300 37.05500 25.59700
C  49.60500 36.59100 24.16200
C  49.08800 35.06500 24.21700
C  48.56700 34.89800 25.69600
C  48.75400 37.36500 23.12700
C  49.98800 33.96300 23.77000
C  50.87800 34.12200 22.54800
N  47.21800 34.63700 28.28000
C  47.20300 33.59200 27.30600
C  46.24200 32.57800 27.75400
C  45.77700 33.01900 28.98900
C  46.31900 34.26200 29.25900
C  45.73800 31.42400 27.00200
C  44.79300 32.75600 30.06000
O  44.02700 31.84800 30.07100
C  44.95000 33.88300 31.13800
C  45.18900 33.22200 32.41800
O  46.03900 32.33700 32.58000
O  44.36900 33.75800 33.37200
C  44.64400 33.10800 34.66000
H  48.20100 39.81200 31.40300
H  50.32500 38.76500 25.21700
H  47.97300 32.89200 25.46100
H  45.57900 36.18900 33.10300
H  47.55800 38.13000 33.37000
H  45.41900 39.00200 33.50900
H  44.90700 38.27000 31.88600
H  45.88300 39.66200 31.90700
H  47.44900 34.40700 33.13400
H  46.87600 35.24500 34.47500
H  49.14200 36.83000 33.15700
H  49.47100 35.10400 33.33400
H  49.16400 42.34500 29.48600
H  50.82400 41.93400 30.10900
H  49.41600 41.43300 30.98900
H  50.47400 43.10100 27.74900
H  51.90500 43.23400 26.75600
H  52.00300 42.40700 28.37200
H  50.60200 36.66200 23.72700
H  48.11300 35.03500 23.73000
H  48.01000 37.95400 23.66500
H  48.17200 36.89000 22.33800
H  49.40600 38.15800 22.76000
H  49.45300 33.01300 23.77400
H  50.64500 33.79700 24.62400
H  50.72200 33.26200 21.89700
H  51.95900 34.09900 22.68200
H  50.59400 35.04100 22.03500
H  45.48000 31.66100 25.97000
H  44.87300 31.03200 27.53800
H  46.53000 30.67600 26.97300
H  44.00700 34.40200 31.31000
H  45.67500 33.17500 35.00800
H  44.54200 32.05200 34.41000
H  43.82700 33.25500 35.36700

