158

Mg 54.75600 24.42900 44.70200
C  52.41200 26.91600 43.78400
C  52.44100 22.07000 43.87800
C  57.19300 22.31700 44.10700
C  56.99400 27.02900 45.48200
N  52.66600 24.43400 43.71300
C  51.92200 25.58900 43.59500
C  50.51800 25.17000 43.27700
C  50.42400 23.72700 43.83000
C  51.96600 23.34800 43.80400
C  49.73400 23.49100 45.27500
C  50.28700 25.15700 41.75100
C  48.76500 25.14600 41.33600
H  48.41000 24.88400 39.81800
N  54.77100 22.48800 44.11200
C  53.72300 21.62400 43.88800
C  54.14800 20.22800 43.79800
C  55.57500 20.30700 43.84800
C  55.92200 21.75100 43.98300
C  53.15800 18.99000 43.61600
C  56.50500 19.14100 43.78500
O  56.08200 17.98500 43.59400
C  58.04800 19.26200 43.83000
N  56.89000 24.73100 44.53500
C  57.67400 23.59900 44.40100
C  59.03600 23.82600 45.02800
C  59.04700 25.44000 45.24500
C  57.55000 25.75900 45.13200
C  59.25800 23.10200 46.32800
C  59.95800 26.16800 44.22200
C  59.30300 26.59300 42.83600
N  54.69500 26.55700 44.85800
C  55.68700 27.40300 45.20400
C  55.12600 28.72700 45.18000
C  53.87900 28.61800 44.64300
C  53.67400 27.23900 44.40500
C  55.88900 29.92600 45.46500
C  52.69200 29.34300 44.28000
O  52.34300 30.52400 44.32200
C  51.72100 28.25900 43.62900
C  51.33900 28.56000 42.22400
O  52.08900 28.64600 41.27300
O  49.94700 28.78200 42.11600
C  49.43100 29.09600 40.77000
H  51.71200 21.25800 43.83900
H  58.04500 21.63400 44.13300
H  57.74700 27.76800 45.76500
H  49.89600 25.84200 43.86800
H  49.91600 23.10400 43.09400
H  50.49100 23.54400 46.05700
H  49.22600 22.53100 45.36800
H  49.06100 24.28200 45.60600
H  50.81100 24.34000 41.25400
H  50.66500 26.11100 41.38500
H  48.28300 26.08800 41.59800
H  48.33000 24.29000 41.85300
H  53.68400 18.21500 43.05800
H  52.22300 19.21100 43.10000
H  52.85400 18.58600 44.58100
H  58.44000 19.82000 42.97900
H  58.51400 18.27900 43.88900
H  58.40300 19.61900 44.79700
H  59.78900 23.51600 44.30400
H  59.35900 25.70200 46.25600
H  60.07300 22.39700 46.16200
H  58.31000 22.70300 46.68900
H  59.66500 23.71900 47.12900
H  60.81900 25.53700 44.00100
H  60.35900 27.05100 44.71900
H  58.30500 26.17400 42.70400
H  59.84900 25.99900 42.10200
H  59.32900 27.68000 42.76200
H  55.35100 30.87000 45.55600
H  56.81000 29.92700 44.88100
H  56.28600 29.74500 46.46300
H  50.81600 28.36500 44.22700
H  48.53600 29.67200 41.00500
H  49.16800 28.14100 40.31300
H  50.03300 29.73600 40.12400
Mg -4.83500 25.40300 26.47700
C  -3.41300 26.79800 29.32300
C  -7.05200 23.62800 28.48800
C  -5.86700 23.95600 23.72400
C  -2.62800 27.43900 24.58000
N  -5.12000 25.21000 28.65500
C  -4.41900 25.83500 29.68800
C  -5.03700 25.48900 31.09100
C  -5.84400 24.22700 30.65900
C  -6.04800 24.37500 29.18400
C  -5.22200 22.83600 31.07900
C  -5.92700 26.59500 31.67000
C  -6.01800 26.54700 33.27900
H  -5.50500 25.26100 33.98300
N  -6.31600 23.98700 26.11700
C  -7.13000 23.45300 27.08200
C  -8.08200 22.54700 26.38500
C  -7.69600 22.62000 24.99500
C  -6.55900 23.48500 24.88500
C  -9.16400 21.87500 27.14000
C  -8.32300 21.95900 23.79600
O  -7.82100 21.97500 22.71700
C  -9.56700 21.16600 24.01200
N  -4.29200 25.65800 24.43400
C  -4.87900 24.92000 23.49500
C  -4.50900 25.42300 22.07500
C  -3.56600 26.65000 22.27600
C  -3.51700 26.59600 23.86100
C  -4.06800 24.32400 21.18900
C  -4.23000 27.99400 21.80200
C  -3.50000 28.49600 20.52000
N  -3.31500 26.78600 26.83300
C  -2.52500 27.52500 26.01100
C  -1.69400 28.42600 26.75000
C  -1.91800 28.09800 28.07600
C  -2.93400 27.19500 28.05300
C  -0.73400 29.36100 26.15100
C  -1.51800 28.38400 29.41600
O  -0.63500 29.15000 29.83300
C  -2.39800 27.48900 30.30300
C  -1.67700 26.53700 31.24200
O  -1.15400 25.50100 30.94900
O  -1.85000 27.10800 32.49400
C  -1.37100 26.49600 33.71600
H  -7.73500 23.09200 29.15100
H  -6.24000 23.67700 22.73600
H  -2.03500 28.20000 24.06900
H  -4.16000 25.18500 31.66400
H  -6.83300 24.26400 31.11600
H  -5.96100 22.16300 31.51400
H  -4.41700 23.04900 31.78300
H  -4.67700 22.31500 30.29200
H  -6.89400 26.48100 31.18000
H  -5.58200 27.53400 31.23800
H  -7.06500 26.74100 33.51200
H  -5.34700 27.33200 33.62700
H  -9.19400 20.80400 26.93900
H  -10.19500 22.12400 26.89100
H  -9.02900 21.93300 28.22000
H  -9.26400 20.25000 24.52000
H  -10.04300 21.05900 23.03800
H  -10.28900 21.77100 24.56100
H  -5.46500 25.76000 21.67300
H  -2.66100 26.35700 21.74300
H  -3.36400 24.70000 20.44600
H  -4.96100 23.98200 20.66600
H  -3.71800 23.60300 21.92900
H  -4.02800 28.84500 22.45300
H  -5.31400 27.90800 21.72000
H  -4.22000 28.67000 19.72000
H  -2.76800 27.75600 20.19300
H  -2.93000 29.42400 20.55000
H  -0.17100 28.86800 25.35900
H  0.01800 29.71900 26.85500
H  -1.22200 30.20200 25.65900
H  -2.80300 28.28000 30.93400
H  -1.00100 25.48600 33.54300
H  -2.14200 26.52800 34.48500
H  -0.43900 27.01300 33.94800

