158

Mg 36.01900 2.65000 30.07700
C  33.75800 3.49300 32.63900
C  38.38600 2.05400 32.52400
C  38.05900 1.86000 27.61000
C  33.31800 2.99500 27.83300
N  36.01500 2.70600 32.25700
C  35.06700 3.11600 33.11700
C  35.47400 3.14700 34.56800
C  36.99300 3.05400 34.37200
C  37.16900 2.50300 32.94800
C  37.69300 4.44500 34.54400
C  34.79000 1.97400 35.33100
C  34.26300 2.25000 36.71300
H  34.82600 3.47600 37.40700
N  37.96400 2.08000 30.05600
C  38.71700 1.75200 31.18800
C  39.99400 1.24700 30.73800
C  39.96000 1.18900 29.29100
C  38.65800 1.80400 28.90200
C  41.14500 0.82100 31.65500
C  40.95300 0.57200 28.31200
O  40.74200 0.49400 27.09800
C  42.27400 -0.01200 28.77100
N  35.78400 2.60700 28.03700
C  36.77900 2.16400 27.23900
C  36.37700 2.11400 25.82100
C  34.87800 2.40500 25.88900
C  34.63300 2.68000 27.36600
C  37.25800 2.95500 24.85500
C  33.95300 1.40100 25.17100
C  33.61700 0.11300 25.96000
N  33.92400 3.00600 30.15900
C  32.96200 3.20500 29.20900
C  31.70500 3.58800 29.75800
C  32.01700 3.72200 31.10900
C  33.34300 3.39600 31.28800
C  30.53500 4.08400 29.13300
C  31.41600 4.05600 32.33700
O  30.28900 4.34600 32.62300
C  32.48900 3.82900 33.42600
C  32.57100 5.13200 34.15700
O  32.93000 6.25900 33.83800
O  32.18000 4.92400 35.44200
C  31.89200 5.99100 36.38800
H  39.03000 1.78100 33.36200
H  38.67100 1.36900 26.85100
H  32.56400 3.12700 27.05500
H  35.10900 4.08600 34.98300
H  37.46500 2.47800 35.16800
H  38.56200 4.32600 35.19200
H  36.98800 5.17000 34.95000
H  37.91700 4.88700 33.57400
H  35.49200 1.14100 35.28700
H  33.94300 1.60700 34.75100
H  34.53900 1.42200 37.36500
H  33.18300 2.11400 36.76300
H  42.08400 1.28700 31.35800
H  41.17800 -0.26900 31.65100
H  40.88100 1.21600 32.63600
H  42.75900 -0.31900 27.84500
H  42.15300 -0.89400 29.40000
H  42.96500 0.72300 29.18600
H  36.46200 1.04000 25.65000
H  34.70800 3.34400 25.36200
H  38.33500 2.97200 25.02500
H  36.89100 3.97600 24.95500
H  37.21100 2.50700 23.86300
H  34.37300 1.14900 24.19700
H  33.05600 2.00800 25.05100
H  33.76600 -0.70200 25.25100
H  32.56700 0.09700 26.25000
H  34.34800 -0.06600 26.74800
H  30.44600 4.28500 28.06600
H  30.25900 4.95200 29.73200
H  29.84500 3.25100 29.26700
H  32.15900 3.04700 34.11100
H  30.89400 5.77000 36.76700
H  31.91800 7.03200 36.06600
H  32.52700 5.79500 37.25100
Mg -6.44700 25.80700 25.57500
C  -4.45400 27.04600 28.11200
C  -7.65000 23.47500 27.77400
C  -8.03400 24.37200 22.95900
C  -4.80500 28.03100 23.31000
N  -6.14100 25.41300 27.68700
C  -5.30300 26.08500 28.54200
C  -5.56100 25.56000 29.98400
C  -6.26100 24.16300 29.80400
C  -6.74700 24.34000 28.33600
C  -5.36000 22.87300 29.98400
C  -6.41000 26.60600 30.79300
C  -6.28300 26.53500 32.37400
H  -5.67900 25.30400 33.09200
N  -7.77100 24.15000 25.39700
C  -8.10900 23.32800 26.43900
C  -9.03800 22.30700 25.94300
C  -9.17200 22.54700 24.51800
C  -8.25600 23.66400 24.20800
C  -9.78600 21.40300 26.91100
C  -9.98900 21.88000 23.41800
O  -10.03100 22.21500 22.24100
C  -10.96800 20.72900 23.78900
N  -6.32400 26.11600 23.47600
C  -7.20100 25.45200 22.59900
C  -6.85900 25.83000 21.15900
C  -6.20000 27.20500 21.32800
C  -5.72400 27.14300 22.79900
C  -6.00900 24.73700 20.31500
C  -7.28200 28.39700 21.27400
C  -7.50500 29.03300 19.88500
N  -4.91100 27.19800 25.66200
C  -4.36000 28.07500 24.67000
C  -3.37900 28.94200 25.30400
C  -3.40100 28.53800 26.62200
C  -4.32100 27.48400 26.79000
C  -2.62300 30.02100 24.64800
C  -2.78500 28.84600 27.92700
O  -1.86900 29.61800 28.13800
C  -3.52100 27.94100 29.00000
C  -2.56900 27.23800 29.84800
O  -1.74400 26.48900 29.34900
O  -2.74500 27.55400 31.11200
C  -1.89700 26.81800 32.01600
H  -7.82000 22.72500 28.54900
H  -8.46400 23.96500 22.04100
H  -4.63000 28.85000 22.60900
H  -4.66200 25.37400 30.57200
H  -7.00000 24.22200 30.60300
H  -5.22300 22.52100 28.96100
H  -6.04500 22.20200 30.50200
H  -4.40400 23.07000 30.47000
H  -7.40800 26.34000 30.44600
H  -6.23700 27.62300 30.44100
H  -7.31100 26.51700 32.73500
H  -5.94700 27.46300 32.83700
H  -9.21400 21.35500 27.83700
H  -10.04300 20.46600 26.41600
H  -10.76000 21.87500 27.03700
H  -11.64900 20.66100 22.94000
H  -11.46300 21.04100 24.70800
H  -10.45100 19.80800 24.05800
H  -7.75200 25.89000 20.53600
H  -5.46300 27.34600 20.53700
H  -5.11500 25.22500 19.92600
H  -6.46600 24.35200 19.40300
H  -5.84900 23.78500 20.82100
H  -6.86000 29.21300 21.86100
H  -8.27100 28.14200 21.65500
H  -6.88200 29.91300 19.72500
H  -8.55500 29.32600 19.85800
H  -7.41300 28.34200 19.04700
H  -3.29000 30.77200 24.22400
H  -2.24800 29.45800 23.79300
H  -1.81500 30.44300 25.24500
H  -4.12400 28.66500 29.54700
H  -2.33000 25.95600 32.52300
H  -1.81400 27.48900 32.87100
H  -0.86300 26.61900 31.73400

