158

Mg 35.90500 1.93400 29.58200
C  33.72500 3.19700 32.10100
C  38.45800 2.22200 31.82600
C  37.96000 0.97500 27.10100
C  33.39800 2.47300 27.37100
N  36.01400 2.56300 31.72500
C  34.99400 2.91900 32.56700
C  35.43000 3.03500 34.03800
C  36.99800 2.89400 33.93500
C  37.21600 2.48300 32.42500
C  37.86000 4.16900 34.37600
C  34.77900 1.88300 34.94200
C  34.11200 2.39700 36.18400
H  34.81300 3.36900 37.13800
N  37.93700 1.75800 29.41300
C  38.77500 1.85500 30.45000
C  40.13800 1.57300 29.94600
C  39.99200 1.04800 28.58400
C  38.57600 1.23800 28.29600
C  41.36800 1.54900 30.76200
C  41.07700 0.58500 27.63000
O  40.84200 0.47300 26.42700
C  42.46100 0.33200 28.18000
N  35.65000 1.45600 27.61900
C  36.65200 1.18200 26.73500
C  36.18600 1.06800 25.27400
C  34.67400 1.57200 25.41900
C  34.52100 1.75300 26.90600
C  36.99500 1.96100 24.33100
C  33.58800 0.71100 24.85500
C  33.40500 -0.70800 25.48700
N  33.90200 2.52200 29.70600
C  33.06100 2.78900 28.70800
C  31.82900 3.40300 29.14600
C  31.98500 3.49900 30.52900
C  33.29100 3.04700 30.77200
C  30.53100 3.68900 28.29100
C  31.36100 3.92100 31.72700
O  30.31600 4.48900 31.91400
C  32.45400 3.65800 32.82600
C  32.65600 5.00300 33.43700
O  33.21500 5.94200 32.94200
O  32.01100 5.03800 34.63300
C  31.89200 6.27700 35.33400
H  39.26900 2.35000 32.54600
H  38.67800 0.66400 26.34000
H  32.69800 2.74700 26.57800
H  35.09600 4.01800 34.36800
H  37.37300 2.08500 34.56300
H  38.60100 3.94700 35.14300
H  37.23400 4.97700 34.75500
H  38.39400 4.66800 33.56700
H  35.50700 1.16700 35.32300
H  33.97800 1.34500 34.43500
H  33.78300 1.51200 36.72800
H  33.17200 2.84200 35.85500
H  41.25900 1.86700 31.79900
H  41.99300 2.35100 30.37100
H  41.84000 0.56700 30.76000
H  42.80700 1.17800 28.77400
H  43.17100 0.18900 27.36500
H  42.43900 -0.61400 28.72100
H  36.16500 0.06700 24.84400
H  34.59300 2.56100 24.96800
H  36.81100 1.56900 23.33100
H  38.05300 1.93300 24.59200
H  36.66300 2.99600 24.41500
H  33.83200 0.52600 23.80900
H  32.65600 1.27500 24.85600
H  33.60700 -1.30000 24.59400
H  32.37100 -0.75700 25.82800
H  34.06400 -0.91200 26.33100
H  30.23600 4.70500 28.02600
H  29.65000 3.29100 28.79400
H  30.68600 3.18200 27.33900
H  32.02700 3.00900 33.59100
H  31.57100 6.10400 36.36200
H  31.19900 6.93400 34.80900
H  32.85900 6.76200 35.46200
Mg -2.53500 34.91200 27.01900
C  -3.95600 32.60300 29.27000
C  -1.17700 36.53700 29.81400
C  -1.65900 37.47000 25.12300
C  -4.84400 33.76200 24.65400
N  -2.48800 34.56600 29.24400
C  -3.12400 33.49900 29.93800
C  -2.82700 33.52200 31.42500
C  -2.12500 34.89700 31.53700
C  -1.92900 35.40000 30.12500
C  -2.82200 35.88800 32.44300
C  -1.89400 32.34600 31.86600
C  -2.30400 31.41800 32.98600
H  -1.73400 31.68100 34.46300
N  -1.41300 36.62800 27.35100
C  -0.83500 37.06900 28.56900
C  -0.04700 38.24400 28.23900
C  -0.09500 38.38100 26.84400
C  -1.05400 37.50800 26.38900
C  0.78700 39.02000 29.21500
C  0.67400 39.34000 25.89200
O  0.55800 39.33200 24.67800
C  1.69400 40.27900 26.41400
N  -3.15200 35.52700 25.16000
C  -2.62300 36.59500 24.58700
C  -3.26700 36.84700 23.18800
C  -4.23000 35.58300 23.01400
C  -4.06600 34.85500 24.34500
C  -4.08400 38.17500 23.12800
C  -4.03800 34.73700 21.70600
C  -2.57100 34.16500 21.65700
N  -3.96800 33.41800 26.91300
C  -4.83200 33.06600 25.88700
C  -5.52700 31.83400 26.27400
C  -5.29500 31.72400 27.62100
C  -4.34800 32.68000 27.94100
C  -6.44200 31.12000 25.45600
C  -5.62100 30.97300 28.76400
O  -6.27500 29.90700 28.89900
C  -4.91000 31.67900 29.98600
C  -5.82900 32.34500 30.84000
O  -6.67900 33.20900 30.47700
O  -5.68200 31.98200 32.17800
C  -6.42400 32.84400 33.10500
H  -0.82400 37.10300 30.67800
H  -1.55700 38.46300 24.68000
H  -5.47600 33.26100 23.91700
H  -3.75900 33.62700 31.98100
H  -1.12700 34.84000 31.97300
H  -3.86500 35.57100 32.44000
H  -2.89100 36.87300 31.97900
H  -2.45400 35.94600 33.46700
H  -0.90300 32.72600 32.11200
H  -1.70100 31.72600 30.98900
H  -1.98200 30.40300 32.75500
H  -3.37800 31.52800 33.13500
H  0.52400 40.06200 29.39600
H  1.82400 38.90100 28.89900
H  0.77800 38.56500 30.20500
H  2.19700 40.82600 25.61600
H  2.51000 39.68600 26.82800
H  1.33800 41.00200 27.14700
H  -2.47900 36.99300 22.44900
H  -5.31100 35.71900 23.04100
H  -5.14900 37.94700 23.12300
H  -3.91300 38.67200 22.17300
H  -3.91200 38.88400 23.93900
H  -4.19200 35.35100 20.81800
H  -4.78600 33.94700 21.77100
H  -2.55400 33.15500 22.06700
H  -1.87400 34.85200 22.13600
H  -2.22100 34.14900 20.62500
H  -6.08600 31.29700 24.44100
H  -7.42000 31.58000 25.59700
H  -6.48900 30.07900 25.77500
H  -4.41600 30.91000 30.57900
H  -7.26600 33.41100 32.70800
H  -5.76200 33.53400 33.62900
H  -6.82900 32.24500 33.92000

