158

Mg 8.68700 3.48500 27.77700
C  10.18200 2.31700 30.74300
C  6.67800 5.55400 29.83300
C  7.12600 4.26600 25.04300
C  10.67300 1.12300 26.11200
N  8.44800 3.77500 30.05300
C  9.21700 3.22900 31.04900
C  8.76000 3.74700 32.49200
C  7.50800 4.61300 32.20100
C  7.48700 4.63700 30.59500
C  6.11800 4.17000 32.81800
C  9.91200 4.54000 33.28700
C  10.13400 4.10600 34.75200
H  10.74900 5.06000 35.73000
N  7.16000 4.73000 27.49300
C  6.47000 5.55800 28.40100
C  5.52700 6.36200 27.63700
C  5.63400 5.96600 26.26800
C  6.61400 4.94000 26.20400
C  4.61900 7.30200 28.47000
C  4.85200 6.53200 25.06300
O  4.89500 6.17500 23.90000
C  3.78800 7.60600 25.28000
N  8.90400 2.81300 25.81900
C  8.12500 3.32800 24.86300
C  8.40700 2.65100 23.54600
C  9.62900 1.77000 23.86400
C  9.78300 1.90700 25.34300
C  7.27400 1.90200 22.83000
C  11.03800 2.06100 23.14800
C  11.92800 3.21400 23.67600
N  10.21500 2.02200 28.25600
C  10.87400 1.16200 27.46900
C  11.74100 0.31700 28.31300
C  11.61700 0.82400 29.57400
C  10.57700 1.77200 29.51400
C  12.73600 -0.77300 27.74400
C  11.98000 0.67900 30.97300
O  12.81200 -0.04900 31.48200
C  11.09500 1.64500 31.74500
C  10.31100 0.91700 32.77300
O  9.18000 0.46700 32.54600
O  11.03000 0.75500 33.93100
C  10.22400 0.02600 34.87200
H  6.08700 6.28800 30.38500
H  6.70900 4.56300 24.07900
H  11.32600 0.41400 25.59900
H  8.39800 2.88400 33.05100
H  7.63700 5.55600 32.73400
H  6.15600 3.31700 33.49600
H  5.28900 3.93800 32.14900
H  5.67000 4.98300 33.39000
H  9.54900 5.56500 33.20900
H  10.80200 4.51400 32.65900
H  10.77400 3.24700 34.55200
H  9.23800 3.68700 35.21200
H  4.06500 7.96100 27.80200
H  5.18800 8.05100 29.02000
H  3.89200 6.72600 29.04300
H  3.13600 7.37800 26.12300
H  3.21000 7.77600 24.37100
H  4.36300 8.52900 25.35600
H  8.89200 3.41600 22.93900
H  9.41700 0.72800 23.62300
H  6.74000 1.27100 23.54100
H  7.68500 1.17400 22.13100
H  6.56600 2.62700 22.42700
H  10.77900 2.32500 22.12300
H  11.64600 1.15600 23.14900
H  11.47700 3.81800 24.46400
H  12.26800 3.78800 22.81500
H  12.88400 2.86100 24.06300
H  13.34200 -0.31900 26.96000
H  12.09100 -1.54200 27.31800
H  13.39700 -1.21200 28.49000
H  11.76000 2.36300 32.22400
H  10.82700 -0.11600 35.76900
H  9.97600 -0.92800 34.40500
H  9.27800 0.53600 35.05100
Mg 26.41200 50.78100 26.96200
C  24.44900 51.93900 29.59500
C  28.89200 50.14900 29.22900
C  28.53100 50.10800 24.39600
C  23.99000 51.65200 24.66200
N  26.58100 51.00400 29.11100
C  25.62600 51.30700 30.04600
C  25.97000 50.85100 31.50000
C  27.52300 50.53200 31.31800
C  27.68000 50.54100 29.78500
C  28.55200 51.41100 31.96900
C  25.10700 49.63400 32.00400
C  23.99700 49.97600 33.05600
H  24.08500 49.45100 34.52700
N  28.40000 50.25200 26.88800
C  29.25300 49.99000 27.94000
C  30.54000 49.61300 27.42900
C  30.50500 49.82500 25.97900
C  29.10200 50.10800 25.65400
C  31.63900 49.22500 28.39200
C  31.60800 49.64100 24.91800
O  31.41000 49.72500 23.75900
C  32.98500 49.39200 25.41700
N  26.30700 50.97600 24.78700
C  27.24100 50.51300 23.96400
C  26.73900 50.21800 22.54600
C  25.26400 50.74600 22.61600
C  25.14000 51.06200 24.08800
C  27.61000 50.79900 21.42300
C  24.14700 49.78100 22.11000
C  23.01100 50.39500 21.34400
N  24.66100 51.74000 27.09700
C  23.76400 52.04000 26.03400
C  22.53200 52.62600 26.68000
C  22.85000 52.53100 28.07100
C  24.11100 52.11200 28.25100
C  21.28400 53.05600 26.08900
C  22.21900 52.88700 29.36100
O  21.10400 53.33000 29.63600
C  23.22400 52.46400 30.47000
C  23.61800 53.45200 31.46100
O  24.59600 54.11300 31.51500
O  22.59800 53.42400 32.40100
C  22.80600 54.33700 33.49800
H  29.61300 49.96400 30.02800
H  29.14100 49.81300 23.54100
H  23.13900 51.79200 23.99200
H  25.81800 51.68600 32.18400
H  27.71300 49.49900 31.60600
H  29.41700 51.61500 31.33800
H  28.99100 50.85200 32.79600
H  28.11500 52.32500 32.36900
H  25.80100 48.95400 32.49800
H  24.58000 49.30700 31.10800
H  23.00600 49.75000 32.66100
H  23.95700 51.06400 33.10100
H  31.06100 48.83400 29.22900
H  32.04400 50.14900 28.80600
H  32.45100 48.54600 28.13100
H  33.04600 48.41100 25.88700
H  33.28800 50.08900 26.19900
H  33.72800 49.44600 24.62100
H  26.72200 49.14300 22.36200
H  25.22600 51.72600 22.14000
H  28.37300 51.46600 21.82500
H  27.04400 51.34100 20.66500
H  28.16900 49.97000 20.98900
H  23.59300 49.29000 22.91000
H  24.55000 48.94600 21.53600
H  23.04300 50.14600 20.28400
H  23.08300 51.47700 21.46000
H  22.06300 50.05000 21.75600
H  21.33600 54.12100 25.86500
H  20.46000 52.89100 26.78300
H  21.06300 52.46000 25.20400
H  22.85700 51.59300 31.01200
H  23.13100 55.34700 33.24700
H  23.59800 53.97900 34.15500
H  21.83500 54.56800 33.93700

