158

Mg 1.27600 6.95100 25.87600
C  1.87500 8.95600 28.69400
C  1.35400 4.25800 27.88300
C  1.47800 5.10100 23.13600
C  1.65300 9.94800 23.86300
N  1.62500 6.70600 27.94800
C  1.67100 7.66000 28.96900
C  1.44200 7.00400 30.36400
C  1.63100 5.49800 30.02800
C  1.44900 5.50700 28.54400
C  2.92300 4.81500 30.41800
C  0.01900 7.39600 30.86300
C  -0.18200 7.53300 32.40400
H  0.87700 6.79900 33.26000
N  1.16200 4.99000 25.56400
C  1.29400 4.02400 26.51700
C  1.22400 2.71600 25.88000
C  1.16400 3.00200 24.43100
C  1.20900 4.41100 24.32100
C  1.12200 1.46900 26.67300
C  1.06900 2.07100 23.30300
O  0.77900 2.38600 22.14200
C  1.25100 0.57300 23.59700
N  1.54100 7.44500 23.78700
C  1.52700 6.47300 22.87000
C  1.62600 7.10900 21.42300
C  1.40600 8.57700 21.71800
C  1.55800 8.65000 23.19700
C  3.03900 6.77500 20.90800
C  -0.04400 9.03800 21.34700
C  -0.03800 10.38000 20.38900
N  1.66500 9.09000 26.14300
C  1.78600 10.13400 25.24700
C  2.06300 11.30900 25.96900
C  2.09300 10.90100 27.31600
C  1.88500 9.53600 27.37400
C  2.27800 12.72700 25.44700
C  2.31200 11.40200 28.64900
O  2.71100 12.51200 29.03700
C  2.01300 10.24800 29.59300
C  3.12100 10.17000 30.64100
O  4.26400 9.88700 30.37300
O  2.64400 10.51200 31.87400
C  3.63300 10.50000 32.94300
H  1.17100 3.37800 28.50300
H  1.47200 4.47600 22.24100
H  1.68200 10.76600 23.14000
H  2.24200 7.45600 30.95000
H  0.86000 4.92600 30.54300
H  3.62400 5.57300 30.76900
H  3.46700 4.47400 29.53800
H  2.81300 4.09200 31.22700
H  -0.66500 6.64000 30.47800
H  -0.12000 8.34500 30.34500
H  -1.19200 7.19500 32.63700
H  -0.18300 8.59700 32.63900
H  0.10400 1.16800 26.92000
H  1.61700 1.53100 27.64200
H  1.68000 0.78800 26.03000
H  2.20800 0.51200 24.11500
H  1.30500 0.15000 22.59300
H  0.37300 0.21600 24.13500
H  0.87500 6.64500 20.78300
H  1.98800 9.26600 21.10500
H  3.67400 6.36200 21.69200
H  3.49800 7.64700 20.44400
H  3.07000 6.07600 20.07200
H  -0.52100 9.45400 22.23500
H  -0.64700 8.28300 20.84300
H  -0.13300 10.11600 19.33600
H  0.88400 10.95000 20.50400
H  -0.96300 10.88400 20.67200
H  1.34200 13.28400 25.40600
H  2.73800 12.71000 24.45900
H  2.86400 13.27500 26.18500
H  1.07700 10.51700 30.08200
H  3.61900 11.46800 33.44300
H  4.64700 10.43500 32.54700
H  3.35000 9.74600 33.67700
Mg -5.67100 25.31600 26.34300
C  -4.09900 27.11900 28.90300
C  -6.76400 23.18300 28.75300
C  -6.87500 23.43700 23.86500
C  -4.06000 27.25000 24.03000
N  -5.37800 25.13000 28.50100
C  -4.95300 26.12000 29.29500
C  -5.44500 25.91600 30.71600
C  -5.97600 24.48800 30.67500
C  -6.04400 24.29700 29.19700
C  -5.19100 23.35200 31.41100
C  -6.40400 27.04500 31.05700
C  -6.50400 27.47200 32.54300
H  -6.00900 26.50800 33.57900
N  -6.73100 23.59400 26.30900
C  -7.11600 22.83700 27.38700
C  -7.96500 21.76600 26.97300
C  -8.08900 21.80700 25.51800
C  -7.16900 22.97200 25.16900
C  -8.83300 20.89700 27.86700
C  -8.81000 20.89300 24.51200
O  -8.84900 21.18000 23.30800
C  -9.56800 19.76700 24.84000
N  -5.39200 25.30900 24.24300
C  -6.09800 24.48300 23.44200
C  -5.72800 24.71100 21.92200
C  -5.05000 26.12500 22.02300
C  -4.79200 26.22400 23.49400
C  -4.82100 23.65100 21.33200
C  -5.90300 27.30700 21.47700
C  -5.84500 27.56200 19.97600
N  -4.26600 26.77100 26.40400
C  -3.73800 27.55900 25.39500
C  -2.87100 28.52300 25.92500
C  -3.01200 28.37900 27.34400
C  -3.86400 27.32300 27.55600
C  -2.17200 29.65700 25.15600
C  -2.61200 28.96100 28.58100
O  -1.93300 29.96800 28.74500
C  -3.41600 28.18700 29.75200
C  -2.50200 27.51500 30.74600
O  -1.70900 26.69100 30.41400
O  -2.71200 27.97600 32.01200
C  -1.97300 27.48000 33.11500
H  -7.05100 22.45100 29.51100
H  -7.45100 22.95300 23.07400
H  -3.50000 27.85400 23.31400
H  -4.58800 25.98200 31.38700
H  -6.94900 24.39700 31.15700
H  -5.94500 22.94700 32.08700
H  -4.49900 23.76100 32.14800
H  -4.72200 22.60700 30.76900
H  -7.38300 26.69000 30.73500
H  -6.18900 27.94400 30.48000
H  -7.57500 27.58500 32.71100
H  -5.90600 28.35500 32.76700
H  -8.70400 21.21600 28.90100
H  -8.54100 19.84800 27.81700
H  -9.90000 21.04300 27.69800
H  -9.86600 19.17700 23.97300
H  -10.49000 20.02900 25.35900
H  -8.90800 19.12700 25.42400
H  -6.59700 24.86400 21.28200
H  -4.20600 26.13700 21.33400
H  -4.75500 22.73800 21.92400
H  -3.81100 23.92700 21.03100
H  -5.34800 23.29700 20.44500
H  -5.57100 28.23000 21.95200
H  -6.98100 27.21600 21.61600
H  -5.24300 26.82800 19.44100
H  -5.45300 28.55900 19.77500
H  -6.81000 27.33000 19.52600
H  -1.43000 30.22100 25.72100
H  -2.84200 30.32400 24.61400
H  -1.62100 29.26900 24.29900
H  -4.13700 28.82300 30.26700
H  -1.18000 26.80000 32.80400
H  -2.68600 27.04000 33.81200
H  -1.46000 28.33500 33.55700

