158

Mg 44.33700 4.74100 46.40500
C  42.31300 7.73300 46.02300
C  41.38700 3.00000 45.73200
C  46.27000 2.22100 45.99400
C  47.15200 6.90200 46.59500
N  42.07500 5.36400 45.95800
C  41.53200 6.57400 45.89600
C  40.01200 6.45700 45.69900
C  39.70700 4.90400 45.78500
C  41.13000 4.39100 45.81400
C  38.86600 4.39400 47.04200
C  39.54500 7.25300 44.48400
C  40.48400 7.07900 43.23800
H  39.79700 7.14400 41.78600
N  43.87300 2.87100 45.97000
C  42.62000 2.36800 45.72400
C  42.82700 0.94700 45.38400
C  44.18900 0.58700 45.47000
C  44.88600 1.87600 45.87600
C  41.75000 -0.00500 44.91400
C  44.83600 -0.79000 45.07400
O  44.15800 -1.73200 44.78600
C  46.24500 -1.01600 44.85600
N  46.41300 4.56500 46.40800
C  47.01300 3.38000 46.09200
C  48.56000 3.44400 46.19100
C  48.79400 4.98300 46.38400
C  47.37900 5.56000 46.45500
C  49.19700 2.60000 47.33100
C  49.73400 5.59800 45.32400
C  51.21500 5.46200 45.72400
N  44.72200 6.83400 46.36100
C  45.90000 7.54900 46.53900
C  45.66100 8.96600 46.59400
C  44.23800 9.05600 46.52600
C  43.71000 7.70300 46.30700
C  46.70200 10.16700 46.60000
C  43.17900 9.97700 46.49300
O  43.15900 11.19800 46.54100
C  41.90400 9.20700 46.08300
C  40.83000 9.49000 47.03900
O  40.65700 8.85800 48.09200
O  39.88700 10.32200 46.54000
C  38.58200 10.49200 47.18300
H  40.50600 2.38500 45.53700
H  46.98000 1.39300 45.92900
H  47.94400 7.63500 46.76200
H  39.55800 6.91500 46.57700
H  39.43900 4.52000 44.80100
H  39.58200 3.84700 47.65400
H  38.06800 3.76500 46.64700
H  38.39800 5.21100 47.59100
H  39.34300 8.25800 44.85500
H  38.55700 6.83700 44.28800
H  40.91700 6.08200 43.31700
H  41.21900 7.88400 43.25100
H  40.76400 0.38000 45.17500
H  41.88000 -0.87000 45.56400
H  41.84500 -0.24200 43.85400
H  46.68000 -0.99800 45.85500
H  46.66200 -0.19800 44.26900
H  46.43300 -1.94100 44.31100
H  48.88100 3.23400 45.17100
H  49.26300 5.04500 47.36600
H  48.51100 1.98100 47.90800
H  49.68800 3.12400 48.15100
H  49.88900 1.89200 46.87500
H  49.47100 6.65500 45.31100
H  49.57000 5.25800 44.30100
H  51.37800 4.96000 46.67800
H  51.57400 6.49100 45.71200
H  51.74000 4.83800 45.00100
H  46.41800 10.87900 47.37500
H  46.62100 10.50000 45.56500
H  47.68800 9.83300 46.92100
H  41.60300 9.57500 45.10200
H  37.96000 9.61300 47.35500
H  38.01100 11.15300 46.53100
H  38.69900 10.99300 48.14300
Mg -11.84200 16.70200 42.91500
C  -8.45300 15.62800 42.41700
C  -10.85000 19.75800 41.58000
C  -15.12700 17.34700 42.40100
C  -12.57400 13.56400 44.04100
N  -9.85600 17.47600 41.92200
C  -8.64900 16.90200 41.99000
C  -7.60400 17.81600 41.38200
C  -8.27900 19.29300 41.48500
C  -9.74500 18.88900 41.63800
C  -7.72300 20.28400 42.55200
C  -6.97600 17.28100 40.06900
C  -5.46400 17.19500 40.00000
H  -4.75300 16.27100 38.93600
N  -12.86100 18.29100 42.13200
C  -12.24400 19.44900 41.64700
C  -13.30900 20.32800 41.14700
C  -14.57500 19.65500 41.28000
C  -14.24300 18.38100 41.96600
C  -13.08600 21.65200 40.34900
C  -15.95300 20.20700 40.77800
O  -15.99200 21.29100 40.18000
C  -17.23100 19.47200 40.84900
N  -13.72000 15.61500 43.17000
C  -14.95200 16.10800 42.97100
C  -15.98900 15.21200 43.42000
C  -15.16800 14.09800 44.08500
C  -13.70700 14.39700 43.73500
C  -17.12100 15.73400 44.29800
C  -15.67400 12.63000 43.75900
C  -15.59400 11.52900 44.85900
N  -10.77100 14.88300 43.19400
C  -11.19700 13.73200 43.81400
C  -10.03100 12.82000 43.95100
C  -8.96300 13.52500 43.42400
C  -9.46400 14.77900 42.93500
C  -10.01800 11.38600 44.57300
C  -7.55500 13.51900 43.27800
O  -6.82000 12.62000 43.64600
C  -7.08800 14.89400 42.63100
C  -6.28000 15.67700 43.60400
O  -6.73300 16.45800 44.45400
O  -4.98500 15.41100 43.44700
C  -4.04300 16.35800 44.17300
H  -10.60700 20.79500 41.33800
H  -16.17000 17.57300 42.16800
H  -12.87900 12.64600 44.54600
H  -6.76900 17.87000 42.08000
H  -8.22500 19.74400 40.49400
H  -7.42000 21.19500 42.03600
H  -6.88600 19.96000 43.17100
H  -8.57000 20.55000 43.18300
H  -7.45100 17.90800 39.31400
H  -7.39800 16.30500 39.82900
H  -5.03400 16.90900 40.96000
H  -5.13000 18.21500 39.81000
H  -13.67900 21.76300 39.44100
H  -12.04900 21.71700 40.02100
H  -13.31400 22.46400 41.04000
H  -17.61700 19.54600 41.86600
H  -17.12100 18.42100 40.58400
H  -17.97500 20.00800 40.26000
H  -16.38100 14.90100 42.45200
H  -15.33900 14.25800 45.15000
H  -17.97100 16.16900 43.77100
H  -16.67900 16.47900 44.95900
H  -17.46800 14.87400 44.87000
H  -15.11800 12.28900 42.88600
H  -16.74400 12.62100 43.54800
H  -15.15300 11.92400 45.77400
H  -15.07000 10.69000 44.40200
H  -16.60900 11.16400 45.01600
H  -9.13100 11.08300 45.12800
H  -10.12000 10.60300 43.82200
H  -10.93700 11.30000 45.15300
H  -6.47600 14.80400 41.73400
H  -4.03600 16.03100 45.21300
H  -4.33100 17.40900 44.17300
H  -3.01200 16.22800 43.84300

