158

Mg 34.85600 2.45300 29.45900
C  32.80000 3.58000 32.00700
C  37.58300 2.40900 31.56500
C  36.81300 1.82400 26.81500
C  32.05600 3.02900 27.39000
N  35.16400 3.04000 31.53500
C  34.20400 3.37700 32.40000
C  34.75400 3.55200 33.80400
C  36.33200 3.38600 33.62200
C  36.42200 2.93000 32.15800
C  37.15400 4.69400 33.79500
C  34.18200 2.53800 34.76300
C  33.88700 3.05500 36.26600
H  34.90900 3.99800 36.93300
N  36.85600 2.02800 29.21500
C  37.78700 2.07000 30.21400
C  39.05900 1.56700 29.63000
C  38.94700 1.61600 28.21900
C  37.52200 1.88400 28.03500
C  40.17600 1.18100 30.59400
C  40.01800 1.48200 27.22400
O  39.73700 1.67500 26.02500
C  41.42600 1.14900 27.51900
N  34.54600 2.47600 27.40800
C  35.50500 2.09600 26.53200
C  34.92900 1.87500 25.11300
C  33.46200 2.26200 25.30800
C  33.31000 2.58100 26.81500
C  35.65500 2.48600 23.92700
C  32.49100 1.18600 24.64900
C  32.59000 -0.15700 25.31600
N  32.81000 3.25000 29.54000
C  31.83500 3.37600 28.66400
C  30.62800 3.82800 29.30600
C  31.00200 4.00500 30.64900
C  32.31200 3.57900 30.71000
C  29.32800 4.12200 28.59900
C  30.49600 4.47000 31.94000
O  29.36000 4.89500 32.22000
C  31.62400 4.09200 32.93300
C  31.95400 5.38900 33.74700
O  32.79900 6.22600 33.39700
O  31.31900 5.40100 34.98400
C  31.78500 6.37000 35.99600
H  38.45400 2.30400 32.21600
H  37.27700 1.55400 25.86400
H  31.20800 3.02400 26.70200
H  34.61000 4.57100 34.16400
H  36.74400 2.62400 34.28400
H  37.59600 5.05700 32.86700
H  37.85100 4.38100 34.57300
H  36.65000 5.58300 34.17500
H  34.88800 1.70900 34.71300
H  33.29500 1.99700 34.43400
H  33.93300 2.23100 36.97800
H  32.87100 3.45000 36.27400
H  41.01400 0.68800 30.10000
H  39.73000 0.57000 31.37900
H  40.47100 2.15600 30.98100
H  41.97600 1.03400 26.58500
H  41.46900 0.13400 27.91300
H  41.85200 1.86200 28.22500
H  35.00400 0.79400 24.98800
H  33.34900 3.25200 24.86600
H  35.89600 1.59900 23.34000
H  36.55500 3.07000 24.12100
H  34.97900 3.09200 23.32500
H  32.61200 1.19100 23.56500
H  31.49500 1.54600 24.90900
H  31.65900 -0.50200 25.76600
H  33.37000 -0.18000 26.07600
H  32.87300 -0.90100 24.57100
H  28.62900 3.30600 28.78200
H  29.48200 4.12400 27.51900
H  28.82600 5.03900 28.90600
H  31.20300 3.37100 33.63400
H  32.86500 6.26000 36.09500
H  31.38500 6.12200 36.97900
H  31.58700 7.41900 35.77500
Mg 9.81200 47.91500 26.37800
C  7.96200 47.71500 29.22400
C  12.45700 49.21600 28.18600
C  11.64700 48.15200 23.52800
C  7.04600 47.09200 24.49900
N  10.15800 48.39900 28.44100
C  9.26000 48.21300 29.45800
C  9.90200 48.58800 30.86200
C  11.17900 49.37900 30.43900
C  11.26000 48.98100 28.91200
C  11.12900 50.96000 30.49500
C  10.21500 47.31600 31.70800
C  11.00300 47.56000 32.97400
H  10.43100 46.89900 34.22200
N  11.82200 48.55900 25.94800
C  12.76600 48.94900 26.85400
C  14.09100 49.20800 26.12400
C  13.88400 48.87600 24.77400
C  12.43000 48.46700 24.71000
C  15.30800 49.66600 26.89400
C  14.84900 49.02000 23.60600
O  14.42800 48.64000 22.52400
C  16.35400 49.62900 23.72100
N  9.45600 47.80200 24.26900
C  10.30200 47.92200 23.29400
C  9.67700 47.79200 21.91400
C  8.24000 47.21100 22.25500
C  8.16800 47.46700 23.78200
C  9.78700 49.11000 21.15400
C  8.07800 45.66400 21.96300
C  9.03500 44.76200 22.78700
N  7.86000 47.50600 26.71800
C  6.78100 47.15400 25.87300
C  5.62700 46.91500 26.62700
C  6.05800 46.97400 27.92600
C  7.41300 47.44800 27.93800
C  4.33900 46.62600 26.08900
C  5.54600 46.94500 29.31800
O  4.43500 46.64200 29.74600
C  6.81900 47.23200 30.21400
C  7.11600 46.01700 30.91800
O  7.90700 45.18300 30.51600
O  6.38100 45.88700 32.09800
C  6.66600 44.69800 32.86900
H  13.18600 49.83800 28.70900
H  12.26900 48.21600 22.63300
H  6.21700 46.76300 23.86900
H  9.28300 49.32600 31.37100
H  12.12200 49.13200 30.92600
H  10.92500 51.30400 29.48100
H  12.00300 51.44100 30.93400
H  10.36200 51.27500 31.20200
H  10.82900 46.63100 31.12500
H  9.30200 46.81400 32.02800
H  11.20700 48.62800 33.05400
H  11.98100 47.12800 32.76300
H  15.13200 49.66600 27.96900
H  15.73200 50.63000 26.61200
H  16.12700 48.97000 26.71300
H  16.95100 49.00200 24.38500
H  16.27500 50.54100 24.31300
H  16.86400 49.76300 22.76700
H  10.23400 47.00200 21.40900
H  7.43500 47.73900 21.74400
H  10.37600 49.80600 21.75100
H  8.76600 49.45700 20.99300
H  10.35100 48.88700 20.24900
H  8.27900 45.49700 20.90500
H  7.03500 45.55200 22.26000
H  9.60300 45.27400 23.56300
H  9.71900 44.19500 22.15600
H  8.40200 44.02900 23.28800
H  4.34000 45.63400 25.63700
H  4.14000 47.40200 25.35000
H  3.72800 46.70100 26.98900
H  6.61800 48.10300 30.83700
H  7.26200 43.96600 32.32400
H  5.75400 44.21600 33.22000
H  7.20600 44.87900 33.79900

