158

Mg 34.90800 2.49000 29.58800
C  32.84300 3.73000 32.11000
C  37.42600 2.32000 31.81200
C  37.10800 1.93200 26.97800
C  32.40700 3.38700 27.23400
N  35.10000 2.85500 31.70300
C  34.08200 3.27300 32.55900
C  34.56800 3.33500 33.99300
C  36.16600 3.19400 33.79000
C  36.22700 2.76600 32.35300
C  37.03700 4.46400 34.06300
C  33.83600 2.45900 34.97300
C  33.52300 3.03100 36.37100
H  34.59100 3.89900 37.04800
N  37.00500 2.02700 29.39300
C  37.79600 1.93800 30.53300
C  39.13100 1.59100 30.05800
C  39.09700 1.48500 28.60600
C  37.72200 1.74300 28.23300
C  40.31000 1.50300 31.01500
C  40.27700 1.28100 27.67600
O  40.18700 1.46700 26.47400
C  41.61500 0.84200 28.21900
N  34.79900 2.57400 27.46200
C  35.78400 2.30300 26.60600
C  35.37600 2.43600 25.19100
C  33.77500 2.41300 25.27500
C  33.61600 2.79000 26.73700
C  35.88600 3.74800 24.49600
C  33.12500 1.00100 25.03100
C  31.88000 0.86000 24.05300
N  32.95700 3.28400 29.65600
C  32.07800 3.58900 28.63200
C  30.82700 4.08400 29.19000
C  31.10600 4.09800 30.58900
C  32.39600 3.69400 30.79000
C  29.61600 4.58300 28.42200
C  30.53700 4.48600 31.81600
O  29.38800 4.93900 31.99800
C  31.69400 4.31200 32.94000
C  31.94500 5.65900 33.55700
O  32.88000 6.37900 33.20300
O  31.11300 5.97500 34.56400
C  31.46600 7.10400 35.45800
H  38.24600 2.31900 32.53300
H  37.86400 1.74000 26.21400
H  31.59100 3.49400 26.51500
H  34.47900 4.37800 34.29700
H  36.68900 2.41600 34.34700
H  37.54500 4.78300 33.15200
H  37.82900 4.11100 34.72300
H  36.51300 5.31700 34.49400
H  34.24500 1.44900 35.00000
H  32.87400 2.26100 34.50200
H  33.49100 2.25600 37.13700
H  32.62900 3.65000 36.30500
H  40.06900 1.75500 32.04800
H  41.24000 2.03500 30.81800
H  40.54100 0.44000 30.95200
H  42.27400 0.73900 27.35700
H  41.74300 -0.06500 28.81000
H  42.10200 1.63600 28.78400
H  35.63000 1.55600 24.60000
H  33.28600 3.20300 24.70500
H  36.40600 4.40300 25.19400
H  34.98600 4.25300 24.14600
H  36.65400 3.49500 23.76500
H  32.83400 0.53400 25.97200
H  33.89200 0.29700 24.70800
H  31.06100 0.31100 24.51600
H  32.33400 0.31300 23.22700
H  31.52500 1.83800 23.72700
H  29.20800 3.75400 27.84500
H  30.03000 5.26100 27.67400
H  28.89100 5.09300 29.05600
H  31.32800 3.65800 33.73200
H  30.81500 7.97800 35.45100
H  32.47500 7.44300 35.22000
H  31.35600 6.68700 36.45900
Mg 10.19600 46.53500 26.33200
C  8.39900 46.97600 29.24000
C  12.73100 48.32900 27.87100
C  12.03400 46.36100 23.49500
C  7.36000 45.77100 24.51600
N  10.52500 47.41200 28.33300
C  9.74700 47.22800 29.43800
C  10.46800 47.50300 30.71300
C  11.73200 48.33100 30.22000
C  11.70100 47.97600 28.72700
C  11.74000 49.87100 30.45200
C  10.78600 46.39100 31.66100
C  10.03400 46.41500 32.98400
H  9.98700 45.20600 33.91300
N  12.20900 47.15500 25.72800
C  13.05300 47.93000 26.50400
C  14.26500 48.23100 25.79200
C  14.09400 47.59600 24.46200
C  12.76100 47.05400 24.51200
C  15.48900 48.82000 26.47600
C  15.05500 47.47800 23.30000
O  14.72000 47.00300 22.24400
C  16.43500 48.25800 23.35100
N  9.78900 46.10200 24.28500
C  10.77100 45.92600 23.31800
C  10.21900 45.29800 22.07200
C  8.76000 44.89600 22.50500
C  8.63400 45.58300 23.86800
C  10.31600 46.06200 20.68600
C  8.60800 43.34200 22.56200
C  8.62000 42.49400 23.82600
N  8.27700 46.45900 26.70600
C  7.20300 46.16400 25.87500
C  5.98100 46.29800 26.74600
C  6.47200 46.47200 28.01300
C  7.82500 46.63400 27.93400
C  4.57700 46.12600 26.21300
C  6.00500 46.57100 29.39300
O  4.91800 46.43600 29.91700
C  7.27000 46.69000 30.21500
C  7.39800 45.38600 30.84300
O  7.95100 44.41800 30.35500
O  6.70100 45.39100 32.00200
C  6.96500 44.28700 32.97700
H  13.45300 49.05300 28.25300
H  12.63600 46.17600 22.60300
H  6.46200 45.45500 23.98100
H  9.78700 48.17900 31.22900
H  12.60000 47.95600 30.76100
H  12.48400 50.00700 31.23700
H  10.80800 50.08900 30.97300
H  11.81700 50.42900 29.51900
H  11.84400 46.36900 31.92100
H  10.52200 45.39100 31.31700
H  9.07000 46.87500 32.76900
H  10.61300 47.20000 33.47000
H  15.67900 49.79100 26.02000
H  16.30700 48.11900 26.30800
H  15.31700 48.79400 27.55200
H  16.97000 47.99300 24.26300
H  16.00900 49.23300 23.11500
H  17.02800 47.92500 22.49900
H  10.81300 44.40900 21.86200
H  7.93700 45.36400 21.96600
H  9.35900 46.04200 20.16500
H  11.02300 45.59700 19.99800
H  10.58000 47.11800 20.74300
H  9.37400 42.83200 21.97800
H  7.72200 43.11400 21.97000
H  9.00900 43.08200 24.65700
H  9.20200 41.58400 23.67800
H  7.58000 42.35100 24.12200
H  4.06400 47.07300 26.37800
H  4.08100 45.29100 26.70800
H  4.76000 45.87000 25.16900
H  7.24900 47.48000 30.96500
H  7.06800 44.84400 33.90900
H  7.70800 43.53700 32.70700
H  6.04000 43.71100 33.02000

