158

Mg 48.74200 34.61500 26.15600
C  46.59700 33.35400 28.75100
C  49.00600 37.38100 27.98200
C  50.36400 35.95100 23.59600
C  47.74200 31.89800 24.16500
N  48.06300 35.20700 28.15000
C  47.33100 34.49500 29.05100
C  47.57700 35.02700 30.46200
C  47.95200 36.53300 30.15100
C  48.43700 36.37000 28.67200
C  46.64400 37.44400 30.14400
C  48.68400 34.28300 31.32800
C  48.67200 34.51300 32.89400
H  47.49600 35.38800 33.45100
N  49.60800 36.38100 25.84900
C  49.57500 37.41500 26.71600
C  50.29500 38.54500 26.16000
C  50.64400 38.12700 24.84100
C  50.24000 36.76300 24.73700
C  50.51600 39.88900 26.89300
C  51.39500 38.91500 23.75100
O  51.79500 38.44400 22.72700
C  51.27700 40.36700 23.89200
N  49.01500 33.97900 24.14400
C  49.81900 34.68700 23.35100
C  50.11800 33.87400 22.04300
C  49.22900 32.63500 22.21000
C  48.67500 32.81200 23.60800
C  49.89600 34.68900 20.81000
C  49.95200 31.19500 22.16500
C  49.34900 30.16000 21.16700
N  47.47400 32.96700 26.35900
C  47.19900 31.94300 25.46800
C  46.24000 31.04600 26.14600
C  45.96200 31.54700 27.38100
C  46.74500 32.71500 27.45400
C  45.77300 29.79900 25.48600
C  45.27500 31.34500 28.60000
O  44.47300 30.46400 28.85400
C  45.77800 32.48500 29.62300
C  46.48200 31.77200 30.68800
O  47.32300 30.94300 30.47900
O  46.08400 32.17100 31.96300
C  46.66300 31.25500 32.95500
H  49.23200 38.27600 28.56700
H  50.91500 36.45000 22.79600
H  47.42300 31.10600 23.48300
H  46.62700 35.04500 30.99600
H  48.74200 36.93800 30.78300
H  46.04400 37.12800 30.99800
H  46.09700 37.29200 29.21300
H  46.96800 38.48300 30.20300
H  49.65600 34.56100 30.92000
H  48.58300 33.20600 31.19800
H  49.60200 35.05700 33.05500
H  48.72600 33.54900 33.40000
H  51.55900 40.20200 26.94200
H  50.20600 39.88700 27.93800
H  49.91400 40.66100 26.41300
H  51.93400 40.83100 24.62800
H  50.25200 40.66100 24.11600
H  51.57800 40.74300 22.91400
H  51.15400 33.55200 22.15400
H  48.37600 32.63400 21.53200
H  49.79300 34.05600 19.92900
H  50.84000 35.22200 20.70200
H  49.08700 35.42000 20.79900
H  50.08800 30.63600 23.09100
H  50.93400 31.52500 21.82500
H  50.03600 30.17700 20.32100
H  48.37200 30.47700 20.80200
H  49.25400 29.16900 21.61300
H  45.41500 30.21300 24.54300
H  44.84300 29.44800 25.93300
H  46.50900 28.99600 25.44500
H  44.79600 32.87600 29.88900
H  46.58200 31.82100 33.88300
H  47.71600 30.98500 32.87200
H  46.18700 30.27700 33.03000
Mg 16.96100 51.78300 26.32300
C  18.73200 50.49000 29.03300
C  14.49700 52.77500 28.53000
C  14.91100 52.48700 23.69400
C  19.16700 50.18900 24.17900
N  16.73200 51.54000 28.53400
C  17.60100 51.10400 29.51400
C  17.11200 51.56200 30.95700
C  15.62500 51.87300 30.64900
C  15.65300 52.19000 29.13600
C  14.64100 50.69700 31.02700
C  17.87400 52.78000 31.50000
C  18.21800 52.61400 33.00900
H  17.19500 51.80900 33.86200
N  15.08100 52.62300 26.16700
C  14.24200 52.99100 27.17600
C  12.97600 53.63400 26.62700
C  13.14900 53.58100 25.21500
C  14.35300 52.82500 24.95100
C  11.93400 54.28900 27.44300
C  12.24500 54.16200 24.06700
O  12.47500 54.12400 22.91900
C  10.88900 54.80400 24.47800
N  17.03200 51.52700 24.24400
C  16.14500 51.94800 23.33200
C  16.59100 51.78400 21.94300
C  17.96400 51.05500 22.07700
C  18.06300 50.83800 23.59400
C  15.62800 50.88700 21.12800
C  19.16800 51.81300 21.43400
C  20.37500 50.85100 20.91900
N  18.72200 50.71300 26.48300
C  19.55300 50.06700 25.56300
C  20.66300 49.41200 26.21800
C  20.41800 49.62600 27.55000
C  19.15900 50.31800 27.69600
C  21.79400 48.59300 25.69000
C  20.88200 49.29200 28.85000
O  21.87400 48.64500 29.16500
C  19.88300 49.86900 29.82900
C  19.47100 48.80000 30.85600
O  18.96600 47.69400 30.60900
O  19.82400 49.26600 32.13500
C  19.57400 48.48100 33.40500
H  13.76600 53.10600 29.27100
H  14.17300 52.47600 22.88900
H  19.86800 49.58800 23.59600
H  17.28500 50.67000 31.55900
H  15.26200 52.72400 31.22500
H  15.06100 50.11900 31.84900
H  14.55100 50.13300 30.09800
H  13.67600 51.03900 31.40200
H  17.37500 53.72700 31.29500
H  18.86700 52.77500 31.05100
H  18.25900 53.61200 33.44700
H  19.22700 52.22300 33.14100
H  12.14600 54.31900 28.51200
H  11.10900 53.57700 27.46400
H  11.69600 55.27200 27.03500
H  10.95500 55.78600 24.94800
H  10.39000 54.02200 25.05000
H  10.42200 54.80100 23.49300
H  16.72400 52.72900 21.41700
H  17.97800 50.07100 21.61000
H  14.86300 50.40300 21.73500
H  16.20300 50.24900 20.45700
H  15.08700 51.47600 20.38700
H  19.68900 52.44400 22.15400
H  18.91100 52.31300 20.50000
H  20.28900 49.86900 21.38400
H  21.32400 51.33200 21.15700
H  20.30900 50.80300 19.83200
H  22.43500 49.39200 25.31600
H  21.47600 47.95000 24.86900
H  22.14400 47.95300 26.49900
H  20.42200 50.62800 30.39700
H  18.55100 48.14500 33.23400
H  19.57000 49.12800 34.28200
H  20.31400 47.68100 33.43300

