158

Mg 35.49100 3.44500 29.50600
C  33.74400 4.18600 32.38500
C  38.37600 3.11500 31.30500
C  37.13200 2.78500 26.63100
C  32.62400 4.22000 27.67200
N  35.97400 3.77800 31.56200
C  35.10700 3.92200 32.61000
C  35.91100 3.75800 33.97700
C  37.44100 3.79700 33.56900
C  37.27900 3.55800 32.04400
C  38.16800 5.19500 33.84100
C  35.46100 2.42800 34.66000
C  35.20100 2.56900 36.20700
H  36.05800 3.47500 37.06500
N  37.45800 2.98300 29.09600
C  38.49000 2.81200 29.93100
C  39.60500 2.19500 29.25000
C  39.30300 2.25900 27.87300
C  37.91900 2.65900 27.78000
C  40.74600 1.53300 29.94300
C  40.23600 1.93000 26.69600
O  39.81600 2.13000 25.56700
C  41.66000 1.49400 26.93100
N  35.05200 3.59900 27.44100
C  35.81900 3.21300 26.42900
C  35.23700 3.55700 25.13200
C  33.69400 3.76000 25.48000
C  33.77700 3.88700 26.91900
C  35.85700 4.71600 24.35200
C  32.76200 2.67000 24.90400
C  32.38600 1.45900 25.84400
N  33.50700 4.06700 29.86600
C  32.46700 4.35800 29.08300
C  31.32100 4.62000 29.93000
C  31.71500 4.58500 31.24100
C  33.08500 4.34200 31.08900
C  29.87800 4.83000 29.46700
C  31.32900 4.62000 32.64100
O  30.19400 4.75400 33.10200
C  32.66400 4.39500 33.41400
C  32.88600 5.63700 34.12000
O  33.53800 6.60500 33.82400
O  32.09600 5.49200 35.20700
C  32.28400 6.46900 36.31900
H  39.29000 2.87200 31.85100
H  37.64800 2.37300 25.76100
H  31.83300 4.54300 26.99200
H  35.77900 4.57200 34.68900
H  38.03100 2.97100 33.96800
H  37.60500 5.76800 34.57800
H  38.25200 5.80300 32.94000
H  39.08400 5.06600 34.41800
H  36.25300 1.68700 34.55300
H  34.48100 2.09300 34.32100
H  35.25300 1.55600 36.60700
H  34.14700 2.83500 36.28700
H  40.79100 0.46700 29.72300
H  40.70400 1.66800 31.02400
H  41.66400 2.01400 29.60600
H  41.54800 0.66100 27.62600
H  42.41000 2.23300 27.21200
H  41.96700 1.00300 26.00700
H  35.48200 2.69900 24.50600
H  33.35300 4.74700 25.16800
H  36.25400 4.19200 23.48300
H  36.58500 5.32300 24.89000
H  35.01200 5.34300 24.07100
H  33.13800 2.37000 23.92600
H  31.78400 3.09000 24.66800
H  32.39600 0.51300 25.30300
H  31.34100 1.57400 26.13200
H  32.99300 1.45000 26.74900
H  29.40600 3.86600 29.65200
H  29.83500 5.17100 28.43200
H  29.35900 5.64900 29.96400
H  32.64500 3.50100 34.03900
H  32.84100 5.90400 37.06600
H  31.29500 6.66700 36.73200
H  32.66500 7.44800 36.02800
Mg 6.16300 55.68500 40.37000
C  3.36600 53.50400 40.44500
C  8.03300 53.13800 39.17200
C  8.59900 57.95300 39.71800
C  3.83300 58.28300 40.91600
N  5.66200 53.62300 39.71300
C  4.55000 52.94000 39.84800
C  4.67400 51.58400 39.15400
C  6.19700 51.36500 39.15700
C  6.69100 52.79100 39.37900
C  6.72800 50.31900 40.21300
C  4.11400 51.42500 37.70800
C  3.46800 50.01300 37.47300
H  4.12700 49.33600 36.33500
N  8.13200 55.61400 39.75800
C  8.71900 54.46700 39.26600
C  10.02500 54.74700 38.95200
C  10.20900 56.12100 38.99100
C  8.96600 56.63300 39.49400
C  11.08000 53.67800 38.48600
C  11.50900 56.78800 38.57500
O  12.54000 56.18700 38.22700
C  11.56800 58.28300 38.47500
N  6.11200 57.77400 40.18100
C  7.29400 58.40800 40.03700
C  7.11300 59.93500 40.20100
C  5.63500 60.02400 40.71100
C  5.16300 58.62700 40.58700
C  8.26300 60.61300 41.05400
C  4.80000 61.23300 40.18200
C  4.02700 62.09000 41.20200
N  4.04200 55.87600 40.80400
C  3.26600 57.00500 41.04900
C  2.03100 56.62400 41.53600
C  1.94900 55.17400 41.31700
C  3.21100 54.80900 40.79700
C  0.80500 57.53800 41.94400
C  1.16200 53.95600 41.47000
O  0.03200 53.79200 41.82500
C  2.08300 52.80400 40.93700
C  1.27600 52.09300 39.91000
O  1.05300 52.54800 38.84000
O  0.77200 50.92800 40.40800
C  -0.21200 50.22300 39.53700
H  8.73800 52.38600 38.81100
H  9.42200 58.66800 39.65900
H  3.16000 59.08200 41.23200
H  4.19300 50.81500 39.75900
H  6.57900 51.03900 38.19000
H  7.42400 50.76900 40.92000
H  7.28900 49.60400 39.61000
H  5.89500 49.93800 40.80300
H  4.84700 51.65400 36.93500
H  3.36600 52.17800 37.45700
H  2.39800 50.16900 37.33100
H  3.78000 49.36900 38.29500
H  10.66500 52.70000 38.24200
H  11.85300 53.52000 39.23800
H  11.60400 53.99200 37.58300
H  10.75000 58.66300 37.86300
H  12.53400 58.48500 38.01300
H  11.62500 58.55000 39.53000
H  7.07000 60.40800 39.22000
H  5.55000 60.16600 41.78900
H  7.81900 61.41200 41.64800
H  9.00800 60.94500 40.33200
H  8.77200 59.89800 41.70100
H  3.99900 60.92600 39.51000
H  5.46600 61.89100 39.62400
H  3.00000 61.74000 41.30300
H  3.86300 63.12100 40.88600
H  4.46300 62.03500 42.19900
H  -0.02100 57.09400 42.49900
H  0.50200 57.78600 40.92600
H  1.17700 58.46500 42.38000
H  2.21100 52.02700 41.69000
H  -0.61300 50.80900 38.71000
H  -1.06000 50.04600 40.19800
H  0.29000 49.27500 39.34200

