158

Mg 47.31200 14.39400 28.18600
C  45.14700 14.41000 30.84200
C  49.40900 16.43900 29.87300
C  49.13500 14.77500 25.32900
C  44.97800 12.39200 26.30600
N  47.24600 15.36600 30.17100
C  46.35500 15.11600 31.16600
C  46.83900 15.70200 32.48400
C  48.06400 16.61800 32.08100
C  48.29400 16.09000 30.63700
C  47.86600 18.20400 32.24800
C  47.09000 14.58400 33.54800
C  47.04000 15.09000 35.02500
H  48.34300 15.06400 35.86200
N  49.17900 15.31700 27.74600
C  49.86800 16.06200 28.59100
C  51.14400 16.43500 27.95900
C  51.01800 16.05600 26.61400
C  49.77100 15.33600 26.46800
C  52.21800 17.19800 28.72400
C  51.92000 16.21400 25.43300
O  51.65700 15.82500 24.29100
C  53.23000 16.88300 25.69900
N  47.17400 13.59400 26.20100
C  47.92400 14.07000 25.20100
C  47.55000 13.42000 23.80100
C  46.34900 12.53500 24.10500
C  46.16800 12.74800 25.67600
C  47.32600 14.38100 22.61000
C  46.51400 11.06000 23.70500
C  47.04300 10.03100 24.76300
N  45.47200 13.54700 28.45600
C  44.61300 12.79300 27.64900
C  43.41800 12.46700 28.29400
C  43.58800 13.06000 29.55800
C  44.86800 13.65700 29.64400
C  42.24700 11.52400 27.86000
C  42.98000 13.23800 30.81300
O  41.94000 12.82000 31.24200
C  43.98100 14.09400 31.76000
C  43.36400 15.29500 32.09900
O  43.06400 16.12900 31.25200
O  43.13800 15.33600 33.48100
C  42.84300 16.66900 33.97900
H  50.11800 17.08300 30.39600
H  49.49400 14.97300 24.31700
H  44.21600 11.92900 25.67400
H  45.99800 16.31800 32.80200
H  48.82900 16.21700 32.74700
H  48.56500 18.79400 31.65400
H  48.12100 18.34000 33.29900
H  46.85500 18.55100 32.03700
H  48.07100 14.15000 33.35300
H  46.31200 13.82400 33.48700
H  46.31100 14.42000 35.48100
H  46.55700 16.06700 34.99700
H  53.20900 16.81400 28.48300
H  52.10500 17.10700 29.80400
H  52.22400 18.22900 28.37200
H  52.99600 17.85400 26.13400
H  53.74300 17.10200 24.76300
H  53.85300 16.45700 26.48600
H  48.34800 12.74700 23.48600
H  45.50800 12.94500 23.54400
H  46.35800 14.37200 22.11000
H  48.05200 14.16500 21.82600
H  47.43100 15.43600 22.86100
H  47.06400 10.91100 22.77500
H  45.46600 10.81900 23.52900
H  47.18100 10.50500 25.73500
H  47.92800 9.54800 24.34900
H  46.32700 9.21700 24.86800
H  41.82800 11.59700 26.85700
H  41.52400 11.82200 28.61900
H  42.55600 10.48500 27.98100
H  44.26200 13.59300 32.68600
H  43.73800 17.25300 34.19200
H  42.33300 16.52300 34.93100
H  42.17600 17.16900 33.27800
Mg -11.04000 40.76600 41.71900
C  -10.00100 37.57300 41.07300
C  -8.36900 42.14800 40.22000
C  -12.58400 43.86800 41.96700
C  -14.29300 39.41700 42.72400
N  -9.50400 39.89100 40.49200
C  -9.06600 38.56800 40.57500
C  -7.73300 38.40600 39.93000
C  -7.15200 39.88800 40.07800
C  -8.46100 40.71400 40.24900
C  -6.01300 40.04100 41.11400
C  -7.85700 37.85900 38.43800
C  -7.13900 36.51300 38.12300
H  -6.02400 36.52400 36.97600
N  -10.45400 42.79400 41.23700
C  -9.31900 43.09100 40.65500
C  -9.24200 44.50100 40.57400
C  -10.44200 45.01900 41.04400
C  -11.26700 43.84900 41.36600
C  -8.10100 45.30900 39.96500
C  -10.75200 46.51800 41.13800
O  -9.89600 47.26900 40.78600
C  -12.13600 47.00400 41.54800
N  -13.25200 41.52700 42.04900
C  -13.47900 42.84400 42.18700
C  -14.90700 43.10600 42.66200
C  -15.46200 41.69300 42.72600
C  -14.25800 40.82300 42.50900
C  -14.92900 43.82700 44.13300
C  -16.62800 41.53500 41.75700
C  -17.75600 40.65200 42.32400
N  -11.96400 38.88100 42.01800
C  -13.21200 38.54400 42.41600
C  -13.27400 37.15800 42.54400
C  -12.01800 36.67000 42.00000
C  -11.30900 37.82500 41.66600
C  -14.40900 36.30500 42.97700
C  -11.19700 35.48100 41.65100
O  -11.37600 34.24700 41.71000
C  -9.98900 36.13100 40.79600
C  -8.76600 35.45600 41.26100
O  -8.06300 35.75900 42.26700
O  -8.56800 34.31300 40.50400
C  -7.61000 33.32600 41.06400
H  -7.37000 42.49000 39.94000
H  -13.13700 44.80500 42.05400
H  -15.19600 38.97600 43.15200
H  -7.21300 37.72900 40.60800
H  -6.75500 40.12900 39.09200
H  -5.54900 39.08700 41.36600
H  -6.31400 40.59100 42.00600
H  -5.21900 40.61500 40.63700
H  -7.53400 38.63900 37.75000
H  -8.89900 37.63900 38.20700
H  -7.89600 35.75900 37.90700
H  -6.51200 36.16800 38.94500
H  -7.30300 44.62200 39.68600
H  -7.68100 45.85200 40.81200
H  -8.51700 45.99600 39.22800
H  -12.85100 46.51000 40.89000
H  -12.27700 48.07700 41.41800
H  -12.21600 46.76100 42.60800
H  -15.25900 43.84000 41.93800
H  -15.87400 41.55000 43.72500
H  -15.07800 43.10700 44.93800
H  -15.70200 44.59100 44.05600
H  -13.94600 44.28000 44.26200
H  -16.42100 41.00800 40.82500
H  -17.05800 42.50900 41.52300
H  -18.49400 41.29800 42.80000
H  -17.35800 39.95700 43.06300
H  -18.25000 40.00000 41.60400
H  -14.69400 36.50800 44.00900
H  -14.14900 35.27800 42.71800
H  -15.25100 36.51800 42.31900
H  -10.14200 35.84900 39.75500
H  -6.60600 33.72200 41.21700
H  -7.64400 32.47200 40.38800
H  -8.00400 32.93800 42.00300

