158

Mg 49.52600 35.64600 27.25300
C  47.56700 34.20400 29.77500
C  50.14300 38.24400 29.32300
C  51.57800 36.84800 24.93300
C  48.45000 33.16700 25.01500
N  48.92100 36.19500 29.37500
C  48.23500 35.33100 30.25600
C  48.41900 35.80800 31.69000
C  48.96900 37.29600 31.48400
C  49.25500 37.29400 29.92400
C  48.04100 38.47000 31.88700
C  49.35900 34.79100 32.51300
C  49.22800 34.89500 34.03600
H  48.19500 35.84400 34.60000
N  50.65300 37.32500 27.14800
C  50.72500 38.37200 28.04100
C  51.70200 39.29800 27.65500
C  52.20600 38.87100 26.37900
C  51.45400 37.67500 26.06700
C  52.01300 40.51100 28.48700
C  53.24700 39.52200 25.50100
O  53.51500 39.09500 24.35200
C  54.00600 40.78700 25.86200
N  49.83200 35.13800 25.21900
C  50.84000 35.73100 24.48100
C  51.09600 34.97400 23.14500
C  50.13600 33.78100 23.26000
C  49.38600 34.08500 24.53000
C  50.90400 35.72800 21.80200
C  50.92300 32.38200 23.26600
C  50.82700 31.44700 22.02200
N  48.28400 34.08100 27.33100
C  47.97000 33.14500 26.32500
C  47.11700 32.10500 26.95200
C  46.94400 32.48000 28.29300
C  47.70100 33.70200 28.47800
C  46.63700 30.84000 26.33100
C  46.31100 32.07300 29.53100
O  45.55700 31.12200 29.76500
C  46.54700 33.25800 30.44300
C  46.77000 32.73000 31.81400
O  47.50900 31.80700 32.16600
O  45.73700 33.21100 32.66200
C  45.74900 32.59300 33.99600
H  50.25000 39.06400 30.03600
H  52.24600 37.24300 24.16400
H  48.18000 32.38100 24.30600
H  47.46400 35.70800 32.20700
H  49.89900 37.36800 32.04800
H  46.99300 38.18000 31.96800
H  48.03200 39.15000 31.03600
H  48.34700 38.84400 32.86400
H  50.36100 35.15800 32.29200
H  49.29200 33.74600 32.20900
H  50.18700 35.02800 34.53700
H  49.00800 33.84800 34.24700
H  52.36600 41.32300 27.85100
H  52.78500 40.27000 29.21700
H  51.14400 40.94400 28.98300
H  54.78800 40.91200 25.11300
H  54.49300 40.76300 26.83700
H  53.33400 41.63100 26.01900
H  52.16200 34.74400 23.17000
H  49.31000 33.81300 22.55000
H  51.16600 36.77500 21.95300
H  49.92500 35.59700 21.34100
H  51.71900 35.23800 21.26900
H  50.48900 31.80500 24.08300
H  51.96900 32.54200 23.52500
H  50.56200 30.45700 22.39300
H  51.79900 31.38700 21.53400
H  50.04700 31.66800 21.29300
H  47.42700 30.13400 26.58700
H  46.54300 31.12000 25.28200
H  45.63600 30.57100 26.66600
H  45.62800 33.84100 30.37800
H  45.53600 31.52400 34.01300
H  45.01700 33.12900 34.60000
H  46.69400 32.64500 34.53600
Mg 27.35800 49.73400 26.91700
C  25.49000 50.92800 29.62600
C  29.93800 49.16600 29.03600
C  29.57600 49.33900 24.30600
C  25.01600 51.10600 24.81600
N  27.69500 50.15700 29.10200
C  26.71300 50.30200 30.00000
C  27.19900 50.18300 31.40800
C  28.64300 49.61400 31.28000
C  28.76400 49.64100 29.70800
C  29.81600 50.31300 32.06100
C  26.17900 49.46700 32.44200
C  25.80400 50.31700 33.64500
H  26.48300 50.03400 34.93000
N  29.30800 49.05500 26.71900
C  30.19500 48.93100 27.72600
C  31.40500 48.36000 27.26200
C  31.35200 48.38700 25.87000
C  30.03400 48.95600 25.55100
C  32.53300 47.82400 28.01400
C  32.42100 48.05000 24.88400
O  32.32100 48.29800 23.69300
C  33.72400 47.42200 25.28300
N  27.40400 50.26100 24.83000
C  28.33400 49.91600 23.93600
C  27.83500 50.08600 22.50800
C  26.32500 50.27300 22.70600
C  26.19300 50.64800 24.19200
C  28.57500 51.22900 21.78600
C  25.36200 49.20000 22.22000
C  24.02200 49.69200 21.60000
N  25.58500 50.72400 27.08900
C  24.71600 51.21600 26.14600
C  23.55800 51.80800 26.76000
C  23.75300 51.71900 28.17000
C  25.03500 51.05700 28.28400
C  22.42100 52.45300 26.08500
C  23.25400 51.96400 29.54600
O  22.19300 52.42100 29.94400
C  24.36300 51.45300 30.51000
C  24.78700 52.70200 31.23000
O  25.85000 53.29200 31.04300
O  23.88800 53.09900 32.22400
C  24.42300 54.03500 33.15200
H  30.69900 48.81600 29.73700
H  30.27200 49.15200 23.48600
H  24.19100 51.46800 24.20000
H  27.35100 51.17800 31.82500
H  28.71200 48.55200 31.51700
H  30.52500 50.74100 31.35200
H  30.27400 49.52100 32.65400
H  29.47100 51.06600 32.76900
H  26.64500 48.54100 32.78100
H  25.22400 49.17300 32.00600
H  24.76800 50.02600 33.81600
H  26.00200 51.38100 33.51200
H  32.31100 47.57200 29.05100
H  33.40900 48.47000 28.07700
H  32.84600 46.88200 27.56300
H  33.55100 46.42800 25.69600
H  34.17400 48.10600 26.00300
H  34.29500 47.38400 24.35500
H  28.05100 49.16400 21.97000
H  26.07300 51.27100 22.34800
H  28.98200 50.97600 20.80700
H  29.42400 51.61300 22.35100
H  27.94700 52.11400 21.68100
H  24.94500 48.70200 23.09600
H  25.67700 48.26700 21.75100
H  24.23200 49.99900 20.57500
H  23.67000 50.58600 22.11500
H  23.22600 48.95800 21.72300
H  21.86700 51.81800 25.39400
H  22.87800 53.29000 25.55600
H  21.81900 52.77500 26.93400
H  23.92800 50.72300 31.19200
H  24.87000 53.35600 33.87800
H  23.63100 54.66100 33.56300
H  25.19900 54.74600 32.86900

