158

Mg 47.64900 24.59500 28.14400
C  48.77500 26.63300 30.83900
C  46.97400 22.21100 30.67300
C  46.60100 22.67100 25.75800
C  48.76500 26.93500 25.95200
N  47.89000 24.41000 30.54100
C  48.20000 25.42000 31.37700
C  48.04700 25.02700 32.83200
C  47.70900 23.54200 32.69400
C  47.46800 23.37600 31.22300
C  48.88200 22.56800 33.14300
C  46.94700 25.95600 33.56100
C  47.25600 26.90700 34.70700
H  46.37000 26.83400 35.89400
N  46.68500 22.74700 28.20800
C  46.61200 21.89800 29.29200
C  45.92900 20.67400 28.82500
C  45.73000 20.80700 27.40100
C  46.35100 22.12300 27.05000
C  45.56200 19.59300 29.90600
C  45.06900 19.87900 26.37200
O  44.90900 20.23800 25.21800
C  44.38800 18.68000 26.90300
N  47.63200 24.78300 26.09600
C  47.16600 23.84700 25.31200
C  47.33200 24.22800 23.80600
C  47.96500 25.63600 23.90800
C  48.13100 25.85000 25.42600
C  48.14200 23.19500 22.99100
C  47.30800 26.87400 23.20100
C  48.17900 27.88700 22.57000
N  48.64200 26.31200 28.32200
C  49.00200 27.24300 27.35300
C  49.52600 28.43300 27.84100
C  49.46800 28.17500 29.26400
C  48.87700 26.89800 29.47000
C  50.08500 29.62500 27.13600
C  49.83800 28.81400 30.44500
O  50.53300 29.78100 30.65900
C  49.28300 27.86100 31.58500
C  50.35500 27.66200 32.64900
O  51.04900 26.64800 32.68900
O  50.44200 28.76000 33.47700
C  51.22000 28.58900 34.71400
H  46.68600 21.60100 31.53200
H  46.19900 22.05400 24.95200
H  49.34800 27.57100 25.28200
H  49.01900 25.19900 33.29500
H  46.79600 23.22400 33.19600
H  48.48700 21.61400 33.49400
H  49.46300 23.10300 33.89300
H  49.66800 22.37600 32.41200
H  46.22900 25.24300 33.96600
H  46.52000 26.52600 32.73600
H  47.08700 27.94100 34.40900
H  48.26400 26.81800 35.11300
H  45.15600 18.66000 29.51700
H  44.84100 19.95600 30.63900
H  46.48400 19.41200 30.45800
H  45.18900 18.07300 27.32500
H  43.92400 18.22000 26.03000
H  43.63600 18.91600 27.65600
H  46.35000 24.32600 23.34400
H  49.01600 25.61200 23.61900
H  48.31100 22.32000 23.61900
H  49.12900 23.40400 22.58000
H  47.58500 22.95800 22.08400
H  46.63300 27.37500 23.89500
H  46.65300 26.34600 22.50800
H  47.68900 28.06700 21.61300
H  49.13200 27.45300 22.26800
H  48.39600 28.79900 23.12600
H  50.37600 30.33100 27.91400
H  49.24400 29.94900 26.52200
H  50.89100 29.32900 26.46400
H  48.43500 28.41300 31.99300
H  51.22300 29.54000 35.24700
H  52.23500 28.19200 34.69200
H  50.52900 28.01600 35.33300
Mg 1.04200 43.38500 26.20200
C  2.60700 43.59400 29.38200
C  -1.84400 42.32200 27.80300
C  -0.18300 42.78900 23.21200
C  4.15600 43.85700 24.73800
N  0.45200 43.12100 28.39600
C  1.23300 43.34600 29.48600
C  0.40900 43.20400 30.72400
C  -0.93200 42.54000 30.24600
C  -0.79800 42.60300 28.68400
C  -1.23900 41.08000 30.70500
C  0.23400 44.61400 31.46300
C  0.58800 44.67100 33.00400
H  -0.26200 43.94100 34.00900
N  -0.77700 42.71700 25.61000
C  -1.81700 42.39600 26.36200
C  -2.90200 42.05700 25.49600
C  -2.47800 42.06700 24.13200
C  -1.08100 42.55000 24.27000
C  -4.27100 41.73700 26.08500
C  -3.20200 41.75800 22.87800
O  -2.71400 41.84600 21.73700
C  -4.54200 41.21300 22.84100
N  1.92400 43.14400 24.23500
C  1.18800 42.96100 23.16500
C  1.89000 43.11500 21.81200
C  3.17500 43.88300 22.36200
C  3.16300 43.59100 23.84500
C  2.13400 41.89600 21.00200
C  3.23100 45.47900 22.02500
C  4.30400 46.00000 21.04800
N  2.93600 43.80200 26.87600
C  4.10900 43.99400 26.15000
C  5.25500 44.10800 27.02000
C  4.68500 43.99300 28.33900
C  3.28400 43.73000 28.19500
C  6.62100 44.54500 26.61900
C  4.96400 43.92500 29.78000
O  5.97500 44.07800 30.46700
C  3.58800 43.76800 30.51800
C  3.64700 42.63000 31.43400
O  3.36900 41.50000 31.11700
O  3.82600 43.13200 32.68800
C  3.68800 42.11600 33.68500
H  -2.78300 42.09300 28.31100
H  -0.60500 42.71700 22.20800
H  5.09100 44.17600 24.27400
H  0.91900 42.50700 31.38900
H  -1.70000 43.25300 30.54600
H  -0.53900 40.92000 31.52500
H  -1.10800 40.29900 29.95600
H  -2.29800 40.99000 30.94800
H  -0.81600 44.87600 31.59200
H  0.75900 45.47700 31.05400
H  0.64900 45.71700 33.30700
H  1.62200 44.33000 33.05800
H  -4.39400 42.35500 26.97400
H  -4.39100 40.71200 26.43400
H  -4.96900 42.01600 25.29600
H  -5.27300 42.01400 22.73500
H  -4.74700 40.57100 23.69800
H  -4.51400 40.57500 21.95800
H  1.33400 43.86100 21.24300
H  4.13300 43.50700 22.00300
H  3.06900 41.44300 21.33200
H  2.34300 42.24300 19.99100
H  1.32500 41.16800 21.05800
H  3.27500 45.98700 22.98900
H  2.27600 45.65400 21.53000
H  4.83200 46.84300 21.49400
H  3.74200 46.32000 20.17000
H  5.00100 45.19000 20.83700
H  7.39900 44.04100 27.19200
H  6.61800 45.49600 27.15000
H  6.73400 44.60300 25.53600
H  3.49200 44.70600 31.06600
H  4.22900 42.66800 34.45300
H  4.20600 41.18300 33.46100
H  2.69700 41.86800 34.06600

