158

Mg 24.84500 -6.41600 47.57000
C  27.24900 -4.10800 46.48200
C  22.65400 -5.19300 45.12300
C  22.70300 -8.92200 48.11600
C  27.42500 -7.99700 49.25200
N  25.01200 -4.99900 45.86900
C  25.99600 -4.06700 45.78300
C  25.69700 -3.14000 44.63700
C  24.20100 -3.19000 44.52200
C  23.92200 -4.53900 45.19700
C  23.38000 -1.90800 44.93700
C  26.41800 -3.64200 43.34400
C  27.14000 -2.45800 42.58500
H  27.16500 -2.42200 41.06700
N  22.89700 -6.94300 46.80200
C  22.14600 -6.36600 45.77900
C  20.86100 -6.97000 45.59100
C  20.81900 -8.06100 46.50200
C  22.15700 -8.06200 47.20700
C  19.82600 -6.63300 44.59000
C  19.67100 -9.04000 46.64500
O  18.58000 -8.78900 46.05600
C  19.85100 -10.41700 47.33000
N  25.10700 -8.21400 48.49100
C  24.03300 -9.04400 48.66700
C  24.38000 -10.32100 49.46700
C  25.88100 -10.00800 49.80000
C  26.19000 -8.66500 49.20200
C  23.44000 -10.50400 50.68700
C  26.85600 -11.15500 49.33900
C  27.25000 -12.31100 50.25800
N  26.90200 -6.02700 48.07300
C  27.81600 -6.78400 48.69800
C  29.17800 -6.23600 48.58500
C  28.95700 -5.05500 47.84700
C  27.59900 -4.99400 47.48500
C  30.44600 -6.91300 49.03700
C  29.61100 -3.88400 47.26400
O  30.77700 -3.56600 47.47700
C  28.51700 -3.17300 46.44000
C  28.20400 -1.75100 46.87400
O  27.91600 -1.35700 48.00100
O  28.19200 -1.03600 45.64900
C  27.46100 0.19400 45.84700
H  21.90900 -4.74600 44.46000
H  21.94800 -9.65900 48.39700
H  28.15500 -8.57300 49.82400
H  25.89800 -2.10900 44.92600
H  23.98700 -3.47400 43.49200
H  23.98800 -1.03500 45.17500
H  22.68300 -2.16000 45.73600
H  22.79000 -1.64400 44.06000
H  25.85800 -4.25600 42.63800
H  27.19600 -4.30000 43.73300
H  28.17700 -2.63500 42.86800
H  26.73200 -1.51300 42.94500
H  19.51300 -7.54600 44.08300
H  20.21300 -5.96100 43.82400
H  18.92600 -6.28500 45.09700
H  20.74400 -10.83300 46.86200
H  18.92900 -10.94800 47.09300
H  19.93200 -10.33300 48.41400
H  24.36600 -11.11900 48.72400
H  26.02400 -9.83700 50.86700
H  23.96000 -10.90900 51.55500
H  22.58000 -11.11700 50.41800
H  22.97800 -9.58300 51.04200
H  27.71900 -10.72000 48.83500
H  26.45400 -11.63700 48.44800
H  26.82300 -13.26800 49.95900
H  26.97800 -12.06500 51.28400
H  28.31200 -12.48200 50.08600
H  31.28900 -6.22700 49.11100
H  30.83500 -7.63700 48.32100
H  30.34600 -7.46400 49.97200
H  28.82900 -3.13000 45.39700
H  27.82000 0.80600 46.67500
H  26.40300 -0.04500 45.96300
H  27.53900 0.81100 44.95200
Mg 53.02300 24.29100 44.98000
C  50.39200 26.39300 43.83300
C  51.47700 21.71500 43.60100
C  55.98500 22.75500 45.14400
C  54.57300 27.34900 45.83900
N  51.25900 24.15200 43.62200
C  50.25000 25.06200 43.36600
C  49.18400 24.44500 42.46300
C  49.26500 22.93100 42.83300
C  50.76000 22.90900 43.39200
C  48.30300 22.38700 43.95200
C  49.52500 24.84600 40.96200
C  48.29600 25.09400 40.10100
H  48.02700 24.15600 38.86800
N  53.64800 22.40800 44.62700
C  52.83600 21.47600 44.03100
C  53.54300 20.23900 44.05700
C  54.89300 20.44700 44.52100
C  54.90700 21.92500 44.79900
C  52.83200 18.93700 43.57100
C  55.96700 19.34500 44.68500
O  55.77400 18.18700 44.35100
C  57.21000 19.64100 45.46900
N  55.04400 25.00200 45.38200
C  56.02300 24.12200 45.57800
C  57.35000 24.80000 46.08800
C  56.85400 26.28000 46.19700
C  55.39600 26.23300 45.79900
C  58.24500 24.15900 47.25900
C  57.62700 27.28100 45.39500
C  58.33500 28.52500 46.04400
N  52.53500 26.38500 45.03900
C  53.22900 27.42100 45.51000
C  52.34200 28.57100 45.68800
C  51.20000 28.26000 44.95800
C  51.39800 26.90000 44.61100
C  52.77100 29.85800 46.31400
C  50.00300 28.71300 44.39700
O  49.51800 29.79400 44.41600
C  49.38500 27.55000 43.65600
C  49.32300 27.97300 42.17700
O  50.20400 28.60500 41.61700
O  48.05200 27.83400 41.72400
C  47.77000 28.55800 40.46800
H  50.91200 20.87000 43.20300
H  56.94200 22.25200 45.29600
H  55.03000 28.29200 46.14900
H  48.19200 24.84000 42.68200
H  49.38800 22.31700 41.94100
H  48.71200 21.82100 44.78900
H  47.69500 21.63300 43.45200
H  47.63000 23.18200 44.27500
H  50.09400 24.04100 40.49700
H  50.23500 25.66800 40.87000
H  48.39200 26.00200 39.50600
H  47.38400 25.19600 40.68800
H  52.75200 19.05800 42.49100
H  51.86300 18.86800 44.06600
H  53.43900 18.07600 43.84700
H  57.89600 20.39200 45.07800
H  57.61000 18.64700 45.66900
H  56.84900 19.91500 46.46000
H  58.04700 24.79300 45.24900
H  56.86600 26.48700 47.26700
H  57.76200 23.23900 47.58700
H  58.41400 24.85300 48.08200
H  59.25700 23.91900 46.93400
H  56.89100 27.71200 44.71500
H  58.35800 26.84500 44.71400
H  58.54700 28.38100 47.10400
H  57.73400 29.42100 45.89100
H  59.28100 28.56200 45.50300
H  53.34700 29.88500 47.23900
H  51.84600 30.38800 46.53800
H  53.36000 30.50900 45.66800
H  48.39100 27.30200 44.02800
H  48.59400 28.95400 39.87400
H  47.13500 29.41500 40.69300
H  47.18300 27.86600 39.86300

