158

Mg 46.72700 25.01600 28.71300
C  47.31200 27.45900 31.21200
C  45.67000 22.85200 31.12500
C  46.36500 22.77500 26.37500
C  48.40300 27.16800 26.43700
N  46.30300 25.22000 30.89100
C  46.54600 26.34700 31.68300
C  46.19100 26.09600 33.09600
C  45.96000 24.50700 33.10900
C  45.94000 24.13100 31.59400
C  46.96700 23.69900 33.85800
C  44.84400 26.83000 33.48500
C  44.52900 27.29000 34.96100
H  45.26100 26.52200 36.15800
N  45.99700 23.18000 28.72500
C  45.58400 22.43400 29.77200
C  45.05000 21.15300 29.34800
C  45.14300 21.11200 27.95700
C  45.84700 22.42900 27.63200
C  44.53200 20.17800 30.30200
C  44.68900 20.08400 26.88100
O  44.72000 20.27200 25.69100
C  44.13100 18.80900 27.34100
N  47.23000 25.01400 26.55900
C  47.06400 23.88200 25.89500
C  47.39300 24.09200 24.42300
C  47.99800 25.58100 24.45000
C  47.94800 25.98700 25.89700
C  48.30600 23.07300 23.76600
C  47.28600 26.52500 23.46900
C  45.84100 26.93200 23.88300
N  47.79000 26.81200 28.75500
C  48.32600 27.54000 27.78000
C  48.71700 28.78600 28.23600
C  48.43200 28.76400 29.58100
C  47.80100 27.55600 29.86000
C  49.08100 30.02400 27.46100
C  48.28000 29.64500 30.78400
O  48.64700 30.80400 30.90400
C  47.71700 28.72200 31.90000
C  48.70700 28.50700 32.89400
O  49.63900 27.70900 32.84300
O  48.46800 29.36800 34.02200
C  49.37900 29.21700 35.19000
H  45.40500 22.14000 31.90900
H  46.34500 22.11900 25.50300
H  48.84200 27.83000 25.68700
H  47.00400 26.37500 33.76700
H  44.95600 24.32200 33.49100
H  47.76800 24.42200 34.01100
H  47.20800 22.67700 33.56400
H  46.58600 23.46600 34.85200
H  43.99400 26.25900 33.11000
H  44.79500 27.80600 33.00300
H  43.50600 26.95800 35.13900
H  44.56300 28.37900 34.95900
H  44.27300 19.21100 29.87200
H  43.68200 20.60800 30.83200
H  45.32400 20.02800 31.03500
H  44.83300 18.16800 27.87300
H  43.81500 18.17800 26.51000
H  43.31300 19.02800 28.02800
H  46.45900 24.07400 23.86200
H  49.07100 25.62000 24.26300
H  48.72700 22.36700 24.48200
H  49.14300 23.51100 23.22200
H  47.73900 22.46800 23.05900
H  47.18100 25.92100 22.56800
H  47.96600 27.34200 23.22900
H  45.13800 26.73900 23.07200
H  45.75400 28.01300 23.99300
H  45.49100 26.43800 24.78900
H  48.47400 29.85200 26.57200
H  50.12400 29.95600 27.15000
H  48.91600 30.95500 28.00200
H  46.84100 29.14800 32.38900
H  48.76800 28.77100 35.97600
H  49.73500 30.20200 35.49300
H  50.22400 28.54200 35.05400
Mg 36.80400 49.29400 25.00700
C  36.73600 47.29300 27.84800
C  35.40100 51.85800 26.96700
C  36.13400 51.08300 22.28200
C  37.71800 46.59800 23.12100
N  36.14900 49.45300 27.13700
C  36.23700 48.56200 28.18300
C  36.01400 49.13600 29.53200
C  35.47900 50.56400 29.14000
C  35.65600 50.64100 27.61600
C  34.04600 50.95000 29.60400
C  37.29700 49.23500 30.47200
C  37.00700 48.72000 31.88000
H  35.68500 49.09400 32.54300
N  36.01000 51.27700 24.65200
C  35.54400 52.12800 25.58400
C  35.06300 53.34400 24.88500
C  35.32600 53.17300 23.48100
C  35.81500 51.82300 23.44000
C  34.42700 54.47400 25.61800
C  35.08800 54.17000 22.38200
O  35.35600 53.98600 21.18500
C  34.51500 55.58800 22.65900
N  36.75200 48.83700 22.99900
C  36.56900 49.77500 22.04900
C  37.01300 49.38900 20.67100
C  37.70800 48.00400 20.99000
C  37.37200 47.79900 22.48700
C  35.75400 49.17200 19.75800
C  39.17900 47.88600 20.59300
C  39.62900 46.59700 19.90400
N  37.07000 47.32200 25.32500
C  37.47000 46.32900 24.45700
C  37.65400 45.03800 25.27300
C  37.42800 45.46400 26.55600
C  37.08900 46.79600 26.55500
C  38.13000 43.72200 24.76600
C  37.41300 44.94300 27.91300
O  37.75800 43.88900 28.40000
C  36.93900 46.13600 28.79700
C  35.78000 45.70800 29.62900
O  34.62800 45.48800 29.28500
O  36.21000 45.46400 30.88900
C  35.19100 45.03500 31.80200
H  34.94100 52.62500 27.59400
H  36.25700 51.73400 21.41400
H  38.05900 45.70000 22.60100
H  35.24100 48.53000 30.00500
H  36.08900 51.40200 29.47700
H  34.15200 51.71200 30.37600
H  33.62800 50.03000 30.01200
H  33.45100 51.45700 28.84400
H  37.75000 50.22400 30.55400
H  38.05400 48.58200 30.03800
H  37.85400 49.05300 32.47900
H  37.11900 47.64500 31.74200
H  35.00300 55.39300 25.72900
H  34.36200 54.21400 26.67400
H  33.44200 54.65400 25.18500
H  33.51500 55.38800 23.04500
H  34.36000 56.14500 21.73500
H  35.17400 56.07800 23.37600
H  37.71500 50.15300 20.33800
H  37.13500 47.20400 20.52000
H  34.87300 49.34300 20.37600
H  35.69500 48.18800 19.29200
H  35.88400 50.01500 19.07900
H  39.83700 47.97700 21.45700
H  39.51800 48.64900 19.89300
H  39.86600 46.84500 18.87000
H  38.95400 45.74100 19.90000
H  40.54200 46.26600 20.39900
H  37.35400 43.15700 24.25000
H  38.47400 43.14500 25.62500
H  38.97100 43.80200 24.07800
H  37.76800 46.14100 29.50400
H  35.59500 44.83300 32.79400
H  34.82800 44.14300 31.29000
H  34.51000 45.87900 31.91200

