158

Mg 1.76800 8.14900 25.71100
C  2.59500 10.10700 28.49300
C  1.94400 5.38100 27.73600
C  1.13100 6.22500 22.99400
C  2.31100 10.93300 23.69300
N  2.42800 7.76800 27.90800
C  2.42100 8.74600 28.84800
C  2.42700 8.11300 30.27500
C  2.49000 6.57700 29.99100
C  2.25800 6.56300 28.45300
C  3.74600 5.78700 30.42000
C  1.14100 8.71100 30.98900
C  1.14600 8.88800 32.50200
H  2.24500 8.23400 33.30500
N  1.53100 6.12900 25.41200
C  1.62000 5.17400 26.37300
C  1.34500 3.93400 25.80300
C  1.04200 4.07700 24.42500
C  1.22800 5.51900 24.22100
C  1.12000 2.62700 26.69900
C  0.61600 2.95400 23.36200
O  0.31400 3.14900 22.23100
C  0.57100 1.56200 23.81600
N  1.89500 8.50900 23.58900
C  1.36300 7.56300 22.68400
C  1.16700 8.18600 21.27400
C  1.47600 9.71500 21.50700
C  1.97800 9.78300 22.97700
C  2.02800 7.51700 20.24600
C  0.45600 10.74200 21.04500
C  -0.85000 10.79300 21.88300
N  2.28600 10.12300 25.96800
C  2.35100 11.11100 25.07900
C  2.47200 12.33100 25.79900
C  2.57700 12.02900 27.09900
C  2.44600 10.63800 27.18800
C  2.58000 13.71900 25.12100
C  2.74700 12.54200 28.45100
O  2.83400 13.67700 28.81800
C  2.65800 11.33700 29.38500
C  3.70900 11.25600 30.33400
O  4.92700 11.07900 30.10100
O  3.12100 11.49200 31.57400
C  4.11400 11.66900 32.58700
H  2.06400 4.47900 28.34000
H  0.77700 5.69700 22.10600
H  2.40200 11.90500 23.20300
H  3.30800 8.30900 30.88600
H  1.64500 6.04400 30.42700
H  4.16200 5.16300 29.62900
H  3.37200 5.16900 31.23600
H  4.51100 6.46900 30.79400
H  0.30400 8.07800 30.69500
H  0.71500 9.63600 30.60100
H  0.18900 8.46800 32.81100
H  1.15500 9.96900 32.64000
H  0.31800 1.94300 26.42200
H  0.89600 2.96100 27.71100
H  2.06100 2.07800 26.65800
H  1.37700 1.24000 24.47500
H  0.38800 0.84400 23.01700
H  -0.29000 1.53400 24.48500
H  0.11100 8.11300 21.01300
H  2.34200 9.82700 20.85500
H  1.51900 6.63300 19.86300
H  2.96600 7.19200 20.69700
H  2.22100 8.16500 19.39000
H  0.20900 10.45400 20.02300
H  0.93600 11.72100 21.04200
H  -0.85300 10.03900 22.67000
H  -1.62200 10.63100 21.13000
H  -1.04300 11.78100 22.30100
H  2.81000 13.61700 24.06000
H  3.44900 14.27500 25.47400
H  1.70800 14.32200 25.37200
H  1.70300 11.47900 29.89100
H  4.76400 12.49800 32.31000
H  4.72400 10.78100 32.75200
H  3.49600 11.92100 33.45000
Mg 47.08400 24.47000 28.48700
C  47.90900 26.55700 31.20900
C  46.34600 21.94300 30.75600
C  46.65800 22.49400 25.91700
C  48.10800 27.04100 26.35600
N  47.15500 24.31300 30.69800
C  47.34400 25.33800 31.64600
C  47.00400 24.84300 33.10900
C  46.72600 23.33800 32.87600
C  46.71400 23.15000 31.37700
C  47.82300 22.49600 33.54100
C  45.85000 25.64700 33.89600
C  46.18600 26.35900 35.24500
H  45.03500 26.56200 36.26600
N  46.74600 22.45500 28.35800
C  46.32400 21.61300 29.35700
C  46.00300 20.35200 28.71900
C  46.26100 20.51000 27.31400
C  46.56100 21.90200 27.19800
C  45.59800 19.09500 29.51900
C  46.06900 19.47200 26.21200
O  46.19300 19.67800 25.00600
C  45.75700 17.97500 26.53700
N  47.62600 24.67100 26.37600
C  47.20700 23.68100 25.57500
C  47.37100 24.08200 24.07900
C  47.39100 25.62300 24.24100
C  47.70400 25.83400 25.70000
C  48.67300 23.40400 23.47100
C  46.13900 26.45800 23.88500
C  44.90900 26.27700 24.79100
N  47.70600 26.40800 28.65700
C  48.17200 27.32900 27.71400
C  48.50800 28.60700 28.27300
C  48.38900 28.34400 29.68500
C  47.99200 26.94100 29.83500
C  49.05900 29.96200 27.70300
C  48.50000 28.99800 30.97900
O  48.68300 30.16500 31.38300
C  48.22900 27.84900 31.97500
C  49.48300 27.57700 32.76200
O  50.50200 27.10300 32.26100
O  49.22600 27.85700 34.06200
C  50.29300 27.79200 35.07800
H  46.11900 21.16700 31.49000
H  46.52200 21.83400 25.05700
H  48.23500 27.94700 25.75900
H  48.03500 24.96000 33.44400
H  45.73000 23.16400 33.28500
H  48.68400 22.24200 32.92200
H  47.25700 21.58500 33.73600
H  48.23900 22.79700 34.50200
H  45.07200 24.95300 34.21400
H  45.22400 26.29500 33.28300
H  46.63100 27.31800 34.98000
H  46.97800 25.74100 35.66900
H  44.62400 18.68900 29.24400
H  45.55600 19.13800 30.60700
H  46.19000 18.25100 29.16600
H  45.70500 17.39200 25.61700
H  44.73700 17.87800 26.90700
H  46.46600 17.60500 27.27800
H  46.45300 23.72600 23.61000
H  48.21200 25.98200 23.62100
H  48.44200 22.56000 22.82100
H  49.46000 23.24000 24.20700
H  48.93900 24.16600 22.73900
H  45.80800 26.14100 22.89600
H  46.42200 27.51100 23.88500
H  44.88900 25.46700 25.52100
H  44.06300 26.20000 24.10800
H  44.95400 27.18600 25.39000
H  48.55900 30.22300 26.77100
H  50.11200 29.91300 27.42400
H  48.98600 30.85400 28.32500
H  47.46800 28.14800 32.69500
H  49.88000 27.20600 35.89900
H  50.41800 28.75200 35.57700
H  51.25100 27.46000 34.67800

