158

Mg 31.18600 58.74300 40.73600
C  28.75100 56.41000 39.66800
C  33.57200 56.33700 39.88200
C  33.36200 61.16100 40.98500
C  28.54500 61.05900 41.17800
N  31.11600 56.54000 40.02400
C  30.00600 55.81900 39.60000
C  30.48500 54.49600 38.85500
C  31.91500 54.37800 39.43300
C  32.25700 55.85800 39.81300
C  32.13900 53.45000 40.71200
C  30.52700 54.58000 37.29000
C  29.60800 53.63700 36.44600
H  28.47900 54.35000 35.60700
N  33.12400 58.72200 40.61200
C  33.96400 57.68400 40.31200
C  35.36100 58.10100 40.38500
C  35.34600 59.45000 40.84100
C  33.88200 59.79400 40.85000
C  36.44100 57.16200 39.89900
C  36.52500 60.31100 41.27000
O  37.64900 59.80300 41.23900
C  36.40200 61.70600 41.80200
N  30.91000 60.81900 40.85700
C  31.99900 61.56800 41.06800
C  31.64900 63.02800 41.46400
C  30.09600 62.97900 41.74000
C  29.84400 61.55900 41.16500
C  32.38900 63.76000 42.61700
C  29.38300 64.03400 40.95400
C  28.09800 64.54900 41.72800
N  29.02900 58.76600 40.63200
C  28.15400 59.77100 40.83800
C  26.85100 59.21200 40.75700
C  26.98800 57.94200 40.22900
C  28.37200 57.70800 40.14700
C  25.55100 59.89300 41.16800
C  26.28900 56.70000 39.74900
O  25.11000 56.52900 39.44200
C  27.45700 55.66300 39.37700
C  27.32800 54.50000 40.29700
O  28.01400 54.25300 41.25700
O  26.08600 53.99500 40.12100
C  25.53700 52.84300 40.84500
H  34.23300 55.47900 39.74600
H  34.00500 62.01600 41.20600
H  27.79000 61.81300 41.41000
H  29.98600 53.58900 39.19800
H  32.65200 54.12100 38.67300
H  31.42500 52.62600 40.71100
H  32.01000 54.07000 41.59900
H  33.13000 52.99600 40.73100
H  31.54100 54.36100 36.95600
H  30.30200 55.60700 37.00300
H  28.97900 52.98400 37.05000
H  30.19300 53.01300 35.77100
H  36.16500 56.77100 38.91900
H  36.72800 56.44500 40.66800
H  37.33600 57.77200 39.77500
H  37.33500 61.93300 42.31700
H  35.57100 61.66500 42.50700
H  36.19400 62.36000 40.95500
H  31.85400 63.63500 40.58200
H  29.83500 62.99300 42.79900
H  32.85800 63.01900 43.26400
H  31.79100 64.41900 43.24700
H  33.17200 64.38500 42.18900
H  28.95800 63.72100 40.00100
H  30.07200 64.83700 40.69200
H  27.19700 64.23700 41.19800
H  28.10500 65.63800 41.71700
H  28.01200 64.08000 42.70800
H  25.42400 60.84500 40.65300
H  25.55600 60.01400 42.25100
H  24.77200 59.24400 40.76600
H  27.50300 55.33500 38.33900
H  24.65600 52.38000 40.39900
H  25.19100 53.29600 41.77400
H  26.30300 52.20900 41.29100
Mg -11.88200 37.42300 41.49700
C  -9.29300 35.23800 41.09600
C  -9.73100 39.97000 40.29900
C  -14.47300 39.48300 41.35700
C  -13.86000 34.75400 42.53000
N  -9.72500 37.59200 40.76500
C  -8.92500 36.51700 40.63200
C  -7.64300 36.80900 39.76100
C  -7.72300 38.46300 39.77600
C  -9.11900 38.72400 40.30000
C  -6.67600 39.18000 40.69800
C  -7.68600 36.18500 38.37100
C  -6.41700 35.44500 37.93400
H  -5.45500 36.14000 37.05100
N  -12.08800 39.46400 40.91900
C  -11.08000 40.32400 40.55000
C  -11.68100 41.63600 40.34300
C  -13.08400 41.52900 40.70300
C  -13.27700 40.17600 41.09500
C  -10.94800 42.87200 39.83100
C  -14.09400 42.69000 40.60100
O  -13.77300 43.83200 40.26500
C  -15.59500 42.50700 40.89700
N  -13.90400 37.15100 41.69900
C  -14.82500 38.19900 41.67000
C  -16.26800 37.65700 42.02500
C  -15.97100 36.21500 42.48900
C  -14.49200 35.97100 42.16700
C  -17.11400 38.52300 43.04400
C  -16.93200 35.07000 41.93300
C  -17.58800 34.16500 43.02800
N  -11.59800 35.43700 41.88700
C  -12.47700 34.46900 42.35500
C  -11.72000 33.24100 42.61200
C  -10.46000 33.45800 42.07500
C  -10.46800 34.83700 41.55900
C  -12.09900 32.06500 43.30800
C  -9.20900 32.90700 41.89100
O  -8.76400 31.90300 42.35600
C  -8.38900 33.91600 41.08400
C  -7.05100 34.00900 41.76900
O  -6.07100 33.31700 41.49100
O  -7.13600 34.93300 42.77600
C  -5.94400 35.11500 43.57100
H  -9.06500 40.78600 40.00800
H  -15.37100 40.09500 41.46100
H  -14.53800 33.94600 42.81200
H  -6.71400 36.48200 40.22700
H  -7.70600 38.72000 38.71700
H  -5.89900 39.52500 40.01500
H  -6.18000 38.63200 41.49900
H  -7.11700 39.99700 41.26900
H  -7.94000 36.97400 37.66400
H  -8.55500 35.53900 38.25000
H  -6.88200 34.61100 37.40800
H  -5.89700 35.01100 38.78800
H  -11.28300 43.79800 40.30000
H  -11.35300 43.06700 38.83800
H  -9.86800 42.78200 39.71800
H  -15.76900 41.94200 41.81200
H  -15.95900 41.96700 40.02300
H  -16.11000 43.46700 40.93800
H  -16.86500 37.59500 41.11500
H  -16.13300 36.27900 43.56500
H  -17.57800 39.29000 42.42400
H  -16.45800 39.05100 43.73600
H  -17.94700 37.95200 43.45400
H  -16.43100 34.35400 41.28100
H  -17.70200 35.45500 41.26400
H  -17.38500 33.12300 42.78000
H  -18.65700 34.37000 42.96800
H  -17.24500 34.40700 44.03400
H  -12.87500 31.52500 42.76400
H  -12.57600 32.42900 44.21800
H  -11.27900 31.36200 43.45600
H  -8.25200 33.75200 40.01500
H  -5.08900 34.47500 43.35500
H  -6.28400 34.97800 44.59800
H  -5.57400 36.12600 43.39900

