158

Mg 46.89200 16.72600 28.06700
C  45.82500 16.32500 31.24300
C  49.58800 18.60700 29.32900
C  48.13200 17.28000 24.93600
C  44.14200 14.96600 26.89100
N  47.50400 17.48300 30.05100
C  46.98100 17.06500 31.20300
C  47.81200 17.43200 32.42000
C  48.80700 18.37600 31.75400
C  48.60500 18.18800 30.28400
C  48.63600 19.88200 32.03700
C  48.40700 16.22500 33.18500
C  47.92900 16.17000 34.74700
H  47.98600 17.47600 35.60800
N  48.63500 17.83800 27.21800
C  49.60200 18.53900 27.93200
C  50.58700 19.05100 27.01400
C  50.14600 18.59200 25.69400
C  48.89200 17.92600 25.94200
C  51.72700 19.86700 27.41700
C  50.82900 18.78500 24.37100
O  50.31600 18.45500 23.30300
C  52.09700 19.49300 24.31600
N  46.26100 16.16100 26.22900
C  46.92600 16.50700 25.07500
C  46.10400 16.03300 23.83800
C  44.91000 15.25900 24.41500
C  45.11800 15.47000 25.92900
C  45.65000 17.21100 22.91500
C  44.71100 13.73600 23.98600
C  44.00900 13.48000 22.70100
N  45.20300 15.91900 28.88000
C  44.25800 15.08700 28.28100
C  43.32500 14.63700 29.29300
C  43.93800 15.01800 30.52600
C  45.09800 15.76100 30.16900
C  42.14700 13.76600 29.03600
C  43.84800 14.97200 31.97400
O  43.00800 14.43000 32.72400
C  45.06600 15.77500 32.39600
C  44.54900 16.90500 33.22800
O  44.23000 18.04700 32.81000
O  44.35100 16.51300 34.56000
C  43.46700 17.35900 35.38200
H  50.41000 19.14700 29.80200
H  48.37000 17.41200 23.87800
H  43.25000 14.53500 26.43100
H  47.24400 18.07000 33.09700
H  49.79800 18.04000 32.05900
H  49.55000 20.31100 31.62700
H  48.63300 20.10600 33.10400
H  47.71600 20.23000 31.56700
H  49.49300 16.30600 33.17300
H  48.04600 15.27000 32.80200
H  48.56400 15.41000 35.20300
H  46.89900 15.84000 34.87700
H  51.70100 20.80500 26.86100
H  52.57500 19.24100 27.13900
H  51.74100 20.10300 28.48100
H  52.02700 20.46700 24.80000
H  52.23400 19.64600 23.24600
H  52.88700 18.90200 24.77900
H  46.73600 15.41100 23.20600
H  44.00500 15.81700 24.17500
H  46.32600 17.23000 22.06000
H  45.48200 18.17000 23.40400
H  44.70200 16.92000 22.46300
H  44.08000 13.28200 24.75000
H  45.72900 13.34500 23.99700
H  43.10800 12.89400 22.88100
H  44.66900 12.91000 22.04600
H  43.75300 14.37800 22.13900
H  42.07900 13.60600 27.96000
H  41.27000 14.33000 29.35400
H  42.32300 12.79900 29.50700
H  45.67000 15.21500 33.11000
H  42.43200 17.04700 35.24600
H  43.60100 18.44100 35.35000
H  43.65500 17.15700 36.43700
Mg 26.81300 50.69400 26.75400
C  24.73200 51.55700 29.64600
C  29.14100 49.55300 28.94100
C  28.58900 49.67000 24.10000
C  24.35700 51.94100 24.76900
N  26.77500 50.39900 29.06500
C  25.85600 50.80200 29.99700
C  26.21400 50.40100 31.43300
C  27.74700 50.00400 31.16300
C  27.95500 50.00600 29.63500
C  28.83000 50.80000 31.91800
C  25.36300 49.27100 32.19500
C  24.77300 49.50000 33.55400
H  25.78500 49.94000 34.60000
N  28.58200 49.72100 26.58600
C  29.43100 49.35900 27.60500
C  30.57700 48.68700 27.09700
C  30.53000 48.78000 25.66500
C  29.20200 49.38400 25.41100
C  31.68200 48.26800 28.02000
C  31.51200 48.40600 24.53900
O  31.31300 48.74500 23.35800
C  32.87200 47.94800 24.88600
N  26.53500 50.71400 24.70900
C  27.39600 50.27500 23.74800
C  26.86400 50.58500 22.36000
C  25.43200 50.88200 22.60500
C  25.40100 51.21100 24.09800
C  27.67000 51.71700 21.63300
C  24.30000 49.90100 22.19400
C  23.11800 50.48900 21.45500
N  25.04400 51.69700 27.06000
C  24.11900 52.19000 26.12800
C  22.88300 52.69300 26.80400
C  23.14800 52.54500 28.15300
C  24.42400 51.88500 28.26900
C  21.68000 53.24100 26.08900
C  22.57000 52.77200 29.49800
O  21.60700 53.37100 29.79400
C  23.57100 52.12400 30.46600
C  23.97900 53.16100 31.50400
O  24.76800 54.01200 31.25600
O  23.22900 52.93100 32.61600
C  23.61700 53.69500 33.80500
H  29.83100 49.14700 29.68300
H  29.15600 49.35600 23.22200
H  23.58600 52.24300 24.05700
H  26.16300 51.31900 32.01900
H  27.90400 48.93600 31.31700
H  28.44500 50.96900 32.92300
H  29.11700 51.73100 31.42900
H  29.73400 50.19100 31.95600
H  25.89200 48.32000 32.14000
H  24.45100 49.19300 31.60400
H  24.34200 48.57300 33.93200
H  23.98100 50.24900 33.58900
H  32.34800 47.52300 27.58300
H  31.28100 47.90900 28.96800
H  32.13900 49.23600 28.22300
H  33.51800 48.04000 24.01200
H  32.82100 46.89000 25.14300
H  33.24600 48.47000 25.76700
H  27.07000 49.69900 21.76000
H  25.02800 51.79700 22.17100
H  28.44800 52.04800 22.32200
H  27.07200 52.57100 21.31600
H  28.34400 51.41800 20.83000
H  23.80600 49.43500 23.04600
H  24.74700 49.05800 21.66600
H  23.03300 49.89700 20.54400
H  23.31300 51.48300 21.05200
H  22.19100 50.55900 22.02400
H  20.96300 53.63000 26.81100
H  21.14600 52.59600 25.39100
H  22.15700 53.96500 25.42900
H  23.10600 51.27900 30.97200
H  22.71500 53.76500 34.41300
H  23.95500 54.72000 33.65400
H  24.38900 53.15000 34.34700

