158

Mg 0.44000 7.93900 25.98400
C  1.41600 9.85000 28.80600
C  0.53200 5.12400 27.92000
C  -0.14100 6.19000 23.25900
C  0.47300 10.98700 24.06300
N  0.82600 7.56900 28.08100
C  1.19400 8.46800 29.01800
C  1.34000 7.80800 30.45100
C  1.48600 6.22600 29.98600
C  0.90200 6.31300 28.59700
C  2.83400 5.52000 30.25300
C  0.24800 8.15900 31.47300
C  0.45300 8.04200 33.02800
H  1.70700 7.32500 33.44500
N  0.32400 5.85100 25.59600
C  0.32800 4.89600 26.55500
C  0.18500 3.64600 25.87700
C  -0.08500 3.90000 24.42200
C  0.02900 5.33600 24.38100
C  0.17300 2.32500 26.58600
C  -0.44600 2.97900 23.28600
O  -0.74400 3.35000 22.13600
C  -0.48900 1.51600 23.49300
N  0.27300 8.60600 23.94000
C  -0.11300 7.62800 23.03500
C  -0.51500 8.29300 21.73700
C  -0.50200 9.80800 22.03200
C  0.01600 9.88000 23.49400
C  0.23300 7.74900 20.41800
C  -1.87300 10.66500 21.88100
C  -2.04100 11.79100 20.81700
N  0.98400 10.00500 26.24400
C  0.90500 11.05000 25.39800
C  1.29300 12.30800 26.09500
C  1.52000 11.82100 27.42400
C  1.26500 10.45100 27.47100
C  1.42200 13.72000 25.60700
C  1.86700 12.27000 28.72700
O  2.07200 13.40400 29.12800
C  1.59100 11.04500 29.71700
C  2.79600 10.88700 30.64600
O  3.90900 10.50800 30.30400
O  2.40900 11.23700 31.88800
C  3.26800 11.05200 33.03500
H  0.59000 4.16600 28.44300
H  -0.49400 5.60400 22.40800
H  0.45000 11.88700 23.44400
H  2.28900 8.16200 30.85200
H  0.91500 5.61000 30.68100
H  3.47500 6.26500 30.72400
H  3.21600 5.23700 29.27200
H  2.72600 4.66400 30.91900
H  -0.62300 7.52600 31.30200
H  -0.05300 9.20400 31.39500
H  -0.42500 7.48200 33.34900
H  0.37600 9.04600 33.44500
H  -0.22100 1.47200 26.03500
H  -0.44100 2.44400 27.47800
H  1.15000 2.17900 27.04800
H  -1.41900 1.28000 24.01000
H  0.27800 0.98000 24.05300
H  -0.51600 1.00500 22.53000
H  -1.54300 7.93200 21.75000
H  0.25200 10.11500 21.30700
H  0.55200 8.51200 19.70700
H  -0.50700 7.05800 20.01300
H  1.06000 7.10000 20.70300
H  -2.24500 11.06500 22.82400
H  -2.62100 9.95000 21.53700
H  -2.78100 11.57900 20.04600
H  -1.04400 11.98900 20.42400
H  -2.26300 12.66700 21.42800
H  2.32100 13.83100 25.00200
H  1.36500 14.43100 26.43200
H  0.58500 13.89800 24.93200
H  0.72900 11.35700 30.30600
H  2.64000 10.70500 33.85600
H  3.79500 11.93700 33.39200
H  3.95000 10.24500 32.76700
Mg 52.71800 23.78800 44.17900
C  50.15900 26.08800 43.47200
C  50.80700 21.32500 42.68900
C  55.45800 21.87200 43.99900
C  54.53400 26.42600 45.49700
N  50.75100 23.77900 43.05700
C  49.95000 24.84900 42.89500
C  48.84800 24.36000 41.93100
C  48.80300 22.83500 42.08200
C  50.22700 22.61900 42.64400
C  47.67500 22.29800 43.07400
C  48.94000 24.77300 40.39800
C  50.33900 25.11900 39.87900
H  50.44300 25.95400 38.64600
N  53.07800 21.77200 43.46000
C  52.18400 20.90600 43.01300
C  52.81300 19.58600 42.98400
C  54.18200 19.78900 43.13600
C  54.30500 21.18000 43.60300
C  52.23600 18.22200 42.61000
C  55.28300 18.72700 42.96900
O  54.99000 17.65700 42.55600
C  56.64500 19.11600 43.01800
N  54.74600 24.22500 44.40800
C  55.68500 23.25900 44.30700
C  57.05400 23.70700 44.79700
C  56.73500 25.07800 45.41300
C  55.26900 25.32300 45.12500
C  57.80100 22.76900 45.81400
C  57.40300 26.32900 44.81100
C  57.86500 27.38400 45.78000
N  52.40800 25.85700 44.48400
C  53.21000 26.72600 45.13400
C  52.56400 27.99600 45.22800
C  51.27800 27.79200 44.70900
C  51.26900 26.48300 44.20700
C  53.11100 29.25300 45.82500
C  49.97600 28.37500 44.47000
O  49.59900 29.48300 44.79900
C  49.24300 27.29000 43.54900
C  48.98000 27.87100 42.18500
O  49.85700 28.00600 41.32100
O  47.72100 28.27200 42.09000
C  47.34800 29.12500 40.98600
H  50.20700 20.51900 42.26300
H  56.42300 21.36400 43.92900
H  55.05800 27.16800 46.10300
H  47.85000 24.68900 42.22000
H  48.67300 22.26400 41.16300
H  47.12900 21.50900 42.55700
H  46.92000 23.01100 43.40500
H  48.25600 21.92000 43.91600
H  48.39400 25.69400 40.19200
H  48.55600 23.90300 39.86600
H  50.80700 24.15600 39.67600
H  50.88500 25.55100 40.71800
H  52.38600 17.90700 41.57700
H  51.19900 18.38200 42.90700
H  52.46400 17.40700 43.29700
H  56.86800 19.37000 44.05400
H  56.86000 19.96900 42.37500
H  57.38700 18.37100 42.73000
H  57.69600 23.71900 43.91600
H  56.76800 25.12600 46.50100
H  57.05300 22.05500 46.15800
H  58.26200 23.30500 46.64400
H  58.54000 22.30000 45.16400
H  56.88300 26.80500 43.98000
H  58.28600 25.99800 44.26400
H  58.87300 27.67300 45.48500
H  57.89900 27.03900 46.81400
H  57.25100 28.26800 45.60700
H  52.42800 29.74100 46.52000
H  53.38700 30.06300 45.14900
H  54.04100 29.16500 46.38600
H  48.31600 27.05100 44.07000
H  48.24700 29.69800 40.75700
H  46.57300 29.86500 41.19000
H  47.14000 28.57300 40.06900

