158

Mg 8.64300 3.85900 28.04900
C  9.77500 2.29600 30.97300
C  6.52000 5.73000 29.98200
C  7.24600 5.01000 25.08400
C  10.44900 1.44400 26.15400
N  8.32100 3.97100 30.22600
C  8.92100 3.31600 31.23000
C  8.30200 3.74300 32.63300
C  7.25900 4.77200 32.22100
C  7.33900 4.82100 30.68700
C  5.75600 4.64500 32.70600
C  9.44400 4.11900 33.69400
C  9.18600 5.17400 34.71300
H  9.58400 4.90300 36.17400
N  7.20200 5.24500 27.61500
C  6.42200 5.89600 28.54100
C  5.56800 6.86100 27.83800
C  5.79200 6.70000 26.47300
C  6.75300 5.59000 26.36100
C  4.50000 7.63100 28.57200
C  5.15100 7.42200 25.27300
O  5.49900 7.16200 24.14900
C  4.16200 8.57700 25.46400
N  8.65600 3.17400 25.95500
C  8.09900 3.93100 24.97800
C  8.67200 3.50300 23.61400
C  9.95200 2.71000 24.01700
C  9.68700 2.39900 25.44700
C  7.61300 2.73800 22.82100
C  11.32300 3.43000 23.91400
C  11.25600 4.96700 23.83300
N  9.91900 2.18100 28.44400
C  10.56100 1.31200 27.57500
C  11.18500 0.24200 28.40400
C  11.03900 0.66600 29.73200
C  10.13800 1.76400 29.68900
C  11.87700 -1.03600 27.91000
C  11.35700 0.35100 31.08600
O  12.08000 -0.58800 31.52200
C  10.53200 1.37600 32.07300
C  9.60000 0.50300 32.81300
O  8.50800 0.15300 32.43600
O  10.16000 0.27700 34.02800
C  9.44400 -0.72000 34.86800
H  6.07600 6.46500 30.65700
H  6.94100 5.47000 24.14200
H  11.20100 0.88700 25.59200
H  7.79000 2.85100 32.99300
H  7.52100 5.74400 32.64000
H  5.64600 5.37900 33.50400
H  5.62600 3.64400 33.11700
H  5.01000 4.85600 31.93900
H  10.37400 4.38500 33.19200
H  9.64500 3.23700 34.30200
H  8.09800 5.17300 34.65200
H  9.55100 6.15000 34.39400
H  4.35600 7.43600 29.63500
H  3.60700 7.27500 28.05800
H  4.74400 8.67900 28.40000
H  3.60300 8.72000 24.54000
H  4.64500 9.54000 25.63100
H  3.47200 8.42900 26.29400
H  8.98700 4.41300 23.10400
H  9.97800 1.77800 23.45200
H  6.75800 2.45900 23.43600
H  8.02900 1.86800 22.31300
H  7.15600 3.49800 22.18700
H  11.74200 3.32500 22.91300
H  12.09800 3.16300 24.63300
H  11.19200 5.37900 22.82600
H  12.09700 5.52000 24.25100
H  10.35500 5.27500 24.36200
H  12.83500 -0.75200 27.47400
H  11.20700 -1.65100 27.30900
H  12.15500 -1.52500 28.84300
H  11.26600 1.91800 32.67000
H  9.30200 -1.70200 34.41500
H  8.44700 -0.36400 35.12500
H  10.07200 -0.80500 35.75500
Mg 26.21300 1.13500 29.75700
C  28.44900 0.92300 32.52100
C  23.68700 1.41100 32.16800
C  24.10600 1.37100 27.21100
C  28.75600 0.26900 27.64900
N  26.11600 0.94300 32.10400
C  27.13800 1.10900 32.98000
C  26.68200 1.30600 34.43200
C  25.17600 1.41800 34.20300
C  24.94400 1.34200 32.71100
C  24.33100 0.46100 35.01800
C  27.29600 2.54600 35.15600
C  27.52600 2.44000 36.66800
H  26.88700 3.46200 37.59500
N  24.12400 1.34000 29.70800
C  23.27400 1.41500 30.76200
C  21.95200 1.59700 30.25300
C  22.06900 1.62300 28.85100
C  23.50600 1.43100 28.52200
C  20.76100 1.63100 31.19200
C  20.98100 1.57300 27.84100
O  21.24500 1.52000 26.66400
C  19.61100 1.73800 28.30300
N  26.33500 0.72200 27.61400
C  25.38300 1.07600 26.75500
C  25.81000 1.12500 25.36700
C  27.39200 0.85700 25.47900
C  27.52700 0.57800 27.02200
C  25.15700 0.13900 24.32500
C  28.34200 2.01800 25.12700
C  29.29300 1.70100 23.99400
N  28.24100 0.59300 30.00400
C  29.14300 0.19000 29.04200
C  30.35500 -0.19100 29.72700
C  30.21200 0.15000 31.12100
C  28.86600 0.61700 31.24100
C  31.58200 -0.53800 29.01500
C  30.76700 0.19200 32.38400
O  31.87100 -0.10000 32.82100
C  29.73300 0.77800 33.35200
C  29.69400 -0.03500 34.54300
O  29.09000 -1.10300 34.68300
O  30.56000 0.57600 35.52100
C  30.34500 -0.07100 36.83800
H  22.92100 1.53600 32.93700
H  23.49600 1.56700 26.32700
H  29.44800 -0.09000 26.88500
H  26.86100 0.39200 34.99800
H  24.91400 2.36100 34.68300
H  24.83700 -0.43500 35.37900
H  23.50000 0.03300 34.45800
H  23.94400 0.87300 35.94900
H  26.73800 3.47300 35.02500
H  28.28100 2.79300 34.76000
H  28.57300 2.45900 36.96900
H  27.20500 1.45300 37.00200
H  20.32900 2.63100 31.15400
H  21.00000 1.41700 32.23400
H  20.05600 0.84000 30.93600
H  19.37200 0.87800 28.92900
H  18.93100 1.90500 27.46800
H  19.61000 2.68600 28.84100
H  25.49100 2.12500 25.07200
H  27.65600 -0.13600 25.11600
H  24.39500 -0.46500 24.81700
H  25.78700 -0.39700 23.61500
H  24.53000 0.72800 23.65600
H  28.96200 2.25500 25.99100
H  27.71100 2.84600 24.80500
H  29.26200 2.53500 23.29300
H  28.93700 0.86500 23.39100
H  30.31400 1.52000 24.32900
H  31.44200 -1.31000 28.25900
H  32.32900 -0.98500 29.67000
H  32.09900 0.35300 28.65900
H  30.02600 1.78900 33.63400
H  31.11200 -0.83100 36.98700
H  29.40800 -0.61900 36.93200
H  30.51500 0.62300 37.66200

