158

Mg 25.98300 1.18000 29.50900
C  28.30400 0.69300 32.31500
C  23.51100 1.27900 31.80100
C  23.96200 1.23300 26.91900
C  28.74600 0.53100 27.34100
N  25.98700 1.04200 31.84400
C  26.98500 0.91800 32.74000
C  26.42700 1.26400 34.20000
C  24.85100 1.23100 33.98700
C  24.77200 1.22000 32.47100
C  24.13600 0.03200 34.63400
C  27.02200 2.50400 34.92600
C  27.94000 2.23100 36.14000
H  27.93900 3.21800 37.34600
N  24.02900 1.26900 29.40800
C  23.12400 1.26400 30.43000
C  21.76500 1.41300 29.89800
C  21.88200 1.30700 28.48200
C  23.32600 1.28200 28.20500
C  20.59600 1.47400 30.79300
C  20.77400 1.29500 27.39500
O  20.91200 1.02400 26.20300
C  19.37900 1.53700 27.75800
N  26.36200 0.95000 27.45700
C  25.33500 1.10100 26.57500
C  25.78100 1.00000 25.13400
C  27.27300 0.73300 25.25200
C  27.51500 0.74500 26.76700
C  25.08000 -0.04900 24.21000
C  28.24100 1.64500 24.37600
C  29.07200 2.67300 25.18200
N  28.05400 0.65800 29.70000
C  29.02400 0.49800 28.74600
C  30.26200 0.23900 29.34600
C  30.06800 0.32900 30.72500
C  28.70100 0.55500 30.92000
C  31.64700 0.11700 28.72600
C  30.68500 0.26900 32.00000
O  31.88300 0.11300 32.35400
C  29.60800 0.49600 33.10400
C  29.52600 -0.67600 34.05300
O  29.04600 -1.76200 33.74900
O  29.82600 -0.30600 35.38500
C  29.36600 -1.19000 36.46000
H  22.68300 1.46000 32.49000
H  23.32200 1.10500 26.04300
H  29.47900 0.30600 26.56400
H  26.57800 0.31600 34.71600
H  24.36000 2.12800 34.36300
H  24.72600 -0.61800 35.28200
H  23.65700 -0.58900 33.87600
H  23.32700 0.41800 35.25400
H  26.18600 3.08800 35.31000
H  27.41300 3.23100 34.21400
H  28.98400 2.19100 35.82700
H  27.68300 1.26000 36.56300
H  19.97100 0.58100 30.77400
H  19.91100 2.24300 30.43500
H  20.77500 1.76500 31.82800
H  19.25400 2.55600 28.12600
H  19.08800 0.87100 28.57000
H  18.73100 1.51800 26.88200
H  25.56700 1.93500 24.61600
H  27.58100 -0.27500 24.97500
H  25.83800 -0.72100 23.80800
H  24.48500 0.31100 23.37000
H  24.33300 -0.61800 24.76400
H  27.72700 2.00700 23.48500
H  29.06000 1.00200 24.05400
H  28.35200 3.10800 25.87500
H  29.37400 3.49800 24.53800
H  29.94600 2.34600 25.74700
H  32.41000 0.66300 29.28000
H  31.66800 0.46400 27.69300
H  31.86000 -0.95000 28.79400
H  29.85900 1.32200 33.77000
H  28.80900 -2.09600 36.22100
H  28.63300 -0.54700 36.94700
H  30.17100 -1.33600 37.18000
Mg 35.31800 48.59900 25.50300
C  36.13200 46.78800 28.28800
C  34.13000 51.10100 27.69400
C  34.38700 50.37800 22.81600
C  36.03500 45.81800 23.40300
N  34.96700 48.77100 27.77800
C  35.57400 47.97300 28.68100
C  35.33100 48.47000 30.10800
C  34.50300 49.79800 29.86300
C  34.43600 49.91700 28.33500
C  33.16300 49.97000 30.50800
C  36.63600 48.65500 30.80400
C  36.71000 48.15300 32.24800
H  35.49300 48.21800 33.20600
N  34.46000 50.47900 25.27700
C  34.09700 51.37200 26.28000
C  33.79300 52.69700 25.70800
C  33.85500 52.51100 24.28400
C  34.23600 51.05400 24.06600
C  33.51000 53.96900 26.56100
C  33.59200 53.48700 23.18200
O  33.59600 53.17500 22.02600
C  33.42800 54.94600 23.52100
N  35.25600 48.12600 23.41900
C  34.84400 49.06300 22.51000
C  34.79700 48.52700 21.10700
C  35.47900 47.13000 21.24100
C  35.64400 47.01200 22.80300
C  33.33300 48.42700 20.53700
C  36.71000 46.97000 20.33600
C  37.96600 46.78200 21.14000
N  35.90200 46.71300 25.72300
C  36.20500 45.67600 24.77900
C  36.66700 44.55900 25.49700
C  36.71100 44.93500 26.90200
C  36.16600 46.24800 26.96000
C  37.07700 43.20000 25.10800
C  37.08300 44.55300 28.19200
O  37.52500 43.47300 28.65600
C  36.71900 45.66400 29.10800
C  35.77500 45.09800 30.18000
O  34.59600 44.93400 30.08900
O  36.48900 44.72000 31.24900
C  35.73000 44.52000 32.50000
H  33.94600 51.91500 28.39800
H  34.10100 51.00200 21.96600
H  36.33300 45.01900 22.72100
H  34.76400 47.67400 30.59000
H  35.03600 50.68900 30.19700
H  32.88700 49.00200 30.92600
H  32.47400 50.05100 29.66800
H  33.04200 50.88400 31.09000
H  36.94100 49.70100 30.77700
H  37.40800 48.16800 30.20800
H  37.45600 48.84100 32.64800
H  37.10000 47.14000 32.34300
H  32.71500 54.57900 26.13100
H  34.36700 54.63600 26.46600
H  33.27200 53.84300 27.61700
H  33.36800 55.51500 22.59300
H  34.36300 55.20300 24.01900
H  32.58200 55.25100 24.13600
H  35.35500 49.21400 20.47100
H  34.70900 46.42100 20.93700
H  33.01800 49.28500 19.94200
H  32.68000 48.12000 21.35300
H  33.35900 47.61100 19.81500
H  36.88900 47.80000 19.65300
H  36.63500 45.99600 19.85300
H  38.12700 47.37500 22.04100
H  38.75000 46.90500 20.39300
H  37.95100 45.77100 21.54700
H  36.90300 42.98000 24.05500
H  36.52000 42.47500 25.70200
H  38.12800 43.05800 25.36000
H  37.64700 46.02500 29.55100
H  34.80200 45.09100 32.46900
H  36.16800 44.83400 33.44800
H  35.41700 43.47700 32.53500

