158

Mg 16.75400 -3.27900 28.47800
C  15.42100 -1.26500 31.06000
C  18.73100 -4.74900 30.76900
C  18.41200 -4.79700 25.99100
C  15.04600 -1.27400 26.13100
N  17.08800 -2.89200 30.72500
C  16.34400 -2.19800 31.58000
C  16.75000 -2.51200 33.00000
C  17.95200 -3.44700 32.80700
C  17.92600 -3.73900 31.28600
C  19.35500 -2.97300 33.32200
C  15.55700 -3.07200 33.71700
C  15.15100 -2.44300 35.09200
H  16.13100 -1.39100 35.57100
N  18.22900 -4.66900 28.39100
C  18.96100 -5.11700 29.44700
C  19.83500 -6.19100 29.00300
C  19.67700 -6.30000 27.62300
C  18.70800 -5.22000 27.26100
C  20.77100 -6.94000 29.98500
C  20.38900 -7.21000 26.70000
O  20.30900 -7.07200 25.47400
C  21.15900 -8.31100 27.20100
N  16.86100 -2.89000 26.34700
C  17.64100 -3.68800 25.58500
C  17.56200 -3.22900 24.09700
C  16.37500 -2.26300 24.11700
C  16.04800 -2.15500 25.60000
C  18.83500 -2.69800 23.38000
C  15.10100 -2.58700 23.28200
C  14.72700 -1.73100 22.05500
N  15.48200 -1.68400 28.58100
C  14.80400 -1.02600 27.51600
C  13.89500 -0.05500 28.06700
C  14.13800 -0.06700 29.44900
C  15.06100 -1.11600 29.73500
C  12.96000 0.88200 27.30600
C  13.74200 0.49300 30.69900
O  12.95700 1.39000 30.93900
C  14.60700 -0.17800 31.78700
C  15.39200 0.85200 32.54400
O  16.59200 1.02900 32.54200
O  14.55700 1.48400 33.34100
C  15.13100 2.52100 34.18400
H  19.33600 -5.32000 31.47600
H  18.91600 -5.32700 25.18000
H  14.26000 -0.79100 25.54700
H  17.20700 -1.63400 33.45700
H  17.73700 -4.45900 33.15100
H  20.07000 -3.03700 32.50200
H  19.74000 -3.61200 34.11700
H  19.39600 -1.99200 33.79500
H  15.72400 -4.14400 33.82900
H  14.70300 -2.85500 33.07500
H  15.05500 -3.23200 35.83800
H  14.19300 -1.96200 34.89300
H  20.97400 -7.95400 29.64100
H  20.42400 -7.04300 31.01300
H  21.71900 -6.40100 30.01600
H  20.37200 -8.84100 27.73800
H  21.96500 -7.85100 27.77200
H  21.58900 -8.97900 26.45300
H  17.23500 -4.08100 23.50100
H  16.75700 -1.27700 23.85300
H  19.69600 -2.81200 24.03800
H  18.78400 -1.63000 23.16900
H  19.07600 -3.21900 22.45300
H  14.22300 -2.58500 23.92800
H  15.23100 -3.60200 22.90800
H  13.72600 -1.31100 22.15700
H  14.64300 -2.36900 21.17500
H  15.37000 -0.87400 21.85600
H  12.34300 0.20600 26.71500
H  13.46200 1.47200 26.53900
H  12.35700 1.46100 28.00500
H  13.92800 -0.59800 32.53000
H  15.32100 3.27600 33.42100
H  16.07900 2.28400 34.66600
H  14.43200 2.74800 34.98900
Mg 9.86900 49.22000 26.67300
C  8.25800 49.00200 29.58100
C  12.77500 50.00200 28.22200
C  11.45100 48.95300 23.73100
C  6.94000 48.50700 24.85500
N  10.46300 49.63100 28.66900
C  9.57000 49.36400 29.70900
C  10.32000 49.56000 31.06100
C  11.77100 49.99500 30.61500
C  11.72200 49.86000 29.09400
C  12.10700 51.48400 30.98400
C  10.42700 48.37800 32.01800
C  9.81300 48.50400 33.48400
H  10.76300 48.87300 34.57400
N  11.79200 49.65700 25.94000
C  12.86800 49.87300 26.80400
C  14.08900 49.81300 26.01700
C  13.76600 49.50600 24.64900
C  12.28100 49.32100 24.72600
C  15.44300 50.03200 26.64400
C  14.71400 49.24700 23.40600
O  14.28300 49.03900 22.28700
C  16.17900 49.32500 23.61600
N  9.18600 49.13600 24.43100
C  10.10700 48.86400 23.53200
C  9.56300 48.38300 22.23200
C  8.10200 48.09800 22.61800
C  8.03400 48.68700 24.00100
C  9.67600 49.34500 21.06400
C  7.76500 46.66900 22.70200
C  8.49300 45.79800 23.66500
N  8.00500 48.80300 27.14000
C  6.86000 48.57700 26.32100
C  5.69600 48.35000 27.17700
C  6.20100 48.57800 28.44300
C  7.62200 48.64700 28.37600
C  4.33000 48.04900 26.82700
C  5.80200 48.73800 29.83100
O  4.76500 48.70300 30.42000
C  7.16100 48.85500 30.66500
C  7.32300 47.76400 31.59500
O  7.81800 46.70100 31.29600
O  6.67200 48.11600 32.71500
C  6.44100 47.04600 33.70800
H  13.63400 50.20900 28.86400
H  12.06300 48.56600 22.91400
H  5.99800 48.18000 24.41000
H  9.81300 50.36300 31.59600
H  12.51300 49.31900 31.03900
H  11.28600 52.19100 31.10000
H  12.67200 51.91700 30.15900
H  12.69800 51.56700 31.89500
H  11.48600 48.24700 32.23800
H  10.13900 47.45200 31.52000
H  9.31000 47.56600 33.72100
H  9.03300 49.22400 33.23700
H  15.45700 49.91300 27.72800
H  15.89700 51.02000 26.56500
H  16.09300 49.23500 26.28400
H  16.68500 49.38800 22.65300
H  16.50100 48.42400 24.13900
H  16.37900 50.23400 24.18300
H  10.06100 47.50500 21.82100
H  7.39100 48.70000 22.05100
H  10.56500 49.97600 21.06300
H  8.96900 50.17400 21.10000
H  9.65500 48.78700 20.12800
H  7.92800 46.20100 21.73100
H  6.72700 46.59200 23.02400
H  8.99600 46.37100 24.44400
H  9.26500 45.25400 23.12000
H  7.79000 45.10700 24.13100
H  3.56300 48.59700 27.37500
H  4.24400 46.98000 27.02100
H  4.18000 48.23500 25.76400
H  7.08500 49.71800 31.32600
H  5.35700 46.96000 33.78700
H  6.83500 47.28400 34.69500
H  6.70700 46.03600 33.39400

