158

Mg 36.05500 2.48700 30.28600
C  33.41300 3.44900 32.34800
C  38.22500 2.48100 32.99900
C  38.56400 1.34900 28.26900
C  33.80200 2.31800 27.59200
N  35.82900 2.88000 32.39700
C  34.62500 3.21300 33.01400
C  34.86300 3.31300 34.53800
C  36.40300 3.40300 34.63800
C  36.90200 2.88000 33.21300
C  36.74400 4.89100 34.74100
C  34.19500 2.03000 35.20400
C  33.69100 2.05100 36.65100
H  34.34100 3.07500 37.66200
N  38.11300 2.00800 30.54400
C  38.78800 2.08500 31.73700
C  40.14700 1.72900 31.55700
C  40.24800 1.40300 30.19900
C  38.96700 1.57600 29.59300
C  41.12400 1.57300 32.70900
C  41.45300 0.91200 29.44000
O  41.43000 0.64300 28.23400
C  42.77900 0.76400 30.13100
N  36.21600 2.12500 28.15800
C  37.27900 1.51200 27.63800
C  37.02000 1.07100 26.17400
C  35.48100 1.09900 26.09200
C  35.16400 1.92200 27.35700
C  37.68000 2.03700 25.10800
C  34.78100 -0.25400 26.17800
C  33.95000 -0.57900 24.89700
N  34.10700 3.05700 29.89300
C  33.32000 2.92300 28.80200
C  31.90600 3.23300 29.17300
C  31.94700 3.47700 30.57500
C  33.29200 3.37600 30.91400
C  30.70800 3.13300 28.30100
C  31.15000 3.88700 31.71900
O  29.99200 4.23900 31.85200
C  32.11400 3.80000 32.91400
C  31.98100 5.14300 33.58600
O  32.38900 6.16300 33.21500
O  31.55100 4.91900 34.84600
C  31.79500 6.01500 35.79800
H  38.83100 2.61400 33.89800
H  39.23700 0.87000 27.55500
H  32.99400 2.04300 26.91100
H  34.35800 4.18600 34.95300
H  36.69800 2.88400 35.55100
H  37.54500 5.16100 34.05200
H  36.97800 5.17100 35.76800
H  35.89300 5.54100 34.53600
H  34.88200 1.20600 35.01500
H  33.36800 1.70800 34.57000
H  33.58100 1.06300 37.09600
H  32.69000 2.41800 36.42200
H  40.61700 1.36100 33.65100
H  41.53100 2.55900 32.93100
H  42.02400 0.98100 32.54900
H  43.08700 1.63500 30.70800
H  43.53000 0.59600 29.36000
H  42.81000 -0.18600 30.66500
H  37.38400 0.05400 26.03300
H  35.11800 1.71400 25.26800
H  37.08500 2.09800 24.19700
H  38.64500 1.67300 24.75600
H  37.61500 3.06100 25.47700
H  33.95900 -0.19700 26.89300
H  35.47400 -1.04000 26.47700
H  33.82000 -1.64400 24.70600
H  34.52800 -0.17600 24.06500
H  33.03300 -0.00000 24.77700
H  30.68900 2.18600 27.76200
H  30.81300 3.93200 27.56700
H  29.76700 3.17700 28.85000
H  31.68000 2.93500 33.41500
H  30.94000 6.68700 35.86200
H  32.70400 6.56000 35.54500
H  31.94500 5.55900 36.77700
Mg 30.18800 58.33700 39.93700
C  27.10600 56.87600 38.95400
C  31.73100 55.52300 38.93900
C  33.12100 59.97100 40.29900
C  28.54500 61.22900 40.71100
N  29.42100 56.30800 39.22800
C  28.17000 55.93000 38.86300
C  28.17200 54.55400 38.11900
C  29.62200 54.05200 38.44700
C  30.33300 55.35800 38.89900
C  29.83900 53.03000 39.63700
C  27.80600 54.50000 36.57100
C  28.69600 55.40900 35.63600
H  27.86400 56.32900 34.78800
N  32.15300 57.86400 39.57000
C  32.56300 56.61100 39.26400
C  33.98400 56.66400 39.16400
C  34.49100 57.92100 39.54300
C  33.24000 58.61600 39.86800
C  34.73100 55.38000 38.72800
C  35.91100 58.38600 39.44100
O  36.72500 57.52200 39.01800
C  36.34700 59.78500 39.69100
N  30.76900 60.38300 40.25900
C  32.06000 60.74200 40.57000
C  32.10900 62.20800 40.75000
C  30.66300 62.59300 41.08600
C  29.89800 61.30800 40.69100
C  33.10300 62.77400 41.81800
C  30.01400 63.84100 40.43800
C  29.42700 64.83400 41.48700
N  28.25500 58.93900 39.95900
C  27.70800 60.19400 40.28300
C  26.28700 60.17000 40.08600
C  25.98400 58.85900 39.56500
C  27.22800 58.14800 39.47600
C  25.29000 61.23400 40.39900
C  24.88600 57.98100 39.15500
O  23.69700 58.07300 39.17500
C  25.67400 56.73700 38.64000
C  24.99800 55.59800 39.30700
O  24.93000 55.37600 40.49200
O  24.63700 54.79600 38.31000
C  23.95900 53.51000 38.74900
H  32.26300 54.64300 38.57100
H  34.08900 60.47400 40.35800
H  27.92300 62.05100 41.07400
H  27.45300 53.93300 38.65300
H  30.14100 53.70400 37.55300
H  28.93000 53.15700 40.22500
H  30.72000 53.23200 40.24700
H  29.92000 51.99900 39.29100
H  26.74000 54.72600 36.55400
H  27.85000 53.45600 36.26000
H  29.20300 54.74300 34.93700
H  29.40600 56.00700 36.20800
H  34.75800 55.29500 37.64200
H  34.21300 54.46400 39.01500
H  35.75700 55.34800 39.09500
H  35.75600 60.36700 38.98300
H  37.39900 59.94300 39.45700
H  36.32400 60.09800 40.73400
H  32.25300 62.64000 39.76000
H  30.70700 62.51600 42.17300
H  33.87000 62.10800 42.21400
H  32.57800 63.11600 42.71000
H  33.64700 63.55900 41.29300
H  29.18100 63.55900 39.79300
H  30.66000 64.49800 39.85600
H  28.54000 65.34100 41.10800
H  30.18800 65.61200 41.54100
H  29.25300 64.34800 42.44700
H  25.60100 61.62000 41.37000
H  24.25600 60.88800 40.39300
H  25.39400 62.02400 39.65400
H  25.45800 56.62500 37.57800
H  24.07200 52.71600 38.01100
H  22.90100 53.76700 38.79300
H  24.34700 53.05500 39.66000

