158

Mg 1.64800 -2.02000 43.97600
C  4.77800 -0.50200 43.78100
C  0.23600 0.91000 42.57800
C  -1.31700 -3.54500 44.04300
C  3.18700 -4.86400 45.18800
N  2.39900 -0.15800 43.06400
C  3.73700 0.27400 43.21500
C  3.96400 1.66700 42.48200
C  2.45100 2.17100 42.46600
C  1.63600 0.91500 42.67300
C  2.13200 3.31900 43.45100
C  4.69100 1.61800 41.14500
C  4.71400 2.88200 40.31200
H  4.03200 2.97800 38.95100
N  -0.24600 -1.41600 43.30000
C  -0.64600 -0.17800 42.81600
C  -2.05300 -0.22700 42.50100
C  -2.56100 -1.46300 43.07700
C  -1.36900 -2.18000 43.57700
C  -2.74800 0.96100 41.91400
C  -4.00700 -1.86800 43.07100
O  -4.75400 -1.15200 42.41500
C  -4.60300 -3.03000 43.67700
N  1.04300 -3.95500 44.40400
C  -0.23600 -4.27100 44.56200
C  -0.48100 -5.61300 45.24200
C  1.00300 -6.12500 45.37500
C  1.81500 -4.96500 44.93900
C  -1.30400 -5.39800 46.55300
C  1.38500 -7.29500 44.45500
C  2.13400 -8.46600 45.12200
N  3.61700 -2.60600 44.49000
C  4.00500 -3.72100 44.95800
C  5.49100 -3.71600 45.13600
C  5.86800 -2.42200 44.75300
C  4.66300 -1.75200 44.36500
C  6.35800 -4.88700 45.71800
C  6.90300 -1.50400 44.48800
O  8.14100 -1.52800 44.62500
C  6.27600 -0.18900 43.84300
C  6.52600 0.95700 44.73200
O  6.09700 1.13000 45.86500
O  7.50500 1.76400 44.21100
C  7.87000 2.87300 45.05800
H  -0.20200 1.85700 42.25700
H  -2.26600 -4.07900 44.12400
H  3.66400 -5.73700 45.64000
H  4.54300 2.32600 43.12900
H  2.21200 2.58900 41.48800
H  1.27000 3.95500 43.24900
H  2.97700 4.00700 43.42600
H  2.02200 2.88500 44.44500
H  4.31300 0.87400 40.44300
H  5.69100 1.28400 41.42200
H  5.73100 3.23800 40.15100
H  4.19300 3.65300 40.87900
H  -2.25600 1.85200 42.30400
H  -3.70600 1.09200 42.41700
H  -2.96500 0.95200 40.84600
H  -4.26400 -3.99100 43.29100
H  -5.66900 -3.09500 43.45700
H  -4.53100 -2.86800 44.75300
H  -1.12400 -6.23400 44.62000
H  1.24200 -6.46100 46.38400
H  -0.69800 -5.34200 47.45700
H  -2.11200 -6.12600 46.61300
H  -1.79100 -4.42300 46.52500
H  1.80600 -6.98500 43.49900
H  0.43800 -7.75000 44.16500
H  2.88000 -8.07400 45.81300
H  2.77900 -8.86800 44.34100
H  1.53400 -9.21300 45.64200
H  6.09900 -5.71100 45.05300
H  5.99400 -5.05100 46.73200
H  7.43100 -4.69300 45.73600
H  6.80300 0.02800 42.91400
H  8.92900 2.95800 45.30100
H  7.31600 3.00200 45.98800
H  7.62600 3.72000 44.41700
Mg 49.00400 36.40900 27.52300
C  47.00200 34.79200 29.86400
C  49.17600 39.10700 29.78200
C  50.58100 38.28900 25.14800
C  48.37900 33.91500 25.22600
N  48.33100 36.83800 29.73800
C  47.48600 35.97400 30.41100
C  47.29600 36.46600 31.81900
C  47.63700 38.07800 31.60800
C  48.42500 38.06900 30.26200
C  46.46000 39.13300 31.41100
C  48.30100 35.78000 32.80200
C  47.76100 35.49500 34.19200
H  47.99500 36.52300 35.33300
N  49.79800 38.41000 27.50800
C  49.85100 39.30400 28.54200
C  50.70600 40.39600 28.12700
C  51.09800 40.22900 26.77900
C  50.50400 38.92200 26.41400
C  50.93200 41.42600 29.13300
C  51.90800 41.11700 26.00800
O  52.33000 40.73300 24.90000
C  52.25800 42.50300 26.40500
N  49.44800 36.11900 25.55100
C  50.01500 37.10200 24.77600
C  50.12700 36.64700 23.33500
C  49.53600 35.13800 23.33900
C  49.11000 35.00800 24.78500
C  49.49300 37.60300 22.30800
C  50.61200 34.06600 22.91500
C  50.26800 32.82500 22.10200
N  48.04900 34.68400 27.56000
C  47.90500 33.72000 26.53400
C  47.11900 32.61600 27.01800
C  46.66900 32.98900 28.31600
C  47.30600 34.26100 28.55400
C  46.85500 31.30100 26.31000
C  45.79900 32.69400 29.48500
O  45.17600 31.66500 29.75900
C  45.97300 33.87400 30.47900
C  46.27300 33.16400 31.72600
O  47.16400 32.37300 31.85900
O  45.38800 33.60500 32.71100
C  45.44800 32.91500 34.02100
H  48.97500 39.95500 30.44100
H  51.12100 38.84500 24.37800
H  48.06200 33.17100 24.49100
H  46.24800 36.27500 32.05200
H  48.39500 38.45700 32.29400
H  45.49300 38.73500 31.71800
H  46.39300 39.44300 30.36800
H  46.71600 39.98800 32.03800
H  49.24800 36.31900 32.82200
H  48.51000 34.79800 32.37900
H  48.31400 34.63400 34.56900
H  46.70900 35.21200 34.23400
H  50.90200 41.16000 30.18900
H  50.15100 42.17400 29.00500
H  51.88700 41.92500 28.96700
H  51.34300 42.98200 26.75300
H  52.67400 43.07600 25.57700
H  53.01800 42.45500 27.18500
H  51.19300 36.67600 23.10800
H  48.61500 35.09000 22.75900
H  48.92900 36.98900 21.60600
H  50.32600 38.08500 21.79600
H  48.98800 38.49700 22.67400
H  51.14900 33.76400 23.81300
H  51.41000 34.56300 22.36200
H  50.40600 31.87100 22.61000
H  50.82200 32.88900 21.16600
H  49.22100 32.76700 21.80600
H  45.89500 31.38000 25.79900
H  46.68600 30.48500 27.01300
H  47.57400 31.06500 25.52600
H  45.06900 34.48300 30.46600
H  45.28200 33.63800 34.82000
H  46.36300 32.35700 34.21700
H  44.59400 32.23900 34.06400

