158

Mg 8.56300 3.52100 28.09900
C  10.30400 1.95200 30.84000
C  6.57700 5.04500 30.13100
C  7.26900 4.69700 25.35900
C  10.66100 1.40300 25.93000
N  8.32800 3.24700 30.22100
C  9.24400 2.81600 31.14100
C  8.85200 3.26600 32.52200
C  7.54700 4.08700 32.30100
C  7.48500 4.16000 30.75200
C  6.25600 3.72600 33.09700
C  10.03900 3.98800 33.35100
C  9.58500 4.96000 34.44500
H  10.20500 4.86700 35.76900
N  7.17500 4.80000 27.82600
C  6.42300 5.32400 28.78500
C  5.45500 6.27700 28.17800
C  5.55900 6.08700 26.76000
C  6.70300 5.16900 26.56400
C  4.49800 7.11100 28.95100
C  4.78600 6.65500 25.73200
O  5.00800 6.37400 24.55700
C  3.70300 7.68900 25.94800
N  9.01500 3.15900 25.93900
C  8.37700 3.90900 25.03400
C  8.79800 3.59300 23.54700
C  10.01900 2.65200 23.77700
C  9.88900 2.37800 25.35100
C  7.65500 3.14700 22.56000
C  11.36400 3.29600 23.42600
C  11.89400 4.34800 24.38500
N  10.14900 1.97700 28.24500
C  10.79800 1.19600 27.30100
C  11.71700 0.41000 28.00500
C  11.61300 0.70000 29.39000
C  10.57900 1.58600 29.46300
C  12.66000 -0.45600 27.32400
C  12.11500 0.45500 30.72400
O  12.96100 -0.29600 31.08800
C  11.21300 1.24600 31.72200
C  10.59300 0.33800 32.73500
O  9.59000 -0.28800 32.43900
O  11.16800 0.53400 34.02300
C  10.37200 -0.05000 35.10100
H  5.95400 5.59900 30.83700
H  6.94500 4.92300 24.34100
H  11.19300 0.67800 25.30900
H  8.65800 2.37900 33.12600
H  7.61300 5.13900 32.57900
H  6.48800 2.70700 33.40800
H  5.36900 3.69400 32.46400
H  6.18500 4.47000 33.89100
H  10.40600 4.58200 32.51400
H  10.77200 3.21800 33.59600
H  8.49900 5.01900 34.51100
H  9.87700 5.95100 34.09900
H  3.44000 6.89000 28.81600
H  4.73800 8.15100 28.73400
H  4.77100 7.09000 30.00600
H  3.32600 8.00400 24.97500
H  4.10700 8.55600 26.47100
H  2.90400 7.22600 26.52700
H  9.13100 4.56700 23.18700
H  9.87200 1.68500 23.29600
H  6.68600 3.36600 23.00700
H  7.74100 2.11200 22.22700
H  7.71300 3.77700 21.67300
H  11.26400 3.65500 22.40100
H  12.05700 2.45500 23.38900
H  11.24800 4.39600 25.26100
H  11.98800 5.31700 23.89600
H  12.88000 4.06500 24.75400
H  13.29700 0.08600 26.62600
H  12.27600 -1.32900 26.79700
H  13.37800 -0.65600 28.11900
H  11.90900 1.87600 32.27600
H  9.78900 0.74900 35.55800
H  11.06700 -0.33300 35.89300
H  9.81100 -0.92500 34.77400
Mg 26.01200 0.89000 29.26800
C  27.69300 0.56300 32.19200
C  23.05500 1.42700 30.88600
C  24.57400 0.92000 26.16800
C  29.14900 0.18400 27.61100
N  25.32700 0.66600 31.36100
C  26.28700 0.79700 32.32900
C  25.53700 1.21400 33.69100
C  24.14500 1.37000 33.23700
C  24.13500 1.18900 31.74300
C  23.17100 0.41100 34.01200
C  26.14700 2.46600 34.30600
C  26.85900 2.24900 35.65600
H  26.44200 3.11100 36.89300
N  24.14000 1.09100 28.61300
C  23.03800 1.33400 29.44500
C  21.86100 1.36900 28.59400
C  22.25100 1.23100 27.29000
C  23.69600 1.08100 27.31500
C  20.48400 1.50600 29.24600
C  21.47700 1.45200 25.97300
O  21.91000 1.23000 24.85500
C  20.01200 1.85300 26.09300
N  26.74700 0.67000 27.19000
C  25.96100 0.85400 26.11000
C  26.73900 0.58500 24.81400
C  28.23600 0.59300 25.25100
C  28.08400 0.55200 26.79100
C  26.34000 -0.66300 23.94600
C  29.16200 1.80000 24.83200
C  29.74000 1.64100 23.47500
N  27.99500 0.20800 29.73600
C  29.19000 0.06000 28.95200
C  30.26800 -0.18700 29.83200
C  29.69800 0.04600 31.11300
C  28.33100 0.26600 31.03100
C  31.62700 -0.66100 29.56700
C  30.02500 0.12700 32.56100
O  31.04700 0.06400 33.21800
C  28.73400 0.44000 33.27100
C  28.50100 -0.67300 34.27000
O  27.86800 -1.72300 34.05600
O  28.88300 -0.26000 35.53600
C  28.45100 -1.13900 36.65100
H  22.19200 1.88100 31.37800
H  24.17900 0.91400 25.15000
H  30.10700 0.02600 27.11200
H  25.67700 0.35200 34.34300
H  23.81700 2.37300 33.51200
H  23.66700 -0.49400 34.36200
H  22.35200 0.20900 33.32200
H  22.85400 0.89100 34.93700
H  25.37200 3.18100 34.58300
H  26.93200 2.82800 33.64300
H  27.89200 2.56200 35.50400
H  26.90800 1.18300 35.87800
H  19.79600 0.76900 28.83400
H  20.05700 2.50100 29.11700
H  20.32200 1.18500 30.27500
H  19.41700 1.11700 26.63300
H  19.49000 2.05200 25.15700
H  19.86600 2.76400 26.67400
H  26.61200 1.36300 24.06000
H  28.71000 -0.34700 24.96900
H  25.62000 -1.31000 24.44700
H  27.22700 -1.18600 23.59000
H  25.79900 -0.26600 23.08700
H  30.02800 2.03600 25.45000
H  28.52900 2.68400 24.75600
H  29.55500 0.66600 23.02500
H  30.80700 1.86400 23.49300
H  29.32300 2.35200 22.76200
H  32.24700 0.06400 29.04000
H  31.65800 -1.57100 28.97000
H  32.09000 -0.94800 30.51100
H  28.99300 1.39200 33.73600
H  28.71400 -2.17900 36.45400
H  27.37400 -1.06100 36.79800
H  28.99200 -0.81000 37.53800

