158

Mg 35.85500 1.38700 29.55400
C  33.78500 2.22100 32.17100
C  38.54800 1.54700 31.63700
C  37.70200 0.93300 26.87700
C  33.01400 2.11300 27.32500
N  36.04100 1.69700 31.64100
C  35.09600 1.90800 32.59900
C  35.68600 2.14100 33.98600
C  37.21300 2.09000 33.73100
C  37.28800 1.82100 32.24900
C  37.99700 3.33900 34.27600
C  35.19100 1.01900 34.97200
C  34.83100 1.49100 36.43800
H  35.60800 2.66000 36.94700
N  37.84900 1.11900 29.25300
C  38.80900 1.25800 30.26400
C  40.09300 0.96900 29.71000
C  39.84800 0.67700 28.33200
C  38.38800 0.85200 28.12100
C  41.44800 1.09500 30.47300
C  40.86800 0.45900 27.20400
O  40.55500 0.29700 26.03100
C  42.31400 0.43500 27.54700
N  35.47100 1.58000 27.43500
C  36.43000 1.26700 26.55100
C  35.92500 1.24300 25.09900
C  34.43500 1.54100 25.29400
C  34.24700 1.77400 26.73100
C  36.54200 2.18600 24.05100
C  33.48500 0.35800 24.82500
C  33.23500 -0.79100 25.87100
N  33.86300 2.11800 29.61200
C  32.82400 2.30900 28.70400
C  31.62800 2.66800 29.43600
C  31.98500 2.61500 30.77300
C  33.35100 2.29800 30.80600
C  30.45700 3.01400 28.81500
C  31.54500 2.94100 32.10400
O  30.48700 3.45900 32.44700
C  32.66800 2.66000 33.10600
C  32.97700 3.85200 33.81800
O  33.44000 4.88100 33.32500
O  32.62400 3.67000 35.12000
C  32.34800 4.81000 35.93600
H  39.38100 1.58300 32.34200
H  38.25400 0.66400 25.97400
H  32.12800 2.38500 26.74700
H  35.34800 3.15600 34.19500
H  37.60200 1.23400 34.28300
H  38.63100 3.14900 35.14200
H  37.34300 4.15400 34.58400
H  38.60600 3.86900 33.54400
H  36.05000 0.37000 35.14400
H  34.41300 0.49600 34.41600
H  34.94500 0.70000 37.17900
H  33.74900 1.62400 36.42400
H  41.27400 1.27600 31.53400
H  42.05100 1.95000 30.16500
H  42.01000 0.16100 30.45600
H  42.40300 -0.33500 28.31300
H  42.60100 1.33300 28.09300
H  42.81600 0.19900 26.60800
H  36.15600 0.19600 24.90700
H  34.19000 2.46500 24.76900
H  37.21900 2.94800 24.43600
H  35.86700 2.72300 23.38500
H  37.13800 1.61600 23.33900
H  34.10000 -0.20700 24.12400
H  32.53800 0.70600 24.41200
H  33.45000 -0.62700 26.92600
H  33.99400 -1.55000 25.67800
H  32.26500 -1.26900 25.73500
H  30.65600 3.82300 28.11200
H  29.74700 3.43700 29.52600
H  30.17700 2.06500 28.35800
H  32.42900 1.83300 33.77400
H  32.97400 4.68400 36.81900
H  31.29700 4.81500 36.22600
H  32.57600 5.78900 35.51300
Mg 15.78700 51.55900 25.43200
C  17.50500 50.66600 28.34100
C  13.19100 52.74800 27.31600
C  14.32700 52.33500 22.68300
C  18.56000 50.21600 23.61800
N  15.48000 51.68000 27.65700
C  16.35000 51.43100 28.67600
C  15.81600 51.76400 30.09300
C  14.27000 52.25300 29.62600
C  14.30600 52.28800 28.08800
C  13.15000 51.28800 30.21300
C  16.69000 52.91700 30.74200
C  16.30100 53.23100 32.14900
H  15.48600 52.27700 32.92300
N  13.92600 52.33200 25.06100
C  13.00300 52.84600 25.92000
C  11.87300 53.37100 25.24600
C  12.21800 53.32400 23.83200
C  13.51900 52.61600 23.79100
C  10.58100 53.97900 25.88300
C  11.40200 53.70100 22.57600
O  11.81400 53.42100 21.43500
C  10.16700 54.43100 22.84700
N  16.38600 51.36000 23.48700
C  15.53000 51.71700 22.46200
C  16.15300 51.55500 21.04800
C  17.58600 50.90900 21.40000
C  17.54900 50.83800 22.92900
C  15.33600 50.67200 20.01000
C  18.85500 51.72400 20.84000
C  20.14600 50.90500 20.53900
N  17.59500 50.50400 25.79400
C  18.55800 49.97300 24.99300
C  19.62700 49.38600 25.77100
C  19.18800 49.56200 27.06200
C  18.01700 50.31700 27.05400
C  20.81800 48.57300 25.20900
C  19.52000 49.28000 28.39400
O  20.41700 48.52400 28.83500
C  18.50800 50.07000 29.27200
C  17.89700 49.14200 30.25900
O  17.11800 48.20200 30.06600
O  18.20100 49.50900 31.58300
C  17.67600 48.63900 32.64400
H  12.39000 53.15800 27.93600
H  14.05100 52.69900 21.69200
H  19.38000 49.72000 23.09500
H  15.74000 50.90900 30.76500
H  13.87900 53.16300 30.08100
H  13.65400 50.56900 30.86000
H  12.62800 50.87000 29.35200
H  12.48900 51.86700 30.85800
H  16.74100 53.89300 30.25900
H  17.73700 52.61600 30.71600
H  15.68500 54.12300 32.03300
H  17.26300 53.36400 32.64300
H  10.45600 55.03100 25.62600
H  10.68200 53.89500 26.96500
H  9.59800 53.52600 25.75600
H  10.36000 55.32800 23.43500
H  9.37900 53.80000 23.25900
H  9.72800 54.76500 21.90700
H  16.34500 52.52500 20.58800
H  17.56400 49.91500 20.95200
H  14.66300 51.35300 19.49100
H  14.81100 49.93500 20.61800
H  16.03500 50.38000 19.22600
H  19.06800 52.62400 21.41700
H  18.51300 52.21100 19.92700
H  20.56200 51.06900 19.54500
H  19.90300 49.84700 20.63300
H  20.94500 51.08200 21.25900
H  20.58900 48.24300 24.19600
H  21.01700 47.63200 25.72100
H  21.66500 49.25800 25.17700
H  19.10100 50.82500 29.78800
H  16.72100 48.15700 32.43600
H  17.43900 49.16900 33.56600
H  18.35800 47.82900 32.90000

