158

Mg 46.50200 16.16400 27.69100
C  44.62000 15.44700 30.62100
C  48.80500 17.87200 29.72100
C  47.73900 17.55200 24.99300
C  43.93000 14.74100 25.82700
N  46.59500 16.72600 29.95400
C  45.75600 16.33000 30.93500
C  46.26000 16.79400 32.33200
C  47.53600 17.67600 31.93800
C  47.69800 17.38600 30.44400
C  47.43700 19.21000 32.33200
C  46.63500 15.53900 33.22400
C  46.20700 15.62000 34.74300
H  45.73600 17.02600 35.24300
N  48.03900 17.51100 27.39300
C  48.89800 17.92500 28.34700
C  50.01100 18.66100 27.62000
C  49.67700 18.67500 26.23400
C  48.49000 17.84300 26.15200
C  51.25700 19.21800 28.38100
C  50.47100 19.24300 25.07400
O  50.11300 19.14800 23.89200
C  51.85600 19.73500 25.45100
N  45.99400 15.98400 25.61100
C  46.68700 16.72100 24.71700
C  46.01900 16.59100 23.31500
C  44.93600 15.43500 23.62200
C  44.94700 15.32400 25.07100
C  45.45100 17.94800 22.76100
C  45.31600 14.06200 22.96900
C  46.38800 13.08400 23.52800
N  44.76400 15.09300 28.09000
C  43.80100 14.63200 27.21300
C  42.66900 14.16800 27.98000
C  42.96700 14.41800 29.34000
C  44.20400 15.03200 29.36300
C  41.44800 13.47100 27.45500
C  42.49200 14.22600 30.70100
O  41.48000 13.67600 31.12600
C  43.56800 14.94800 31.64900
C  42.88200 16.04600 32.36300
O  42.42000 17.06800 31.85700
O  42.58400 15.63200 33.60700
C  41.52200 16.37700 34.25000
H  49.64700 18.16800 30.35000
H  48.14000 17.89300 24.03600
H  43.02300 14.43100 25.30300
H  45.39000 17.27400 32.77900
H  48.45200 17.42100 32.47000
H  48.34400 19.59000 32.80200
H  46.52800 19.36900 32.91300
H  47.28400 19.75200 31.39900
H  47.70100 15.35200 33.35400
H  46.10700 14.66200 32.85000
H  47.04800 15.33100 35.37500
H  45.43800 14.85700 34.86200
H  51.36200 20.26200 28.08600
H  52.16300 18.74600 28.00100
H  51.13600 19.06400 29.45300
H  51.93500 20.63500 26.06100
H  52.38500 20.06900 24.55900
H  52.48700 18.92400 25.81300
H  46.75400 16.18600 22.61900
H  43.98000 15.76400 23.21400
H  44.91700 17.79800 21.82200
H  46.13600 18.79500 22.79600
H  44.64300 18.02500 23.48900
H  45.57700 14.20000 21.91900
H  44.39800 13.47400 22.95100
H  46.94900 12.66400 22.69400
H  45.87000 12.29100 24.06800
H  47.02800 13.62100 24.22800
H  41.64600 12.45500 27.11400
H  41.13500 14.03400 26.57500
H  40.53900 13.50400 28.05400
H  44.04000 14.29100 32.37900
H  40.84600 15.66300 34.72100
H  40.84100 16.96700 33.63600
H  41.89400 16.98300 35.07500
Mg 47.49700 34.34400 27.63700
C  45.52100 32.76300 30.12100
C  47.75900 37.04500 29.81700
C  48.98400 35.91400 25.07000
C  46.56600 31.81700 25.45700
N  46.86900 34.72000 29.76600
C  46.18800 33.86700 30.60700
C  46.23400 34.41700 32.09800
C  46.39600 35.93800 31.80400
C  47.10700 35.92000 30.40500
C  45.07800 36.73000 31.72400
C  47.51400 33.88400 32.80700
C  47.38900 33.73400 34.30200
H  46.26000 34.56000 34.98500
N  48.28300 36.22100 27.42400
C  48.39800 37.13700 28.50100
C  49.26700 38.26100 28.03700
C  49.47600 38.00000 26.64000
C  48.98000 36.66800 26.29900
C  49.70100 39.35100 29.02400
C  50.20400 38.89700 25.66200
O  50.46300 38.44000 24.50800
C  50.70800 40.28500 26.04200
N  47.89300 33.83700 25.53000
C  48.50100 34.66700 24.71500
C  48.27700 34.27200 23.22300
C  47.78200 32.77600 23.39000
C  47.36300 32.78300 24.84300
C  47.14000 35.22700 22.54400
C  48.88100 31.70700 23.06000
C  50.07700 31.56200 24.00400
N  46.31000 32.63200 27.69600
C  46.04800 31.69200 26.69400
C  45.34000 30.57400 27.32500
C  45.10200 31.03200 28.65300
C  45.67100 32.23100 28.83700
C  44.96900 29.28300 26.73800
C  44.34200 30.62700 29.84500
O  43.72800 29.58700 30.01800
C  44.40700 31.85000 30.82100
C  44.52600 31.47200 32.23900
O  45.56300 31.28500 32.77600
O  43.28400 31.63900 32.84100
C  43.25600 31.51300 34.32400
H  47.69900 37.90700 30.48500
H  49.42600 36.33200 24.16300
H  46.25700 30.92500 24.90800
H  45.27400 34.22900 32.58000
H  46.94500 36.50400 32.55600
H  44.58000 36.59900 30.76300
H  45.16500 37.74000 32.12400
H  44.42600 36.20800 32.42400
H  48.38800 34.49900 32.59300
H  47.57300 32.92700 32.28800
H  48.32100 33.88200 34.84800
H  47.16400 32.67300 34.40700
H  50.75500 39.62900 29.02600
H  49.47000 38.97100 30.01900
H  49.06000 40.22900 28.94800
H  49.90300 40.80600 26.56100
H  50.95700 40.75100 25.08900
H  51.49000 40.10900 26.78100
H  49.24100 34.39500 22.72800
H  46.94500 32.53200 22.73600
H  46.82300 36.02400 23.21700
H  46.28200 34.62400 22.24900
H  47.56600 35.61100 21.61700
H  49.14500 31.91500 22.02300
H  48.40600 30.72800 23.00300
H  50.87800 31.93700 23.36600
H  50.06400 30.48900 24.19600
H  50.13300 32.12100 24.93800
H  45.76200 28.94300 26.07100
H  44.01600 29.34300 26.21200
H  45.00600 28.51400 27.50900
H  43.50600 32.44400 30.66900
H  43.83100 30.61900 34.56500
H  42.24300 31.34100 34.68700
H  43.57400 32.43200 34.81600

