158

Mg 35.11900 2.25300 29.04400
C  33.16000 3.53000 31.63200
C  37.74400 2.45500 31.27200
C  37.22600 1.38000 26.46900
C  32.51300 2.63400 26.85100
N  35.38300 3.02800 31.20200
C  34.48300 3.33700 32.08200
C  34.95100 3.53100 33.54500
C  36.49400 3.30600 33.33400
C  36.54200 2.92600 31.84700
C  37.40600 4.49100 33.69800
C  34.29100 2.63400 34.59600
C  34.20100 3.29000 36.04400
H  35.40800 4.00000 36.56400
N  37.18300 1.82800 28.86800
C  38.07100 2.03700 29.92600
C  39.36300 1.58100 29.51300
C  39.29300 1.33000 28.13500
C  37.89200 1.49900 27.72200
C  40.44800 1.58900 30.42300
C  40.41100 0.98100 27.15000
O  40.13400 0.88900 25.96600
C  41.78900 0.81200 27.72700
N  34.96700 2.21000 26.95500
C  35.91900 1.72900 26.05100
C  35.48900 1.80600 24.62600
C  33.91500 1.76600 24.86200
C  33.79000 2.34600 26.31800
C  36.10100 2.99700 23.96400
C  33.22000 0.37500 24.76800
C  31.94600 0.26800 24.00600
N  33.25900 2.90600 29.17500
C  32.22800 2.90300 28.23200
C  30.93200 3.25000 28.82800
C  31.26200 3.47700 30.16500
C  32.70000 3.35000 30.29600
C  29.68000 3.30300 28.16500
C  30.72700 3.77100 31.40900
O  29.52800 3.98600 31.62800
C  31.88800 3.81400 32.42200
C  31.92000 5.19900 33.08500
O  32.33400 6.15300 32.55300
O  31.50400 5.14000 34.37300
C  31.62900 6.43100 35.03100
H  38.48800 2.39900 32.06900
H  37.87500 1.36400 25.59100
H  31.60500 2.63300 26.24500
H  34.65700 4.55800 33.76000
H  36.84900 2.41100 33.84500
H  38.13700 4.68700 32.91400
H  38.09700 4.21100 34.49300
H  36.75500 5.32800 33.95400
H  34.94000 1.76700 34.72000
H  33.28900 2.28000 34.35600
H  34.05100 2.49900 36.77900
H  33.42300 4.05300 36.03100
H  40.81400 2.61500 30.40300
H  41.35900 1.03600 30.19100
H  40.21500 1.24500 31.43100
H  41.77600 -0.00800 28.44300
H  42.20700 1.70300 28.19700
H  42.56200 0.46100 27.04300
H  35.75700 0.84700 24.18300
H  33.46200 2.47000 24.16400
H  35.30300 3.46000 23.38300
H  36.87800 2.63400 23.29200
H  36.58700 3.70200 24.63800
H  33.01200 0.07200 25.79400
H  33.90400 -0.45600 24.59600
H  31.64300 1.19100 23.51100
H  31.32600 0.09300 24.88600
H  32.00800 -0.63500 23.39900
H  29.28300 4.31500 28.23300
H  28.99100 2.69700 28.75500
H  29.79900 2.81000 27.20000
H  31.82500 3.10800 33.25000
H  30.76300 6.32700 35.68500
H  31.47300 7.33300 34.44000
H  32.51800 6.55000 35.65000
Mg 16.77700 52.67400 26.73600
C  18.65000 51.22800 29.32200
C  14.28500 53.37100 28.98100
C  15.06800 53.92600 24.15000
C  19.11200 51.26000 24.50600
N  16.48000 52.23400 28.88900
C  17.50100 51.85400 29.78200
C  17.05100 52.07500 31.24300
C  15.46900 52.26500 31.01700
C  15.35600 52.69300 29.53900
C  14.65000 51.05000 31.44800
C  17.94500 53.13000 31.96600
C  18.10000 53.22200 33.50400
H  17.27500 52.17100 34.41800
N  14.91400 53.59700 26.57900
C  14.03000 53.81300 27.65100
C  12.86800 54.54900 27.08800
C  13.10100 54.69000 25.67500
C  14.37600 54.05600 25.40300
C  11.69200 55.05600 27.94200
C  12.13900 55.32800 24.66700
O  12.39500 55.31400 23.42900
C  10.80300 55.78600 25.10500
N  17.02600 52.51700 24.64700
C  16.27500 53.30000 23.83900
C  16.80800 53.31300 22.35000
C  18.20700 52.55800 22.54700
C  18.12100 52.04800 23.99400
C  15.84000 52.61800 21.37600
C  19.46600 53.56900 22.37200
C  20.17400 53.50200 21.02200
N  18.46400 51.38700 26.80000
C  19.30500 50.93100 25.87200
C  20.34400 50.14300 26.42100
C  20.20900 50.34100 27.80800
C  19.01600 51.05700 28.00900
C  21.39400 49.42900 25.66900
C  20.82600 50.16100 29.13400
O  21.95300 49.79300 29.41100
C  19.74700 50.64700 30.14400
C  19.36900 49.54000 31.07900
O  18.60400 48.58900 30.82700
O  19.96100 49.83200 32.35200
C  19.98800 48.61300 33.23100
H  13.49300 53.58500 29.70200
H  14.56900 54.46700 23.34300
H  19.84800 50.91500 23.77700
H  17.15900 51.16900 31.84000
H  15.05200 53.11000 31.56600
H  15.21300 50.51200 32.21100
H  14.38500 50.31300 30.69100
H  13.71200 51.24800 31.96700
H  17.47000 54.04700 31.62000
H  18.91700 53.19600 31.47600
H  17.78400 54.20300 33.85900
H  19.14600 53.25400 33.80700
H  10.70100 54.68100 27.68600
H  11.70600 56.13900 28.06500
H  11.81700 54.76500 28.98500
H  10.20300 54.97100 25.51200
H  10.22700 55.93200 24.19100
H  10.85200 56.62700 25.79700
H  16.89600 54.37300 22.11100
H  18.37100 51.76100 21.82200
H  15.50400 53.37400 20.66700
H  14.98700 52.13400 21.85300
H  16.18900 51.76300 20.79600
H  20.23900 53.44500 23.13000
H  19.09300 54.58900 22.46500
H  19.82700 52.64500 20.44600
H  21.21500 53.35800 21.31100
H  20.05000 54.42800 20.46000
H  22.21900 49.29700 26.36800
H  21.75800 50.03300 24.83800
H  21.10800 48.51300 25.15100
H  20.15100 51.44500 30.76800
H  18.96300 48.57300 33.60000
H  20.74100 48.70500 34.01300
H  20.22700 47.69900 32.68600

