158

Mg 24.34000 -5.47600 46.00700
C  26.59000 -3.17400 44.41300
C  21.96400 -4.41900 43.67800
C  22.24800 -7.82000 47.02400
C  26.97100 -6.88000 47.72100
N  24.38600 -4.12400 44.08300
C  25.33500 -3.16900 43.84700
C  24.85700 -2.18700 42.76600
C  23.30700 -2.34500 42.89600
C  23.18600 -3.71700 43.65200
C  22.58600 -1.13200 43.60800
C  25.49100 -2.44600 41.32800
C  26.10300 -1.29300 40.50700
H  25.78200 -1.39200 38.99900
N  22.44400 -6.13400 45.37900
C  21.65800 -5.58600 44.43900
C  20.39000 -6.36700 44.30700
C  20.35900 -7.28700 45.30800
C  21.73200 -7.17000 45.88700
C  19.38600 -5.88600 43.34100
C  19.18400 -8.25400 45.69700
O  18.15300 -8.24900 45.02300
C  19.21300 -9.05800 46.91800
N  24.52400 -7.15700 47.16500
C  23.50500 -7.94000 47.58800
C  24.03400 -9.07100 48.49000
C  25.47000 -8.66400 48.81800
C  25.69700 -7.51800 47.83900
C  23.22200 -9.47300 49.77000
C  26.53800 -9.84000 48.82900
C  27.35700 -9.84800 50.14000
N  26.32700 -5.13600 46.10200
C  27.27900 -5.74300 46.89500
C  28.57600 -5.04100 46.75700
C  28.29900 -3.97400 45.78600
C  26.97800 -4.15400 45.41600
C  29.78300 -5.43000 47.46000
C  28.88700 -2.76600 45.15600
O  29.99900 -2.24200 45.31400
C  27.76500 -2.22500 44.08100
C  27.45400 -0.82700 44.36900
O  26.68800 -0.32000 45.16200
O  28.28700 -0.03700 43.56100
C  28.29300 1.36100 43.92400
H  21.12600 -3.95400 43.15400
H  21.60700 -8.53500 47.54400
H  27.74900 -7.42000 48.26500
H  25.18100 -1.20800 43.11700
H  22.81100 -2.51200 41.94000
H  23.32000 -0.33200 43.70600
H  22.23300 -1.49500 44.57300
H  21.73800 -0.71400 43.06500
H  24.75900 -2.96700 40.71100
H  26.35100 -3.08700 41.51900
H  27.18900 -1.34200 40.42400
H  25.76700 -0.33600 40.90700
H  18.68400 -5.21100 43.83100
H  18.83400 -6.77100 43.02600
H  19.75200 -5.48000 42.39900
H  18.27200 -9.56700 47.12700
H  19.39600 -8.36900 47.74200
H  20.04000 -9.75800 46.79500
H  24.09000 -9.91200 47.79900
H  25.38900 -8.24400 49.82000
H  22.35600 -8.81100 49.77700
H  23.83000 -9.49600 50.67400
H  22.73800 -10.41500 49.51100
H  27.23500 -9.81200 47.99100
H  25.98400 -10.77600 48.89000
H  28.43200 -9.81900 49.96300
H  27.12000 -10.62100 50.87100
H  27.27300 -8.85400 50.57900
H  29.57000 -5.44800 48.52900
H  30.53400 -4.71500 47.12500
H  30.02700 -6.47400 47.26100
H  28.15300 -2.35800 43.07100
H  28.30000 1.56500 44.99500
H  27.42100 1.91200 43.57300
H  29.20200 1.81200 43.52600
Mg -10.68700 39.63000 40.55600
C  -9.85500 36.45900 39.58200
C  -7.52300 40.73200 39.81500
C  -11.98500 42.85200 40.42600
C  -14.04800 38.49100 41.09200
N  -9.04700 38.75500 39.43000
C  -8.85800 37.39300 39.28200
C  -7.38100 37.07600 38.81200
C  -6.66800 38.36700 39.41900
C  -7.84800 39.37500 39.57700
C  -5.86600 38.18300 40.69900
C  -7.25800 37.18600 37.24700
C  -7.08500 35.88100 36.44700
H  -8.05500 35.60300 35.32200
N  -9.93400 41.45300 40.23000
C  -8.55200 41.73800 39.98900
C  -8.43100 43.13800 39.97600
C  -9.65100 43.76200 40.12200
C  -10.55300 42.65100 40.36000
C  -7.10300 43.77300 39.68900
C  -9.80800 45.26600 40.08900
O  -8.86300 45.93400 39.71600
C  -11.12700 45.96500 40.24100
N  -12.80900 40.59800 40.67400
C  -13.03300 41.93500 40.62800
C  -14.51500 42.27600 40.80200
C  -15.06700 40.86900 41.29700
C  -13.95400 39.89000 40.95200
C  -14.89600 43.40100 41.76200
C  -16.48700 40.57000 40.72800
C  -17.52500 40.02000 41.74000
N  -11.79100 37.79000 40.47200
C  -13.05000 37.52300 40.81000
C  -13.14600 36.08500 40.82700
C  -11.96600 35.53900 40.31000
C  -11.15800 36.68300 40.09500
C  -14.33600 35.25600 41.23600
C  -11.19900 34.37900 39.90600
O  -11.47900 33.20500 39.83100
C  -9.76000 34.96600 39.40100
C  -8.59400 34.30700 40.01900
O  -8.21600 34.40100 41.19000
O  -7.90800 33.68000 39.00100
C  -6.62800 32.88200 39.20200
H  -6.49000 41.07200 39.71400
H  -12.37600 43.83100 40.14200
H  -15.00100 38.11900 41.47400
H  -6.92700 36.20400 39.28300
H  -5.89900 38.73300 38.73800
H  -6.13700 38.85600 41.51300
H  -4.86200 38.57400 40.53400
H  -5.81900 37.16300 41.07800
H  -6.49900 37.91800 36.97300
H  -8.25500 37.57200 37.03300
H  -6.90300 35.01000 37.07700
H  -6.12900 36.13200 35.98600
H  -7.08000 44.20400 38.68800
H  -6.23200 43.15000 39.89200
H  -6.85000 44.67000 40.25400
H  -11.70500 45.91700 39.31900
H  -10.88400 46.97800 40.56300
H  -11.62300 45.56800 41.12700
H  -14.86000 42.49500 39.79100
H  -15.07500 40.89900 42.38700
H  -14.04900 44.02600 42.04800
H  -15.53500 43.03100 42.56300
H  -15.50900 44.06100 41.14800
H  -16.45400 39.76900 39.98900
H  -16.83900 41.41800 40.14000
H  -17.11500 40.03000 42.75000
H  -17.65600 38.93900 41.69400
H  -18.35100 40.72900 41.79900
H  -15.20900 35.74700 41.66700
H  -13.83600 34.50400 41.84700
H  -14.69900 34.69100 40.37700
H  -9.67100 34.82900 38.32300
H  -6.37600 32.73000 40.25100
H  -5.81800 33.18500 38.53900
H  -6.85400 31.81600 39.16100

