158

Mg -1.40900 18.35800 26.84200
C  -1.90000 16.07700 29.40800
C  -1.54700 20.92300 29.03100
C  -1.29300 20.56100 24.09500
C  -1.88400 15.69000 24.61800
N  -1.79600 18.46800 29.00500
C  -1.87400 17.40500 29.87700
C  -1.99900 17.89700 31.30600
C  -1.96300 19.46600 31.08700
C  -1.71600 19.67900 29.61600
C  -3.19600 20.19300 31.54700
C  -0.82100 17.31200 32.13500
C  -1.17900 16.48200 33.36800
H  -0.73200 16.92200 34.78600
N  -1.37800 20.42900 26.59600
C  -1.30100 21.30000 27.67800
C  -0.98100 22.62000 27.20900
C  -0.81200 22.52500 25.80400
C  -1.18700 21.13500 25.38900
C  -0.79200 23.88200 28.14000
C  -0.35300 23.53000 24.74700
O  -0.31000 23.27100 23.54000
C  0.27900 24.83500 25.22400
N  -1.56400 18.19500 24.72500
C  -1.49600 19.17900 23.81300
C  -1.65500 18.64300 22.34800
C  -1.77600 17.12500 22.48600
C  -1.77500 16.99100 24.04500
C  -2.80500 19.25700 21.55500
C  -0.69500 16.36200 21.76300
C  0.60000 15.94800 22.52600
N  -1.65200 16.26500 26.92700
C  -1.90000 15.35700 25.95600
C  -2.15800 14.04200 26.52600
C  -2.13400 14.20900 27.89400
C  -1.90300 15.61500 28.07900
C  -2.32500 12.75500 25.79700
C  -2.31200 13.53500 29.16100
O  -2.53200 12.37000 29.56900
C  -2.19300 14.73300 30.19600
C  -1.05000 14.18700 31.02300
O  0.10400 14.13000 30.76700
O  -1.69100 13.59900 32.08800
C  -0.95000 12.72300 32.99400
H  -1.30800 21.67700 29.78400
H  -1.16300 21.25300 23.26000
H  -2.00200 14.89000 23.88500
H  -2.97100 17.56800 31.67200
H  -1.11800 19.75300 31.71400
H  -3.84000 19.59500 32.19100
H  -3.72600 20.59800 30.68500
H  -2.80700 20.99600 32.17300
H  -0.11400 18.07800 32.45100
H  -0.35700 16.52700 31.53800
H  -0.65800 15.52600 33.31500
H  -2.25400 16.30800 33.32300
H  0.25100 24.18700 28.04800
H  -1.17600 23.59700 29.11900
H  -1.41200 24.67200 27.71500
H  0.86200 25.31700 24.44000
H  1.04300 24.66800 25.98400
H  -0.49600 25.42600 25.71300
H  -0.66900 18.83000 21.92200
H  -2.75100 16.77500 22.14800
H  -2.42000 19.78300 20.68200
H  -3.42200 19.92800 22.15300
H  -3.42900 18.46900 21.13100
H  -0.42800 16.86100 20.83200
H  -1.33000 15.52300 21.47800
H  0.70600 16.43700 23.49400
H  1.44100 16.31200 21.93700
H  0.67100 14.86100 22.56900
H  -2.37100 12.81500 24.71000
H  -3.24600 12.39800 26.25600
H  -1.56200 12.00300 25.99900
H  -3.10100 14.82100 30.79400
H  -0.27100 12.06600 32.45200
H  -1.78700 12.15700 33.40300
H  -0.40000 13.27100 33.75900
Mg 29.75300 58.10300 40.92200
C  26.99600 56.11000 39.76400
C  31.84300 55.54800 39.66900
C  32.30600 60.27500 41.12100
C  27.43700 60.81900 41.20200
N  29.48000 56.02800 39.82600
C  28.26100 55.43200 39.56800
C  28.42300 53.97700 39.06300
C  30.00600 53.76300 39.25700
C  30.49800 55.16400 39.64000
C  30.40900 52.81200 40.38800
C  28.00300 53.84000 37.56100
C  28.33100 54.97600 36.47300
H  27.13400 55.64800 35.69800
N  31.76200 57.88500 40.55900
C  32.46300 56.82300 40.06600
C  33.87100 57.12200 39.89000
C  34.00600 58.44100 40.36200
C  32.68000 59.00300 40.69500
C  34.97100 56.21600 39.23000
C  35.33900 59.21300 40.31300
O  36.31600 58.61800 39.86700
C  35.56500 60.61800 40.91900
N  29.79800 60.24200 40.98400
C  31.03900 60.80600 41.30000
C  30.84300 62.26900 41.72400
C  29.31100 62.43300 41.75500
C  28.79800 61.08000 41.27600
C  31.45900 62.63500 43.11400
C  28.67500 63.59100 41.03000
C  28.16400 64.73400 42.02200
N  27.60400 58.43700 40.69700
C  26.86300 59.56100 40.86200
C  25.47200 59.19300 40.78600
C  25.45900 57.87100 40.29300
C  26.83000 57.45100 40.23200
C  24.26400 60.16300 41.04000
C  24.58900 56.78800 39.80500
O  23.39100 56.63100 39.69500
C  25.58900 55.67000 39.35000
C  25.08500 54.42500 39.98400
O  25.12700 54.25200 41.19400
O  24.60500 53.55500 39.04400
C  23.90900 52.31800 39.61900
H  32.51200 54.73800 39.36900
H  32.96400 61.13700 41.24900
H  26.75100 61.63500 41.43900
H  27.84600 53.25900 39.64400
H  30.43400 53.47000 38.29900
H  29.48600 52.39000 40.78600
H  30.95700 53.28100 41.20600
H  30.89900 51.94400 39.94600
H  26.92300 53.69900 37.51900
H  28.36000 52.93800 37.06500
H  29.01000 54.51500 35.75600
H  28.89900 55.72300 37.02700
H  35.57300 56.66500 38.44100
H  34.50900 55.33000 38.79300
H  35.68900 55.91900 39.99500
H  35.13000 61.37100 40.26100
H  36.61100 60.89700 41.04300
H  35.11200 60.54700 41.90800
H  31.20800 62.98100 40.98400
H  28.99200 62.38200 42.79600
H  32.07000 61.78200 43.41000
H  30.76500 62.84600 43.92800
H  32.18100 63.45100 43.09400
H  27.76100 63.23500 40.55600
H  29.33000 63.95200 40.23700
H  28.82500 65.01800 42.84100
H  27.15300 64.55100 42.38400
H  28.05500 65.59000 41.35500
H  24.42300 61.17500 41.41200
H  23.59000 59.67600 41.74500
H  23.82200 60.38100 40.06800
H  25.49600 55.52100 38.27400
H  22.84100 52.50100 39.73400
H  24.40800 51.96900 40.52300
H  23.90600 51.63400 38.77000

