158

Mg 36.44800 48.90600 25.58800
C  36.56000 46.98600 28.65900
C  35.50800 51.50300 27.47500
C  35.99400 50.51500 22.76600
C  37.41600 46.01000 23.87100
N  36.11600 49.16100 27.79800
C  36.23500 48.28200 28.88400
C  36.03400 48.93100 30.25400
C  35.51000 50.32500 29.74400
C  35.72300 50.33300 28.21600
C  33.99900 50.74300 30.17200
C  37.36300 48.86400 31.06700
C  37.27400 48.62500 32.54100
H  35.98100 48.75400 33.26700
N  35.80200 50.79000 25.19700
C  35.58200 51.79700 26.11300
C  35.32100 53.07500 25.44100
C  35.30400 52.70900 24.02400
C  35.62800 51.28500 23.90300
C  35.14100 54.35900 26.11200
C  35.05800 53.60000 22.84800
O  35.02100 53.23000 21.62600
C  34.87200 55.09700 23.09600
N  36.62400 48.34300 23.67300
C  36.45000 49.24900 22.63000
C  36.69900 48.62100 21.27000
C  37.25200 47.19500 21.58200
C  37.06300 47.14200 23.16300
C  35.43600 48.63800 20.34000
C  38.66300 46.89700 21.02200
C  39.80500 47.59800 21.73600
N  37.00200 46.94600 26.07700
C  37.42800 45.90700 25.28000
C  37.71100 44.72400 26.11000
C  37.27400 45.05000 27.43600
C  36.88600 46.44200 27.37200
C  38.31100 43.48300 25.61800
C  37.17700 44.55400 28.74600
O  37.46900 43.43800 29.13600
C  36.77900 45.80700 29.70700
C  35.56400 45.42700 30.45100
O  34.44200 45.85700 30.34400
O  35.95400 44.69900 31.59900
C  34.98800 44.32600 32.67800
H  35.20700 52.36700 28.07200
H  35.98000 51.06000 21.82000
H  37.68300 45.14700 23.25800
H  35.24700 48.43200 30.81800
H  36.19300 51.10300 30.08400
H  33.27200 50.73700 29.36000
H  34.20000 51.72700 30.59700
H  33.58200 50.03500 30.88800
H  37.89500 49.81500 31.04900
H  38.02900 48.06900 30.72800
H  38.10700 49.16900 32.98700
H  37.56200 47.57400 32.57100
H  34.32900 54.92900 25.66100
H  35.97200 55.02500 25.88300
H  35.14300 54.24000 27.19500
H  35.68100 55.55900 23.66200
H  33.94300 55.23700 23.64900
H  34.94600 55.57700 22.12000
H  37.45600 49.20800 20.75100
H  36.58600 46.40700 21.23100
H  34.62400 49.32200 20.58700
H  35.06300 47.65000 20.07100
H  35.81300 49.05700 19.40700
H  38.52900 47.30400 20.02000
H  38.80500 45.81700 20.97800
H  39.59800 48.01000 22.72400
H  40.15100 48.45800 21.16300
H  40.60500 46.87900 21.91100
H  38.80800 43.64300 24.66200
H  37.47600 42.78500 25.68600
H  39.03100 43.24000 26.40000
H  37.56300 45.99600 30.44100
H  34.89400 43.24600 32.79200
H  33.99600 44.77600 32.64500
H  35.42800 44.81600 33.54600
Mg 6.74800 53.04900 41.77100
C  5.48100 49.66800 41.45300
C  9.64600 51.94100 40.28600
C  7.62300 56.26500 41.42000
C  3.40000 54.06800 42.31600
N  7.45200 51.09300 40.83200
C  6.79800 49.88100 40.91100
C  7.71700 48.75300 40.33500
C  9.14800 49.41400 40.32600
C  8.78800 50.91900 40.43000
C  9.98000 49.04300 41.58200
C  7.41400 48.22300 38.92700
C  6.90800 49.25300 37.84900
H  5.59300 49.18400 37.17400
N  8.41800 54.02200 40.92400
C  9.55800 53.36700 40.50300
C  10.54700 54.37700 40.22400
C  10.04700 55.61000 40.63400
C  8.60100 55.37200 41.01500
C  11.91300 53.94900 39.77200
C  10.71600 56.92200 40.61700
O  11.73500 57.02000 40.04500
C  10.19700 58.19300 41.10300
N  5.66300 54.85400 41.86400
C  6.29700 56.04400 41.72400
C  5.35800 57.20700 42.12800
C  3.98300 56.49400 42.24100
C  4.36800 55.02300 42.10500
C  5.77700 57.99600 43.27400
C  2.93300 56.88700 41.14500
C  1.50600 57.07200 41.48800
N  4.81500 52.13200 42.03900
C  3.53000 52.66900 42.24100
C  2.52700 51.64900 42.36900
C  3.28700 50.43900 42.09800
C  4.62500 50.77800 41.83000
C  1.10000 51.94500 42.66500
C  3.16700 48.97900 41.91800
O  2.18200 48.25700 41.83900
C  4.64800 48.40400 41.76100
C  4.59700 47.30100 40.72400
O  4.31500 47.36100 39.56900
O  5.16000 46.19700 41.30200
C  5.43200 45.11900 40.39000
H  10.62800 51.56600 39.99000
H  7.77800 57.34200 41.32500
H  2.36400 54.27100 42.59300
H  7.78400 47.88700 40.99300
H  9.69500 49.14400 39.42300
H  10.97800 48.64500 41.39700
H  9.54900 48.19800 42.11900
H  9.87100 49.85100 42.30400
H  6.71400 47.38800 38.94000
H  8.34700 47.82700 38.52500
H  7.60900 49.18400 37.01800
H  6.81900 50.26000 38.25600
H  12.34400 54.77900 39.21200
H  11.95100 53.03600 39.17800
H  12.49400 53.68100 40.65500
H  10.97100 58.93700 41.29000
H  9.60400 58.05400 42.00600
H  9.55100 58.66200 40.36100
H  5.39900 57.90400 41.29100
H  3.52800 56.38000 43.22500
H  5.92100 59.04200 43.00200
H  6.73400 57.78000 43.75000
H  4.92400 58.00600 43.95300
H  3.03100 56.00500 40.51300
H  3.30600 57.71800 40.54800
H  0.91600 56.53200 40.74800
H  1.20700 58.10800 41.32800
H  1.25000 56.70700 42.48200
H  0.57500 52.37900 41.81300
H  1.08500 52.55000 43.57200
H  0.61600 51.00700 42.93800
H  4.92300 47.88000 42.67700
H  5.64100 45.51300 39.39600
H  4.59800 44.44000 40.21300
H  6.28300 44.51900 40.71100

