158

Mg 17.78000 -0.85100 27.93700
C  16.22400 1.01200 30.52500
C  19.74900 -2.29100 30.36700
C  19.38600 -2.51200 25.50400
C  15.86000 0.76500 25.72600
N  17.72800 -0.79600 30.34200
C  17.15100 0.06200 31.11400
C  17.67700 -0.15200 32.56800
C  18.84700 -1.19200 32.48400
C  18.77200 -1.46700 30.94900
C  20.17200 -0.62600 32.95300
C  16.43900 -0.57900 33.53100
C  16.41400 0.24400 34.81400
H  17.71800 0.81500 35.36000
N  19.28600 -2.31600 27.95700
C  19.90700 -2.86400 29.07600
C  20.85000 -3.80200 28.68100
C  20.77500 -3.87600 27.24600
C  19.79300 -2.90100 26.82500
C  21.74800 -4.66700 29.61700
C  21.44100 -4.79300 26.26900
O  21.20900 -4.67200 25.04400
C  22.49300 -5.81800 26.75600
N  17.57800 -0.94900 25.87900
C  18.45500 -1.61200 25.06400
C  18.22800 -1.23700 23.59500
C  17.03500 -0.20400 23.64100
C  16.78400 -0.09200 25.14600
C  19.48200 -0.67200 22.89100
C  15.76300 -0.66700 22.89900
C  15.11600 0.35500 21.99300
N  16.36100 0.57400 28.02800
C  15.65800 1.08500 27.06400
C  14.68200 2.04300 27.57000
C  14.96700 2.08100 28.88000
C  15.94600 1.12600 29.12900
C  13.59700 2.86900 26.88300
C  14.68000 2.70200 30.18800
O  13.97800 3.63600 30.49500
C  15.48800 2.02400 31.27400
C  16.27500 3.00300 32.06900
O  17.46400 3.18000 31.84500
O  15.51400 3.68800 32.99400
C  16.26900 4.63100 33.83200
H  20.35500 -2.76900 31.13900
H  19.84000 -3.06200 24.67700
H  15.29400 1.39100 25.03300
H  18.16900 0.76400 32.89400
H  18.57700 -2.13100 32.96800
H  20.75300 -1.45700 33.35300
H  20.08200 0.21700 33.63900
H  20.68800 -0.19500 32.09500
H  16.43300 -1.63300 33.80900
H  15.51800 -0.53100 32.95000
H  16.00200 -0.42000 35.57300
H  15.67800 1.04600 34.75500
H  21.44300 -5.71400 29.61500
H  21.59500 -4.29600 30.63000
H  22.80400 -4.64400 29.34600
H  22.15100 -6.50000 27.53400
H  23.39300 -5.35400 27.16000
H  22.79100 -6.44500 25.91700
H  17.96400 -2.17700 23.11000
H  17.28500 0.79600 23.28600
H  20.30400 -0.62800 23.60600
H  19.41100 0.33000 22.46800
H  19.65400 -1.33700 22.04500
H  15.00600 -0.95000 23.63000
H  16.05000 -1.45500 22.20200
H  14.47500 -0.01900 21.19400
H  15.94400 0.93300 21.58100
H  14.38900 0.93300 22.56300
H  13.44800 2.43400 25.89400
H  13.76900 3.94500 26.87000
H  12.66400 2.65300 27.40400
H  14.62700 1.54500 31.74100
H  16.76200 5.35800 33.18600
H  16.86000 4.17400 34.62600
H  15.62600 5.35400 34.33400
Mg 42.76400 41.37500 26.36300
C  41.83000 43.55600 29.10700
C  44.07000 39.22800 28.94000
C  43.71700 39.29400 24.07500
C  42.01600 43.78600 24.09800
N  42.90900 41.33400 28.80800
C  42.43800 42.38000 29.61900
C  42.50000 41.81800 31.12600
C  43.54000 40.62500 30.97700
C  43.54900 40.44000 29.52900
C  44.98900 40.86200 31.47000
C  41.03700 41.57800 31.76300
C  40.71800 41.41900 33.33500
H  41.82900 41.32000 34.31700
N  43.65200 39.46600 26.45900
C  44.15500 38.79300 27.56700
C  44.64000 37.53400 27.07700
C  44.44400 37.46000 25.63700
C  43.99100 38.76900 25.31300
C  45.18400 36.45800 28.01200
C  44.52800 36.33400 24.65000
O  44.37700 36.48600 23.43900
C  44.88200 34.91500 25.16300
N  42.81700 41.52300 24.37700
C  43.30900 40.57400 23.60900
C  43.31200 40.97400 22.10800
C  42.57200 42.30900 22.08500
C  42.40400 42.56200 23.64000
C  44.66900 41.12800 21.35900
C  41.27300 42.29900 21.40000
C  40.26600 41.17500 21.62500
N  41.99000 43.24000 26.47000
C  41.72900 44.18700 25.45700
C  41.30300 45.37900 26.04600
C  41.32000 45.19500 27.44500
C  41.70200 43.81900 27.65700
C  40.98900 46.64100 25.25800
C  41.11700 45.88900 28.71100
O  40.77500 47.05100 28.95700
C  41.23600 44.76400 29.87400
C  42.02400 45.34300 30.90300
O  43.05800 45.91700 30.68400
O  41.54000 44.92200 32.12700
C  42.58900 45.05500 33.13600
H  44.54700 38.62100 29.71100
H  43.97800 38.71600 23.18600
H  41.79300 44.58500 23.38700
H  42.93800 42.60100 31.74500
H  43.18600 39.63900 31.27700
H  45.26600 41.89500 31.68100
H  45.69500 40.47700 30.73500
H  45.08000 40.22900 32.35300
H  40.75500 40.64500 31.27500
H  40.44200 42.35300 31.27900
H  40.32300 40.42200 33.53000
H  39.93400 42.14500 33.55200
H  45.36600 36.81900 29.02500
H  46.15600 36.10900 27.66500
H  44.56800 35.56100 27.94000
H  44.01200 34.51600 25.68500
H  45.74300 34.89200 25.83100
H  45.14800 34.22700 24.36100
H  42.73100 40.22900 21.56400
H  43.14300 43.04800 21.52200
H  44.82600 42.08900 20.86900
H  44.59700 40.40000 20.55100
H  45.55000 40.96700 21.98000
H  41.52500 42.36700 20.34200
H  40.77000 43.24500 21.60000
H  40.67300 40.37500 22.24200
H  39.98400 40.63300 20.72300
H  39.41100 41.63100 22.12500
H  40.50400 46.43300 24.30400
H  41.95200 47.15100 25.29700
H  40.30700 47.22400 25.87700
H  40.23900 44.49300 30.22000
H  42.89800 46.10000 33.15600
H  43.43700 44.39600 32.94800
H  42.18000 44.88200 34.13100

