158

Mg -2.73900 16.61900 26.15400
C  -3.32000 14.45800 28.91600
C  -3.63800 19.22900 28.19900
C  -2.42600 18.64000 23.53000
C  -2.58600 13.78800 24.12300
N  -3.15200 16.85700 28.36600
C  -3.40700 15.79800 29.24000
C  -3.78900 16.39500 30.64700
C  -3.91000 17.94200 30.36400
C  -3.61400 18.03400 28.87400
C  -5.31400 18.55600 30.73500
C  -2.89900 16.06100 31.91500
C  -2.92600 16.88900 33.17600
H  -2.64500 16.22000 34.51000
N  -2.98600 18.66000 25.83600
C  -3.29700 19.57300 26.81200
C  -3.22100 20.92800 26.24700
C  -2.82200 20.74800 24.82200
C  -2.79700 19.31100 24.64300
C  -3.67300 22.19200 26.91900
C  -2.62300 21.70600 23.77000
O  -2.36800 21.38700 22.63400
C  -2.52400 23.17300 24.09400
N  -2.80200 16.32100 24.08400
C  -2.36900 17.26400 23.23800
C  -2.03200 16.73300 21.83500
C  -1.94800 15.15800 22.07800
C  -2.46300 15.07900 23.55400
C  -3.06100 17.22700 20.74500
C  -0.59400 14.46400 21.94700
C  -0.48200 13.01600 21.44200
N  -2.82900 14.54100 26.44300
C  -2.75000 13.56100 25.51200
C  -2.88500 12.30500 26.19300
C  -3.02600 12.55600 27.55100
C  -3.05900 13.96900 27.56700
C  -2.81200 10.94900 25.46700
C  -3.10200 11.99500 28.85800
O  -3.10700 10.85200 29.25700
C  -3.35100 13.20400 29.79200
C  -2.15800 13.15800 30.61200
O  -1.08400 13.59700 30.35300
O  -2.45800 12.53100 31.79000
C  -1.48700 12.63200 32.85800
H  -3.79400 20.19500 28.68300
H  -2.02500 19.17700 22.66800
H  -2.50600 12.89000 23.50700
H  -4.77000 16.03500 30.95800
H  -3.20100 18.64800 30.79900
H  -5.49400 18.71100 31.79800
H  -6.11200 17.89500 30.39600
H  -5.42900 19.47800 30.16500
H  -1.84600 15.99700 31.64200
H  -3.26900 15.09300 32.25400
H  -3.83800 17.47400 33.05800
H  -2.12800 17.62100 33.05400
H  -4.40100 22.66800 26.26200
H  -2.76500 22.78700 27.02000
H  -4.01100 22.09800 27.95100
H  -3.50600 23.54300 24.38600
H  -2.21600 23.67200 23.17500
H  -1.69200 23.30400 24.78600
H  -1.04700 17.10900 21.55900
H  -2.64400 14.58700 21.46300
H  -2.73600 16.68100 19.85900
H  -2.80700 18.28400 20.67100
H  -4.06500 17.08500 21.14400
H  -0.17700 14.35000 22.94700
H  0.21500 14.98200 21.43200
H  0.33900 12.48500 21.92300
H  -0.14200 13.08200 20.40800
H  -1.46100 12.54300 21.51600
H  -2.68100 10.17800 26.22700
H  -1.87400 10.99700 24.91300
H  -3.67400 10.64300 24.87500
H  -4.17000 13.12600 30.50700
H  -0.71400 11.86300 32.85900
H  -2.08100 12.57100 33.77000
H  -0.97200 13.59100 32.88900
Mg 25.12200 -0.04000 29.10300
C  27.02500 -0.37800 32.04500
C  22.33900 0.43300 31.04500
C  23.38500 -0.10000 26.28700
C  27.95200 -1.12400 27.28600
N  24.72800 0.03500 31.32900
C  25.71600 0.02700 32.29800
C  25.14500 0.44700 33.69700
C  23.66700 0.61200 33.34000
C  23.52700 0.29600 31.82200
C  22.71900 -0.15400 34.24200
C  25.94900 1.58400 34.36700
C  25.21900 2.61000 35.27900
H  25.66900 2.69200 36.75900
N  23.17100 0.11900 28.71800
C  22.17500 0.27400 29.62100
C  20.96600 0.52600 28.88900
C  21.18900 0.38100 27.52500
C  22.62500 0.14700 27.45000
C  19.68600 0.94100 29.58900
C  20.28600 0.53600 26.32700
O  20.64900 0.61200 25.12300
C  18.76600 0.69700 26.66200
N  25.61700 -0.79500 27.15400
C  24.68700 -0.55800 26.15800
C  25.29900 -0.78100 24.77500
C  26.88700 -0.94700 25.02900
C  26.84300 -0.94900 26.56400
C  24.77500 -2.00400 23.99700
C  27.76300 0.15600 24.52500
C  27.54400 1.68200 24.87400
N  27.12800 -0.49200 29.49900
C  28.11700 -0.90200 28.66800
C  29.31200 -0.88600 29.40800
C  28.96900 -0.70700 30.68000
C  27.56500 -0.51100 30.75800
C  30.73800 -1.22700 28.85000
C  29.47400 -0.59300 32.02100
O  30.64700 -0.62600 32.42100
C  28.25400 -0.44200 32.97300
C  28.21100 -1.48100 33.99200
O  27.84900 -2.68800 33.90700
O  28.56800 -0.89200 35.11100
C  28.66400 -1.77000 36.27400
H  21.45600 0.66800 31.64300
H  22.90300 0.02900 25.31600
H  28.88800 -1.29600 26.75200
H  25.26500 -0.44600 34.31100
H  23.40500 1.66900 33.31500
H  23.07500 -0.17300 35.27200
H  22.54500 -1.15900 33.85800
H  21.73500 0.30000 34.12800
H  26.33500 2.13000 33.50600
H  26.76300 1.14000 34.94000
H  24.14200 2.44500 35.23900
H  25.37600 3.61900 34.89800
H  19.86900 1.56600 30.46300
H  19.21400 0.02600 29.94500
H  19.04000 1.54500 28.95200
H  18.53400 1.73200 26.90800
H  18.41600 0.00800 27.43100
H  18.18500 0.45800 25.77100
H  25.17400 0.13100 24.19200
H  27.18600 -1.93500 24.68100
H  23.93000 -2.36500 24.58400
H  25.40400 -2.89400 24.00300
H  24.41300 -1.69700 23.01600
H  27.64800 0.25700 23.44500
H  28.79100 -0.15400 24.71300
H  27.04000 1.66200 25.84000
H  26.90200 2.12600 24.11400
H  28.52000 2.16700 24.86600
H  31.02100 -0.49700 28.09200
H  30.73300 -2.07900 28.17000
H  31.51100 -1.17900 29.61700
H  28.40500 0.56700 33.35900
H  27.75300 -1.61400 36.85100
H  29.45000 -1.30500 36.87000
H  28.90000 -2.82600 36.14100

