158

Mg 16.95700 -2.13800 28.27400
C  15.83900 -0.06200 31.00000
C  18.74300 -3.79800 30.76600
C  18.27500 -3.84500 25.85500
C  15.32400 0.11100 26.13200
N  17.23200 -1.89200 30.64500
C  16.67900 -1.05100 31.49600
C  17.25400 -1.22700 32.88600
C  18.41900 -2.23600 32.66000
C  18.09500 -2.67700 31.27400
C  19.91500 -1.78900 32.85800
C  16.19500 -1.71800 33.95600
C  15.77200 -0.79200 35.04800
H  16.86700 -0.36200 36.02200
N  18.28800 -3.72100 28.33500
C  18.87500 -4.30600 29.42100
C  19.67500 -5.40400 28.94100
C  19.38800 -5.56400 27.50300
C  18.58600 -4.40700 27.14700
C  20.38200 -6.31800 29.86400
C  19.94500 -6.62600 26.52500
O  19.61700 -6.64700 25.36000
C  20.90200 -7.64800 27.01300
N  16.98100 -1.77500 26.28600
C  17.58900 -2.63400 25.44200
C  17.41200 -2.22600 23.92100
C  16.34600 -1.09600 24.03100
C  16.16100 -0.92100 25.57300
C  18.73300 -1.67000 23.32100
C  15.03500 -1.37600 23.30500
C  13.97300 -2.05200 24.22900
N  15.75300 -0.37900 28.47700
C  15.15600 0.35700 27.51000
C  14.29300 1.31600 28.09900
C  14.58600 1.21600 29.47800
C  15.43500 0.16200 29.63700
C  13.47300 2.32000 27.42900
C  14.25100 1.74200 30.77800
O  13.48200 2.68100 31.09600
C  15.10800 1.00400 31.81000
C  16.03100 2.14900 32.27600
O  17.04700 2.55300 31.70600
O  15.43300 2.71200 33.33100
C  16.01500 4.02100 33.84600
H  19.36400 -4.31100 31.50400
H  18.64600 -4.46600 25.03700
H  14.78600 0.76800 25.44500
H  17.58300 -0.25700 33.25900
H  18.22600 -3.05200 33.35700
H  20.52800 -2.50400 32.30900
H  20.17800 -1.96800 33.90100
H  20.13400 -0.76200 32.56800
H  16.54600 -2.58500 34.51500
H  15.31100 -2.08000 33.43100
H  15.02600 -1.42100 35.53300
H  15.27700 0.03300 34.53700
H  20.59600 -5.82000 30.81000
H  21.35300 -6.62200 29.47300
H  19.85300 -7.21200 30.19500
H  21.29800 -8.14400 26.12700
H  20.38500 -8.35000 27.66800
H  21.76400 -7.23400 27.53600
H  16.99800 -3.04300 23.33000
H  16.72500 -0.09000 23.84900
H  19.32100 -1.18000 24.09700
H  18.57600 -1.03300 22.45000
H  19.35200 -2.51600 23.02400
H  15.29800 -1.93400 22.40700
H  14.60800 -0.47300 22.86900
H  14.37300 -2.68300 25.02200
H  13.33400 -2.70900 23.63800
H  13.31200 -1.33600 24.71700
H  12.86500 2.87200 28.14600
H  12.82100 1.94700 26.63900
H  14.04500 3.09400 26.91700
H  14.51800 0.61300 32.63900
H  15.98700 4.82400 33.10900
H  16.88900 3.87400 34.48000
H  15.28900 4.38200 34.57400
Mg -12.91600 16.77800 40.91800
C  -9.90900 15.07800 40.52600
C  -11.45600 19.61000 39.62400
C  -15.95300 18.21600 40.75800
C  -14.40000 13.65600 41.82400
N  -10.91300 17.29900 40.02700
C  -9.83600 16.42800 40.10300
C  -8.52700 17.20100 39.63400
C  -9.05400 18.71700 39.44800
C  -10.53000 18.54300 39.73700
C  -8.32200 19.72500 40.38700
C  -7.89100 16.51700 38.40000
C  -6.35100 16.28600 38.45300
H  -5.57600 16.62400 37.20200
N  -13.68100 18.60800 40.22500
C  -12.89700 19.66800 39.78300
C  -13.75700 20.85000 39.58000
C  -15.07400 20.42200 39.84600
C  -14.95900 18.98000 40.30500
C  -13.30800 22.25900 39.15700
C  -16.31200 21.35800 39.69700
O  -16.16300 22.48200 39.27600
C  -17.74100 20.81100 39.96000
N  -14.96800 15.96500 41.11900
C  -16.00200 16.87200 41.19500
C  -17.30800 16.04600 41.50800
C  -16.71700 14.62600 42.14600
C  -15.24100 14.74500 41.69900
C  -18.51500 16.72000 42.28900
C  -17.49000 13.37100 41.67300
C  -18.02100 12.30200 42.71400
N  -12.31700 14.66600 41.13500
C  -13.05300 13.54800 41.44100
C  -12.14400 12.43800 41.56800
C  -10.86000 12.97200 41.23800
C  -11.08400 14.35400 40.90100
C  -12.56600 11.08300 41.88600
C  -9.45900 12.65600 41.11900
O  -8.76800 11.63900 41.24200
C  -8.77700 14.03200 40.67300
C  -7.71800 14.42600 41.63600
O  -7.85100 15.13600 42.62900
O  -6.48500 14.03200 41.22100
C  -5.25200 14.67900 41.84200
H  -10.96900 20.55100 39.36100
H  -16.97000 18.60400 40.66700
H  -14.79700 12.72200 42.22700
H  -7.93300 17.09000 40.54100
H  -8.99700 19.06800 38.41800
H  -9.05500 20.30300 40.94900
H  -7.69600 20.34400 39.74400
H  -7.65700 19.18000 41.05700
H  -8.03400 17.20400 37.56600
H  -8.46400 15.60000 38.25800
H  -6.09800 15.25100 38.68600
H  -5.90900 16.91700 39.22400
H  -13.79800 22.63100 38.25700
H  -12.25500 22.40900 38.91900
H  -13.53500 22.92100 39.99200
H  -18.40000 21.54400 39.49500
H  -17.88800 20.93000 41.03400
H  -18.06700 19.88400 39.49000
H  -17.78700 15.70700 40.58900
H  -16.66400 14.64500 43.23400
H  -19.43100 16.88000 41.72000
H  -18.19000 17.74900 42.43800
H  -18.79200 16.23300 43.22400
H  -16.85700 12.86300 40.94600
H  -18.34900 13.63400 41.05600
H  -17.93600 12.78400 43.68800
H  -17.37500 11.42500 42.73300
H  -19.07500 12.04000 42.61400
H  -11.65000 10.50800 41.75000
H  -13.34200 10.67100 41.24200
H  -12.96300 10.98200 42.89600
H  -8.34500 13.88900 39.68200
H  -5.40400 15.67000 42.26800
H  -4.45800 14.72900 41.09600
H  -4.89100 14.06000 42.66400

