158

Mg 1.79200 -2.32100 44.50300
C  5.04400 -1.05200 44.27200
C  0.66400 0.22800 42.48200
C  -1.29400 -3.79500 44.71200
C  3.19100 -5.28900 45.85600
N  2.80800 -0.64500 43.44000
C  4.13400 -0.30300 43.50600
C  4.41600 0.83500 42.53500
C  3.00800 1.39200 42.12100
C  2.07500 0.24600 42.62500
C  2.60100 2.77100 42.65400
C  5.30200 0.49500 41.28000
C  6.45900 1.52500 40.99400
H  6.42900 2.08200 39.58200
N  -0.05500 -1.79200 43.83400
C  -0.31100 -0.65000 43.02500
C  -1.76300 -0.63500 42.76200
C  -2.36900 -1.78800 43.43400
C  -1.26600 -2.51400 44.04300
C  -2.40300 0.41000 41.92300
C  -3.79600 -2.06100 43.45700
O  -4.62400 -1.33600 42.95800
C  -4.39300 -3.26300 44.10200
N  1.17000 -4.27100 45.10000
C  -0.20700 -4.55400 45.17300
C  -0.49000 -5.87500 45.87700
C  0.88300 -6.48300 46.03500
C  1.82200 -5.31700 45.57200
C  -1.22300 -5.58700 47.20000
C  1.16700 -7.68800 45.12400
C  2.05900 -8.82200 45.59200
N  3.71200 -3.06500 45.10100
C  4.11700 -4.26600 45.62200
C  5.53100 -4.33300 45.90000
C  5.97900 -3.07100 45.39200
C  4.79500 -2.33400 44.92100
C  6.31000 -5.45500 46.49100
C  7.12300 -2.17800 45.17900
O  8.30400 -2.45600 45.29600
C  6.54200 -0.90600 44.38500
C  6.77300 0.35600 45.13700
O  6.28700 0.54500 46.26200
O  7.61500 1.22700 44.45900
C  8.09500 2.32900 45.30500
H  0.32200 1.08500 41.89700
H  -2.23400 -4.30200 44.94000
H  3.43900 -6.18700 46.42600
H  5.04400 1.47400 43.15400
H  2.91400 1.58100 41.05200
H  1.68200 2.68000 43.23200
H  2.22900 3.33800 41.80000
H  3.42100 3.31300 43.12700
H  4.64200 0.45600 40.41400
H  5.68300 -0.52300 41.35800
H  7.35300 0.91800 41.13500
H  6.41500 2.34400 41.71300
H  -3.22800 -0.13900 41.46900
H  -1.85700 0.50900 40.98500
H  -2.69900 1.35300 42.38300
H  -4.05800 -4.09600 43.48400
H  -5.45900 -3.26400 43.87400
H  -4.14100 -3.50400 45.13500
H  -1.20400 -6.43700 45.27300
H  1.11300 -6.59400 47.09500
H  -2.03200 -6.31700 47.22900
H  -1.70600 -4.61000 47.20600
H  -0.55200 -5.67400 48.05500
H  1.53900 -7.28200 44.18400
H  0.23500 -8.20000 44.88200
H  1.37400 -9.61600 45.89400
H  2.46200 -8.44900 46.53400
H  2.91000 -8.89800 44.91600
H  6.51200 -6.25000 45.77400
H  5.87100 -5.92400 47.37200
H  7.22500 -4.93700 46.77800
H  7.06400 -0.83200 43.43100
H  8.58700 2.93000 44.54000
H  8.81900 2.02000 46.05800
H  7.33800 3.02300 45.67100
Mg 36.74900 49.32400 24.93100
C  36.62500 47.29800 27.75600
C  34.94700 51.68600 26.68000
C  36.19100 50.87900 22.01300
C  38.03600 46.49500 23.12400
N  35.79800 49.39300 26.88700
C  36.13400 48.61000 27.98700
C  35.65600 49.15300 29.38200
C  34.88500 50.40500 28.86600
C  35.19100 50.50400 27.36900
C  33.43700 50.52100 29.29700
C  36.81100 49.33300 30.40400
C  36.39100 48.88500 31.86000
H  34.88700 48.85900 32.24500
N  35.88900 51.20000 24.45600
C  35.16300 52.00000 25.27700
C  34.80300 53.14200 24.52800
C  35.21000 52.94000 23.10500
C  35.84800 51.66800 23.19000
C  34.04100 54.22400 25.12500
C  35.13800 53.85100 21.93800
O  35.40600 53.53500 20.78900
C  34.61600 55.27700 22.04600
N  37.13900 48.85100 22.94300
C  36.70900 49.64100 21.89300
C  37.18900 49.02500 20.52800
C  38.08200 47.80300 20.99500
C  37.73300 47.65600 22.44000
C  35.97800 48.53100 19.65800
C  39.56700 47.88200 20.68500
C  40.34600 48.99400 21.38400
N  37.32100 47.33100 25.34500
C  37.83400 46.30800 24.53000
C  38.00500 45.07700 25.32400
C  37.55400 45.46100 26.61500
C  37.14200 46.81100 26.56700
C  38.36200 43.74000 24.77500
C  37.26300 44.96600 27.90500
O  37.33200 43.83300 28.35600
C  36.68200 46.17900 28.76900
C  35.34600 45.75300 29.19700
O  34.43600 45.62500 28.46500
O  35.33100 45.38400 30.50500
C  34.26400 44.45500 30.93100
H  34.34900 52.37200 27.28400
H  35.96700 51.32600 21.04200
H  38.44700 45.60500 22.64200
H  34.91600 48.42900 29.72500
H  35.40400 51.21200 29.38300
H  32.84100 50.97300 28.50400
H  33.42500 51.17700 30.16800
H  32.93600 49.64800 29.71600
H  37.09200 50.38600 30.42100
H  37.66100 48.75400 30.04200
H  36.90600 49.51400 32.58700
H  36.78900 47.88600 32.03500
H  33.86400 54.24800 26.20000
H  33.10800 54.31500 24.56800
H  34.65400 55.11500 24.98300
H  34.60100 55.86900 21.13000
H  35.33900 55.87800 22.59700
H  33.60700 55.39500 22.43900
H  37.77800 49.77900 20.00800
H  37.73000 46.90500 20.48700
H  36.06200 47.53400 19.22500
H  35.93600 49.28000 18.86700
H  35.12900 48.58900 20.33900
H  39.71900 47.97200 19.60900
H  40.00500 46.96000 21.06600
H  40.00800 49.17000 22.40500
H  40.06700 49.89900 20.84500
H  41.42600 48.86600 21.30700
H  37.91900 43.68200 23.78100
H  37.81800 42.93800 25.27300
H  39.43000 43.53100 24.70100
H  37.39200 46.41600 29.56200
H  33.52000 45.08800 31.41500
H  34.55300 43.92100 31.83500
H  33.90800 43.73500 30.19400

