158

Mg -11.49400 38.64100 40.56800
C  -10.02300 35.46500 40.08100
C  -8.86700 39.96200 38.83300
C  -13.38000 41.30400 40.23800
C  -14.49800 36.82100 41.57000
N  -9.58800 37.67700 39.60500
C  -9.25300 36.43000 39.46300
C  -7.95500 36.29200 38.63900
C  -7.48400 37.77500 38.58400
C  -8.71500 38.53000 39.04300
C  -6.25300 38.09700 39.44100
C  -8.29700 35.79800 37.22400
C  -7.11000 34.99100 36.46300
H  -6.46700 35.70900 35.33300
N  -11.10800 40.42000 39.84900
C  -9.90600 40.81400 39.27100
C  -9.95200 42.21700 39.09300
C  -11.28900 42.63500 39.31500
C  -12.00400 41.46900 39.85800
C  -8.85800 43.02200 38.50300
C  -11.86200 44.05900 38.99500
O  -11.16100 44.86700 38.43500
C  -13.30700 44.51500 39.39900
N  -13.68100 38.98600 40.65100
C  -14.14700 40.21800 40.65400
C  -15.64000 40.35400 40.97800
C  -15.95500 38.82000 41.25900
C  -14.58300 38.18100 41.26800
C  -16.03300 41.28200 42.15300
C  -17.00000 38.17000 40.16900
C  -18.07200 37.25900 40.80700
N  -12.10900 36.56700 40.97000
C  -13.34900 36.00300 41.36800
C  -13.18100 34.57300 41.43700
C  -11.85300 34.28700 40.99400
C  -11.28500 35.51200 40.70000
C  -14.36900 33.60600 41.72400
C  -10.86300 33.23600 40.75400
O  -10.93500 32.00800 40.84800
C  -9.58700 34.04900 40.24600
C  -8.55300 33.80500 41.29400
O  -8.28600 32.71700 41.80800
O  -7.77600 34.93000 41.53800
C  -6.58300 34.72300 42.30600
H  -8.01700 40.42800 38.33000
H  -13.93700 42.24300 40.25200
H  -15.42700 36.37500 41.93200
H  -7.15000 35.71400 39.09300
H  -7.26800 37.97700 37.53500
H  -6.40800 39.05900 39.92900
H  -5.40100 38.23800 38.77500
H  -5.94600 37.42600 40.24400
H  -8.46900 36.58900 36.49400
H  -9.26100 35.29500 37.29800
H  -7.59800 34.13300 36.00100
H  -6.35600 34.61300 37.15300
H  -8.92000 42.98900 37.41500
H  -7.91800 42.56600 38.81300
H  -8.79400 44.04700 38.86900
H  -13.48200 45.56800 39.17800
H  -13.21800 44.35500 40.47400
H  -14.07600 43.85200 39.00300
H  -16.21000 40.61800 40.08700
H  -16.41500 38.69600 42.24000
H  -16.68900 40.75400 42.84500
H  -16.60500 42.13500 41.78800
H  -15.20400 41.67500 42.74200
H  -16.39500 37.67700 39.40800
H  -17.44400 38.94100 39.53900
H  -17.82900 36.26500 40.43000
H  -19.11100 37.40300 40.51100
H  -18.02300 37.37300 41.89000
H  -15.06300 33.42400 40.90300
H  -14.89000 33.98700 42.60200
H  -13.94000 32.68700 42.12400
H  -9.37000 33.63400 39.26200
H  -6.01400 33.91400 41.84700
H  -6.85700 34.50900 43.33900
H  -5.86600 35.54300 42.32900
Mg -2.36000 33.41000 25.81600
C  -4.04500 31.99800 28.60900
C  -0.59700 35.35700 28.03400
C  -0.74700 34.59700 23.19700
C  -4.35500 31.40300 23.71800
N  -2.51000 33.86700 28.07300
C  -3.11400 32.96800 29.00100
C  -2.71100 33.22800 30.40400
C  -1.73000 34.47600 30.27000
C  -1.64600 34.61400 28.69200
C  -2.07200 35.89400 30.96300
C  -1.99000 31.99100 31.09100
C  -1.79100 32.08400 32.59000
H  -2.93900 31.54400 33.50100
N  -0.95500 34.87900 25.63600
C  -0.33100 35.53500 26.65300
C  0.69300 36.38800 25.99400
C  0.60100 36.31000 24.62000
C  -0.43500 35.24900 24.41100
C  1.53000 37.35600 26.82200
C  1.28600 37.08700 23.52600
O  1.15200 36.78900 22.33400
C  2.26300 38.19800 23.87800
N  -2.69700 33.21200 23.75200
C  -1.74900 33.72600 22.85400
C  -1.96100 33.22100 21.44200
C  -2.92000 31.98000 21.68400
C  -3.38300 32.25500 23.10900
C  -2.60200 34.25000 20.51500
C  -2.37900 30.61600 21.61900
C  -3.22200 29.65300 20.82200
N  -3.81600 31.97200 26.04300
C  -4.55400 31.23500 25.08900
C  -5.32300 30.23300 25.76400
C  -5.18800 30.56000 27.07400
C  -4.24300 31.62300 27.24600
C  -6.31900 29.28600 25.14100
C  -5.68000 30.18000 28.43600
O  -6.52000 29.35400 28.82500
C  -5.06900 31.17100 29.39700
C  -6.13000 31.98700 30.06500
O  -6.97600 32.58900 29.48100
O  -6.10300 31.74900 31.45100
C  -7.14700 32.40300 32.24600
H  0.03800 35.94300 28.70100
H  -0.17600 34.94700 22.33500
H  -4.96700 30.71900 23.12700
H  -3.53100 33.65100 30.98400
H  -0.70200 34.28700 30.57900
H  -2.41900 36.52500 30.14400
H  -1.16700 36.37400 31.33500
H  -2.85600 36.02300 31.70900
H  -1.05400 31.80500 30.56500
H  -2.64400 31.13600 30.91900
H  -1.83500 33.16500 32.72400
H  -0.83900 31.70200 32.95700
H  2.57800 37.20200 26.56300
H  1.44700 37.21000 27.89900
H  1.39000 38.41600 26.61200
H  1.79900 39.03500 24.40100
H  2.71300 38.59100 22.96600
H  3.03900 37.79800 24.53000
H  -0.99300 32.89700 21.06000
H  -3.71300 32.04600 20.94000
H  -2.83700 35.10000 21.15600
H  -3.40000 33.86500 19.88000
H  -1.78300 34.54100 19.85800
H  -2.18000 30.17100 22.59400
H  -1.39000 30.59000 21.16000
H  -4.16600 30.09100 20.49900
H  -3.53100 28.80600 21.43400
H  -2.71400 29.23600 19.95200
H  -7.15300 29.86300 24.74200
H  -6.52800 28.61900 25.97700
H  -5.85100 28.85600 24.25500
H  -4.53200 30.54800 30.11100
H  -6.83900 32.60600 33.27200
H  -8.04000 31.77900 32.27200
H  -7.40300 33.37600 31.82700

