158

Mg 43.80400 3.33800 47.10700
C  41.83600 6.31100 46.86300
C  40.71300 1.60800 46.83600
C  45.49500 0.80100 46.72100
C  46.69700 5.50200 46.69400
N  41.51200 3.99700 46.97500
C  40.99800 5.28800 46.97500
C  39.46500 5.23100 47.11600
C  39.16800 3.61900 47.30300
C  40.54500 3.02300 47.11200
C  38.57500 3.18700 48.64600
C  38.69000 5.92900 45.95200
C  39.36300 6.09100 44.55800
H  38.78100 5.35700 43.34900
N  43.18300 1.47900 46.64800
C  41.93700 0.91500 46.65600
C  42.12400 -0.49500 46.35100
C  43.49500 -0.74800 46.20400
C  44.14200 0.50900 46.50600
C  40.93200 -1.35000 46.00600
C  43.97100 -2.13000 45.85700
O  43.18200 -3.07800 45.70000
C  45.42500 -2.39300 45.80500
N  45.76000 3.22200 46.80200
C  46.25000 1.99800 46.79200
C  47.76400 1.94900 47.13200
C  48.15600 3.44700 46.53000
C  46.81200 4.12500 46.69600
C  48.02600 1.86700 48.64100
C  48.65400 3.42700 45.00800
C  50.18100 3.58700 44.67500
N  44.26200 5.45500 47.05100
C  45.43900 6.16600 46.75400
C  45.26300 7.54000 46.65100
C  43.84200 7.65300 46.75600
C  43.27800 6.35300 46.91900
C  46.28400 8.56500 46.42600
C  42.73300 8.62800 46.70300
O  42.79800 9.85600 46.51400
C  41.38700 7.76800 46.78500
C  40.74600 8.19100 48.07200
O  41.21700 8.13100 49.16400
O  39.54400 8.86800 47.81600
C  38.76000 9.62000 48.89500
H  39.79400 1.02500 46.75200
H  46.07900 -0.10300 46.90700
H  47.63900 6.04500 46.59300
H  39.21700 5.70800 48.06500
H  38.48800 3.24300 46.54000
H  38.05300 3.95900 49.21200
H  39.37200 2.85400 49.31100
H  37.92100 2.36000 48.37100
H  38.40100 6.95800 46.16300
H  37.77900 5.36200 45.76000
H  40.41500 5.84200 44.70200
H  39.41200 7.15600 44.32900
H  41.22400 -1.79700 45.05600
H  40.04000 -0.78100 45.74100
H  40.76300 -2.08000 46.79700
H  45.97700 -2.41500 46.74500
H  45.74500 -1.46900 45.32300
H  45.72000 -3.31100 45.29500
H  48.26100 1.16500 46.56100
H  48.88200 3.93700 47.17900
H  48.31500 2.85200 49.00700
H  48.74800 1.06400 48.79100
H  47.08700 1.54100 49.08900
H  48.12800 4.31100 44.64800
H  48.26600 2.46500 44.67400
H  50.67600 3.94200 45.57900
H  50.34500 4.42200 43.99400
H  50.64500 2.71900 44.20500
H  47.03000 8.69400 47.21000
H  45.87700 9.56800 46.30300
H  46.87800 8.35200 45.53700
H  40.77400 8.01200 45.91700
H  38.77700 9.05800 49.82900
H  37.80100 9.75400 48.39500
H  39.23100 10.59700 49.00400
Mg 47.74300 15.25700 27.45700
C  45.58600 14.98000 30.26100
C  49.63000 17.39900 29.32100
C  49.68800 15.36100 24.87100
C  45.40400 13.32400 25.67300
N  47.65100 16.02900 29.57900
C  46.73400 15.74600 30.60800
C  47.05500 16.42200 31.94000
C  48.13400 17.47000 31.43200
C  48.57600 16.87000 30.03300
C  47.54500 18.90200 31.32500
C  47.60500 15.38400 32.98300
C  47.07400 15.58500 34.42900
H  48.12600 15.43800 35.58000
N  49.44000 16.22300 27.15900
C  50.08600 17.02800 28.04200
C  51.34700 17.36900 27.45700
C  51.38200 16.84600 26.10500
C  50.11600 16.13900 25.98100
C  52.45500 18.04000 28.22800
C  52.46600 16.86600 25.02800
O  52.28300 16.37500 23.88100
C  53.76200 17.54800 25.22100
N  47.54000 14.44700 25.55600
C  48.56300 14.61700 24.61900
C  48.28800 13.87500 23.35200
C  46.90800 13.13900 23.62500
C  46.61500 13.67100 25.07700
C  48.18100 14.78500 22.11300
C  47.02200 11.62400 23.65200
C  47.61100 10.85300 22.48000
N  45.85300 14.40300 27.87600
C  45.03900 13.68200 27.03400
C  43.82300 13.35300 27.74600
C  43.97000 13.80200 29.09000
C  45.25300 14.48200 29.05500
C  42.58300 12.54200 27.12700
C  43.40100 13.87100 30.37800
O  42.27800 13.55400 30.74300
C  44.50100 14.59000 31.28300
C  43.80900 15.71400 31.95500
O  43.72600 16.87200 31.56900
O  43.48200 15.32400 33.27300
C  42.97300 16.40400 34.18300
H  50.24600 18.05100 29.94300
H  50.46300 15.08100 24.15500
H  44.63600 12.75300 25.14900
H  46.23400 16.97400 32.39800
H  49.06500 17.47800 32.00100
H  48.29400 19.64700 31.59200
H  46.65900 18.93600 31.95900
H  47.33900 19.27700 30.32200
H  48.68900 15.48800 32.94200
H  47.28700 14.37800 32.70800
H  46.40800 14.76700 34.70200
H  46.60400 16.54400 34.64900
H  51.94000 18.42200 29.10900
H  52.86600 18.81500 27.58000
H  53.11900 17.27400 28.63000
H  53.64800 18.62600 25.33100
H  54.33500 17.28700 24.33100
H  54.12500 17.16900 26.17700
H  49.11100 13.20100 23.11500
H  46.12200 13.42800 22.92800
H  49.19700 14.73500 21.72300
H  47.94600 15.83600 22.28300
H  47.57800 14.21800 21.40400
H  46.00400 11.29300 23.86000
H  47.64000 11.35700 24.50900
H  46.92400 10.08600 22.12200
H  48.58100 10.47700 22.80600
H  47.88000 11.43300 21.59700
H  42.21400 11.63700 27.61100
H  42.76900 12.24100 26.09600
H  41.65600 13.11600 27.15500
H  44.72500 13.91600 32.11000
H  42.80000 15.92000 35.14500
H  42.02700 16.88300 33.93400
H  43.70600 17.19700 34.33400

