158

Mg 46.92900 16.58300 28.10600
C  44.82600 16.17300 30.96800
C  49.05500 18.43500 30.20600
C  48.66200 17.39600 25.39500
C  44.45300 14.92900 26.25900
N  47.00700 17.01300 30.43600
C  46.05000 16.79300 31.31900
C  46.34000 17.33600 32.66100
C  47.60500 18.30500 32.36900
C  47.94000 17.87300 30.92200
C  47.57100 19.91500 32.57500
C  46.68400 16.24200 33.75400
C  46.40000 16.58600 35.30700
H  46.11900 18.02800 35.70300
N  48.62900 17.65800 27.83000
C  49.37800 18.37600 28.79500
C  50.60800 18.89300 28.23400
C  50.45400 18.67300 26.82500
C  49.21000 17.85000 26.65800
C  51.80200 19.42300 28.95400
C  51.38000 19.13000 25.68300
O  51.16000 18.84000 24.50200
C  52.63200 20.07100 25.92700
N  46.60600 16.15500 26.12700
C  47.48900 16.61300 25.14900
C  47.09900 16.19700 23.78400
C  46.01200 15.14300 24.10900
C  45.61000 15.42200 25.58400
C  46.56100 17.38200 23.02600
C  46.53200 13.73100 23.92800
C  45.56500 12.76000 23.24600
N  45.03600 15.68600 28.44700
C  44.15200 15.09300 27.63500
C  42.97000 14.63000 28.31200
C  43.19100 15.02800 29.62600
C  44.48200 15.65200 29.70500
C  41.73000 14.07900 27.58200
C  42.56700 15.13000 30.98400
O  41.49500 14.79000 31.42200
C  43.68700 15.82000 31.89900
C  43.02300 16.96300 32.52900
O  42.94400 18.12800 32.05600
O  42.50400 16.49300 33.70300
C  41.69400 17.44000 34.47700
H  49.70700 19.10000 30.77600
H  49.21800 17.61500 24.48100
H  43.76000 14.31600 25.67800
H  45.51600 17.97300 32.98100
H  48.34400 17.85100 33.02900
H  46.68700 20.40600 32.98100
H  47.50600 20.39700 31.60000
H  48.40000 20.21200 33.21800
H  47.69800 15.84700 33.69500
H  46.11300 15.36900 33.43600
H  47.20300 16.39700 36.02000
H  45.62600 15.92900 35.70200
H  52.57200 19.88400 28.33500
H  52.18300 18.58800 29.54200
H  51.42800 20.21700 29.60100
H  52.33000 20.98100 26.44600
H  52.92300 20.41200 24.93400
H  53.44400 19.47200 26.33900
H  47.98900 15.77600 23.31800
H  45.12700 15.36300 23.51200
H  47.42500 17.58300 22.39200
H  46.27100 18.25700 23.60800
H  45.73200 17.06000 22.39500
H  46.68900 13.27300 24.90500
H  47.48700 13.72000 23.40100
H  45.47100 11.87200 23.87100
H  45.94000 12.48200 22.26200
H  44.60900 13.27200 23.13500
H  41.25100 13.28300 28.15400
H  42.02000 13.59700 26.64900
H  41.02300 14.87100 27.33300
H  44.12500 15.09000 32.58000
H  42.35500 18.05100 35.09000
H  40.98800 16.96900 35.16100
H  41.07900 18.09700 33.86200
Mg -1.62700 34.29800 26.00500
C  -3.34100 32.76300 28.52800
C  -0.40900 36.59000 28.23700
C  -0.21700 36.01300 23.38000
C  -3.32000 32.24500 23.60000
N  -1.98800 34.71400 28.11100
C  -2.60600 33.86500 28.96100
C  -2.34800 34.21000 30.45700
C  -1.44900 35.50600 30.35500
C  -1.29700 35.67200 28.82200
C  -1.95800 36.74400 31.05300
C  -1.85400 33.02500 31.33900
C  -2.67200 32.70100 32.59500
H  -1.97900 32.35600 34.03200
N  -0.32700 35.96900 25.83500
C  0.01700 36.78000 26.89700
C  1.03500 37.71900 26.42200
C  1.24600 37.36900 25.04500
C  0.21200 36.37500 24.66000
C  1.70500 38.77600 27.34600
C  2.31500 37.93900 24.06100
O  2.33300 37.54900 22.87800
C  3.35600 38.86600 24.55100
N  -1.97100 34.35900 23.83800
C  -1.11700 35.06100 23.04600
C  -1.52200 34.76600 21.56400
C  -2.06800 33.30700 21.68200
C  -2.48800 33.26700 23.15100
C  -2.51200 35.80200 20.93000
C  -1.13200 32.16700 21.14000
C  -0.02900 31.62600 22.10200
N  -2.92000 32.77900 25.98000
C  -3.57200 32.06900 24.98300
C  -4.52400 31.13100 25.60800
C  -4.32400 31.30100 27.03700
C  -3.44500 32.39700 27.18200
C  -5.58300 30.19600 24.97900
C  -4.74200 30.78000 28.28600
O  -5.34600 29.76800 28.58700
C  -4.15200 31.74100 29.42400
C  -5.38700 32.28000 30.10800
O  -5.95400 33.22800 29.66900
O  -5.54800 31.76100 31.32000
C  -6.62000 32.31000 32.18300
H  0.16400 37.08900 29.02200
H  0.25600 36.57800 22.57300
H  -3.65200 31.55000 22.82600
H  -3.33200 34.48000 30.84100
H  -0.43000 35.36100 30.71300
H  -1.08600 37.08800 31.60900
H  -2.70600 36.48600 31.80300
H  -2.27300 37.57300 30.41900
H  -0.80700 33.10000 31.63400
H  -1.76000 32.14000 30.71000
H  -3.26500 31.80400 32.41400
H  -3.37500 33.51400 32.77500
H  1.44100 38.79900 28.40300
H  1.45300 39.76700 26.96900
H  2.78800 38.66900 27.28400
H  2.87200 39.69500 25.06800
H  4.01800 39.29700 23.80000
H  4.01500 38.27800 25.19000
H  -0.63400 34.83400 20.93500
H  -2.98400 33.20400 21.10100
H  -3.49300 35.39300 20.68800
H  -2.13100 36.12200 19.96000
H  -2.54300 36.63000 21.63800
H  -0.53000 32.46700 20.28300
H  -1.76600 31.34200 20.81200
H  -0.15300 32.12400 23.06400
H  1.00000 31.78900 21.78200
H  -0.12600 30.55100 22.25200
H  -6.53200 30.22600 25.51400
H  -5.22700 29.22600 25.32500
H  -5.60700 30.41000 23.91000
H  -3.54700 31.10200 30.06600
H  -7.12800 31.43200 32.58200
H  -7.37100 32.85200 31.60900
H  -6.12900 32.90300 32.95500

