158

Mg 24.22500 -4.53100 45.85400
C  26.37400 -2.08600 44.33000
C  21.72800 -3.30800 43.93600
C  22.53200 -7.40900 46.36100
C  26.88200 -5.70900 47.64500
N  24.10500 -2.98300 44.31000
C  25.03500 -2.08300 43.91100
C  24.46800 -1.20300 42.75200
C  22.92300 -1.24800 43.13100
C  22.85100 -2.54700 43.85700
C  22.45000 0.05300 43.87300
C  24.75100 -1.66400 41.21500
C  25.79300 -0.81200 40.48900
H  25.74500 -0.94600 38.98400
N  22.30700 -5.29700 45.27900
C  21.47700 -4.63700 44.41000
C  20.30200 -5.43400 44.20300
C  20.49200 -6.70200 44.83900
C  21.82200 -6.57100 45.52100
C  19.07000 -5.00200 43.38900
C  19.57700 -7.90700 44.78800
O  18.43200 -7.73200 44.31700
C  19.88900 -9.19300 45.53100
N  24.65700 -6.25400 46.81300
C  23.78000 -7.31100 46.98500
C  24.31100 -8.42400 47.93500
C  25.62500 -7.70400 48.52500
C  25.72400 -6.42700 47.59900
C  23.40700 -8.95500 48.99300
C  26.82800 -8.62600 48.51300
C  27.56800 -8.85100 49.75500
N  26.26600 -3.97600 46.10400
C  27.22100 -4.58100 46.81800
C  28.42000 -3.74700 46.66200
C  28.21100 -2.87900 45.65700
C  26.83100 -2.99000 45.31900
C  29.60700 -3.91200 47.54200
C  28.68700 -1.80100 44.77100
O  29.80900 -1.31300 44.63100
C  27.58600 -1.24900 43.81600
C  27.26300 0.19900 44.15100
O  27.28600 0.74900 45.24900
O  27.06400 0.97900 42.98100
C  26.97300 2.46800 43.18500
H  20.82400 -2.93800 43.44900
H  22.02500 -8.34700 46.59700
H  27.44600 -5.88600 48.56300
H  24.91800 -0.22400 42.91900
H  22.23500 -1.36600 42.29400
H  23.27200 0.59800 44.33800
H  21.67100 -0.20200 44.59100
H  22.04600 0.68000 43.07900
H  23.92600 -1.86700 40.53300
H  25.38200 -2.55300 41.25000
H  26.79400 -1.14200 40.76600
H  25.88800 0.24900 40.72400
H  18.94500 -5.69600 42.55900
H  19.24200 -3.99300 43.01300
H  18.24200 -4.88000 44.08900
H  20.93500 -9.41200 45.31700
H  19.31700 -9.99200 45.05900
H  19.67800 -9.18900 46.60100
H  24.57400 -9.14700 47.16200
H  25.40300 -7.33000 49.52400
H  22.59000 -8.24800 49.13900
H  23.90600 -8.99700 49.96100
H  23.06500 -9.97000 48.78900
H  27.62800 -8.32000 47.83900
H  26.46400 -9.61500 48.23400
H  26.97300 -8.48100 50.59000
H  28.56000 -8.41000 49.85500
H  27.69400 -9.93100 49.83600
H  30.58200 -3.61900 47.15400
H  29.74300 -4.95300 47.83200
H  29.46500 -3.30900 48.44000
H  27.78500 -1.25100 42.74400
H  27.50500 2.89200 44.03600
H  25.91000 2.59600 43.39000
H  27.34100 2.95600 42.28200
Mg -5.03300 25.23900 26.22300
C  -3.58600 26.55900 29.12800
C  -6.83400 23.02500 28.21100
C  -6.00400 23.61100 23.40000
C  -2.72500 27.15900 24.42300
N  -5.18700 24.95100 28.41100
C  -4.52000 25.58100 29.41700
C  -5.14400 25.22700 30.77300
C  -5.97700 23.92600 30.48300
C  -5.97000 23.95000 28.94400
C  -5.26400 22.66800 31.08800
C  -5.92300 26.36200 31.42000
C  -5.51100 26.81100 32.89100
H  -5.12800 25.71000 33.88000
N  -6.32300 23.67700 25.84000
C  -7.03900 22.94600 26.80300
C  -7.90000 21.93700 26.08500
C  -7.74100 22.13400 24.66500
C  -6.63600 23.17300 24.55100
C  -8.86000 20.97900 26.83000
C  -8.53900 21.55200 23.46600
O  -8.30000 21.87100 22.34000
C  -9.73500 20.63600 23.74700
N  -4.47600 25.34600 24.21600
C  -5.04700 24.60800 23.22600
C  -4.37800 24.77600 21.89400
C  -3.54200 26.08600 22.13800
C  -3.54400 26.21100 23.68800
C  -3.54600 23.55200 21.36600
C  -4.04900 27.40800 21.48900
C  -3.22800 28.01300 20.32200
N  -3.46600 26.65400 26.61600
C  -2.63800 27.36000 25.81400
C  -1.73600 28.20400 26.58200
C  -2.04500 27.93800 27.83700
C  -3.08400 26.95000 27.83200
C  -0.89400 29.22000 25.95100
C  -1.70000 28.26900 29.24200
O  -0.84900 29.04200 29.70600
C  -2.73700 27.35200 30.09500
C  -1.87100 26.45300 31.01600
O  -1.35600 25.35000 30.77000
O  -1.86900 27.11900 32.25800
C  -1.15100 26.47500 33.38600
H  -7.27700 22.22300 28.80500
H  -6.27900 23.13700 22.45500
H  -2.06400 27.80700 23.84300
H  -4.31600 25.06500 31.46200
H  -7.04200 23.91000 30.71600
H  -6.15000 22.07700 31.31900
H  -4.64900 22.83700 31.97200
H  -4.58700 22.23600 30.35200
H  -6.98500 26.11400 31.40100
H  -5.91400 27.29300 30.85200
H  -6.41100 27.19400 33.37200
H  -4.76800 27.60900 32.89000
H  -8.73000 19.97000 26.43900
H  -9.90900 21.26900 26.78300
H  -8.51700 20.91600 27.86300
H  -10.45500 21.04900 24.45300
H  -9.32600 19.68300 24.08400
H  -10.17500 20.52800 22.75500
H  -5.11900 25.00600 21.12900
H  -2.55700 25.94300 21.69400
H  -3.61400 22.66300 21.99300
H  -2.52100 23.91100 21.27100
H  -4.02100 23.21800 20.44300
H  -4.29500 28.14800 22.25000
H  -5.06400 27.16400 21.17700
H  -2.45300 27.29100 20.06700
H  -2.96300 29.02900 20.61800
H  -3.77300 28.16900 19.39200
H  -0.23400 28.68100 25.27100
H  -0.42800 29.75700 26.77700
H  -1.57300 29.79900 25.32500
H  -3.40800 27.91400 30.74500
H  -0.12000 26.46600 33.03300
H  -1.42000 25.44700 33.63300
H  -1.33400 27.13300 34.23500

