158

Mg 47.41000 16.60700 27.83000
C  45.52100 16.30600 30.75000
C  49.48100 18.86400 29.45500
C  49.23700 16.97200 25.01900
C  44.92900 15.08300 26.11700
N  47.46800 17.44800 29.84200
C  46.71200 17.02900 30.94900
C  47.30700 17.48500 32.30500
C  48.37200 18.52600 31.81100
C  48.43400 18.32600 30.29200
C  48.10200 20.04000 32.12500
C  47.78500 16.26500 33.27600
C  48.56400 16.60000 34.54900
H  48.59600 18.00200 35.15400
N  49.07100 17.74400 27.26900
C  49.81000 18.61600 28.07700
C  50.93500 19.18600 27.33000
C  51.02900 18.47300 26.12100
C  49.74800 17.67300 26.10700
C  52.06400 19.99200 27.95200
C  52.18000 18.32200 25.13800
O  52.18700 17.41600 24.33100
C  53.39100 19.26000 25.12000
N  47.23200 15.95100 25.92800
C  48.07100 16.22700 24.88400
C  47.57900 15.78500 23.53500
C  46.27500 14.98400 23.95600
C  46.07900 15.39900 25.41900
C  47.30400 16.91800 22.52600
C  46.37100 13.47000 23.87500
C  46.05700 12.85100 22.44100
N  45.54600 15.93900 28.27400
C  44.61200 15.27300 27.47400
C  43.46000 14.84700 28.24500
C  43.86800 15.23800 29.51800
C  45.06100 15.85100 29.46900
C  42.25400 14.05800 27.84700
C  43.36100 15.18200 30.84400
O  42.36400 14.73500 31.31400
C  44.46300 15.96600 31.77000
C  43.82500 17.17200 32.30400
O  43.47000 18.13900 31.67400
O  43.72100 16.99700 33.61500
C  43.16700 18.13800 34.43800
H  50.04800 19.63600 29.97800
H  49.72900 17.29300 24.09800
H  44.26800 14.63900 25.37000
H  46.51100 18.01100 32.83400
H  49.36200 18.39700 32.24800
H  48.96500 20.41600 32.67600
H  47.22600 20.16100 32.76100
H  47.94400 20.64100 31.23000
H  48.40200 15.49000 32.82200
H  46.91400 15.68500 33.57900
H  49.56400 16.17400 34.47800
H  48.19000 16.01100 35.38600
H  52.31600 20.88200 27.37500
H  52.96500 19.38600 27.86200
H  51.92300 20.22500 29.00800
H  53.05000 20.28700 25.25500
H  53.78800 19.16200 24.11000
H  54.06800 18.92300 25.90500
H  48.27700 15.17200 22.96500
H  45.40300 15.35100 23.41500
H  46.33900 16.88700 22.01900
H  48.04700 16.91000 21.72800
H  47.48400 17.85100 23.05900
H  45.76700 13.01300 24.65900
H  47.37500 13.14600 24.14900
H  47.04900 12.54800 22.10800
H  45.64700 13.45200 21.63000
H  45.33800 12.05700 22.64500
H  42.60600 13.26900 27.18300
H  41.48900 14.69800 27.40700
H  41.81700 13.64400 28.75600
H  44.81400 15.30900 32.56700
H  42.16100 17.85800 34.75200
H  43.07500 19.02600 33.81300
H  43.74900 18.33700 35.33700
Mg 9.43100 48.77700 26.06900
C  7.32500 48.68100 28.84800
C  11.81000 50.14600 27.95200
C  11.09300 49.04600 23.32000
C  6.41600 48.10500 24.13600
N  9.35900 49.52800 28.12300
C  8.54200 49.22600 29.13800
C  9.03800 49.67300 30.50700
C  10.36100 50.31800 30.13700
C  10.60600 49.94600 28.63300
C  10.44900 51.84700 30.40200
C  9.22900 48.61800 31.66100
C  8.25500 48.86500 32.78200
H  8.80100 49.65100 33.96800
N  11.27100 49.36500 25.74900
C  12.18600 49.83700 26.62500
C  13.47900 49.76900 25.94800
C  13.27800 49.48200 24.55400
C  11.84700 49.30100 24.50400
C  14.73500 50.00200 26.75000
C  14.23000 49.38700 23.37200
O  13.87500 49.36100 22.17800
C  15.76300 49.56500 23.58400
N  8.81200 48.79100 24.04800
C  9.71300 48.90100 23.05000
C  9.20900 48.60100 21.63500
C  7.71100 48.17400 22.02900
C  7.61500 48.40700 23.50800
C  9.28300 49.73100 20.55800
C  7.29400 46.70000 21.57100
C  7.43100 45.55600 22.52400
N  7.28600 48.45400 26.39500
C  6.20300 48.17500 25.56600
C  5.03900 47.92800 26.29400
C  5.47300 48.06100 27.63800
C  6.81900 48.44000 27.60900
C  3.66200 47.53600 25.71600
C  4.94600 48.14600 28.99200
O  3.81100 47.94300 29.39900
C  6.20400 48.44800 29.86200
C  6.38200 47.15400 30.58500
O  7.07000 46.22500 30.17600
O  5.73800 47.08500 31.83500
C  6.04400 45.83300 32.59200
H  12.60200 50.57100 28.57200
H  11.62600 48.88800 22.38000
H  5.60400 47.71900 23.51600
H  8.32000 50.43900 30.80000
H  11.17400 49.94300 30.75800
H  9.65500 52.12100 31.09700
H  10.27100 52.37700 29.46600
H  11.44100 52.15700 30.72900
H  10.21500 48.55900 32.12200
H  8.99700 47.65300 31.20900
H  7.84600 47.91300 33.12200
H  7.38600 49.30700 32.29600
H  14.54500 49.80800 27.80600
H  15.01000 51.01900 26.47000
H  15.67200 49.48400 26.54300
H  15.86800 48.83700 24.38800
H  16.02200 50.58700 23.86300
H  16.33700 49.30900 22.69400
H  9.63500 47.71200 21.17000
H  6.98400 48.82800 21.55000
H  9.65300 50.68200 20.94100
H  8.27700 49.93500 20.19300
H  9.94500 49.41300 19.75200
H  7.63800 46.44000 20.56900
H  6.23100 46.79500 21.35300
H  8.18000 45.67500 23.30600
H  7.57900 44.66100 21.91900
H  6.45200 45.30800 22.93500
H  3.68900 47.19800 24.68000
H  3.04300 48.43300 25.69400
H  3.18400 46.85700 26.42200
H  6.00500 49.15600 30.66600
H  5.41500 45.06900 32.13600
H  5.69600 45.95300 33.61800
H  7.08000 45.50600 32.68400

