158

Mg 27.14500 50.16500 25.50900
C  25.31100 51.58400 28.18700
C  29.60500 49.42800 27.75700
C  28.70300 48.77000 23.06900
C  24.58500 51.13600 23.36600
N  27.36200 50.42400 27.80700
C  26.51200 50.99400 28.63300
C  27.03300 50.82100 30.08100
C  28.50000 50.46500 29.85200
C  28.53700 50.11500 28.35900
C  29.64000 51.52000 30.12700
C  26.13300 49.87500 30.94400
C  25.42600 50.55900 32.15700
H  26.34000 50.96000 33.26300
N  28.96300 49.28300 25.42100
C  29.85500 49.07100 26.44000
C  31.01100 48.28600 25.89500
C  30.70700 47.97400 24.57400
C  29.47500 48.73400 24.27900
C  32.26200 47.83600 26.72000
C  31.46500 47.29400 23.53200
O  31.11600 47.32700 22.33100
C  32.83000 46.67600 23.81200
N  26.86000 50.30500 23.41800
C  27.60500 49.51600 22.66000
C  27.08500 49.48900 21.18500
C  25.61500 49.98200 21.35600
C  25.64900 50.50700 22.76500
C  27.91400 50.40500 20.26100
C  24.41200 49.04900 20.93100
C  24.25200 47.84200 21.94000
N  25.36700 51.29500 25.65900
C  24.45600 51.60400 24.69900
C  23.35200 52.42900 25.23900
C  23.58500 52.27500 26.65700
C  24.88100 51.65400 26.85900
C  22.10300 52.94900 24.53200
C  23.07200 52.56100 27.97900
O  22.01300 53.00800 28.36700
C  24.18200 52.18000 29.04900
C  24.57100 53.37500 29.77100
O  25.38300 54.23400 29.47700
O  23.87500 53.35900 30.95200
C  24.02300 54.45500 31.92100
H  30.38700 49.15000 28.46700
H  29.14900 48.21200 22.24200
H  23.72400 51.39100 22.74400
H  27.18400 51.77900 30.57900
H  28.75500 49.57300 30.42500
H  29.20000 52.50700 30.27200
H  30.31400 51.58900 29.27300
H  30.26900 51.33700 30.99800
H  26.82500 49.09100 31.25300
H  25.41000 49.42700 30.26300
H  24.60700 49.97000 32.57100
H  25.04500 51.54500 31.89100
H  32.27500 46.77200 26.48300
H  32.08800 47.90400 27.79400
H  33.21500 48.25500 26.39800
H  33.32500 46.65500 22.84100
H  32.71200 45.66600 24.20400
H  33.38800 47.28500 24.52300
H  27.12900 48.47400 20.79100
H  25.44900 50.91100 20.81100
H  28.93500 50.34100 20.63500
H  27.61300 51.45100 20.20500
H  27.93800 50.02100 19.24100
H  24.59000 48.68100 19.92000
H  23.50800 49.65900 20.91800
H  23.18100 47.63900 21.97500
H  24.83800 47.84000 22.85900
H  24.59500 47.01200 21.32200
H  21.56400 52.04300 24.25600
H  22.19300 53.47400 23.58100
H  21.42100 53.43200 25.23300
H  23.97900 51.37900 29.76000
H  24.61100 55.22900 31.42800
H  24.59900 54.15700 32.79800
H  23.03900 54.90200 32.06200
Mg -1.86300 35.01000 27.31900
C  -3.48600 33.17900 29.94800
C  -0.43100 36.97200 29.64400
C  -0.52500 36.59700 24.89500
C  -3.57700 32.69300 24.98800
N  -2.01800 35.07700 29.56000
C  -2.73900 34.28600 30.43200
C  -2.54400 34.71100 31.90600
C  -1.76500 36.10700 31.70700
C  -1.33900 36.02500 30.19800
C  -2.63200 37.43100 31.99800
C  -1.70600 33.56200 32.64900
C  -2.28000 32.92300 33.86800
H  -1.35600 32.86200 35.10600
N  -0.70900 36.57500 27.31400
C  -0.11200 37.32200 28.31200
C  0.76600 38.25500 27.82300
C  0.63900 38.20100 26.44000
C  -0.27300 37.13200 26.11600
C  1.58300 39.16000 28.73300
C  1.30200 39.10100 25.32600
O  0.96000 39.08900 24.17400
C  2.32100 40.19400 25.80300
N  -2.23500 34.82700 25.27200
C  -1.37100 35.56900 24.48000
C  -1.40800 35.14900 22.98600
C  -2.31000 33.96300 23.00800
C  -2.76700 33.81300 24.53600
C  -1.83300 36.30400 22.10700
C  -1.64700 32.66000 22.37900
C  -0.37700 32.00700 22.96200
N  -3.23600 33.23300 27.39600
C  -3.84800 32.50700 26.40400
C  -4.64200 31.42800 27.00900
C  -4.61600 31.66600 28.40400
C  -3.72800 32.79600 28.57400
C  -5.42300 30.43500 26.22900
C  -5.05800 31.29100 29.70800
O  -5.76400 30.38900 29.96200
C  -4.43800 32.28100 30.75000
C  -5.44900 33.03800 31.58300
O  -6.00300 34.05700 31.22200
O  -5.51600 32.44300 32.84600
C  -6.44700 33.11700 33.73300
H  0.06100 37.64400 30.35100
H  -0.01500 36.91200 23.98200
H  -3.85100 31.98300 24.20500
H  -3.53700 34.84500 32.33400
H  -0.92800 36.15700 32.40400
H  -3.69000 37.34800 31.74800
H  -2.11900 38.24400 31.48500
H  -2.59200 37.68600 33.05700
H  -0.78200 33.99100 33.03500
H  -1.40900 32.80600 31.92200
H  -2.52600 31.87300 33.71000
H  -3.11500 33.55700 34.16600
H  2.61400 39.19900 28.38200
H  1.55600 38.95100 29.80300
H  1.23600 40.18800 28.62700
H  1.69600 40.86300 26.39400
H  2.74300 40.85400 25.04600
H  3.15800 39.67700 26.27200
H  -0.41400 34.84900 22.65400
H  -3.12800 34.22700 22.33800
H  -0.98100 36.86800 21.72800
H  -2.52200 36.89400 22.71000
H  -2.35300 36.00600 21.19700
H  -1.51900 32.74500 21.30000
H  -2.45500 31.93600 22.48800
H  -0.29800 32.45600 23.95300
H  0.43100 32.25200 22.27300
H  -0.43700 30.92400 23.07000
H  -5.03600 29.42500 26.36400
H  -5.24400 30.62200 25.17000
H  -6.49700 30.50900 26.39900
H  -3.95100 31.66300 31.50500
H  -7.11300 33.77700 33.17700
H  -5.98800 33.58300 34.60500
H  -7.14700 32.36700 34.09900

