158

Mg 44.76600 4.34500 47.06500
C  43.27700 7.56000 46.32300
C  41.64200 2.99200 46.72000
C  46.24200 1.40900 46.84000
C  47.90700 5.93700 46.72700
N  42.78000 5.26500 46.59500
C  42.35600 6.48700 46.23900
C  40.93100 6.56100 45.81000
C  40.34000 5.13300 46.33900
C  41.63200 4.40800 46.74600
C  39.31300 5.05100 47.55900
C  40.98500 6.74500 44.24800
C  40.47800 8.05500 43.59400
H  39.29500 7.87600 42.65000
N  44.06200 2.44300 46.69800
C  42.75000 2.05200 46.68400
C  42.67200 0.60900 46.35300
C  44.01100 0.21000 46.21200
C  44.82100 1.31300 46.63200
C  41.47800 -0.19600 46.12200
C  44.57400 -1.13200 45.78100
O  43.77900 -1.97300 45.38100
C  46.04300 -1.55100 45.90900
N  46.77500 3.75500 46.68200
C  47.13800 2.49500 46.91400
C  48.63700 2.23800 46.89100
C  49.23200 3.73000 46.65400
C  47.87500 4.52700 46.64300
C  49.26000 1.47700 48.05200
C  49.93300 3.80500 45.32900
C  51.19800 4.74200 45.25500
N  45.48100 6.36500 46.93200
C  46.78300 6.79200 46.80700
C  46.75800 8.28900 46.71500
C  45.42900 8.62400 46.66200
C  44.65600 7.42700 46.70100
C  47.95700 9.13400 46.68900
C  44.43600 9.68800 46.46700
O  44.61200 10.86700 46.31700
C  42.95700 9.04700 46.26900
C  42.02800 9.57800 47.21700
O  41.66500 9.04300 48.29700
O  41.55700 10.84700 46.76500
C  40.83800 11.68300 47.76300
H  40.63700 2.57200 46.79700
H  46.80700 0.48600 46.98100
H  48.90600 6.37900 46.73400
H  40.49500 7.41400 46.33000
H  39.89700 4.61100 45.49000
H  39.71400 4.67800 48.50200
H  38.48900 4.39600 47.27500
H  38.82400 6.01400 47.70300
H  40.30300 6.01200 43.81700
H  41.96600 6.56600 43.80800
H  41.30500 8.41500 42.98300
H  40.21100 8.67800 44.44800
H  41.75700 -1.06000 46.72400
H  41.45100 -0.49900 45.07500
H  40.62100 0.37400 46.48000
H  46.70100 -0.81900 45.44100
H  46.17900 -2.56500 45.53300
H  46.16000 -1.58300 46.99200
H  48.81400 1.54400 46.06900
H  49.74500 4.16300 47.51200
H  48.60000 1.31400 48.90500
H  50.16400 1.99300 48.37400
H  49.42200 0.45300 47.71500
H  49.21400 4.19400 44.60800
H  50.20600 2.76900 45.13000
H  52.03400 4.23400 45.73600
H  51.01100 5.67900 45.78000
H  51.48000 4.82200 44.20500
H  47.64500 10.01900 47.24400
H  48.07800 9.46200 45.65700
H  48.89300 8.71000 47.05000
H  42.52400 9.30900 45.30400
H  39.78000 11.42300 47.77900
H  40.93900 12.76200 47.64300
H  41.36500 11.57600 48.71100
Mg 40.44700 10.06500 29.46300
C  42.17300 11.22900 32.09400
C  37.84500 9.02100 31.63600
C  38.70700 8.63000 26.95700
C  42.94200 11.05400 27.27300
N  39.96500 10.26600 31.60600
C  40.90700 10.73700 32.48600
C  40.34300 10.61900 33.98400
C  39.24700 9.60600 33.78000
C  38.95100 9.63800 32.28700
C  39.42200 8.24000 34.55100
C  39.86400 11.96100 34.50900
C  39.18300 12.08400 35.92500
H  39.81000 12.92500 37.01400
N  38.50200 9.02100 29.28000
C  37.62200 8.71000 30.32000
C  36.46500 8.01300 29.79700
C  36.69000 7.99200 28.41000
C  38.00200 8.59500 28.16300
C  35.26600 7.53700 30.72100
C  35.92200 7.26000 27.46400
O  36.34100 6.90600 26.35000
C  34.64800 6.87200 27.78900
N  40.86700 9.68400 27.40400
C  39.97100 9.15500 26.56000
C  40.31600 9.37000 25.09100
C  41.63500 10.23500 25.17500
C  41.77300 10.36900 26.74500
C  40.41100 8.11200 24.20000
C  41.76500 11.63400 24.39500
C  41.00700 12.79700 24.98000
N  42.24200 10.85500 29.59900
C  43.13500 11.33600 28.64200
C  44.23100 11.99600 29.32300
C  43.89800 12.05900 30.68500
C  42.69100 11.36600 30.76200
C  45.46300 12.39500 28.71500
C  44.36100 12.46200 32.00100
O  45.39800 13.02100 32.34900
C  43.22600 12.00000 33.01200
C  43.76900 11.17100 34.14200
O  44.08500 10.00000 34.23000
O  43.86600 12.06800 35.25300
C  44.50300 11.42900 36.47000
H  37.06900 8.72500 32.34500
H  38.13200 8.21400 26.12600
H  43.69600 11.53300 26.64500
H  41.22400 10.26700 34.52100
H  38.37800 10.08200 34.23400
H  40.43600 8.17100 34.94600
H  39.34200 7.36000 33.91300
H  38.71900 8.27700 35.38400
H  39.28100 12.43700 33.71900
H  40.81300 12.49400 34.56800
H  39.08300 11.04300 36.23100
H  38.15900 12.45400 35.87500
H  35.50500 7.66400 31.77700
H  35.31400 6.44800 30.72300
H  34.25200 7.71800 30.36300
H  34.59600 6.04200 28.49300
H  34.11600 6.65600 26.86200
H  34.18200 7.69900 28.32500
H  39.63500 10.08700 24.63300
H  42.48700 9.58700 24.96900
H  40.12400 7.27400 24.83700
H  41.34000 7.95500 23.65200
H  39.61200 8.31600 23.48800
H  41.46400 11.46200 23.36200
H  42.81900 11.91000 24.44400
H  41.75000 13.52300 25.30700
H  40.47300 12.41900 25.85200
H  40.26800 13.09800 24.23700
H  45.44300 13.46800 28.52500
H  45.63300 11.74500 27.85600
H  46.19600 12.15900 29.48600
H  42.81600 12.93300 33.40000
H  43.87200 11.48300 37.35700
H  45.49700 11.77500 36.75100
H  44.61300 10.34500 36.43900

