158

Mg 3.79400 -0.55300 43.41700
C  7.20300 0.04100 43.10400
C  3.12400 2.22800 41.59300
C  0.50600 -1.59200 43.07000
C  4.52600 -3.73700 44.67500
N  5.06500 0.87600 42.52200
C  6.45900 1.02000 42.48000
C  6.95600 2.24500 41.77400
C  5.56600 3.07300 41.76800
C  4.47200 2.01900 41.96800
C  5.39400 4.20200 42.82800
C  7.61000 1.99300 40.39700
C  7.27500 0.71200 39.60000
H  6.25200 0.78900 38.47000
N  2.03900 0.29000 42.46800
C  1.96600 1.49000 41.88900
C  0.63000 1.79900 41.56300
C  -0.23400 0.73800 42.02900
C  0.76600 -0.29700 42.55600
C  0.18300 3.08100 40.99900
C  -1.75700 0.65800 42.02200
O  -2.44100 1.56400 41.55900
C  -2.57700 -0.44900 42.49600
N  2.65900 -2.37500 43.82600
C  1.34900 -2.53000 43.58200
C  0.88100 -4.00300 43.95900
C  2.25500 -4.72200 44.29300
C  3.23600 -3.53300 44.25500
C  -0.11900 -4.10600 45.21000
C  2.67900 -5.91300 43.28700
C  2.89300 -7.19300 44.05200
N  5.42700 -1.60300 44.06100
C  5.58200 -2.84200 44.60200
C  6.99400 -3.13300 45.03700
C  7.66900 -2.04100 44.45400
C  6.69200 -1.11400 43.87300
C  7.51400 -4.31900 45.75200
C  9.02000 -1.46600 44.12200
O  10.16400 -1.80000 44.37400
C  8.75100 -0.11400 43.28000
C  9.37800 1.07000 43.92700
O  9.86000 2.02400 43.29700
O  9.21900 1.12000 45.28600
C  9.55900 2.32100 45.98800
H  3.03900 3.16200 41.03300
H  -0.51400 -1.92200 43.27600
H  4.66400 -4.71100 45.15000
H  7.70900 2.70700 42.41200
H  5.54200 3.62300 40.82700
H  5.20400 5.19400 42.41700
H  6.36500 4.36200 43.29900
H  4.57300 4.08100 43.53400
H  8.69700 1.92200 40.43500
H  7.48200 2.83100 39.71100
H  6.73700 0.05900 40.28800
H  8.22500 0.23000 39.36900
H  1.00100 3.46900 40.39100
H  0.08300 3.84400 41.77100
H  -0.66500 3.08300 40.31500
H  -2.47800 -0.73000 43.54500
H  -2.19400 -1.27200 41.89300
H  -3.63900 -0.30000 42.30300
H  0.49000 -4.48800 43.06500
H  2.28300 -5.09200 45.31800
H  0.14500 -5.03900 45.70900
H  -1.17800 -4.12200 44.95500
H  0.02500 -3.27700 45.90200
H  3.49700 -5.62700 42.62500
H  1.84500 -6.06800 42.60200
H  3.31400 -7.95900 43.40100
H  1.99400 -7.47600 44.60100
H  3.68300 -7.05500 44.79100
H  8.57600 -4.35700 45.99100
H  7.23700 -5.14900 45.10200
H  6.90600 -4.46100 46.64500
H  9.27400 -0.06200 42.32500
H  9.24100 2.10500 47.00800
H  8.88500 3.11300 45.66200
H  10.61700 2.55000 45.85700
Mg 34.85400 49.16900 25.11400
C  34.96900 47.46300 28.14300
C  33.27500 51.81700 26.63900
C  34.47600 50.59500 22.02200
C  36.21700 46.28300 23.57700
N  33.97600 49.44800 27.19700
C  34.28800 48.68900 28.34000
C  33.95200 49.46900 29.62400
C  33.26100 50.87200 29.07700
C  33.56600 50.75500 27.53400
C  31.77600 50.87600 29.21600
C  35.21700 49.73200 30.53700
C  34.88900 50.26600 31.96800
H  33.49200 50.13500 32.55200
N  33.98700 50.95800 24.41100
C  33.41100 51.92800 25.23900
C  32.93500 52.91900 24.35000
C  33.16100 52.58700 23.00600
C  33.96600 51.33200 23.10300
C  32.32600 54.09200 25.04700
C  32.73300 53.20200 21.71300
O  32.79600 52.66700 20.62400
C  31.97000 54.62400 21.86600
N  35.42800 48.57000 23.11100
C  35.14000 49.36500 22.02900
C  35.76400 48.70200 20.73100
C  36.42200 47.42400 21.30800
C  35.98900 47.41600 22.77100
C  34.80300 48.42200 19.54100
C  37.97500 47.30300 21.02300
C  38.22700 46.06300 20.22200
N  35.43800 47.28300 25.69700
C  35.90800 46.20300 24.94200
C  36.15400 45.05800 25.84800
C  35.91800 45.55000 27.14700
C  35.38000 46.87800 26.97200
C  36.44500 43.69000 25.40600
C  35.99000 45.28000 28.50300
O  36.30900 44.30500 29.15200
C  35.24200 46.42400 29.21000
C  34.05800 45.92200 29.79100
O  33.10400 45.42300 29.18200
O  34.18100 46.13600 31.14100
C  33.09700 45.64400 31.98300
H  32.87300 52.63200 27.24400
H  34.35300 51.01500 21.02200
H  36.65800 45.42800 23.06100
H  33.24800 48.89500 30.22700
H  33.74800 51.79400 29.39600
H  31.53400 50.06400 29.90100
H  31.13000 50.75600 28.34600
H  31.51400 51.81800 29.69900
H  35.67700 50.54900 29.98000
H  35.98200 48.95600 30.58200
H  35.16000 51.32200 31.99100
H  35.56800 49.84900 32.71200
H  31.27000 54.01000 25.30500
H  32.49500 54.95600 24.40400
H  32.80900 54.36900 25.98400
H  31.72600 54.90000 20.84000
H  32.69600 55.34900 22.23600
H  31.12400 54.45700 22.53300
H  36.61000 49.29200 20.37700
H  35.93300 46.51600 20.95400
H  34.65900 47.35100 19.39800
H  35.29800 48.84700 18.66800
H  33.80500 48.79800 19.76500
H  38.54700 47.24200 21.94900
H  38.42400 48.06200 20.38200
H  38.75100 46.34800 19.30900
H  37.32100 45.58800 19.84700
H  38.95300 45.36600 20.63900
H  36.10300 43.08400 26.24500
H  37.51200 43.58800 25.20800
H  35.85700 43.51200 24.50600
H  36.00200 46.75900 29.91600
H  32.50600 44.79500 31.64200
H  32.31800 46.36400 32.23300
H  33.50700 45.42500 32.96900

