158

Mg 42.84900 41.85200 26.11400
C  41.96000 44.16900 28.52300
C  44.05800 39.68400 28.48300
C  43.83300 39.78800 23.66800
C  42.23500 44.37200 23.61600
N  42.93300 41.96200 28.26600
C  42.52400 42.96500 29.10600
C  42.53300 42.42000 30.57500
C  43.56100 41.26800 30.45600
C  43.55700 40.89600 28.96800
C  44.97000 41.49400 30.96100
C  41.09900 41.89100 30.99000
C  40.92800 41.68700 32.52400
H  40.07800 42.65400 33.32100
N  43.55500 39.88100 26.10300
C  44.04300 39.16300 27.11100
C  44.43600 37.86800 26.62400
C  43.93700 37.75300 25.28600
C  43.73800 39.19400 24.90600
C  44.99800 36.89400 27.59800
C  43.71300 36.52800 24.44300
O  43.36800 36.50300 23.29300
C  43.79500 35.25800 25.10100
N  43.16800 42.09100 23.94800
C  43.64200 41.05500 23.17200
C  43.89500 41.55800 21.74400
C  43.22200 42.88100 21.75100
C  42.86500 43.17300 23.18300
C  45.36600 41.68800 21.38900
C  41.90800 43.03100 20.79700
C  40.61500 42.51100 21.40300
N  42.31400 43.95900 26.01800
C  42.02600 44.79000 24.98400
C  41.53300 46.03300 25.55200
C  41.47200 45.83600 26.89700
C  41.98300 44.54700 27.12500
C  41.20400 47.24400 24.82900
C  41.04300 46.38500 28.13400
O  40.45200 47.37100 28.35400
C  41.24900 45.25500 29.29500
C  42.02500 45.92900 30.37100
O  43.23500 46.06800 30.43100
O  41.15700 46.41600 31.30500
C  41.60200 47.35600 32.32800
H  44.47000 38.96500 29.19400
H  44.11300 39.12500 22.84600
H  41.81800 44.99500 22.82200
H  42.83500 43.21900 31.25100
H  43.20500 40.41200 31.02800
H  45.06500 42.42600 31.51900
H  45.65100 41.51800 30.11100
H  45.23900 40.73300 31.69400
H  40.97000 40.89300 30.57100
H  40.22900 42.45100 30.64700
H  41.93200 41.64100 32.94600
H  40.54000 40.67900 32.67100
H  45.57400 36.12000 27.09300
H  44.11100 36.42600 28.02600
H  45.56200 37.34900 28.41200
H  44.78500 34.87600 25.35100
H  43.24600 34.55900 24.47000
H  43.08700 35.33000 25.92600
H  43.48100 40.74700 21.14500
H  43.83500 43.71000 21.39800
H  45.51600 41.37800 20.35500
H  45.90800 40.96200 21.99400
H  45.79900 42.67500 21.55700
H  42.07300 42.43400 19.89900
H  41.75300 44.05000 20.44200
H  40.08800 43.43600 21.63700
H  40.65600 41.81400 22.24000
H  39.91300 42.02300 20.72600
H  40.93800 48.06300 25.49700
H  40.47800 47.11300 24.02600
H  42.09800 47.67400 24.37800
H  40.36500 44.78100 29.72100
H  41.71600 46.77100 33.24000
H  40.80500 48.09100 32.44600
H  42.65800 47.61000 32.24200
Mg 17.26400 52.13900 26.86400
C  19.08600 50.57400 29.42500
C  14.90200 52.97900 29.13000
C  15.58200 53.49900 24.33200
C  19.50800 50.77300 24.55900
N  16.97200 51.79100 29.05900
C  17.99800 51.27700 29.91200
C  17.46900 51.24400 31.38800
C  15.93400 51.66200 31.18300
C  15.92100 52.17100 29.70300
C  14.98200 50.43600 31.40400
C  18.26600 52.24900 32.32300
C  17.63700 52.72300 33.67700
H  16.63400 51.88800 34.44300
N  15.51000 53.21200 26.73100
C  14.64800 53.44100 27.80100
C  13.55800 54.32900 27.34500
C  13.84900 54.60200 25.94600
C  14.97000 53.70400 25.57600
C  12.35000 54.77900 28.22100
C  13.10600 55.57000 24.94800
O  13.58200 55.93200 23.88400
C  11.96300 56.28400 25.41400
N  17.41300 51.93700 24.72100
C  16.59200 52.66700 23.91500
C  17.05400 52.67600 22.48500
C  18.47700 51.94800 22.61900
C  18.49200 51.55100 24.03300
C  16.06400 51.90900 21.52300
C  19.68500 52.90800 22.21200
C  20.92100 52.34000 21.43900
N  18.89300 50.82700 26.94600
C  19.72700 50.44300 25.93500
C  20.83500 49.71500 26.49500
C  20.67300 49.70800 27.91200
C  19.46200 50.41500 28.09700
C  21.84000 49.09600 25.77200
C  21.16400 49.34000 29.11900
O  22.20100 48.77100 29.47400
C  20.18100 49.94600 30.21700
C  19.74400 48.83200 31.06600
O  19.43600 47.71400 30.61800
O  19.84000 49.24900 32.38400
C  19.10800 48.31300 33.24700
H  14.08200 53.12300 29.83500
H  15.02600 54.09500 23.60500
H  20.26800 50.44000 23.84800
H  17.43100 50.22100 31.76200
H  15.57400 52.44500 31.85100
H  14.11900 50.83700 31.93500
H  15.31100 49.72800 32.16500
H  14.72700 49.86900 30.50800
H  18.39200 53.06100 31.60700
H  19.26000 51.83500 32.49300
H  17.29500 53.75100 33.56100
H  18.49200 52.91600 34.32300
H  11.48700 54.12300 28.10800
H  12.20300 55.83600 28.00000
H  12.63700 54.83300 29.27100
H  11.53500 56.58300 24.45700
H  12.26300 57.12800 26.03500
H  11.25700 55.65600 25.95700
H  17.14800 53.75500 22.36200
H  18.56700 50.94400 22.20500
H  16.59900 51.07600 21.06700
H  15.75400 52.58300 20.72500
H  15.17600 51.59900 22.07400
H  19.97700 53.24400 23.20700
H  19.42800 53.81100 21.65900
H  21.82200 52.42900 22.04500
H  21.17600 52.94000 20.56500
H  20.64100 51.31900 21.17900
H  21.45500 48.18900 25.30500
H  22.70100 49.11100 26.43900
H  22.11900 49.75700 24.95200
H  20.62900 50.71600 30.84600
H  18.92800 48.78700 34.21200
H  19.59400 47.35500 33.43500
H  18.10200 48.16400 32.85500

