158

Mg 8.98100 3.43200 27.41400
C  10.84900 1.89500 29.97100
C  7.25600 5.09400 29.77400
C  7.24300 4.78300 24.94700
C  10.72000 1.34400 25.19400
N  9.04400 3.41100 29.59400
C  9.95000 2.78700 30.44200
C  9.77500 3.25400 31.85400
C  8.52300 4.17000 31.82300
C  8.27400 4.28200 30.31200
C  7.21200 3.71100 32.55000
C  11.04000 3.91400 32.43600
C  11.48400 3.38500 33.83900
H  11.54200 4.42000 34.96000
N  7.37800 4.64800 27.41700
C  6.75200 5.20400 28.44400
C  5.75700 6.08300 28.00500
C  5.81800 6.13400 26.64000
C  6.80600 5.13500 26.27100
C  4.95700 6.76200 29.03200
C  5.02000 6.93500 25.66100
O  5.24300 6.95300 24.47500
C  3.94600 7.86600 26.09200
N  8.78100 2.99600 25.38100
C  8.12700 3.80700 24.56600
C  8.39600 3.43300 23.14100
C  9.68700 2.54700 23.15200
C  9.81600 2.33800 24.67300
C  7.19600 2.77800 22.38200
C  10.93600 3.26700 22.69400
C  12.10200 2.49200 21.92200
N  10.46800 1.91300 27.49900
C  11.03200 1.14400 26.55000
C  11.97800 0.18100 27.09800
C  11.94500 0.50400 28.46200
C  11.08600 1.56400 28.62000
C  12.65000 -0.82200 26.32500
C  12.52300 0.17600 29.72500
O  13.38600 -0.66300 29.94700
C  11.89200 1.13200 30.79200
C  11.28400 0.28200 31.82900
O  10.26800 -0.33400 31.68700
O  12.04800 0.30400 32.97400
C  11.55000 -0.55100 34.15800
H  6.74400 5.61700 30.58500
H  6.74200 5.24700 24.09500
H  11.37700 0.80300 24.51100
H  9.49100 2.37000 32.42400
H  8.76100 5.15800 32.21600
H  6.40200 3.40000 31.89000
H  6.94700 4.42900 33.32600
H  7.46600 2.80500 33.09900
H  10.87800 4.98900 32.51800
H  11.93100 3.76400 31.82600
H  12.47500 2.99400 33.60500
H  10.92400 2.48500 34.09200
H  4.13000 7.36000 28.65000
H  5.56700 7.49000 29.56600
H  4.55600 6.01200 29.71500
H  4.36300 8.70300 26.65200
H  3.09100 7.28200 26.43200
H  3.54300 8.44000 25.25700
H  8.58700 4.35800 22.59600
H  9.53900 1.66000 22.53600
H  6.38800 3.24200 22.94800
H  7.16700 1.68900 22.38100
H  6.95500 3.16600 21.39200
H  11.40200 3.76000 23.54700
H  10.75800 4.15000 22.08100
H  12.27000 2.84000 20.90300
H  11.90000 1.43100 21.77400
H  13.08100 2.53600 22.40000
H  12.88800 -0.70200 25.26800
H  12.01200 -1.70400 26.27700
H  13.63200 -0.97700 26.77200
H  12.60100 1.83400 31.23000
H  11.40500 -1.62700 34.05600
H  10.52000 -0.23300 34.32200
H  11.95100 -0.27500 35.13300
Mg 0.94400 43.71500 26.02100
C  3.01800 43.63100 28.81300
C  -1.59700 42.75900 28.17500
C  -1.26100 43.71800 23.36800
C  3.47300 44.55900 23.97700
N  0.72900 43.35000 28.24400
C  1.68400 43.42000 29.15800
C  1.05100 43.33900 30.61700
C  -0.35600 42.77600 30.33500
C  -0.40800 42.91500 28.80100
C  -0.78400 41.40800 30.90100
C  1.15600 44.66800 31.47800
C  0.79100 44.62000 32.97900
H  0.71800 43.28700 33.60800
N  -0.99400 43.20600 25.77400
C  -1.89600 42.80400 26.78200
C  -3.16400 42.50800 26.22500
C  -3.20600 43.00800 24.86100
C  -1.76000 43.33200 24.62400
C  -4.26900 41.77200 27.00300
C  -4.25700 43.07100 23.80900
O  -4.09400 43.35900 22.62400
C  -5.67900 42.64000 24.14700
N  1.11600 43.84500 23.86000
C  0.08900 43.95600 23.08400
C  0.52400 44.53800 21.69400
C  1.99300 45.00800 21.95800
C  2.19100 44.52000 23.34100
C  0.38000 43.65400 20.45100
C  2.25700 46.47700 21.82900
C  2.20300 47.14100 20.41300
N  2.84800 43.96700 26.26300
C  3.83700 44.27200 25.31600
C  5.13600 44.33700 25.98500
C  4.85300 44.00000 27.30900
C  3.44200 43.96700 27.44700
C  6.45800 44.77900 25.35900
C  5.35600 43.69700 28.64400
O  6.51800 43.67100 29.05300
C  4.19000 43.71100 29.68500
C  4.28500 42.43700 30.50500
O  3.99700 41.31800 30.15600
O  4.63100 42.79900 31.79200
C  4.94000 41.61200 32.63300
H  -2.31500 42.41700 28.92300
H  -1.86100 43.95700 22.48700
H  4.30700 44.94100 23.38600
H  1.63400 42.63500 31.21200
H  -1.13500 43.44900 30.69300
H  -0.04800 40.88900 31.51600
H  -1.14000 40.70800 30.14500
H  -1.66300 41.51000 31.53800
H  0.43200 45.36100 31.05100
H  2.17700 45.02700 31.34800
H  -0.15900 45.10800 33.19800
H  1.47800 45.18500 33.61000
H  -3.95500 41.07200 27.77700
H  -4.90900 41.17300 26.35500
H  -4.72300 42.53600 27.63400
H  -5.85500 43.21000 25.06000
H  -5.77900 41.58000 24.37800
H  -6.39400 42.89800 23.36600
H  -0.15700 45.37000 21.51600
H  2.75500 44.47300 21.39200
H  -0.25400 42.82800 20.77400
H  1.38100 43.29500 20.21400
H  -0.01800 44.23900 19.62100
H  3.20600 46.80400 22.25400
H  1.54100 46.96700 22.48900
H  2.33500 46.34900 19.67700
H  3.00100 47.85000 20.19200
H  1.29400 47.68000 20.14600
H  6.87400 45.49900 26.06400
H  6.26000 45.19600 24.37200
H  7.13700 43.92800 25.31500
H  4.25200 44.58100 30.33900
H  4.15100 40.89700 32.86800
H  5.33600 42.05600 33.54700
H  5.74800 41.00900 32.21900

