158

Mg 6.22500 54.00100 42.10000
C  5.29600 50.57100 41.68800
C  9.31200 53.27400 40.60600
C  6.78800 57.28500 41.75300
C  2.81800 54.63700 42.71200
N  7.08400 52.20800 41.22400
C  6.56500 50.92600 41.14600
C  7.58300 49.95900 40.45500
C  8.90800 50.73700 40.46100
C  8.42900 52.18600 40.78200
C  9.98400 50.17900 41.45200
C  7.21800 49.34300 39.04900
C  6.20800 50.21000 38.22200
H  6.48100 50.36400 36.70400
N  7.87400 55.15300 41.42100
C  9.09600 54.65000 40.92400
C  10.01900 55.73400 40.67900
C  9.32500 56.94100 41.13300
C  7.92900 56.54200 41.46800
C  11.36600 55.63500 40.06700
C  9.88700 58.34200 41.13300
O  11.11300 58.51600 40.95300
C  9.04100 59.52500 41.44900
N  4.96500 55.67700 41.94900
C  5.47900 56.93800 42.03500
C  4.39500 57.90700 42.52400
C  3.07300 57.08300 42.43800
C  3.65800 55.72600 42.40100
C  4.65500 58.43100 43.92900
C  2.21600 57.43200 41.19400
C  0.73100 57.81800 41.53200
N  4.39000 52.87100 42.34600
C  3.15100 53.28100 42.78000
C  2.30700 52.12000 42.99300
C  3.20300 51.04100 42.66600
C  4.35700 51.56800 42.17200
C  0.98700 52.06300 43.54600
C  3.33900 49.59900 42.66200
O  2.62700 48.73300 43.09500
C  4.71800 49.24900 42.00200
C  4.33600 48.42700 40.81200
O  3.67700 48.79800 39.85100
O  4.74900 47.16400 41.03200
C  4.30900 46.14200 40.06500
H  10.30000 53.04100 40.20300
H  6.95800 58.35400 41.89300
H  1.74900 54.77500 42.88700
H  7.69500 49.15700 41.18500
H  9.33000 50.84500 39.46200
H  9.57700 50.04300 42.45400
H  10.81100 50.88300 41.54600
H  10.30300 49.23100 41.01900
H  6.77300 48.35600 39.17700
H  8.11700 49.19600 38.45000
H  6.34100 51.25600 38.49800
H  5.22600 49.77900 38.41700
H  11.28500 55.28600 39.03700
H  11.91700 54.83500 40.56100
H  12.10300 56.43800 40.07800
H  8.26700 59.56600 40.68200
H  9.66400 60.40600 41.29700
H  8.61500 59.55700 42.45100
H  4.31800 58.79900 41.90200
H  2.55700 57.17800 43.39300
H  3.99200 57.99900 44.67900
H  4.52700 59.51000 44.01800
H  5.65700 58.10700 44.20900
H  2.05200 56.58600 40.52600
H  2.71100 58.16900 40.56200
H  0.47500 57.80800 42.59100
H  0.12700 57.09800 40.98100
H  0.47900 58.78100 41.08700
H  0.42200 51.20400 43.18400
H  0.44300 52.96800 43.27500
H  1.12700 52.00400 44.62500
H  5.27300 48.60700 42.68600
H  4.58300 45.21800 40.57300
H  4.89900 46.21400 39.15200
H  3.27200 46.21600 39.73700
Mg -11.19800 16.90400 41.64400
C  -7.77100 16.09000 41.45200
C  -10.39900 20.15800 40.88300
C  -14.38900 17.53700 41.64200
C  -11.79900 13.42600 42.20100
N  -9.24900 18.03500 41.37800
C  -8.02700 17.47900 41.27000
C  -7.00400 18.56300 40.82800
C  -7.89100 19.87200 40.71200
C  -9.27300 19.35600 40.99300
C  -7.45400 21.16100 41.53600
C  -6.39300 18.21200 39.47900
C  -4.83700 18.08100 39.23300
H  -4.25600 18.55000 37.91500
N  -12.26100 18.61500 41.12800
C  -11.78500 19.82600 40.95300
C  -12.89300 20.85300 40.78500
C  -14.04000 20.05200 40.93000
C  -13.64400 18.66000 41.15400
C  -12.71400 22.36400 40.57200
C  -15.42800 20.50400 40.92700
O  -15.65600 21.74500 40.96700
C  -16.60100 19.63200 41.06900
N  -12.84300 15.66300 41.81900
C  -14.08300 16.17800 41.82200
C  -15.16900 15.14800 42.16300
C  -14.29200 13.82000 42.08800
C  -12.84300 14.27300 42.07800
C  -15.81800 15.47500 43.57800
C  -14.66300 13.01300 40.83800
C  -15.15400 11.55800 41.10100
N  -10.05700 15.13900 41.86100
C  -10.44300 13.81800 42.11400
C  -9.26200 13.00000 42.22900
C  -8.21400 13.86400 41.97600
C  -8.73000 15.09500 41.70900
C  -9.19000 11.60800 42.77600
C  -6.76600 13.93200 41.85400
O  -5.88400 13.05800 41.86000
C  -6.44200 15.38900 41.59200
C  -5.67100 15.90300 42.69900
O  -6.00500 15.90400 43.88000
O  -4.40300 16.30300 42.33600
C  -3.61100 16.98900 43.32200
H  -10.17600 21.22400 40.80100
H  -15.47900 17.52700 41.57700
H  -12.17600 12.43600 42.46500
H  -6.20900 18.78200 41.54200
H  -7.90900 20.12800 39.65300
H  -6.40700 20.93600 41.73700
H  -8.06200 21.45500 42.39200
H  -7.30400 22.03300 40.90000
H  -6.70700 18.77700 38.60100
H  -6.73000 17.18500 39.34200
H  -4.59800 17.04100 39.45300
H  -4.27100 18.64800 39.97300
H  -12.40400 22.71600 39.58800
H  -11.93600 22.74700 41.23300
H  -13.64300 22.86000 40.85200
H  -17.48000 20.26200 40.92800
H  -16.69500 19.16000 42.04600
H  -16.57500 18.86600 40.29400
H  -15.98300 15.19300 41.43900
H  -14.40400 13.22700 42.99600
H  -15.17000 16.19600 44.07700
H  -15.74400 14.57000 44.18000
H  -16.85200 15.77100 43.40200
H  -13.92600 12.92300 40.04000
H  -15.50500 13.55600 40.40800
H  -16.18900 11.38000 40.81000
H  -15.12500 11.22700 42.13900
H  -14.52100 10.90600 40.49900
H  -9.62700 11.64000 43.77300
H  -8.18300 11.23100 42.95700
H  -9.78000 10.96000 42.12700
H  -5.82000 15.50900 40.70500
H  -2.98200 16.16800 43.66500
H  -4.20300 17.36500 44.15600
H  -3.01700 17.83900 42.98800

