158

Mg 16.70500 -2.16800 28.14400
C  15.69900 -0.21600 30.77800
C  19.00600 -3.75900 30.24800
C  18.04200 -3.73700 25.56100
C  14.69700 -0.20400 26.01100
N  17.35800 -1.87500 30.28400
C  16.68700 -1.16400 31.20500
C  17.26800 -1.41000 32.65700
C  18.40000 -2.46200 32.30900
C  18.28500 -2.74100 30.83600
C  19.87000 -2.10300 32.74100
C  16.13100 -1.89300 33.64900
C  15.94800 -1.00000 34.89800
H  17.12900 -0.34200 35.70400
N  18.31900 -3.63300 27.95400
C  19.05500 -4.19100 28.91500
C  19.94500 -5.14000 28.37600
C  19.72200 -5.18000 26.95900
C  18.61700 -4.16400 26.74300
C  20.89600 -5.96400 29.29500
C  20.45500 -5.96500 25.86700
O  20.09100 -5.80100 24.74300
C  21.69900 -6.83400 26.14100
N  16.40200 -1.98100 26.03800
C  17.05000 -2.80900 25.18100
C  16.79900 -2.41700 23.80400
C  15.53800 -1.49100 23.97100
C  15.55200 -1.17300 25.46800
C  18.01800 -1.83200 23.02000
C  14.18600 -1.94100 23.42500
C  13.63100 -1.00500 22.32200
N  15.43300 -0.60600 28.28000
C  14.64700 0.02900 27.35600
C  13.80600 1.04800 28.04100
C  14.19200 0.90200 29.34000
C  15.19900 -0.01900 29.46200
C  12.84400 2.00000 27.44100
C  13.93900 1.52200 30.64800
O  13.23300 2.44000 31.00800
C  14.84300 0.64900 31.69200
C  15.57400 1.62700 32.51800
O  16.74400 1.88300 32.43300
O  14.66000 2.16900 33.45000
C  15.21800 3.14800 34.40500
H  19.71900 -4.35600 30.82100
H  18.29700 -4.32600 24.67700
H  14.10400 0.39800 25.32000
H  17.76400 -0.54500 33.09600
H  18.05700 -3.34900 32.84200
H  19.98600 -1.13500 33.23000
H  20.51800 -2.12100 31.86500
H  20.17300 -2.84700 33.47800
H  16.27300 -2.93900 33.92100
H  15.21400 -1.85200 33.06100
H  15.44100 -1.62100 35.63600
H  15.27400 -0.19400 34.60900
H  21.20000 -6.89200 28.81300
H  20.62900 -6.10800 30.34200
H  21.82600 -5.39700 29.32900
H  21.36700 -7.76900 26.59100
H  22.31200 -6.33500 26.89300
H  22.29700 -6.99900 25.24400
H  16.54900 -3.35200 23.30200
H  15.85900 -0.58600 23.45500
H  18.87700 -2.01000 23.66800
H  17.92200 -0.75200 22.90300
H  18.03200 -2.21200 21.99900
H  13.54700 -2.14800 24.28400
H  14.36000 -2.91500 22.96800
H  14.39900 -0.42200 21.81300
H  13.09900 -0.24100 22.88900
H  12.94700 -1.56100 21.68200
H  12.16900 2.35200 28.22100
H  12.22000 1.45500 26.73200
H  13.32800 2.83400 26.93400
H  14.09200 0.12500 32.28300
H  14.97700 4.12000 33.97600
H  16.27000 3.15000 34.68900
H  14.59100 3.11600 35.29600
Mg 35.35500 48.93900 25.49500
C  35.95600 47.22300 28.44100
C  33.70900 51.39100 27.22400
C  34.43800 50.37700 22.55100
C  36.74500 46.31900 23.65900
N  34.92400 49.20700 27.56100
C  35.45600 48.53300 28.61900
C  35.33100 49.24300 29.90900
C  34.56600 50.56500 29.46300
C  34.46800 50.42200 27.94000
C  33.17300 50.67000 30.11700
C  36.71100 49.53800 30.52900
C  36.75800 49.37900 32.11000
H  35.40900 49.48700 32.80700
N  34.17400 50.62400 24.95700
C  33.51800 51.43500 25.85600
C  32.60800 52.34700 25.09700
C  32.77500 51.99700 23.69000
C  33.84400 50.96200 23.66200
C  31.72800 53.39800 25.71500
C  32.17000 52.64500 22.40700
O  32.32900 52.26300 21.26500
C  31.15100 53.82400 22.61600
N  35.82600 48.54900 23.45200
C  35.29600 49.29300 22.41600
C  35.65500 48.77100 21.00400
C  36.57500 47.50700 21.32400
C  36.43800 47.44300 22.93000
C  34.37200 48.44500 20.15100
C  38.11300 47.57100 20.98300
C  38.83200 46.25700 20.55800
N  36.07500 47.07900 25.86800
C  36.63500 46.10100 25.02100
C  36.96600 44.94600 25.85000
C  36.79900 45.34500 27.18700
C  36.21400 46.65300 27.15200
C  37.41400 43.57600 25.34400
C  36.96200 44.91200 28.54200
O  37.41400 43.87200 28.96000
C  36.23100 46.09600 29.39800
C  35.08400 45.63600 30.21200
O  34.20800 44.83400 29.91400
O  35.28300 46.04500 31.44100
C  34.41400 45.42000 32.48800
H  33.23100 52.19100 27.79300
H  34.08200 50.73000 21.58100
H  37.13400 45.44800 23.12700
H  34.74700 48.56900 30.53600
H  35.19900 51.42400 29.68500
H  32.75500 49.79400 30.61200
H  32.42300 50.75200 29.33100
H  33.14400 51.56200 30.74400
H  36.97800 50.58300 30.36800
H  37.42300 48.78400 30.19300
H  37.42000 50.15200 32.50100
H  37.19300 48.39500 32.28800
H  31.80900 53.33500 26.80000
H  30.69300 53.13500 25.49700
H  31.96900 54.39700 25.35200
H  31.77000 54.59100 23.08200
H  30.33400 53.49900 23.25900
H  30.78800 54.12200 21.63200
H  36.22900 49.54100 20.48900
H  36.12800 46.62700 20.86000
H  33.45800 48.88800 20.54600
H  34.19200 47.37000 20.15100
H  34.49500 48.71500 19.10200
H  38.60500 48.07900 21.81200
H  38.33600 48.26500 20.17300
H  39.36000 46.47000 19.62800
H  38.22100 45.35500 20.53300
H  39.63300 46.15300 21.29100
H  38.49100 43.59100 25.51000
H  37.14500 43.35100 24.31200
H  37.05900 42.81800 26.04300
H  37.07100 46.44800 29.99700
H  33.54700 46.06400 32.63400
H  34.94200 45.68700 33.40300
H  34.22600 44.34700 32.54200

