158

Mg 34.72000 3.10200 30.26600
C  32.22500 3.96500 32.40000
C  37.01600 3.14300 32.82200
C  37.20100 2.48900 27.95600
C  32.50900 3.29900 27.56600
N  34.61600 3.21000 32.41100
C  33.51200 3.73300 33.00300
C  33.77100 3.84400 34.55800
C  35.34000 3.81000 34.65700
C  35.66400 3.41800 33.20000
C  36.09500 5.08100 35.11500
C  33.13400 2.63600 35.23700
C  32.37800 3.09000 36.47500
H  33.14900 4.00700 37.50900
N  36.75400 2.74500 30.39600
C  37.52700 2.80100 31.55900
C  38.87800 2.42000 31.25700
C  38.98400 2.29800 29.82600
C  37.61800 2.55000 29.33000
C  40.01800 2.42000 32.32700
C  40.24800 1.96000 29.01100
O  40.22600 1.65100 27.82000
C  41.58600 1.79500 29.65800
N  34.87500 2.83000 28.06800
C  35.99400 2.66200 27.37700
C  35.77900 2.67100 25.87100
C  34.22100 2.59600 25.84200
C  33.82400 2.81500 27.26400
C  36.48800 3.88100 25.24200
C  33.62400 1.26700 25.23200
C  34.23400 0.84500 23.93600
N  32.80900 3.52200 29.96300
C  32.08900 3.69200 28.85800
C  30.76300 4.13000 29.18400
C  30.79600 4.29900 30.62100
C  32.03900 3.84000 30.99700
C  29.61200 4.32000 28.27400
C  29.98900 4.62500 31.82000
O  28.80500 4.85100 31.90800
C  30.95400 4.44300 33.04700
C  31.23800 5.84100 33.51600
O  32.06700 6.63000 33.10200
O  30.51700 6.11000 34.65400
C  30.82400 7.41200 35.25200
H  37.69500 2.95100 33.65500
H  37.93000 2.07600 27.25500
H  31.82300 3.26000 26.71700
H  33.41000 4.79500 34.95100
H  35.67800 3.03500 35.34400
H  36.81200 4.82700 35.89600
H  35.50600 5.94900 35.41100
H  36.67100 5.48800 34.28300
H  33.90500 1.96600 35.61800
H  32.41500 2.20100 34.54400
H  32.16100 2.11900 36.92100
H  31.48100 3.65600 36.22500
H  40.99100 2.82600 32.05000
H  40.35600 1.38400 32.35600
H  39.66300 2.73400 33.30800
H  42.29500 1.23800 29.04500
H  41.43600 1.04200 30.43100
H  41.87900 2.77600 30.03100
H  36.16300 1.77700 25.38000
H  33.79700 3.34700 25.17600
H  35.71700 4.56600 24.88900
H  37.13300 3.43500 24.48500
H  37.14900 4.38700 25.94500
H  32.56400 1.40900 25.02400
H  33.71200 0.35400 25.82100
H  33.41400 0.26500 23.51100
H  35.10600 0.24700 24.20200
H  34.54000 1.74000 23.39400
H  29.90300 4.93700 27.42300
H  28.74800 4.84700 28.68000
H  29.35300 3.28300 28.05700
H  30.51200 3.74900 33.76200
H  30.59400 8.19900 34.53300
H  31.88100 7.45900 35.51200
H  30.13400 7.50000 36.09200
Mg 49.71800 47.41700 43.16400
C  46.33400 47.36600 42.31500
C  50.01700 44.24800 42.03800
C  53.15600 47.68300 43.36600
C  49.51400 50.89300 43.70300
N  48.25800 46.05400 42.23000
C  46.96900 46.14800 42.01500
C  46.33900 44.90300 41.46900
C  47.49300 43.85400 41.65800
C  48.71100 44.75800 42.02800
C  47.14700 42.69300 42.65400
C  46.01200 45.00700 39.93500
C  44.65800 44.36400 39.60500
H  44.73600 43.36800 38.47300
N  51.32500 46.15100 42.78500
C  51.16800 44.85700 42.31900
C  52.46400 44.23900 42.22200
C  53.47500 45.20000 42.65200
C  52.64500 46.40500 42.94400
C  52.73600 42.84000 41.70200
C  54.99500 45.01400 42.73500
O  55.45400 43.99500 42.24000
C  55.95000 45.97700 43.30000
N  51.17300 49.12900 43.48400
C  52.50500 48.91800 43.56100
C  53.19900 50.18200 44.06200
C  52.08400 51.25200 44.15800
C  50.82200 50.40500 43.81100
C  54.11500 49.99900 45.22500
C  52.21800 52.43000 43.14000
C  53.24700 53.48300 43.60900
N  48.28100 48.83300 43.22500
C  48.29100 50.21500 43.36700
C  46.94400 50.73100 43.24700
C  46.19200 49.63700 42.87800
C  47.01000 48.49700 42.86500
C  46.49400 52.14100 43.47900
C  44.85500 49.33900 42.50900
O  43.84400 50.01200 42.39500
C  44.92400 47.89500 42.07400
C  44.07100 47.01600 42.85200
O  43.99400 47.16700 44.08300
O  43.38600 46.09100 42.05400
C  42.51400 45.24500 42.79800
H  50.12800 43.22200 41.68200
H  54.24300 47.71400 43.46300
H  49.48800 51.96800 43.89000
H  45.44900 44.60400 42.02300
H  47.67400 43.31700 40.72600
H  46.81400 41.78900 42.14300
H  46.39500 43.08300 43.33900
H  47.98000 42.44800 43.31200
H  46.82800 44.57400 39.35600
H  45.96300 46.08300 39.77300
H  43.99400 45.17200 39.29900
H  44.12700 43.96800 40.47100
H  53.55000 42.83700 40.97600
H  51.92400 42.31000 41.20400
H  53.02200 42.33500 42.62400
H  55.71700 45.99600 44.36500
H  55.90900 46.92300 42.76000
H  56.96500 45.59300 43.19400
H  53.83600 50.62800 43.29700
H  51.81500 51.59600 45.15600
H  53.50500 49.65900 46.06200
H  54.54700 50.95300 45.52800
H  54.90800 49.27400 45.04300
H  51.23400 52.87600 43.00000
H  52.46600 51.95400 42.19200
H  54.13100 53.33100 42.99000
H  53.45400 53.45600 44.67900
H  52.81300 54.45400 43.37200
H  47.18200 52.69400 44.11900
H  45.49800 52.02700 43.90700
H  46.55800 52.61500 42.50000
H  44.74800 47.84700 40.99900
H  42.93400 44.79600 43.69900
H  42.23700 44.35500 42.23300
H  41.55900 45.70700 43.04900

