158

Mg -1.09100 7.00300 27.00500
C  0.22200 9.34000 29.24300
C  -1.52900 4.69300 29.41000
C  -2.11300 4.81800 24.57600
C  -0.36600 9.39000 24.42000
N  -0.63300 7.01900 29.02400
C  -0.20500 8.11700 29.79700
C  -0.38500 7.73800 31.28100
C  -0.38000 6.23200 31.20700
C  -0.83100 5.94600 29.77700
C  0.84900 5.32500 31.49800
C  -1.71800 8.33000 31.89000
C  -1.75400 8.71600 33.30600
H  -0.66700 8.04100 34.21600
N  -1.87400 5.02800 27.01200
C  -2.00000 4.27400 28.13600
C  -2.69900 3.04200 27.78400
C  -2.73500 3.03900 26.33900
C  -2.26400 4.35300 25.90600
C  -2.99100 2.01000 28.80800
C  -3.30800 2.06700 25.34900
O  -3.40400 2.31400 24.16400
C  -3.75900 0.71300 25.86100
N  -1.02100 7.02500 24.80000
C  -1.50400 6.00700 24.06600
C  -1.60100 6.35900 22.57400
C  -1.05100 7.86300 22.51400
C  -0.79300 8.14400 24.03000
C  -0.69800 5.45600 21.57400
C  -2.00800 8.92200 21.81900
C  -1.47700 9.77400 20.69400
N  -0.29900 9.01000 26.80600
C  -0.11600 9.83500 25.73500
C  0.28900 11.12900 26.15800
C  0.51200 10.97000 27.53700
C  0.15400 9.65400 27.87100
C  0.69600 12.31500 25.30100
C  0.93700 11.61100 28.70700
O  1.37000 12.75000 28.81800
C  0.71800 10.63100 29.90800
C  1.93700 10.50400 30.78100
O  2.70000 9.56000 30.79100
O  2.07200 11.64200 31.56300
C  3.12000 11.67100 32.53700
H  -1.58800 4.04700 30.28900
H  -2.35400 4.14500 23.75000
H  -0.21700 10.12900 23.62900
H  0.46000 8.18700 31.80300
H  -1.13600 5.84300 31.88900
H  1.71600 5.93000 31.76300
H  1.13900 4.84000 30.56600
H  0.69700 4.55600 32.25500
H  -2.62700 7.74400 31.76000
H  -1.84100 9.31700 31.44400
H  -2.76000 8.66100 33.72000
H  -1.56200 9.78800 33.35600
H  -2.26500 1.20100 28.88900
H  -3.93100 1.49600 28.60500
H  -3.15800 2.44900 29.79100
H  -4.32500 0.12700 25.13700
H  -4.37500 0.85000 26.74900
H  -2.87600 0.17800 26.21100
H  -2.65100 6.27900 22.29400
H  -0.05100 7.99800 22.10200
H  0.01500 6.01500 20.96900
H  -1.38800 4.93000 20.91400
H  -0.14900 4.71900 22.16100
H  -2.31100 9.56400 22.64700
H  -2.91100 8.40600 21.49400
H  -2.21700 9.75900 19.89400
H  -0.47300 9.46400 20.40300
H  -1.47200 10.77600 21.12300
H  0.24200 12.12500 24.32800
H  1.78600 12.32200 25.28200
H  0.24200 13.17200 25.79800
H  -0.11400 11.02800 30.48900
H  4.12400 11.62500 32.11600
H  2.99400 10.87900 33.27500
H  2.96700 12.63600 33.01800
Mg 26.51800 50.71000 25.91700
C  24.68700 51.92900 28.64200
C  28.59300 49.06400 28.14000
C  28.65700 50.10900 23.36500
C  24.44700 52.54800 23.79600
N  26.53800 50.36700 28.13600
C  25.71800 51.06700 29.04800
C  26.16700 50.75600 30.44700
C  27.52900 50.02000 30.24600
C  27.56400 49.76100 28.78100
C  28.89900 50.65200 30.86100
C  24.98100 49.86300 31.10900
C  24.40000 50.38300 32.44100
H  24.62700 49.46000 33.70500
N  28.31600 49.64600 25.70200
C  28.91700 49.01200 26.74300
C  30.15200 48.45600 26.25800
C  30.25500 48.83700 24.86500
C  29.08500 49.63000 24.54500
C  31.18100 47.68900 27.00000
C  31.34200 48.41400 23.77000
O  31.29800 48.75200 22.58900
C  32.34000 47.42200 24.13200
N  26.52800 51.19200 23.91200
C  27.53400 50.84700 23.04900
C  27.34100 51.36700 21.67400
C  25.91400 52.03500 21.65300
C  25.51800 51.89200 23.21200
C  28.41300 52.32000 21.21100
C  24.84700 51.39900 20.73900
C  23.75600 52.30300 20.08200
N  24.89400 51.91900 26.15700
C  24.09500 52.64600 25.20300
C  22.98000 53.39900 25.83800
C  23.21200 53.08400 27.18000
C  24.29600 52.18000 27.31400
C  21.98600 54.14100 25.07700
C  22.75100 53.38400 28.51300
O  21.81100 54.05500 28.92100
C  23.70800 52.76400 29.54600
C  24.36700 53.77400 30.37100
O  25.46000 54.26000 30.12800
O  23.61500 54.05100 31.45500
C  24.21500 54.99200 32.37400
H  29.23900 48.57000 28.86900
H  29.28900 49.97300 22.48400
H  23.75600 53.01900 23.09400
H  26.34400 51.64800 31.04700
H  27.42800 49.09900 30.81900
H  29.41900 49.93000 31.49100
H  28.57900 51.47400 31.50200
H  29.44900 51.04700 30.00700
H  25.30800 48.85600 31.36600
H  24.18500 49.71100 30.38000
H  23.31900 50.49300 32.35000
H  24.78600 51.34700 32.77200
H  30.82000 47.37300 27.97900
H  32.03800 48.34500 27.15400
H  31.41500 46.86400 26.32700
H  32.99700 47.35000 23.26600
H  31.92100 46.42900 24.29900
H  32.83000 47.79600 25.03100
H  27.33400 50.50400 21.00900
H  25.98000 53.09000 21.38800
H  28.20700 53.35500 20.93900
H  28.84400 51.90800 20.29800
H  29.24900 52.42400 21.90200
H  24.35700 50.54000 21.19700
H  25.44300 50.90200 19.97300
H  23.85800 53.31300 20.47900
H  22.77000 51.91600 20.33900
H  23.92400 52.26300 19.00600
H  21.64700 53.47900 24.28000
H  22.65700 54.88000 24.64000
H  21.18700 54.65800 25.61000
H  23.19300 52.00800 30.13800
H  25.17000 54.55000 32.65900
H  23.45600 54.99500 33.15500
H  24.31800 55.99200 31.95400

