158

Mg 47.24800 16.42100 28.80800
C  45.33400 15.89900 31.58500
C  49.38400 18.51300 30.55400
C  48.79100 17.22600 26.00500
C  44.79200 14.78100 26.83500
N  47.26300 17.24800 30.82900
C  46.42600 16.76600 31.83400
C  46.97400 17.26900 33.21000
C  48.11800 18.35800 32.79500
C  48.30500 18.02800 31.26000
C  47.75300 19.82100 33.03000
C  47.59300 16.09900 34.04200
C  47.41800 16.25700 35.52000
H  47.20700 17.68900 36.12100
N  48.94100 17.58400 28.36200
C  49.78200 18.23400 29.21400
C  50.89000 18.78200 28.51200
C  50.67900 18.50600 27.13300
C  49.40900 17.71800 27.12800
C  52.06800 19.38900 29.22500
C  51.45600 18.89900 25.92500
O  51.13300 18.61000 24.76000
C  52.61600 19.78800 26.07100
N  46.86600 15.98100 26.64300
C  47.69700 16.39600 25.75000
C  47.23100 16.05400 24.35900
C  45.96900 15.09500 24.63400
C  45.93600 15.19300 26.13800
C  47.03400 17.25100 23.45600
C  46.02900 13.57400 24.17000
C  45.25000 13.34900 22.89100
N  45.44200 15.56600 29.08800
C  44.51900 15.00000 28.19400
C  43.28700 14.65100 28.96600
C  43.62200 14.90500 30.28600
C  44.92600 15.48400 30.28300
C  42.03800 14.17700 28.44600
C  43.15600 14.86800 31.66800
O  42.13600 14.43900 32.13800
C  44.26700 15.53600 32.53700
C  43.71700 16.76000 33.10000
O  43.59700 17.82900 32.50800
O  43.34600 16.66900 34.44100
C  42.75500 17.91400 35.09400
H  49.96500 19.15500 31.22000
H  49.22300 17.49900 25.04000
H  43.92400 14.41000 26.28600
H  46.11800 17.73000 33.70200
H  49.00100 18.06200 33.36100
H  46.68300 20.00900 33.11100
H  48.19200 20.47000 32.27200
H  48.16000 20.04200 34.01700
H  48.64200 16.02100 33.75600
H  47.01500 15.20900 33.79100
H  48.14900 15.71600 36.12100
H  46.52400 15.69300 35.78800
H  52.91900 18.75000 28.99200
H  52.00100 19.34400 30.31200
H  52.27800 20.35100 28.75600
H  52.26500 20.72800 26.49700
H  53.14100 19.96800 25.13300
H  53.39400 19.44700 26.75300
H  48.04400 15.43800 23.97600
H  45.05700 15.54800 24.24500
H  47.15900 18.17000 24.02900
H  46.01800 17.19000 23.06700
H  47.67700 17.20100 22.57700
H  45.71400 12.96600 25.01800
H  47.01600 13.18300 23.92300
H  45.83500 12.69100 22.24800
H  44.80500 14.24900 22.46700
H  44.48300 12.61000 23.12300
H  41.17900 14.61300 28.95400
H  42.06200 13.08900 28.37800
H  41.84000 14.48900 27.42100
H  44.45400 14.83700 33.35200
H  41.99100 18.47900 34.55900
H  43.62300 18.54100 35.29900
H  42.34400 17.69000 36.07800
Mg 47.83900 25.33400 28.00700
C  48.68600 27.58000 30.47900
C  46.52200 23.23400 30.65500
C  47.45900 22.81600 25.85000
C  49.47500 27.26400 25.71400
N  47.48400 25.53700 30.29500
C  47.89500 26.52500 31.09600
C  47.73400 26.30800 32.59100
C  47.14000 24.85200 32.57200
C  47.02500 24.51300 31.08600
C  47.80900 23.82800 33.58600
C  46.90400 27.49800 33.24800
C  46.00000 27.10200 34.42600
H  45.64800 28.17100 35.44400
N  47.11300 23.34300 28.19600
C  46.56200 22.67700 29.33700
C  46.01800 21.33400 28.97500
C  46.21700 21.27300 27.55500
C  46.94900 22.46500 27.11200
C  45.32100 20.26500 29.84400
C  45.79700 20.19300 26.62200
O  46.28400 20.17700 25.47500
C  44.95400 19.09100 26.98000
N  48.39600 25.10400 26.02600
C  48.16800 23.97200 25.37000
C  48.59000 24.22000 23.86900
C  48.84700 25.79600 23.80800
C  48.83200 26.14100 25.26100
C  49.83500 23.40300 23.36900
C  47.84600 26.63500 23.01000
C  48.49300 27.88900 22.32700
N  48.82800 27.04100 28.02900
C  49.49300 27.71900 27.02200
C  50.23600 28.84300 27.52100
C  49.89800 28.88600 28.86700
C  48.98600 27.75700 29.13400
C  51.02600 29.79800 26.73300
C  50.08800 29.65700 30.08600
O  50.65000 30.71800 30.29200
C  49.25400 28.83000 31.13500
C  50.22000 28.38700 32.18400
O  51.19700 27.70000 32.00600
O  49.94800 28.96600 33.41000
C  50.76500 28.59700 34.60100
H  46.26500 22.52600 31.44600
H  47.38900 22.06100 25.06500
H  49.96600 27.89100 24.96600
H  48.71100 26.24500 33.07000
H  46.08900 24.93800 32.85100
H  46.98800 23.61100 34.27000
H  48.57500 24.16600 34.28400
H  48.31500 22.97000 33.14200
H  46.27300 27.85600 32.43500
H  47.63200 28.29000 33.42400
H  46.48000 26.23200 34.87300
H  45.07100 26.66500 34.05900
H  45.85600 19.32100 29.94400
H  44.29200 20.16300 29.50000
H  45.18000 20.72200 30.82300
H  44.61300 18.53300 26.10900
H  44.05300 19.39400 27.51400
H  45.49200 18.32000 27.53000
H  47.78500 23.80800 23.26000
H  49.87500 25.99700 23.50700
H  50.66700 23.57500 24.05100
H  50.20400 23.76300 22.40900
H  49.64600 22.35000 23.15800
H  47.00300 26.97500 23.61000
H  47.50100 25.96700 22.22000
H  47.78000 28.70600 22.43500
H  48.77100 27.69100 21.29200
H  49.44700 28.22800 22.72900
H  50.42500 30.43300 26.08300
H  51.82400 29.21400 26.27500
H  51.46800 30.47500 27.46400
H  48.52500 29.47000 31.63100
H  50.12300 27.91200 35.15400
H  50.90900 29.44600 35.26900
H  51.70500 28.07000 34.43700

