158

Mg 24.38700 -5.53900 45.77900
C  26.55500 -3.57200 43.87400
C  21.92600 -4.93700 43.40200
C  22.65900 -8.15100 46.92300
C  27.23800 -6.75100 47.52700
N  24.27800 -4.46200 43.80900
C  25.28400 -3.64100 43.31500
C  24.86600 -2.95300 42.06400
C  23.32600 -3.20800 41.96400
C  23.14100 -4.26200 43.10900
C  22.49300 -1.89400 41.91900
C  25.72200 -3.33600 40.77600
C  26.46100 -2.12000 40.24000
H  26.17300 -1.69500 38.85200
N  22.51500 -6.32700 45.33600
C  21.63400 -5.88900 44.36200
C  20.39500 -6.59400 44.42600
C  20.57200 -7.56900 45.50400
C  21.98400 -7.39200 45.97700
C  19.13200 -6.31300 43.63200
C  19.46300 -8.47000 45.97100
O  18.35000 -8.52300 45.47600
C  19.67600 -9.18400 47.31300
N  24.87200 -7.31000 46.91000
C  23.95300 -8.14400 47.36000
C  24.48200 -9.15400 48.35800
C  25.92100 -8.69200 48.63400
C  26.01100 -7.42400 47.63500
C  23.56400 -9.36600 49.57600
C  27.09400 -9.71000 48.23800
C  28.16100 -9.95000 49.40900
N  26.51300 -5.11000 45.85500
C  27.45700 -5.56700 46.70200
C  28.71100 -4.84400 46.41700
C  28.36400 -4.01500 45.29900
C  27.07200 -4.26400 44.96700
C  30.06600 -5.13700 47.07900
C  28.88400 -3.12100 44.39500
O  30.02600 -2.63000 44.27700
C  27.73000 -2.70600 43.45200
C  27.50100 -1.23900 43.67000
O  26.91900 -0.66800 44.60600
O  28.12500 -0.50200 42.64100
C  28.37300 0.96400 42.88400
H  21.08300 -4.69600 42.75100
H  22.04600 -8.95400 47.33700
H  28.03000 -7.16800 48.15300
H  24.82400 -1.88100 42.26000
H  23.05100 -3.81600 41.10200
H  21.65400 -2.05600 42.59600
H  22.12000 -1.85300 40.89500
H  23.03900 -0.96600 42.08300
H  25.05200 -3.78200 40.04200
H  26.42300 -4.13600 41.01300
H  27.52100 -2.34000 40.37200
H  26.25800 -1.21800 40.81700
H  19.44900 -5.85400 42.69600
H  18.43900 -5.62600 44.11900
H  18.52800 -7.20500 43.46900
H  18.72800 -9.56700 47.69300
H  20.14000 -8.47500 47.99900
H  20.36500 -10.02500 47.24400
H  24.52100 -10.15400 47.92400
H  25.95200 -8.25500 49.63200
H  23.25300 -10.40900 49.64900
H  22.78300 -8.60600 49.60200
H  24.19400 -9.30400 50.46300
H  27.54400 -9.48600 47.27100
H  26.50200 -10.62200 48.15300
H  27.84400 -9.45200 50.32500
H  29.09300 -9.50600 49.06000
H  28.22000 -11.02400 49.58700
H  29.92100 -4.93100 48.14000
H  30.87400 -4.49700 46.72600
H  30.36700 -6.18100 46.99100
H  28.00800 -2.97300 42.43300
H  28.70900 1.30900 41.90600
H  29.22100 1.04000 43.56600
H  27.60500 1.63200 43.27500
Mg 36.12400 1.96500 29.53400
C  34.04200 2.85300 32.24400
C  38.73200 1.97000 31.81900
C  38.18200 1.70800 26.97500
C  33.47600 2.53000 27.39000
N  36.34400 2.32200 31.86800
C  35.33700 2.60700 32.72500
C  35.83700 2.67000 34.17800
C  37.42000 2.49500 34.05600
C  37.55100 2.27600 32.46200
C  38.24200 3.68800 34.71000
C  35.15000 1.55700 35.14500
C  34.89300 1.92200 36.61000
H  35.68700 3.06900 37.33600
N  38.17500 1.72700 29.39200
C  39.06500 1.58900 30.45600
C  40.39300 1.28500 30.00400
C  40.22600 1.25700 28.59900
C  38.84300 1.61300 28.23700
C  41.64500 0.96400 30.81800
C  41.25000 0.89400 27.52700
O  40.87500 0.70900 26.34000
C  42.76700 0.69500 27.78800
N  35.82200 2.00100 27.54400
C  36.86600 1.88700 26.64800
C  36.50500 2.17800 25.23900
C  34.91900 2.16700 25.32000
C  34.67300 2.22900 26.85400
C  37.22200 3.45000 24.61700
C  34.25000 0.97900 24.55800
C  34.02100 -0.33800 25.35500
N  34.15700 2.56600 29.73600
C  33.20900 2.75700 28.75700
C  31.92900 3.13200 29.40600
C  32.18200 3.20500 30.81600
C  33.59600 2.87500 30.91500
C  30.61000 3.61100 28.72200
C  31.66300 3.40700 32.08600
O  30.48800 3.67300 32.45100
C  32.75200 3.09600 33.08200
C  32.80900 4.22800 34.05000
O  33.40200 5.27000 33.79100
O  32.12500 3.92600 35.20400
C  32.06300 5.19800 36.05900
H  39.52900 1.91100 32.56200
H  38.79200 1.58700 26.07800
H  32.67800 2.83400 26.71000
H  35.68900 3.60400 34.72000
H  37.69300 1.59400 34.60700
H  39.06800 3.28100 35.29400
H  37.72700 4.33100 35.42300
H  38.63800 4.34400 33.93400
H  35.76200 0.65600 35.11000
H  34.23400 1.27000 34.63000
H  34.94700 0.98100 37.15800
H  33.82700 2.14900 36.64100
H  42.15700 0.12100 30.35400
H  41.31000 0.62000 31.79600
H  42.23700 1.87100 30.94400
H  43.19500 0.61700 26.78800
H  42.73700 -0.27500 28.28400
H  43.16700 1.56400 28.31000
H  36.77700 1.30100 24.65200
H  34.65700 3.12500 24.87200
H  37.79500 3.91800 25.41700
H  36.53300 4.22200 24.27600
H  37.83900 3.15200 23.76900
H  34.93300 0.81500 23.72300
H  33.31600 1.31900 24.11000
H  32.97800 -0.34200 25.66900
H  34.59900 -0.44400 26.27300
H  34.25600 -1.22000 24.76000
H  29.90800 2.79300 28.56300
H  30.71600 4.14700 27.77800
H  30.15300 4.24100 29.48400
H  32.51600 2.16000 33.58800
H  31.37100 5.19200 36.90000
H  31.83400 6.00300 35.36000
H  33.04400 5.51300 36.41300

