158

Mg 0.96500 8.35900 24.15400
C  1.46700 10.00800 27.23600
C  0.97200 5.41800 25.93000
C  0.99000 6.64800 21.25400
C  1.37900 11.28800 22.57000
N  1.13700 7.83500 26.38200
C  1.15200 8.63900 27.36700
C  1.14600 7.82400 28.73400
C  1.02700 6.31600 28.28500
C  1.06400 6.51900 26.78800
C  2.05000 5.27900 28.80600
C  0.16300 8.33300 29.89200
C  0.87400 8.71900 31.23700
H  2.09400 7.86700 31.64700
N  0.91400 6.33900 23.65100
C  0.92200 5.28400 24.49200
C  0.87500 3.99800 23.81600
C  0.84400 4.33200 22.41700
C  0.86000 5.82000 22.40000
C  0.71100 2.63500 24.54800
C  0.63400 3.44500 21.16100
O  0.55300 3.86200 20.02300
C  0.74800 2.00200 21.39500
N  1.09200 8.89100 22.14700
C  1.07800 8.03400 21.12300
C  1.23000 8.78900 19.74600
C  1.09300 10.23800 20.22100
C  1.18100 10.19900 21.75900
C  2.55400 8.45400 18.97900
C  -0.24700 10.99900 19.85100
C  -0.05500 12.43000 19.30700
N  1.30000 10.31200 24.78500
C  1.49700 11.39000 23.97000
C  1.89400 12.53600 24.75400
C  1.80400 12.04700 26.03000
C  1.43100 10.68100 25.99800
C  2.29800 13.92300 24.47500
C  1.99500 12.43300 27.44200
O  2.34300 13.46900 28.00600
C  1.69400 11.12400 28.22500
C  2.85100 10.90300 29.16100
O  3.91600 10.32300 28.96400
O  2.63100 11.55300 30.33200
C  3.56800 11.33400 31.49700
H  0.92100 4.52900 26.56200
H  1.14800 6.23800 20.25500
H  1.44200 12.27100 22.09900
H  2.10100 8.06600 29.20100
H  0.04300 6.00800 28.63800
H  2.63200 5.66200 29.64400
H  2.74200 5.01800 28.00600
H  1.47900 4.43300 29.18900
H  -0.61600 7.59700 30.09200
H  -0.37200 9.21900 29.55100
H  0.10700 8.62300 32.00500
H  1.15500 9.76800 31.13900
H  0.68600 2.73600 25.63300
H  1.54900 1.96400 24.35900
H  -0.17800 2.08100 24.24800
H  -0.20700 1.60200 21.73500
H  1.48600 1.73400 22.15100
H  0.94500 1.48600 20.45500
H  0.36600 8.44200 19.17900
H  1.99000 10.82000 20.01000
H  3.41000 8.73100 19.59400
H  2.52500 8.98100 18.02600
H  2.74200 7.40200 18.76700
H  -0.91200 11.09100 20.71000
H  -0.79600 10.49300 19.05800
H  -0.69100 12.63800 18.44600
H  0.93900 12.74400 18.99000
H  -0.37800 13.08500 20.11700
H  3.33100 14.06400 24.15600
H  2.04700 14.51000 25.35900
H  1.71200 14.17200 23.59000
H  0.78400 11.30000 28.80000
H  4.04600 12.31100 31.56500
H  4.28400 10.52800 31.34000
H  3.00500 11.05600 32.38800
Mg 6.84500 53.24100 41.61200
C  6.37000 49.74600 41.05400
C  9.99300 52.94300 40.54700
C  7.02600 56.73500 41.40300
C  3.48500 53.49300 42.42300
N  7.99400 51.49000 40.81200
C  7.71800 50.18100 40.71800
C  8.98100 49.36800 40.50100
C  10.15000 50.40000 40.62600
C  9.36200 51.69800 40.73100
C  11.01400 50.24600 41.95700
C  9.00000 48.71500 39.07300
C  8.78600 49.64900 37.79300
H  7.72000 49.24400 36.73800
N  8.24200 54.61000 40.95400
C  9.47100 54.27100 40.65600
C  10.29700 55.52400 40.50600
C  9.48100 56.63400 40.76300
C  8.17900 55.97700 41.06300
C  11.67900 55.53500 40.12200
C  10.01900 58.13700 40.69500
O  11.20300 58.39900 40.43500
C  9.20300 59.24900 41.10100
N  5.42300 54.88100 41.82700
C  5.74800 56.20700 41.68400
C  4.51900 57.05500 42.12700
C  3.43200 56.02200 42.43800
C  4.10000 54.69300 42.08000
C  4.85900 58.04300 43.28700
C  2.09500 56.26100 41.63800
C  2.06700 55.68200 40.16100
N  5.24600 51.92100 41.79500
C  3.94000 52.19100 42.12800
C  3.08600 50.96400 42.11200
C  4.02800 49.98200 41.76500
C  5.31500 50.58800 41.54300
C  1.59000 50.90600 42.57500
C  4.23900 48.59300 41.51200
O  3.50300 47.60100 41.51900
C  5.77300 48.32900 41.02500
C  5.61600 47.80500 39.64300
O  5.47000 48.39700 38.57300
O  5.77100 46.45500 39.63500
C  5.55400 45.79400 38.37600
H  11.08400 52.88600 40.51800
H  7.14000 57.80600 41.58000
H  2.52400 53.64200 42.91900
H  8.99600 48.65300 41.32400
H  10.82500 50.57600 39.78800
H  12.05600 50.46800 41.72500
H  10.97100 49.23100 42.35200
H  10.66700 50.95800 42.70500
H  8.23500 47.93900 39.02900
H  9.94900 48.18400 38.99700
H  9.71700 49.72200 37.23000
H  8.53000 50.66800 38.08300
H  12.09600 54.57600 39.81200
H  12.28900 55.87700 40.95900
H  11.84300 56.25600 39.32200
H  8.35300 59.37200 40.43100
H  9.78400 60.17200 41.11000
H  8.79200 59.08600 42.09700
H  4.00700 57.72100 41.43300
H  3.07600 55.81900 43.44800
H  5.89300 57.89800 43.59900
H  4.21200 58.01500 44.16300
H  4.75900 59.08900 42.99500
H  1.95300 57.32200 41.43500
H  1.31100 55.81700 42.25200
H  1.51100 56.29900 39.45400
H  1.73000 54.64800 40.22300
H  3.09200 55.50300 39.83700
H  0.92600 50.91400 41.71100
H  1.41600 51.89000 43.01000
H  1.45200 50.06200 43.25100
H  6.32400 47.62600 41.64900
H  5.53500 44.71400 38.52100
H  6.38700 46.10400 37.74500
H  4.65200 46.05500 37.82200

