158

Mg 41.26500 7.29100 29.36500
C  43.14800 8.46500 32.06800
C  39.04800 5.98400 31.61100
C  39.45100 6.21300 26.77300
C  43.96400 7.97700 27.24800
N  41.11600 7.19700 31.59700
C  41.86400 7.88700 32.46500
C  41.22500 7.97100 33.82700
C  40.22200 6.77200 33.73600
C  40.13900 6.58200 32.24200
C  40.67900 5.42400 34.42400
C  40.68000 9.31200 34.14300
C  40.58700 9.68000 35.59800
H  41.53300 10.72200 36.30200
N  39.52200 6.27100 29.22400
C  38.71500 5.83400 30.21600
C  37.55600 5.18400 29.57700
C  37.54800 5.39100 28.20900
C  38.91600 5.95600 28.02200
C  36.55300 4.42200 30.50200
C  36.49800 5.06700 27.24400
O  36.58800 5.04100 26.04200
C  35.11000 4.85400 27.81400
N  41.71800 6.91600 27.33500
C  40.72100 6.62600 26.48800
C  41.10500 6.79700 24.98400
C  42.49600 7.45800 25.08200
C  42.84400 7.38500 26.66800
C  40.98300 5.55200 24.07400
C  42.58400 8.94600 24.48500
C  42.13600 10.12800 25.42100
N  43.18100 8.12800 29.55800
C  44.15600 8.29900 28.62700
C  45.26000 9.01700 29.21400
C  44.87600 9.14300 30.57900
C  43.63400 8.55300 30.76700
C  46.40100 9.64500 28.51800
C  45.29600 9.74100 31.84200
O  46.27000 10.39400 32.16000
C  44.10300 9.33800 32.80000
C  44.61700 8.66000 34.00300
O  44.44700 7.44400 34.28400
O  45.44200 9.48800 34.78800
C  45.88500 8.82300 36.01600
H  38.28800 5.58000 32.28300
H  38.73100 5.96900 25.98900
H  44.66800 8.19300 26.44200
H  42.05600 7.79700 34.51000
H  39.26400 7.06700 34.16400
H  40.11900 5.16700 35.32300
H  41.75000 5.56000 34.57700
H  40.60400 4.56800 33.75500
H  39.68900 9.45800 33.71400
H  41.30400 9.99300 33.56400
H  40.56500 8.77700 36.20800
H  39.58200 10.09900 35.66200
H  37.09300 4.06200 31.37800
H  36.08400 3.55700 30.03300
H  35.78500 5.13000 30.81500
H  35.16800 3.83200 28.18700
H  34.39300 5.06600 27.02100
H  34.97200 5.53400 28.65600
H  40.42400 7.50600 24.51200
H  43.30000 6.90200 24.59900
H  40.22400 4.83300 24.38100
H  41.96300 5.07500 24.07000
H  40.73200 5.89300 23.06900
H  41.97700 8.85800 23.58400
H  43.49400 9.15500 23.92400
H  41.85000 9.84400 26.43400
H  41.30400 10.56400 24.86700
H  42.91100 10.89500 25.44200
H  46.26600 10.14300 27.55800
H  47.18900 8.89300 28.48200
H  46.90900 10.38500 29.13700
H  43.68600 10.28800 33.13500
H  45.05300 8.63900 36.69600
H  46.56600 9.52600 36.49700
H  46.46900 7.92400 35.82200
Mg -10.31700 17.67600 42.73100
C  -6.85300 17.77000 43.06800
C  -10.26600 21.11300 42.31100
C  -13.62200 17.52300 41.62200
C  -10.20300 14.14300 42.44300
N  -8.77100 19.17200 42.72800
C  -7.38300 18.99800 42.81400
C  -6.66300 20.29400 42.49800
C  -7.82100 21.30600 42.74400
C  -9.07700 20.51700 42.66700
C  -7.69200 21.95000 44.18500
C  -5.85500 20.25600 41.12800
C  -6.71100 19.63000 39.96600
H  -5.98200 19.46600 38.61700
N  -11.87100 19.15400 42.25300
C  -11.55600 20.46500 42.13800
C  -12.75300 21.18400 41.70900
C  -13.75200 20.21500 41.37000
C  -13.12900 18.87300 41.76800
C  -12.74600 22.73900 41.69800
C  -15.08000 20.39300 40.80200
O  -15.59500 21.49600 40.75900
C  -15.97800 19.30900 40.35100
N  -11.58700 16.10600 41.93200
C  -12.93300 16.31500 41.75100
C  -13.64100 15.02700 41.35000
C  -12.67400 13.92600 41.91100
C  -11.39400 14.76300 42.14800
C  -15.12800 14.78900 41.76000
C  -12.43200 12.68200 40.97100
C  -12.22800 11.32700 41.67900
N  -8.88900 16.26700 42.73800
C  -8.99700 14.86900 42.70500
C  -7.68900 14.28900 43.05000
C  -6.79100 15.42300 43.11700
C  -7.61500 16.56200 42.99100
C  -7.31500 12.86100 43.37000
C  -5.39500 15.80900 43.24500
O  -4.38500 15.11900 43.49500
C  -5.39100 17.35600 43.14800
C  -4.76500 17.79800 44.33000
O  -3.76800 18.54100 44.28900
O  -5.22900 17.19900 45.49400
C  -4.29100 17.33100 46.61000
H  -10.17400 22.19800 42.22700
H  -14.64300 17.35700 41.27100
H  -10.06300 13.06100 42.40800
H  -5.93300 20.33200 43.30600
H  -7.81900 22.13200 42.03300
H  -6.84900 21.57500 44.76500
H  -8.57500 21.66300 44.75600
H  -7.57900 23.01700 43.99100
H  -5.00000 19.66000 41.44600
H  -5.50200 21.25900 40.88500
H  -7.67500 20.12700 39.84900
H  -6.79700 18.58100 40.25000
H  -12.14800 23.13900 40.87900
H  -12.56900 23.23400 42.65300
H  -13.68700 23.27100 41.55900
H  -15.48300 18.52700 39.77400
H  -16.76100 19.78100 39.75700
H  -16.48200 18.88000 41.21700
H  -13.56600 14.88100 40.27200
H  -13.01000 13.65900 42.91300
H  -15.74000 15.08600 40.90800
H  -15.42300 15.44100 42.58200
H  -15.34100 13.74700 41.99800
H  -11.59700 12.83000 40.28600
H  -13.27700 12.50400 40.30500
H  -13.14100 10.80300 41.39500
H  -12.15300 11.47300 42.75600
H  -11.36800 10.76900 41.30900
H  -8.16600 12.20100 43.20400
H  -7.03900 12.70200 44.41300
H  -6.48800 12.53900 42.73700
H  -4.74000 17.61800 42.31400
H  -4.65300 16.76600 47.46800
H  -4.19800 18.32600 47.04600
H  -3.32300 16.91300 46.33100

