158

Mg 25.55500 1.29800 30.02500
C  27.35500 1.46200 33.21700
C  22.65600 1.85400 31.92800
C  23.79400 0.66400 27.29600
C  28.53400 0.61000 28.44900
N  25.09100 1.65800 32.35400
C  25.98500 1.65900 33.40500
C  25.32300 2.00500 34.76700
C  23.82600 1.88000 34.27900
C  23.85200 1.83900 32.74400
C  23.14100 0.57500 34.78200
C  25.71300 3.35200 35.41100
C  26.42500 3.25500 36.82900
H  26.05100 4.31100 37.86500
N  23.44200 1.28700 29.68700
C  22.41300 1.62800 30.53500
C  21.15600 1.64300 29.81600
C  21.52500 1.23700 28.48300
C  22.97700 0.98900 28.40700
C  19.80600 2.05000 30.41900
C  20.57700 1.13900 27.37900
O  20.91100 0.57800 26.34000
C  19.15900 1.68400 27.48600
N  26.11300 0.66300 28.17300
C  25.22200 0.59200 27.15600
C  25.87900 0.26800 25.78700
C  27.40300 0.49000 26.14000
C  27.33100 0.63900 27.66400
C  25.52800 -1.20700 25.37100
C  28.10800 1.73800 25.46600
C  27.19700 2.96200 25.35600
N  27.55500 1.01600 30.63600
C  28.69200 0.82000 29.84500
C  29.78400 0.82100 30.70700
C  29.35100 1.13000 31.99600
C  27.99600 1.23900 31.93500
C  31.21100 0.52000 30.36900
C  29.79800 1.37700 33.33300
O  30.92600 1.46100 33.77600
C  28.49100 1.52900 34.22700
C  28.34900 0.45000 35.22400
O  27.86400 -0.65100 35.00500
O  28.70500 0.85600 36.55100
C  28.78600 -0.14200 37.52600
H  21.84300 2.18900 32.57600
H  23.26900 0.43300 26.36700
H  29.47500 0.46800 27.91400
H  25.49700 1.30900 35.58800
H  23.35500 2.77700 34.68200
H  22.57100 -0.00400 34.05500
H  22.43300 0.92900 35.53100
H  23.92000 -0.03500 35.24000
H  24.84600 3.98700 35.59500
H  26.40500 3.68100 34.63600
H  27.45900 3.53000 36.62000
H  26.44300 2.25800 37.27000
H  19.09500 1.26900 30.15000
H  19.51300 2.97400 29.92000
H  19.80800 2.08800 31.50800
H  18.41300 1.05000 27.96600
H  18.75600 1.56300 26.48100
H  19.11600 2.72200 27.81600
H  25.49600 0.91400 24.99700
H  28.07500 -0.31600 25.84600
H  24.68300 -1.59100 25.94300
H  26.32300 -1.95200 25.38800
H  25.13200 -1.14400 24.35800
H  28.38600 1.35200 24.48500
H  28.94000 1.96200 26.13400
H  26.28000 2.86300 25.93700
H  26.94600 3.05200 24.29900
H  27.70200 3.89500 25.60700
H  31.44100 0.98600 29.41000
H  31.35400 -0.56000 30.38200
H  31.84600 0.68600 31.23900
H  28.45300 2.52500 34.66700
H  27.79400 -0.31000 37.94600
H  29.60300 -0.01300 38.23600
H  29.00300 -1.13500 37.13100
Mg 17.37000 51.43600 26.30000
C  19.44300 49.85200 28.92400
C  15.40900 52.55800 28.70500
C  15.57800 52.57500 23.81900
C  19.61800 49.75800 23.94900
N  17.47000 51.26700 28.63400
C  18.42300 50.68400 29.46200
C  18.15000 50.98100 30.93900
C  16.68200 51.45300 30.82400
C  16.47400 51.83000 29.30600
C  15.63400 50.48000 31.31800
C  19.20800 51.97900 31.73600
C  19.43900 51.69800 33.25400
H  18.42300 50.87000 34.06300
N  15.87900 52.53500 26.25100
C  15.16400 52.99400 27.34000
C  14.12600 53.90900 26.87800
C  14.20400 54.05600 25.50500
C  15.26700 53.06700 25.09900
C  13.14400 54.53800 27.82800
C  13.39400 54.83700 24.46200
O  13.57000 54.70700 23.26000
C  12.35100 55.74400 24.96600
N  17.54300 51.13400 24.14400
C  16.54900 51.67200 23.39800
C  16.84200 51.42000 21.88900
C  18.26100 50.58300 21.87100
C  18.57400 50.55500 23.40200
C  15.74600 50.76500 21.07100
C  19.49800 51.27600 21.14100
C  20.21200 50.49500 19.99700
N  18.96100 49.88700 26.39200
C  19.84400 49.50200 25.32900
C  20.95800 48.83100 25.89500
C  20.82000 48.89300 27.30300
C  19.61700 49.63300 27.55300
C  22.10200 48.19600 25.03500
C  21.55500 48.62900 28.51800
O  22.53200 47.95100 28.75300
C  20.58100 49.28500 29.63800
C  20.36400 48.22600 30.69200
O  19.49000 47.35600 30.62700
O  21.27600 48.41300 31.67600
C  20.85800 48.02400 33.02900
H  14.86700 53.05200 29.51400
H  15.01100 53.08100 23.03500
H  20.31600 49.46500 23.16200
H  18.09900 49.99400 31.39700
H  16.57200 52.37100 31.40200
H  14.82400 50.94900 31.87700
H  16.10300 49.86200 32.08300
H  15.17500 49.90700 30.51300
H  18.85300 53.00900 31.69900
H  20.21000 51.94200 31.30900
H  19.48500 52.66700 33.75200
H  20.38200 51.15500 33.32100
H  12.18100 54.64700 27.33000
H  13.42800 55.44800 28.35600
H  12.88600 53.83500 28.62000
H  11.42100 55.21800 25.18100
H  12.16200 56.41000 24.12400
H  12.64900 56.26700 25.87400
H  16.92900 52.44000 21.51300
H  18.09100 49.55100 21.56600
H  15.36300 51.46700 20.33100
H  14.94000 50.32200 21.65600
H  16.20700 50.05000 20.38900
H  20.17800 51.85400 21.76600
H  19.06100 52.08800 20.55900
H  21.29800 50.43200 20.06800
H  20.08400 50.89000 18.99000
H  19.73100 49.52100 19.91700
H  23.07400 48.66600 25.18600
H  21.78100 47.97600 24.01700
H  22.17000 47.17100 25.40000
H  21.00300 50.19800 30.05900
H  19.82500 48.27100 33.27200
H  21.49900 48.46600 33.79100
H  20.92000 46.93600 33.07700

