158

Mg 49.26500 45.46400 42.97500
C  45.81300 44.94200 42.88700
C  49.63400 42.01400 43.12800
C  52.70500 45.86500 42.40300
C  48.79500 48.92100 42.31000
N  47.88000 43.67100 42.95300
C  46.49500 43.71400 42.96700
C  45.92800 42.29300 43.01200
C  47.17700 41.43600 43.28800
C  48.29800 42.45200 43.21000
C  47.21300 40.56800 44.63300
C  44.97600 41.86800 41.82400
C  45.36800 42.23300 40.41500
H  46.01400 41.11900 39.51100
N  50.89500 44.16800 42.80500
C  50.83600 42.82700 42.98500
C  52.14100 42.30600 42.95600
C  53.06900 43.39300 42.68400
C  52.24000 44.58100 42.62000
C  52.31100 40.77500 42.98700
C  54.56700 43.27300 42.45800
O  55.12700 42.17000 42.56500
C  55.40200 44.38800 41.93800
N  50.51500 47.12200 42.34100
C  51.89600 47.04200 42.30600
C  52.46400 48.43400 42.66100
C  51.34900 49.33600 42.04000
C  50.10800 48.40300 42.23100
C  52.58000 48.59200 44.17100
C  51.55200 49.54500 40.47900
C  51.01600 50.86500 39.93600
N  47.64300 46.80200 42.69800
C  47.57500 48.17000 42.46300
C  46.12800 48.46900 42.54300
C  45.42500 47.25800 42.72400
C  46.37300 46.26400 42.77900
C  45.42700 49.86300 42.38900
C  44.10400 46.70200 42.74800
O  42.94400 47.20000 42.55900
C  44.33300 45.17800 42.95300
C  43.57700 44.70500 44.12800
O  42.73400 43.88400 44.12400
O  44.04700 45.37600 45.22900
C  43.79000 44.79200 46.55500
H  49.72700 40.93800 43.29400
H  53.77300 46.07600 42.31500
H  48.69200 49.99800 42.16200
H  45.38900 42.37500 43.95600
H  47.24400 40.70100 42.48600
H  47.86600 39.74000 44.36000
H  46.21600 40.29700 44.97800
H  47.76000 41.00500 45.46900
H  43.96200 42.20800 42.03400
H  44.99000 40.77800 41.82400
H  46.21300 42.92000 40.46800
H  44.42200 42.66200 40.08500
H  52.57400 40.49400 41.96700
H  51.46700 40.17700 43.33200
H  53.16200 40.41500 43.56500
H  54.99000 44.87200 41.05300
H  56.37600 44.04200 41.59200
H  55.59500 45.07000 42.76600
H  53.43100 48.49700 42.16100
H  51.14000 50.18400 42.69300
H  52.40000 47.58600 44.55000
H  51.72500 49.16900 44.52300
H  53.49000 49.02800 44.58300
H  50.88100 48.81800 40.02100
H  52.60800 49.34900 40.29500
H  50.62600 50.60500 38.95200
H  51.83200 51.56500 39.75400
H  50.30900 51.21800 40.68700
H  44.45300 49.78100 42.87200
H  45.24800 50.02700 41.32600
H  45.96400 50.66800 42.89100
H  43.89800 44.77700 42.03700
H  44.67700 44.81400 47.18700
H  43.53500 43.74800 46.37500
H  42.88900 45.22400 46.98900
Mg 41.90000 41.33000 26.56200
C  41.24400 43.63600 28.93000
C  43.25500 39.20400 29.17500
C  43.04800 39.02400 24.28600
C  41.27400 43.56700 24.09800
N  42.27700 41.45500 28.81200
C  41.64000 42.43100 29.54600
C  41.71800 42.09300 31.06000
C  42.54100 40.75200 31.04200
C  42.66500 40.41800 29.56500
C  43.95900 40.80400 31.68300
C  40.40300 42.12100 31.88600
C  40.23100 43.23900 32.91000
H  39.33000 42.97900 34.10200
N  42.94600 39.30800 26.67200
C  43.37700 38.65900 27.85500
C  43.91700 37.35200 27.42800
C  43.72800 37.18800 26.00300
C  43.13700 38.51600 25.58700
C  44.39800 36.32100 28.42400
C  44.11200 35.99400 25.04300
O  43.98000 35.97600 23.83600
C  44.71500 34.82100 25.60800
N  42.01200 41.30000 24.58900
C  42.59100 40.23600 23.82500
C  42.70700 40.69500 22.39300
C  41.76200 41.88700 22.25200
C  41.70800 42.32200 23.70800
C  44.17300 41.11200 22.02300
C  40.37500 41.72500 21.60000
C  39.42300 40.80600 22.41900
N  41.31400 43.32500 26.40700
C  41.14200 44.11600 25.35200
C  40.83200 45.42200 25.80500
C  40.85200 45.32200 27.25600
C  41.16000 44.00400 27.54300
C  40.63900 46.60900 24.95000
C  40.70200 46.04000 28.53600
O  40.43100 47.20600 28.76300
C  40.87200 44.91400 29.70400
C  41.92900 45.40300 30.65700
O  43.14100 45.35500 30.52300
O  41.28600 45.90500 31.75500
C  42.23500 46.32000 32.85400
H  43.44200 38.50500 29.99300
H  43.38800 38.27300 23.57000
H  41.26400 44.31800 23.30500
H  42.50500 42.78400 31.36200
H  42.00000 39.94900 31.54300
H  43.83700 40.08400 32.49300
H  44.24900 41.77100 32.09400
H  44.76600 40.50500 31.01400
H  40.23900 41.23300 32.49600
H  39.55500 42.23500 31.21100
H  39.70800 44.06900 32.43400
H  41.18800 43.67000 33.20500
H  45.36400 35.96100 28.06900
H  43.77400 35.42700 28.39400
H  44.43000 36.79500 29.40500
H  45.65900 35.18700 26.01100
H  44.95200 34.13100 24.79800
H  44.05900 34.28900 26.29700
H  42.31900 39.98100 21.66700
H  42.22400 42.77700 21.82500
H  44.54900 42.00200 22.52700
H  44.03300 41.32600 20.96300
H  44.90900 40.32000 22.15800
H  40.51400 41.33300 20.59200
H  39.97100 42.72400 21.43700
H  38.40700 41.19900 22.38300
H  39.59800 40.79700 23.49500
H  39.32500 39.81200 21.98200
H  39.61000 46.87000 25.19700
H  40.84300 46.52100 23.88200
H  41.21200 47.43600 25.36900
H  39.94100 44.84800 30.26700
H  43.09500 46.90000 32.52000
H  42.48900 45.48200 33.50300
H  41.55800 46.97500 33.40200

