158

Mg 29.47500 57.94100 39.96800
C  26.35500 56.34100 39.13900
C  31.03400 55.32900 38.70700
C  32.14700 60.00000 39.74700
C  27.42400 60.96700 40.59400
N  28.77400 56.04200 39.05400
C  27.51900 55.58300 38.92800
C  27.48600 54.17800 38.36900
C  29.02300 53.69700 38.62000
C  29.65400 55.07700 38.78300
C  29.24300 52.75100 39.75100
C  26.94400 53.98600 36.97700
C  27.12400 55.16500 35.93600
H  27.98100 54.87800 34.67500
N  31.41700 57.64700 39.47600
C  31.89100 56.42300 39.04900
C  33.34900 56.49200 38.99300
C  33.72400 57.85600 39.22700
C  32.43900 58.58500 39.50400
C  34.20400 55.31400 38.61500
C  35.06500 58.44800 39.26400
O  36.04800 57.75400 39.05700
C  35.25100 59.84500 39.58900
N  29.71400 60.19500 40.13200
C  30.94200 60.66900 40.09000
C  30.88800 62.24600 40.34900
C  29.44700 62.50600 40.61200
C  28.77300 61.15400 40.44000
C  31.86500 62.76600 41.56000
C  28.76300 63.55500 39.73100
C  27.77700 64.52700 40.43800
N  27.35600 58.52400 40.08500
C  26.68600 59.77700 40.29200
C  25.27400 59.50400 40.20400
C  25.09000 58.18000 39.69800
C  26.38600 57.65400 39.62500
C  24.18700 60.55200 40.46400
C  24.13400 57.19600 39.28700
O  22.92800 57.30000 39.16300
C  24.96900 55.89600 38.88500
C  24.54600 54.69100 39.74300
O  24.81500 54.45100 40.88600
O  23.75400 53.90300 38.98300
C  22.93300 52.84000 39.62500
H  31.60600 54.46300 38.36900
H  32.92900 60.75100 39.87700
H  26.78600 61.80500 40.88100
H  26.83800 53.58500 39.01500
H  29.40500 53.34600 37.66100
H  29.80900 51.86000 39.48000
H  28.30600 52.30000 40.07800
H  29.74800 53.28300 40.55700
H  25.88300 53.76200 37.09100
H  27.39500 53.08400 36.56500
H  27.64300 55.97900 36.44200
H  26.13700 55.51100 35.62700
H  35.20100 55.22600 39.04600
H  34.33700 55.20100 37.54000
H  33.75700 54.39900 39.00500
H  36.29800 60.14900 39.56300
H  34.94300 60.05000 40.61400
H  34.63600 60.30000 38.81300
H  31.17300 62.84800 39.48500
H  29.47400 62.83100 41.65200
H  32.63000 63.47600 41.24600
H  32.16400 61.92500 42.18500
H  31.32400 63.42100 42.24300
H  28.07500 63.11300 39.01000
H  29.50100 64.09900 39.14100
H  28.29300 65.40600 40.82500
H  27.55200 64.02000 41.37600
H  26.85200 64.74800 39.90600
H  24.64000 61.38400 41.00200
H  23.35700 60.30500 41.12600
H  23.85800 60.85600 39.47000
H  24.75900 55.66700 37.84000
H  23.45900 52.35600 40.44800
H  22.73800 51.94200 39.03900
H  21.98200 53.31200 39.87300
Mg -1.55800 34.42400 27.53400
C  -3.58400 32.81000 30.10000
C  -0.30500 36.47100 30.06200
C  -0.06300 36.22000 25.08400
C  -3.32500 32.53200 25.19500
N  -1.89000 34.51400 29.84200
C  -2.71000 33.74300 30.63600
C  -2.65900 34.07500 32.15700
C  -1.61600 35.36800 32.10900
C  -1.22500 35.52800 30.56400
C  -2.14100 36.63200 32.78100
C  -2.17800 32.81400 33.01900
C  -2.94200 32.51500 34.31300
H  -2.07500 32.12800 35.48400
N  -0.19900 36.06600 27.55300
C  0.22500 36.69100 28.73500
C  1.15000 37.74500 28.41400
C  1.16700 37.79900 26.97400
C  0.27700 36.65200 26.43700
C  1.93800 38.56900 29.44700
C  1.91000 38.82700 26.08600
O  1.79900 38.84300 24.87700
C  2.88800 39.85300 26.67300
N  -1.72800 34.37100 25.45800
C  -0.90600 35.13900 24.64900
C  -1.28800 34.90700 23.15600
C  -1.93700 33.45300 23.21900
C  -2.40700 33.44800 24.68100
C  -2.24800 36.03200 22.67900
C  -0.96800 32.25200 23.02000
C  -0.85000 31.56400 21.63400
N  -3.09600 32.97600 27.60300
C  -3.67100 32.26600 26.48100
C  -4.53800 31.30600 26.98700
C  -4.56300 31.49900 28.37800
C  -3.63000 32.47000 28.70500
C  -5.41200 30.46500 26.06500
C  -5.14000 31.00600 29.68700
O  -5.99000 30.20700 29.90200
C  -4.51300 31.85300 30.80200
C  -5.59000 32.51800 31.60600
O  -6.11600 33.58500 31.28300
O  -5.84000 31.69200 32.71700
C  -6.71400 32.35700 33.79800
H  0.04900 37.12800 30.85900
H  0.48800 36.69700 24.27000
H  -3.52400 31.83300 24.37900
H  -3.64800 34.42000 32.46000
H  -0.69400 35.04400 32.59000
H  -1.53300 36.74200 33.67900
H  -3.20500 36.47100 32.95100
H  -1.99200 37.50500 32.14500
H  -1.13000 33.00700 33.24800
H  -2.24100 31.92600 32.39100
H  -3.48100 31.59700 34.07800
H  -3.53800 33.40900 34.49600
H  2.96500 38.54000 29.08400
H  1.94600 38.09000 30.42600
H  1.45400 39.54400 29.49300
H  2.42400 40.63100 27.28000
H  3.34200 40.33500 25.80700
H  3.75000 39.34800 27.10800
H  -0.41500 35.08300 22.52700
H  -2.87200 33.38000 22.66500
H  -2.02900 36.43600 21.69100
H  -2.18600 36.84300 23.40500
H  -3.21800 35.53700 22.64200
H  -1.02700 31.43200 23.73500
H  -0.03200 32.78200 23.19400
H  0.03900 31.95400 21.13900
H  -1.73500 31.74600 21.02500
H  -0.88100 30.47500 21.67700
H  -5.06700 29.43200 26.04400
H  -5.34900 30.87300 25.05600
H  -6.44100 30.54200 26.41700
H  -4.04400 31.07600 31.40500
H  -5.97800 32.52900 34.58300
H  -7.32000 31.51200 34.12400
H  -7.30300 33.26400 33.65400

