158

Mg 2.99300 0.74900 44.09700
C  5.87800 2.55600 43.62700
C  1.29500 3.23000 42.35000
C  0.48200 -1.40700 43.61900
C  5.05700 -1.95400 45.13000
N  3.58700 2.57200 43.00300
C  4.79400 3.20700 43.01400
C  4.79200 4.54300 42.26300
C  3.28100 4.80900 42.06900
C  2.63800 3.46700 42.56800
C  2.70300 6.11700 42.75600
C  5.70300 4.55400 40.94100
C  6.17800 3.26000 40.23800
H  6.25600 3.15000 38.65000
N  1.11500 0.97500 43.35800
C  0.59900 2.04700 42.68900
C  -0.78000 1.85600 42.47100
C  -1.10100 0.56700 42.91400
C  0.16500 -0.04200 43.28300
C  -1.56500 2.93000 41.89500
C  -2.47500 -0.09600 42.97800
O  -3.45800 0.53300 42.62100
C  -2.67900 -1.53800 43.34100
N  2.84900 -1.38300 44.22700
C  1.61300 -1.98000 44.14400
C  1.67900 -3.46700 44.53100
C  3.19300 -3.63600 44.90500
C  3.74500 -2.24400 44.78700
C  0.63400 -3.83900 45.70100
C  3.97900 -4.73800 44.12000
C  4.57500 -5.77500 45.09200
N  4.98900 0.35300 44.44500
C  5.70800 -0.77400 44.87200
C  7.11700 -0.38400 45.03300
C  7.19800 0.86600 44.57800
C  5.89400 1.29900 44.21600
C  8.21400 -1.24800 45.65000
C  8.11100 1.95400 44.32300
O  9.38000 1.93900 44.47100
C  7.31900 3.14100 43.80500
C  7.40900 4.25200 44.86600
O  8.39800 4.90700 45.22900
O  6.13600 4.60400 45.28900
C  5.89700 5.84300 46.12200
H  0.79000 4.01600 41.78500
H  -0.23100 -2.23200 43.67300
H  5.60400 -2.84400 45.45000
H  5.24200 5.27900 42.92900
H  3.12100 4.91400 40.99600
H  3.32700 6.93600 42.39700
H  2.69500 6.06800 43.84500
H  1.69200 6.29900 42.39000
H  6.56700 5.18400 41.15100
H  5.16300 5.00300 40.10800
H  5.68800 2.37700 40.64800
H  7.16400 3.00100 40.62300
H  -2.62900 2.90200 42.13000
H  -1.23500 2.90300 40.85600
H  -1.23600 3.88100 42.31300
H  -2.23400 -1.79300 44.30300
H  -2.18700 -2.14700 42.58200
H  -3.75100 -1.73200 43.34900
H  1.31600 -4.05400 43.68800
H  3.23600 -3.79400 45.98300
H  -0.35300 -4.02900 45.27800
H  0.56500 -3.07600 46.47600
H  0.97000 -4.72700 46.23600
H  4.81700 -4.28800 43.58800
H  3.32500 -5.13200 43.34300
H  4.19800 -5.69700 46.11200
H  5.65000 -5.61400 45.17300
H  4.40600 -6.78400 44.71700
H  8.19700 -1.28200 46.73900
H  9.19000 -0.83900 45.39000
H  8.17200 -2.27500 45.28800
H  7.85000 3.46400 42.91000
H  6.28100 6.68700 45.55000
H  6.38300 5.84900 47.09900
H  4.84200 6.08100 46.25400
Mg 35.74800 49.59500 25.33900
C  35.39700 47.64300 28.30700
C  34.45600 52.24700 27.07500
C  35.29300 51.03900 22.44800
C  36.79100 46.59000 23.75800
N  35.04500 49.88900 27.40800
C  35.09000 49.00000 28.46500
C  34.67900 49.66500 29.78500
C  34.45800 51.20000 29.40600
C  34.64000 51.13200 27.87700
C  33.19100 51.82900 29.90900
C  35.72400 49.53000 30.91300
C  35.24200 49.10800 32.26800
H  33.78500 49.49100 32.64100
N  35.04600 51.37600 24.80800
C  34.59000 52.44600 25.69400
C  34.23400 53.63500 24.88900
C  34.47500 53.27300 23.50500
C  34.88900 51.80500 23.50900
C  33.73900 54.91500 25.44900
C  34.32800 54.07000 22.19800
O  34.71700 53.67800 21.12000
C  33.48300 55.35000 22.18300
N  36.10700 48.89700 23.41300
C  35.81200 49.70600 22.32600
C  36.39800 49.14000 20.99400
C  36.88900 47.75300 21.52100
C  36.59500 47.72600 22.97500
C  35.58300 49.21900 19.70800
C  38.32000 47.36100 21.13000
C  39.44200 47.93400 21.98200
N  35.97000 47.51000 25.85000
C  36.43700 46.43700 25.12000
C  36.33800 45.15900 25.87900
C  36.01400 45.61900 27.18300
C  35.83400 47.04300 27.09400
C  36.59900 43.71200 25.32500
C  35.80800 45.28600 28.55600
O  35.94500 44.18500 29.07700
C  35.40600 46.56500 29.35000
C  34.08200 46.26800 30.03400
O  32.97000 46.15900 29.58200
O  34.32500 45.97100 31.36300
C  33.36700 45.48600 32.33500
H  34.20900 53.13700 27.65800
H  35.13700 51.38200 21.42300
H  37.01300 45.68400 23.19000
H  33.71800 49.22300 30.04900
H  35.29800 51.78100 29.78800
H  33.49500 52.39500 30.79000
H  32.37900 51.14400 30.15200
H  32.78700 52.46400 29.12000
H  36.22100 50.45700 31.19800
H  36.56300 48.92500 30.56900
H  35.97500 49.47200 32.98800
H  35.33600 48.02200 32.30300
H  32.66700 54.79600 25.60600
H  34.14300 55.72500 24.84100
H  34.09300 55.09300 26.46400
H  34.01800 56.24500 22.49900
H  32.67400 55.17000 22.89200
H  33.04100 55.40100 21.18700
H  37.30900 49.67400 20.72400
H  36.34500 46.94200 21.03500
H  36.12600 49.64400 18.86300
H  34.63000 49.74300 19.78300
H  35.35000 48.21100 19.36500
H  38.47700 47.77800 20.13500
H  38.49100 46.30800 20.90400
H  39.84600 47.11400 22.57500
H  39.20700 48.60400 22.80900
H  40.27700 48.37400 21.43800
H  37.59700 43.64800 24.89000
H  35.84200 43.20300 24.72800
H  36.70700 43.18200 26.27100
H  36.15000 46.83900 30.09800
H  33.67800 44.49300 32.65800
H  32.40700 45.52300 31.82100
H  33.28700 46.07900 33.24600

