158

Mg 1.95000 -1.47200 43.93400
C  5.48300 -1.16000 43.47600
C  1.57000 1.38900 42.02300
C  -1.25300 -2.10100 43.57100
C  2.55700 -4.60300 45.31800
N  3.37600 -0.25800 42.62000
C  4.76400 -0.21700 42.72600
C  5.25500 0.94600 41.85000
C  3.97200 1.84000 41.68900
C  2.86500 0.91200 42.11900
C  4.06900 3.11900 42.43900
C  5.80300 0.37100 40.51300
C  7.00200 1.14900 39.93400
H  6.76800 1.70700 38.53700
N  0.30700 -0.41200 43.11300
C  0.33200 0.76600 42.39800
C  -1.03500 1.35400 42.31100
C  -1.88200 0.31900 42.80300
C  -0.92600 -0.77700 43.16900
C  -1.31000 2.72200 41.73100
C  -3.35400 0.37000 42.75600
O  -4.07300 1.23000 42.21600
C  -4.08300 -0.74100 43.56200
N  0.90600 -3.23600 44.06100
C  -0.43100 -3.16700 43.98600
C  -1.00100 -4.44800 44.59200
C  0.17200 -5.10900 45.26800
C  1.31700 -4.28200 44.86700
C  -2.21400 -4.28500 45.49600
C  0.39800 -6.61300 44.89600
C  0.72500 -7.63100 46.02900
N  3.60100 -2.68600 44.44800
C  3.71400 -3.93000 44.99600
C  5.13700 -4.17800 45.37500
C  5.81900 -3.11100 44.80800
C  4.88500 -2.24300 44.23300
C  5.60000 -5.30000 46.28700
C  7.12600 -2.46100 44.71300
O  8.24400 -2.88500 45.11900
C  6.99900 -1.21300 43.79100
C  7.31200 0.04200 44.59700
O  6.93800 0.12200 45.74300
O  8.07600 0.90700 43.88200
C  8.38600 2.13600 44.56900
H  1.44300 2.37000 41.56100
H  -2.30100 -2.40800 43.55400
H  2.71100 -5.44600 45.99500
H  6.00700 1.50700 42.40400
H  3.77900 2.24500 40.69600
H  3.85100 2.92600 43.48900
H  3.59000 3.92900 41.88900
H  5.13100 3.35100 42.35700
H  5.06900 0.35000 39.70800
H  6.13400 -0.66700 40.51800
H  7.98700 0.70000 40.05800
H  7.04100 2.10000 40.46500
H  -2.39400 2.81500 41.66400
H  -0.83600 2.91400 40.76900
H  -0.95600 3.48100 42.42900
H  -5.09100 -0.40900 43.81100
H  -3.50500 -0.78400 44.48600
H  -4.09500 -1.64100 42.94800
H  -1.45700 -5.08400 43.83400
H  -0.01200 -5.10800 46.34200
H  -2.00200 -4.84600 46.40600
H  -3.16100 -4.61500 45.06900
H  -2.30900 -3.24400 45.80600
H  1.00100 -6.72200 43.99400
H  -0.59000 -7.00200 44.64900
H  -0.13600 -8.23800 46.30800
H  1.09000 -7.04000 46.86800
H  1.64500 -8.16300 45.78500
H  4.87500 -5.26200 47.10100
H  6.59200 -5.04300 46.65800
H  5.70800 -6.22000 45.71300
H  7.63400 -1.29500 42.90900
H  7.49300 2.74300 44.42100
H  9.18600 2.67900 44.06500
H  8.63400 2.05800 45.62800
Mg 9.34100 48.31200 26.04200
C  6.75200 48.66100 28.56000
C  11.62900 49.62900 28.17000
C  11.54300 48.26900 23.46100
C  6.71200 47.62900 23.74800
N  9.21100 48.87300 28.16100
C  8.06900 48.98100 28.98900
C  8.49100 49.42300 30.45800
C  9.99400 49.98900 30.21600
C  10.33200 49.43100 28.77400
C  10.16000 51.54100 30.29100
C  8.42800 48.38000 31.57700
C  8.91300 48.82000 32.94800
H  8.23800 48.28600 34.21100
N  11.36100 48.76600 25.85900
C  12.08900 49.31800 26.86400
C  13.40600 49.50000 26.33300
C  13.47500 48.89400 25.07700
C  12.08700 48.61600 24.74100
C  14.51200 50.14800 27.10500
C  14.72200 48.61700 24.16200
O  14.57300 47.89300 23.16600
C  16.11100 49.14000 24.56200
N  9.15400 48.07400 23.91000
C  10.20900 48.00000 23.15100
C  9.87000 47.61700 21.62500
C  8.36800 47.30800 21.74000
C  8.03800 47.63500 23.23700
C  10.23300 48.58300 20.47500
C  8.00000 45.87000 21.32800
C  8.27900 44.82400 22.42600
N  7.14600 48.15400 26.06300
C  6.25200 47.93000 25.02100
C  4.95300 47.98300 25.62100
C  5.04600 48.26700 26.99900
C  6.43000 48.29100 27.25400
C  3.59600 47.77100 24.84500
C  4.35000 48.44700 28.31700
O  3.14100 48.38600 28.63100
C  5.47400 48.75600 29.34800
C  5.24900 47.86000 30.47600
O  5.88000 46.82600 30.64900
O  4.42100 48.46900 31.35000
C  4.20200 47.66800 32.52500
H  12.44800 49.95400 28.81500
H  12.28500 48.23100 22.66000
H  5.90100 47.40500 23.05200
H  7.86600 50.30200 30.61800
H  10.71200 49.57800 30.92600
H  10.09400 51.94300 29.28000
H  11.11100 51.77800 30.76700
H  9.33000 51.93100 30.88000
H  8.76800 47.39500 31.25600
H  7.35800 48.24500 31.72900
H  8.81700 49.90000 33.05100
H  9.90900 48.41400 33.12500
H  14.09000 50.90900 27.76100
H  15.28900 50.67600 26.55300
H  14.98600 49.35000 27.67800
H  16.90200 48.70900 23.94800
H  16.25700 48.88000 25.61000
H  16.14400 50.22600 24.47300
H  10.45400 46.70000 21.54200
H  7.84000 48.06700 21.16300
H  11.09600 49.16600 20.79600
H  9.43700 49.24800 20.14300
H  10.64600 47.96000 19.68100
H  8.59100 45.61000 20.45000
H  6.96800 45.91300 20.97900
H  7.34900 44.31100 22.66900
H  8.74200 45.21800 23.33100
H  8.93700 44.15600 21.87000
H  3.40800 46.70100 24.76000
H  3.78600 48.24200 23.88100
H  2.79200 48.34900 25.30000
H  5.33300 49.78900 29.66600
H  3.60700 48.25300 33.22700
H  5.14400 47.48900 33.04200
H  3.80500 46.71000 32.19100

