158

Mg 54.46500 24.50700 44.64800
C  52.04300 26.77500 43.91400
C  52.57300 21.91100 43.66100
C  57.26400 22.50600 44.73000
C  56.54700 27.22000 45.77600
N  52.62700 24.48200 43.54000
C  51.76700 25.46600 43.43100
C  50.42100 24.89800 42.86500
C  50.51000 23.41900 43.45500
C  52.00400 23.22500 43.56100
C  49.78400 23.09800 44.83700
C  50.55000 24.84700 41.30600
C  49.30800 25.16400 40.55500
H  48.85300 24.34300 39.37200
N  54.87300 22.47000 44.05400
C  53.90800 21.51200 43.77100
C  54.48800 20.23000 43.63300
C  55.88500 20.45700 43.89500
C  56.07400 21.85500 44.23200
C  53.72200 18.98100 43.29400
C  56.99300 19.38500 43.88800
O  56.69000 18.23600 43.49300
C  58.42100 19.57800 44.16200
N  56.60300 24.79400 44.97500
C  57.50500 23.79500 45.11600
C  58.88200 24.21500 45.59200
C  58.70800 25.74900 45.81100
C  57.22000 25.94500 45.42000
C  59.50700 23.49400 46.81000
C  59.65900 26.66100 44.92800
C  60.06100 28.08300 45.42100
N  54.33000 26.59000 44.89800
C  55.22300 27.53300 45.46100
C  54.43900 28.80000 45.54200
C  53.24500 28.61600 44.90600
C  53.21800 27.21200 44.61400
C  55.05300 30.09400 46.09500
C  51.92100 29.12900 44.47800
O  51.50700 30.25200 44.56500
C  51.13800 28.01100 43.74000
C  50.92900 28.44900 42.36600
O  51.65800 28.29900 41.41200
O  49.63000 28.92400 42.25100
C  48.90400 29.09600 40.93900
H  51.83300 21.13800 43.44500
H  58.15700 21.91800 44.95400
H  57.23900 27.95200 46.19900
H  49.58600 25.45200 43.29400
H  50.05300 22.67700 42.80000
H  50.54300 22.52900 45.37500
H  48.97200 22.42500 44.56000
H  49.33200 23.98300 45.28500
H  50.86500 23.85100 40.99500
H  51.29400 25.54500 40.92400
H  49.21600 26.18600 40.18800
H  48.49200 25.22300 41.27600
H  53.89100 18.21200 44.04800
H  53.92300 18.68800 42.26400
H  52.67100 19.26600 43.34600
H  58.82400 20.25100 43.40500
H  58.84300 18.57400 44.12600
H  58.50100 20.00600 45.16100
H  59.43600 23.95300 44.69000
H  58.74900 25.99700 46.87100
H  58.86900 22.65900 47.09800
H  59.37400 24.06600 47.72900
H  60.55000 23.22800 46.63900
H  59.10200 26.78400 44.00000
H  60.58400 26.14300 44.67300
H  59.75500 28.82200 44.68000
H  61.12800 28.07400 45.64700
H  59.41500 28.25500 46.28100
H  54.81800 29.99200 47.15400
H  54.43200 30.87900 45.66200
H  56.09300 30.36800 45.91600
H  50.15100 27.82400 44.16400
H  48.13900 28.32600 40.83700
H  49.50100 29.07100 40.02700
H  48.46200 30.09200 40.90200
Mg 47.99300 35.22600 26.43800
C  46.54500 33.65200 29.35400
C  48.29600 38.09500 28.53800
C  49.37900 36.82000 23.90300
C  47.41300 32.38000 24.61400
N  47.33900 35.80100 28.71300
C  46.99700 34.93400 29.73100
C  47.19900 35.60600 31.04900
C  47.17200 37.11200 30.65600
C  47.59800 37.03000 29.18600
C  45.85100 37.93500 30.88800
C  48.50300 35.17500 31.82100
C  48.38600 34.93300 33.35800
H  47.20800 35.73800 33.95100
N  48.82800 37.08800 26.24100
C  48.82700 38.07000 27.24100
C  49.48300 39.24100 26.63900
C  49.88300 38.88500 25.29600
C  49.33300 37.55200 25.10600
C  49.67200 40.57200 27.36500
C  50.76900 39.64800 24.24000
O  51.19600 39.25800 23.17000
C  50.98400 41.10500 24.46700
N  48.27900 34.69300 24.58700
C  48.91800 35.52200 23.63100
C  49.05100 34.84300 22.33100
C  48.88700 33.36000 22.79300
C  48.11000 33.46000 24.09800
C  48.02800 35.34600 21.28200
C  50.18800 32.51500 22.94900
C  50.06800 31.09900 22.46700
N  47.04500 33.45600 26.75900
C  46.88000 32.35300 25.87300
C  46.15400 31.32000 26.59800
C  46.10700 31.79500 27.94700
C  46.60100 33.10100 28.01600
C  45.71300 30.00900 25.94700
C  45.72500 31.32200 29.25600
O  45.22200 30.31100 29.65000
C  45.79200 32.62700 30.19300
C  46.19300 32.33400 31.59500
O  47.36500 32.28200 31.93400
O  45.14600 32.13000 32.45200
C  45.41600 31.80600 33.86700
H  48.67100 38.89100 29.18600
H  49.83700 37.28500 23.02800
H  47.21300 31.46300 24.05600
H  46.26400 35.46000 31.58900
H  47.92700 37.69200 31.18800
H  45.20800 37.57700 31.69200
H  45.41600 38.06900 29.89700
H  46.20800 38.93600 31.12700
H  49.31000 35.88800 31.65100
H  48.78100 34.23900 31.33700
H  49.31300 35.39500 33.69500
H  48.46800 33.87000 33.58400
H  50.71300 40.81900 27.57000
H  49.16400 40.67400 28.32500
H  49.37300 41.33900 26.65000
H  50.09500 41.73400 24.40500
H  51.76700 41.50300 23.82200
H  51.53100 41.11100 25.41000
H  50.07600 34.99900 21.99600
H  48.24200 32.79600 22.11900
H  48.60300 35.73700 20.44300
H  47.24100 36.04100 21.57800
H  47.47300 34.51400 20.85000
H  50.67100 32.54500 23.92500
H  50.99600 32.99000 22.39200
H  49.24700 31.06500 21.75100
H  49.84400 30.29900 23.17200
H  51.02500 30.84300 22.01200
H  46.20800 29.76700 25.00700
H  44.63600 30.14000 25.84600
H  45.89300 29.18000 26.63100
H  44.77200 32.99000 30.31700
H  44.67800 31.11700 34.27800
H  45.53000 32.72900 34.43500
H  46.36300 31.35600 34.16400

