158

Mg -2.20900 18.09300 26.90200
C  -2.47200 16.02100 29.68200
C  -2.90300 20.90300 28.91800
C  -1.84200 19.97600 24.28000
C  -1.68700 15.15100 24.91600
N  -2.55400 18.39400 29.06900
C  -2.61100 17.35000 29.99700
C  -2.88200 17.91800 31.44400
C  -3.08900 19.49100 31.13400
C  -2.83500 19.62900 29.58400
C  -4.56000 20.03600 31.58900
C  -1.79200 17.82100 32.52100
C  -2.07400 17.08000 33.83000
H  -1.10200 17.29700 34.97300
N  -2.36800 20.15700 26.57400
C  -2.64200 21.16300 27.52600
C  -2.59900 22.42600 26.90500
C  -2.30100 22.16100 25.56000
C  -2.19400 20.73300 25.42700
C  -2.71600 23.80000 27.53900
C  -2.13700 23.11700 24.38600
O  -2.14700 22.81100 23.22300
C  -2.10200 24.64100 24.68800
N  -1.63800 17.57500 24.93900
C  -1.64600 18.62800 24.06700
C  -1.40300 17.97500 22.61700
C  -0.86500 16.53600 22.90400
C  -1.42500 16.39800 24.32800
C  -2.68200 18.05100 21.66800
C  0.65400 16.29000 22.71900
C  1.73800 16.79300 23.73900
N  -2.28900 15.97900 27.18100
C  -2.04700 14.92600 26.25600
C  -2.23800 13.63700 26.94200
C  -2.45700 14.01500 28.27900
C  -2.41000 15.47000 28.36700
C  -2.27200 12.24100 26.32800
C  -2.79900 13.52400 29.58000
O  -2.98000 12.38300 29.98100
C  -2.77300 14.77800 30.57200
C  -1.68100 14.46400 31.59300
O  -0.50300 14.74300 31.55700
O  -2.24000 13.73900 32.60600
C  -1.40700 13.19200 33.75200
H  -2.96600 21.79400 29.54600
H  -1.85200 20.47800 23.31000
H  -1.53600 14.23800 24.33600
H  -3.81200 17.40600 31.69100
H  -2.32200 20.15500 31.53300
H  -4.50300 20.75900 32.40300
H  -5.05800 19.12500 31.92000
H  -5.11200 20.48100 30.76100
H  -1.42700 18.80000 32.83100
H  -1.02100 17.19700 32.06900
H  -2.15900 15.99700 33.74000
H  -3.08800 17.39900 34.07400
H  -3.49100 24.38500 27.04500
H  -1.75900 24.32000 27.48300
H  -2.84100 23.68600 28.61600
H  -3.08100 24.96900 25.03800
H  -1.90200 25.10000 23.72100
H  -1.23000 24.89100 25.29300
H  -0.53800 18.50500 22.21900
H  -1.24200 15.81000 22.18400
H  -3.60300 18.12000 22.24600
H  -2.63300 17.17500 21.02100
H  -2.53900 18.91800 21.02300
H  1.04800 16.90600 21.91000
H  1.00100 15.31200 22.38500
H  2.14700 15.85800 24.12100
H  1.30200 17.31600 24.59000
H  2.55000 17.32700 23.24500
H  -1.84000 11.53400 27.03700
H  -1.63000 12.11000 25.45600
H  -3.27600 11.85300 26.15700
H  -3.73600 14.73700 31.08100
H  -0.41800 12.88100 33.41600
H  -1.82800 12.26200 34.13400
H  -1.26300 13.95100 34.52000
Mg 42.18800 40.96800 26.79700
C  41.45000 43.48000 29.13400
C  43.13300 38.97500 29.41600
C  43.03800 38.58300 24.46900
C  41.38700 43.21500 24.23400
N  42.35100 41.27500 29.04800
C  41.87500 42.35000 29.78300
C  42.02200 42.07400 31.26400
C  42.76200 40.73200 31.28100
C  42.73000 40.28400 29.84300
C  44.19500 40.81900 31.93000
C  40.59700 41.96100 31.91200
C  40.48900 42.70300 33.21300
H  39.85000 41.91800 34.41900
N  42.74600 38.96900 26.93900
C  43.19600 38.38000 28.14200
C  43.53400 37.00100 27.81000
C  43.48700 36.81500 26.39600
C  43.00600 38.10800 25.81100
C  43.86900 35.92000 28.87200
C  43.85600 35.57500 25.57800
O  43.55800 35.51100 24.38100
C  44.42700 34.37100 26.21500
N  42.36900 40.95700 24.62600
C  42.63800 39.82200 23.87500
C  42.44100 40.17400 22.33800
C  41.68400 41.53400 22.32300
C  41.82300 41.92500 23.85700
C  43.87100 40.28400 21.74000
C  40.13600 41.40800 21.96400
C  39.38400 40.20100 22.57700
N  41.74300 42.99800 26.61700
C  41.31800 43.71300 25.53100
C  40.93900 45.03400 25.98900
C  40.94200 45.03800 27.41700
C  41.37500 43.72600 27.74500
C  40.53100 46.19400 25.21100
C  40.76400 45.84000 28.66000
O  40.46900 46.99600 28.81800
C  40.88500 44.73500 29.73200
C  41.73600 45.35000 30.81600
O  42.90800 45.49400 30.81100
O  40.88900 45.89200 31.74100
C  41.59800 46.34000 33.02600
H  43.38700 38.31700 30.25000
H  43.09700 37.89900 23.62000
H  41.21700 43.95000 23.44600
H  42.59200 42.87000 31.74300
H  42.09400 40.06900 31.83000
H  44.33800 40.08500 32.72300
H  44.54300 41.82600 32.15900
H  44.93900 40.48100 31.20800
H  40.33300 40.92700 32.13200
H  39.89400 42.41300 31.21200
H  39.91100 43.60500 33.01000
H  41.48900 43.03100 33.49700
H  44.93100 35.73900 28.70500
H  43.34300 34.96600 28.86400
H  43.75900 36.36000 29.86300
H  43.94300 34.05800 27.14000
H  45.49600 34.51600 26.36900
H  44.42600 33.50800 25.54900
H  41.97400 39.38000 21.75400
H  42.11200 42.32700 21.70800
H  43.94600 39.46400 21.02600
H  44.65700 40.30800 22.49400
H  44.05300 41.18200 21.15100
H  40.16000 41.44800 20.87500
H  39.61400 42.35300 22.11300
H  38.86800 39.66000 21.78400
H  38.54700 40.55700 23.17900
H  39.96300 39.69100 23.34600
H  39.79600 46.69100 25.84400
H  40.03600 45.88300 24.29100
H  41.39600 46.83000 25.02300
H  39.90800 44.52500 30.16700
H  41.91600 45.61900 33.77900
H  40.97200 46.98400 33.64400
H  42.43800 46.97900 32.75300

