158

Mg 40.01800 10.13800 29.46900
C  41.99300 11.41500 32.15800
C  37.84500 8.98200 31.79300
C  38.46900 8.72500 27.00000
C  42.71900 10.90300 27.37000
N  39.95700 10.12900 31.75400
C  40.70800 10.91400 32.60200
C  40.16700 10.93800 34.01200
C  38.88900 10.01000 33.87500
C  38.85100 9.68800 32.38300
C  38.81100 8.84300 34.88700
C  39.94300 12.37600 34.51600
C  40.63300 12.76100 35.81800
H  39.77000 13.61600 36.81700
N  38.32500 9.03700 29.44600
C  37.54900 8.61100 30.47900
C  36.33000 8.01900 29.91100
C  36.42100 8.01500 28.49200
C  37.81600 8.58200 28.27400
C  35.21000 7.58400 30.92400
C  35.45300 7.54400 27.42700
O  35.69400 7.54900 26.20400
C  34.14100 7.03500 27.80000
N  40.64100 9.78000 27.51200
C  39.72500 9.20200 26.67300
C  40.16700 9.29200 25.17300
C  41.52500 9.94900 25.36600
C  41.66200 10.19900 26.81300
C  40.26500 7.96500 24.36500
C  41.78400 11.24800 24.50300
C  41.18600 12.58700 24.93800
N  41.87100 11.01000 29.64800
C  42.82100 11.31300 28.72300
C  44.00100 11.93900 29.31600
C  43.70200 12.04500 30.61500
C  42.43200 11.39400 30.82200
C  45.31400 12.26100 28.67300
C  44.18300 12.52000 31.85800
O  45.27000 13.11100 32.05800
C  43.13600 12.10300 32.96600
C  43.79000 11.23000 34.00600
O  43.82000 10.00900 33.97800
O  44.11700 11.96900 35.06900
C  44.29500 11.17300 36.33300
H  37.22000 8.59700 32.60200
H  37.92400 8.40400 26.10900
H  43.50700 11.10600 26.64200
H  40.87500 10.47600 34.69900
H  37.94100 10.54000 33.97000
H  37.88200 8.66900 35.43100
H  39.56000 9.04300 35.65300
H  39.12600 7.91300 34.41300
H  38.85400 12.38800 34.57900
H  40.15000 13.11400 33.74100
H  41.46900 13.36600 35.46900
H  41.05100 11.90500 36.34800
H  34.61400 8.38300 31.36500
H  35.66400 7.19900 31.83700
H  34.58100 6.78200 30.53800
H  34.17300 6.38500 28.67400
H  33.52600 6.57600 27.02600
H  33.58200 7.91700 28.11400
H  39.53800 9.94000 24.56300
H  42.30800 9.23100 25.12500
H  39.45100 7.95400 23.64100
H  40.18300 7.06400 24.97300
H  41.16500 8.00800 23.75100
H  41.60600 10.93700 23.47400
H  42.86000 11.38100 24.60800
H  40.71300 13.15900 24.13900
H  41.91800 13.21700 25.44400
H  40.35800 12.33800 25.60100
H  45.21000 13.28800 28.32300
H  45.50000 11.63900 27.79700
H  46.18600 12.33000 29.32300
H  42.74100 13.00400 33.43400
H  44.03000 10.12100 36.23600
H  43.48400 11.65200 36.88200
H  45.28600 11.42000 36.71400
Mg 47.45500 16.84900 28.75900
C  45.32800 16.69400 31.63600
C  49.70700 18.54500 30.43300
C  48.78900 17.66300 25.84500
C  44.65200 15.60700 26.89100
N  47.64300 17.38800 30.86900
C  46.66900 17.34600 31.83000
C  47.13800 17.83400 33.19700
C  48.47500 18.49600 32.77000
C  48.72100 18.07400 31.31500
C  48.39900 20.07900 32.89200
C  47.25200 16.58000 34.12600
C  46.70200 16.70500 35.56500
H  46.38400 18.12400 36.02900
N  49.13700 17.80600 28.26000
C  50.00700 18.37300 29.06600
C  51.20100 18.86800 28.42300
C  50.84000 18.66300 27.02700
C  49.57500 17.98300 27.00300
C  52.43700 19.55400 29.00500
C  51.68500 19.07100 25.81700
O  51.43700 18.58900 24.68100
C  52.91900 19.83200 25.93400
N  46.79800 16.66500 26.57200
C  47.63500 17.01600 25.61800
C  47.03900 16.76900 24.24900
C  45.85700 15.79400 24.61900
C  45.71800 16.02700 26.12900
C  46.39300 17.95600 23.54000
C  46.21200 14.32200 24.26900
C  45.34400 13.75000 23.16900
N  45.43700 16.17500 29.13400
C  44.50800 15.64800 28.28900
C  43.27000 15.33300 29.01400
C  43.59100 15.76700 30.36600
C  44.94500 16.18900 30.37700
C  41.94900 14.82300 28.39000
C  43.14700 15.87300 31.70800
O  42.02700 15.54000 32.18700
C  44.20900 16.47300 32.64100
C  43.62100 17.71200 33.23400
O  43.79800 18.82600 32.72800
O  42.83700 17.42600 34.33700
C  41.94500 18.48400 34.72400
H  50.41100 19.10200 31.05500
H  49.33400 17.88900 24.92600
H  43.97100 15.06000 26.23600
H  46.56500 18.71300 33.49200
H  49.27200 18.20500 33.45300
H  49.08600 20.37800 33.68300
H  47.41700 20.41000 33.22800
H  48.66500 20.50000 31.92200
H  48.29000 16.25100 34.17700
H  46.69500 15.71300 33.77200
H  47.48400 16.30600 36.21100
H  45.69700 16.28900 35.63900
H  53.33000 19.01600 28.68800
H  52.42700 19.47600 30.09200
H  52.48600 20.60200 28.70900
H  53.56300 19.20400 26.54900
H  52.76900 20.80900 26.39400
H  53.36700 20.11200 24.98100
H  47.80900 16.27100 23.66000
H  44.85800 15.96700 24.22100
H  45.46300 17.73100 23.01800
H  47.12000 18.27800 22.79600
H  46.21900 18.72200 24.29600
H  45.96000 13.72300 25.14400
H  47.27900 14.21900 24.06700
H  44.65800 14.45100 22.69300
H  44.78600 12.88800 23.53400
H  46.00100 13.42000 22.36500
H  41.57300 13.96200 28.94200
H  42.19800 14.54500 27.36600
H  41.14400 15.55000 28.50100
H  44.40400 15.70200 33.38500
H  41.60400 19.13200 33.91700
H  42.39900 18.97600 35.58500
H  41.04700 18.07700 35.18900

