158

Mg 17.53700 -0.58600 27.95900
C  16.38800 1.63200 30.48100
C  19.16800 -2.42700 30.32500
C  18.85600 -2.47200 25.49800
C  15.94700 1.51300 25.58700
N  17.74000 -0.41200 30.13600
C  17.18500 0.54800 30.96100
C  17.48900 0.25100 32.38700
C  18.64200 -0.82500 32.23700
C  18.64100 -1.21400 30.78700
C  20.03600 -0.28600 32.57400
C  16.24200 -0.13000 33.21200
C  16.48300 -0.02500 34.78700
H  17.84100 0.50900 35.35800
N  18.84700 -2.22000 27.91600
C  19.26500 -2.92200 29.00800
C  19.96700 -4.16600 28.65400
C  19.99200 -4.14600 27.22800
C  19.23000 -2.94300 26.77100
C  20.53300 -5.21900 29.69200
C  20.59500 -5.15400 26.23000
O  20.66800 -4.89300 25.05300
C  21.04800 -6.52700 26.71700
N  17.40200 -0.55400 25.87400
C  18.10000 -1.36100 25.07100
C  18.03700 -0.84300 23.60600
C  17.02100 0.26000 23.68500
C  16.68000 0.39900 25.13500
C  19.39600 -0.55200 22.89600
C  15.75400 0.27200 22.78700
C  14.45200 -0.51400 23.24400
N  16.31500 1.12600 27.97600
C  15.73400 1.85300 26.93200
C  14.92400 2.98200 27.49100
C  15.19800 2.89800 28.93500
C  16.02200 1.80400 29.13700
C  14.05400 3.94300 26.62100
C  14.97900 3.57400 30.15600
O  14.37400 4.55700 30.40800
C  15.65900 2.68600 31.22600
C  16.61800 3.49700 32.03000
O  17.68700 3.87000 31.70200
O  16.04300 3.90100 33.18900
C  16.81000 4.71900 34.05100
H  19.59200 -2.93400 31.19400
H  19.18000 -2.88600 24.54000
H  15.54100 2.22400 24.86400
H  17.84000 1.12500 32.93500
H  18.37400 -1.67800 32.86100
H  19.97600 0.70000 33.03500
H  20.69200 -0.33500 31.70400
H  20.42600 -1.01400 33.28500
H  15.85800 -1.09900 32.89300
H  15.58100 0.71300 33.01200
H  16.41100 -1.06000 35.12200
H  15.63000 0.54300 35.15900
H  19.80500 -6.02100 29.56300
H  20.43700 -4.85500 30.71500
H  21.54600 -5.53800 29.44500
H  20.26100 -6.98300 27.31800
H  21.91600 -6.43600 27.36900
H  21.18000 -7.12700 25.81700
H  17.59300 -1.66200 23.04100
H  17.48700 1.16800 23.30200
H  19.35900 0.22000 22.12800
H  19.72700 -1.47800 22.42500
H  20.13400 -0.24600 23.63800
H  16.01300 -0.19100 21.83500
H  15.38700 1.28500 22.61900
H  13.78600 0.30500 23.51600
H  14.64400 -1.20500 24.06600
H  13.97400 -1.06200 22.43200
H  13.81600 3.46800 25.66900
H  14.64100 4.78500 26.25600
H  13.19200 4.26000 27.20700
H  14.78600 2.52700 31.85800
H  16.63700 5.74000 33.71100
H  17.80600 4.28800 34.16000
H  16.33300 4.56000 35.01800
Mg 40.80800 8.87500 29.44100
C  42.72700 10.01200 32.08900
C  38.62700 7.34200 31.70300
C  39.23800 7.38500 26.85100
C  43.43400 9.67000 27.25400
N  40.68700 8.70400 31.64800
C  41.50000 9.40900 32.54000
C  41.05700 9.22300 33.94700
C  39.85400 8.18400 33.86100
C  39.67400 8.12700 32.28900
C  40.02900 6.87400 34.55600
C  40.80500 10.62000 34.71500
C  41.59500 10.85200 36.10700
H  41.03000 11.87000 37.15400
N  39.17000 7.57500 29.35000
C  38.33400 7.14700 30.32800
C  37.18600 6.44100 29.80400
C  37.40200 6.33900 28.41600
C  38.67200 7.08500 28.13400
C  36.13100 5.85500 30.72300
C  36.58500 5.73100 27.37100
O  36.95300 5.58400 26.23000
C  35.25300 5.20300 27.76400
N  41.26200 8.60600 27.31500
C  40.32800 8.01800 26.46200
C  40.71700 8.29100 24.97100
C  42.17500 8.79000 25.09100
C  42.36400 8.99900 26.64200
C  40.51200 7.12400 24.03300
C  42.64200 10.00100 24.33100
C  42.07700 11.39900 24.82000
N  42.71400 9.78600 29.57900
C  43.64600 10.00200 28.61100
C  44.72300 10.75100 29.21100
C  44.42800 10.69700 30.58000
C  43.20000 10.11800 30.74600
C  45.94800 11.17900 28.56500
C  44.94100 10.93800 31.89400
O  46.01300 11.39000 32.22200
C  43.82700 10.57800 32.90900
C  44.42400 9.77600 34.06200
O  44.64200 8.56300 34.02500
O  44.78200 10.63300 35.12500
C  45.30400 9.95700 36.29300
H  37.97000 6.82800 32.40700
H  38.65400 7.13500 25.96300
H  44.17900 10.00400 26.52900
H  41.90900 8.80500 34.48100
H  38.95400 8.66200 34.24800
H  40.64600 6.20300 33.95800
H  39.06000 6.43500 34.79200
H  40.50100 7.10600 35.51100
H  39.76600 10.84100 34.95900
H  41.06100 11.36300 33.95900
H  42.53300 11.36000 35.88100
H  41.82000 9.95900 36.69100
H  35.88100 6.35600 31.65800
H  36.53600 4.87700 30.98100
H  35.13000 5.82100 30.29300
H  34.77800 4.53800 27.04300
H  34.59500 6.07100 27.82000
H  35.32000 4.61000 28.67600
H  40.02600 9.03700 24.57800
H  42.88700 7.97100 24.98400
H  39.65700 7.17800 23.35900
H  40.49400 6.20000 24.61000
H  41.35800 7.16000 23.34700
H  42.35400 9.91800 23.28300
H  43.73000 10.04600 24.37100
H  41.34900 11.22000 25.61200
H  41.50500 11.76400 23.96700
H  42.86400 12.10000 25.09800
H  46.13900 12.24900 28.64400
H  45.92400 11.01600 27.48700
H  46.75900 10.66500 29.08100
H  43.52100 11.53400 33.33300
H  46.39000 10.04500 36.29500
H  44.90900 8.94200 36.34900
H  44.91400 10.41200 37.20400

