158

Mg 25.43400 2.41700 29.64400
C  27.59800 2.28900 32.41100
C  22.77100 2.42200 31.88900
C  23.47800 2.44500 27.01500
C  28.17000 1.47600 27.59800
N  25.25100 2.48800 31.88900
C  26.28900 2.58300 32.79100
C  25.79500 2.78400 34.22300
C  24.20900 2.71500 34.06000
C  24.03300 2.57900 32.50800
C  23.63200 1.48200 34.89500
C  26.44700 4.08900 34.84000
C  27.14400 3.96500 36.23100
H  26.70500 4.75700 37.54300
N  23.42300 2.51600 29.44400
C  22.50700 2.40600 30.42800
C  21.17700 2.32100 29.85800
C  21.31700 2.35300 28.46900
C  22.79500 2.47500 28.23400
C  19.93600 2.22100 30.70100
C  20.29700 2.22600 27.32500
O  20.56100 2.04100 26.17200
C  18.87300 2.25800 27.59500
N  25.70800 1.75300 27.58300
C  24.78400 2.18900 26.68900
C  25.33800 2.17900 25.28700
C  26.86200 1.92200 25.45900
C  26.91800 1.74400 26.98400
C  24.53200 1.07600 24.47900
C  27.74300 3.13200 24.86400
C  27.93000 4.42500 25.83900
N  27.43000 1.84700 29.93700
C  28.37100 1.47500 28.96800
C  29.63500 1.28500 29.69200
C  29.35600 1.66900 31.03700
C  28.01800 1.91700 31.10300
C  30.89200 0.71200 29.15500
C  29.85900 1.76500 32.37500
O  31.03100 1.58600 32.80000
C  28.71700 2.12400 33.30200
C  28.67400 1.02200 34.22000
O  28.17200 -0.06200 34.03700
O  29.15400 1.40300 35.43300
C  28.82000 0.52700 36.62600
H  21.88000 2.55600 32.50500
H  22.79400 2.62400 26.18300
H  28.88800 1.34800 26.78500
H  26.16100 1.87400 34.69900
H  23.71300 3.60800 34.43900
H  22.64600 1.21400 34.51400
H  23.56000 1.90900 35.89500
H  24.38500 0.70800 34.74100
H  25.73200 4.88800 35.03900
H  27.08500 4.60300 34.12200
H  28.20100 4.20800 36.11700
H  27.22100 2.91000 36.49300
H  20.14000 2.13000 31.76700
H  19.45600 1.29100 30.39700
H  19.28100 3.09100 30.64100
H  18.47500 1.33500 28.01700
H  18.41400 2.39800 26.61600
H  18.77700 3.06200 28.32400
H  25.15400 3.18800 24.91800
H  27.11000 0.97400 24.98100
H  23.85600 0.52200 25.13000
H  25.12300 0.33900 23.93400
H  23.96300 1.62100 23.72600
H  27.28500 3.47500 23.93600
H  28.60500 2.62700 24.42700
H  28.08100 4.15800 26.88500
H  27.00400 4.99800 25.78400
H  28.81800 4.98400 25.54400
H  30.49900 -0.07100 28.50500
H  31.56300 0.23200 29.86600
H  31.40300 1.47000 28.56200
H  28.93900 2.98800 33.92900
H  27.77200 0.46700 36.92000
H  29.45700 0.78000 37.47400
H  29.23100 -0.45100 36.37500
Mg -11.36500 39.01400 41.43200
C  -9.17900 36.15000 40.73000
C  -9.16500 40.88200 39.53000
C  -13.72100 41.22300 41.43800
C  -13.65300 36.48100 42.72100
N  -9.46600 38.53000 40.14200
C  -8.77500 37.28100 39.99600
C  -7.68400 37.38300 38.99700
C  -7.57900 38.97900 38.82300
C  -8.76600 39.53600 39.53000
C  -6.16200 39.57200 39.21000
C  -7.92600 36.58800 37.70600
C  -6.80400 35.59100 37.38000
H  -5.49200 36.11100 36.74600
N  -11.40300 40.93400 40.74400
C  -10.37200 41.51900 40.07300
C  -10.71700 42.93200 39.96300
C  -12.05800 43.05700 40.46100
C  -12.51800 41.71200 40.88700
C  -9.82400 43.88100 39.35500
C  -12.88500 44.28700 40.59200
O  -12.38000 45.40700 40.22300
C  -14.27700 44.29800 40.92600
N  -13.36600 38.79600 41.92600
C  -14.10000 39.94400 41.95900
C  -15.50400 39.73100 42.52500
C  -15.55100 38.21300 42.67400
C  -14.09600 37.75700 42.49600
C  -15.86100 40.57100 43.79600
C  -16.63300 37.56000 41.83600
C  -17.98000 37.81900 42.40000
N  -11.40800 36.90900 41.76900
C  -12.36200 36.03800 42.32000
C  -11.82300 34.67400 42.58200
C  -10.57700 34.68600 41.93400
C  -10.37100 36.06000 41.49500
C  -12.50900 33.59200 43.28700
C  -9.46600 33.84800 41.58200
O  -9.38600 32.62000 41.79200
C  -8.50500 34.86000 40.83600
C  -7.22400 34.82200 41.61200
O  -6.43000 33.92700 41.53000
O  -7.15700 35.85300 42.46300
C  -6.02200 35.78600 43.33600
H  -8.42100 41.54900 39.09100
H  -14.56500 41.88600 41.64200
H  -14.41700 35.83800 43.16300
H  -6.81900 36.98900 39.53100
H  -7.71100 39.26100 37.77800
H  -5.47000 38.78100 39.50200
H  -6.31700 40.32500 39.98200
H  -5.68700 40.04700 38.35200
H  -7.87900 37.30200 36.88400
H  -8.87900 36.06300 37.75700
H  -7.17800 34.81500 36.71300
H  -6.44500 35.06300 38.26400
H  -9.25200 44.23400 40.21300
H  -10.49500 44.56300 38.83400
H  -9.16100 43.55600 38.55200
H  -14.76800 43.62300 40.22500
H  -14.67000 45.28600 40.68400
H  -14.55600 44.01000 41.93900
H  -16.26500 40.02900 41.80500
H  -15.74600 38.06800 43.73600
H  -16.22400 41.52800 43.42200
H  -14.86700 40.71800 44.22000
H  -16.60200 40.11800 44.45400
H  -16.41900 36.49300 41.76500
H  -16.59900 37.99500 40.83700
H  -18.43300 36.95400 42.88400
H  -18.69800 37.99900 41.60000
H  -18.03000 38.65700 43.09500
H  -11.75700 32.87200 43.60800
H  -13.20700 33.14400 42.58000
H  -13.06900 33.87000 44.18000
H  -8.21400 34.35000 39.91800
H  -6.16600 36.70200 43.90800
H  -5.15200 35.83200 42.68100
H  -6.12900 34.91400 43.98100

