158

Mg 48.76000 36.30500 27.73000
C  46.60600 34.76800 30.11200
C  49.04700 38.87500 29.82600
C  50.35300 37.82900 25.22800
C  47.88200 33.67700 25.53100
N  48.21500 36.56500 29.93500
C  47.27500 35.83500 30.65100
C  47.15900 36.41300 32.10500
C  47.64500 37.96000 31.89200
C  48.34700 37.80200 30.44900
C  46.47800 39.01800 31.84000
C  48.00100 35.62100 33.12400
C  49.38400 36.13400 33.53400
H  49.47200 36.92100 34.88700
N  49.64300 38.03900 27.57600
C  49.66000 38.96000 28.52700
C  50.46200 40.06600 28.11800
C  50.88000 39.76800 26.79600
C  50.32400 38.46900 26.46500
C  50.96000 41.17000 29.03300
C  51.66800 40.68400 25.85200
O  52.08000 40.26900 24.78800
C  51.85100 42.15600 26.21500
N  48.83600 35.88700 25.56600
C  49.67000 36.67400 24.78600
C  50.15000 35.90400 23.52500
C  49.39000 34.50000 23.62500
C  48.64100 34.64400 24.99300
C  49.99800 36.65200 22.16400
C  50.18400 33.09600 23.65200
C  51.31700 32.94900 22.60600
N  47.65600 34.57600 27.79900
C  47.31100 33.60700 26.75100
C  46.46000 32.64400 27.30000
C  46.20200 33.02600 28.56300
C  46.90200 34.21300 28.83800
C  46.00000 31.38400 26.60400
C  45.39900 32.68300 29.78900
O  44.89700 31.67100 30.16400
C  45.53400 33.88100 30.75200
C  45.80100 33.42300 32.11700
O  46.69600 32.67600 32.48800
O  44.71700 33.71000 32.90900
C  44.71500 33.05800 34.22200
H  49.05100 39.78100 30.43600
H  50.99100 38.22800 24.43700
H  47.58200 32.87000 24.85900
H  46.09800 36.47700 32.34500
H  48.42800 38.30500 32.56800
H  46.10100 39.17600 32.85000
H  45.74200 38.66300 31.11900
H  46.85300 39.97100 31.46700
H  48.12700 34.65000 32.64400
H  47.46600 35.51100 34.06700
H  49.85400 36.75600 32.77200
H  49.99900 35.25500 33.72300
H  50.70500 40.91100 30.06000
H  50.54100 42.11700 28.69500
H  52.03500 41.35200 29.03200
H  52.01000 42.72600 25.29900
H  52.69500 42.30500 26.88900
H  50.89800 42.47600 26.63600
H  51.19600 35.74600 23.78800
H  48.71900 34.38200 22.77400
H  49.51400 37.61200 22.34400
H  49.62400 35.99100 21.38200
H  51.02700 36.80900 21.84000
H  49.51200 32.25300 23.49100
H  50.62200 32.98800 24.64400
H  52.30100 32.96400 23.07500
H  51.17600 33.76700 21.90000
H  51.11800 32.06800 21.99600
H  45.51600 30.73200 27.33200
H  46.80500 30.74900 26.23300
H  45.37000 31.68800 25.76900
H  44.61300 34.46400 30.77900
H  45.27100 33.74900 34.85500
H  45.10200 32.04000 34.24000
H  43.71100 33.15900 34.63400
Mg 36.22400 49.91500 24.61100
C  36.70700 48.32500 27.86000
C  34.81200 52.57700 26.38500
C  35.69100 51.16800 21.69900
C  37.74800 47.10400 23.18300
N  35.97700 50.42600 26.91400
C  36.20000 49.64100 28.00900
C  35.80700 50.34000 29.33000
C  35.14900 51.74300 28.77500
C  35.30000 51.62700 27.27300
C  33.73200 51.99500 29.26900
C  37.08500 50.53800 30.29400
C  36.79800 50.60600 31.79600
H  35.38000 50.35500 32.38900
N  35.46100 51.61600 24.08200
C  34.93300 52.61900 24.88500
C  34.32000 53.62700 24.05900
C  34.61200 53.23900 22.73100
C  35.29900 51.96800 22.77500
C  33.54900 54.80300 24.65400
C  34.41700 54.03300 21.43300
O  34.96200 53.77600 20.32800
C  33.55100 55.29400 21.40000
N  36.79300 49.22400 22.78000
C  36.40000 49.92600 21.73000
C  36.77900 49.23900 20.36400
C  37.70600 48.03200 20.86700
C  37.42300 48.09900 22.36500
C  35.56100 48.89000 19.49000
C  39.25200 48.23000 20.60100
C  40.08300 49.15800 21.48700
N  37.02000 48.12100 25.33300
C  37.52600 47.00100 24.59800
C  37.85500 45.98900 25.49200
C  37.55600 46.46100 26.71700
C  37.01400 47.75900 26.62700
C  38.54900 44.77300 25.13900
C  37.61800 46.03300 28.10100
O  37.98000 44.97000 28.62300
C  36.98600 47.17400 28.89100
C  35.84300 46.74000 29.68100
O  34.63800 47.04200 29.51100
O  36.28200 45.81500 30.59000
C  35.20300 45.42000 31.47400
H  34.34800 53.46800 26.81400
H  35.38600 51.46800 20.69500
H  38.11000 46.18100 22.72500
H  35.07900 49.68500 29.80800
H  35.69000 52.62200 29.12600
H  33.38000 51.20700 29.93600
H  32.99800 52.10200 28.47100
H  33.82800 52.89800 29.87100
H  37.62300 51.47600 30.15900
H  37.78400 49.71100 30.17600
H  37.21700 51.56300 32.11000
H  37.51700 49.88000 32.17500
H  32.63400 54.93500 24.07700
H  34.18400 55.68500 24.57100
H  33.29000 54.60300 25.69300
H  34.06300 55.92700 22.12500
H  32.60600 54.85800 21.72300
H  33.46000 55.71700 20.39900
H  37.35300 50.01100 19.85200
H  37.38400 47.07200 20.46600
H  34.71400 48.75200 20.16100
H  35.65500 47.97800 18.90000
H  35.41000 49.64900 18.72200
H  39.31700 48.57800 19.57000
H  39.65300 47.21600 20.61000
H  39.48500 49.80500 22.12800
H  40.78000 49.73000 20.87300
H  40.69000 48.54200 22.15100
H  39.47700 44.96000 24.59900
H  37.96100 44.27000 24.37100
H  38.75000 44.24700 26.07200
H  37.76500 47.51600 29.57100
H  34.48300 44.79000 30.95200
H  34.51800 46.18400 31.83900
H  35.61000 44.78100 32.25800

