158

Mg 30.70800 57.94300 39.47000
C  28.05000 56.02900 38.45000
C  32.81200 55.24900 38.52600
C  33.34000 59.82100 40.01400
C  28.42400 60.61300 39.73600
N  30.44400 55.97100 38.36300
C  29.22600 55.34300 38.18300
C  29.36700 53.85400 37.77400
C  30.88000 53.61300 38.11100
C  31.42000 55.07200 38.34700
C  31.16200 52.70100 39.35000
C  28.98200 53.49800 36.32000
C  29.35700 54.51900 35.17400
H  28.21700 55.08300 34.34300
N  32.73900 57.61400 39.37200
C  33.42800 56.45100 38.90600
C  34.80900 56.69400 39.04200
C  35.00900 57.94300 39.64800
C  33.66600 58.52200 39.75700
C  35.73100 55.54400 38.82300
C  36.37900 58.49900 40.07100
O  37.41300 57.86600 39.88800
C  36.56100 59.85300 40.73800
N  30.79300 59.97800 39.89500
C  32.05700 60.52400 40.05000
C  31.94000 62.12000 40.11300
C  30.38100 62.26900 40.14500
C  29.79300 60.87900 39.85600
C  32.75300 62.81800 41.32400
C  29.89100 63.31500 39.10200
C  29.91000 62.84100 37.55900
N  28.61400 58.27500 39.31200
C  27.83700 59.38400 39.55300
C  26.47600 58.99700 39.47200
C  26.46100 57.69500 39.05000
C  27.83700 57.30600 38.93400
C  25.27100 59.77700 39.80100
C  25.62700 56.57200 38.63900
O  24.43800 56.49300 38.55400
C  26.64200 55.41100 38.20200
C  26.19700 54.29500 39.16000
O  26.82600 53.92700 40.13200
O  25.00100 53.81000 38.66900
C  24.37000 52.82800 39.51800
H  33.38600 54.32300 38.45700
H  34.11500 60.58200 40.12100
H  27.73300 61.45800 39.72900
H  28.65800 53.35400 38.43400
H  31.40600 53.14000 37.28200
H  30.22000 52.32600 39.75100
H  31.77400 53.18700 40.11000
H  31.69000 51.77800 39.10900
H  27.91500 53.28100 36.26700
H  29.53500 52.58200 36.11300
H  30.04000 53.98200 34.51500
H  30.00200 55.25600 35.65100
H  36.78300 55.79500 38.96000
H  35.62900 55.15100 37.81100
H  35.48600 54.84200 39.62000
H  35.74000 60.04400 41.42900
H  36.52300 60.62000 39.96500
H  37.55300 59.75100 41.17900
H  32.29400 62.60000 39.20000
H  30.04600 62.43200 41.16900
H  33.50000 62.19300 41.81300
H  32.06000 63.03700 42.13700
H  33.20700 63.72900 40.93600
H  30.48000 64.23200 39.12100
H  28.89400 63.50500 39.49900
H  30.12200 63.72400 36.95500
H  28.91700 62.41100 37.43400
H  30.69400 62.12000 37.32700
H  25.16200 60.68800 39.21300
H  25.19900 59.95900 40.87400
H  24.46200 59.11000 39.50500
H  26.47900 55.08400 37.17500
H  24.01200 52.05000 38.84400
H  23.62300 53.37200 40.09600
H  25.01200 52.34600 40.25500
Mg 26.70700 50.11500 26.14500
C  24.80400 51.40700 28.62200
C  29.36400 49.48800 28.27800
C  28.40400 49.02500 23.64700
C  24.19500 51.19300 23.79800
N  26.99000 50.17000 28.20900
C  26.07300 50.82900 29.01500
C  26.59000 50.73300 30.44700
C  28.03100 50.19300 30.42400
C  28.18000 50.01900 28.83400
C  29.05300 51.20700 31.07700
C  25.60500 49.89000 31.32600
C  25.08500 50.43900 32.65800
H  26.08600 50.86500 33.79100
N  28.65600 49.38300 25.95300
C  29.59000 49.14400 26.93900
C  30.74400 48.41000 26.37900
C  30.42500 48.28900 24.99700
C  29.11500 48.90000 24.79700
C  31.80400 47.88000 27.31600
C  31.34000 47.63600 23.96100
O  30.94800 47.51500 22.81300
C  32.68200 47.01600 24.33400
N  26.42900 50.41100 23.89800
C  27.20800 49.59000 23.19900
C  26.76600 49.51500 21.80500
C  25.34300 50.02000 21.85700
C  25.28900 50.51900 23.25600
C  27.52400 50.37000 20.78900
C  24.21800 48.96000 21.46600
C  24.23200 47.67400 22.23900
N  24.87400 51.08600 26.16000
C  23.99800 51.44700 25.19200
C  22.91000 52.18200 25.70800
C  23.17000 52.24300 27.07500
C  24.37300 51.53400 27.30000
C  21.83700 52.92100 24.94000
C  22.69900 52.65600 28.33100
O  21.74000 53.34500 28.58200
C  23.71100 52.06400 29.41100
C  24.18500 53.17900 30.28600
O  25.23600 53.76200 30.15200
O  23.29300 53.34800 31.35100
C  23.86800 54.06300 32.52600
H  30.14300 49.24300 29.00300
H  28.96000 48.70200 22.76400
H  23.32800 51.43000 23.17800
H  26.61800 51.77500 30.76700
H  28.13700 49.21500 30.89400
H  29.72500 50.68800 31.76100
H  28.51100 52.00900 31.57600
H  29.80100 51.61000 30.39400
H  26.06000 48.92000 31.52700
H  24.74600 49.71400 30.67800
H  24.61600 49.53500 33.04800
H  24.24600 51.09400 32.42100
H  32.34200 47.02000 26.91800
H  31.30700 47.63500 28.25500
H  32.50800 48.69600 27.48100
H  32.50000 46.08800 24.87700
H  33.17100 47.77600 24.94400
H  33.14500 46.79800 23.37200
H  26.80900 48.47400 21.48500
H  25.15800 50.97200 21.36000
H  28.39000 50.75700 21.32600
H  27.05800 51.15600 20.19400
H  27.92300 49.64000 20.08400
H  24.14200 48.77000 20.39600
H  23.27700 49.47800 21.65600
H  24.09600 47.74000 23.31800
H  25.13200 47.06900 22.12600
H  23.28100 47.22000 21.96200
H  21.43700 53.62200 25.67300
H  21.04100 52.27600 24.56800
H  22.24400 53.59700 24.18900
H  23.24300 51.37600 30.11500
H  24.08900 55.10900 32.31400
H  24.82500 53.57900 32.72100
H  23.34200 53.85300 33.45700

