158

Mg 48.41900 35.03100 26.89600
C  46.66200 33.76000 29.66900
C  49.55100 37.50300 28.90300
C  49.79300 36.49200 24.20400
C  47.25200 32.40700 24.92000
N  48.11500 35.54400 29.00000
C  47.43700 34.88400 29.93400
C  47.75900 35.42000 31.38100
C  48.48500 36.76400 31.02100
C  48.69900 36.65500 29.54400
C  47.60200 38.01900 31.46700
C  48.71700 34.50400 32.22400
C  48.57500 34.48500 33.78300
H  47.77700 35.56000 34.53900
N  49.57200 36.71800 26.58600
C  49.94800 37.60700 27.52800
C  50.95500 38.47300 27.03000
C  51.01500 38.25300 25.63700
C  50.10500 37.10400 25.39400
C  51.58500 39.57800 27.87700
C  51.75100 38.98000 24.45700
O  51.80100 38.60800 23.22700
C  52.66900 40.18100 24.93000
N  48.37100 34.55200 24.79000
C  49.04800 35.33200 23.90600
C  49.01500 34.65700 22.44900
C  48.31400 33.30100 22.75500
C  47.95000 33.44500 24.21500
C  48.32900 35.53800 21.37300
C  49.21000 32.05600 22.36200
C  50.52200 31.96800 23.02000
N  47.18500 33.42600 27.16400
C  46.86500 32.39100 26.26200
C  46.17800 31.34800 27.03200
C  45.98700 31.90700 28.32800
C  46.65700 33.10200 28.32300
C  45.42100 30.21400 26.44800
C  45.30300 31.62100 29.55900
O  44.64800 30.69300 29.94000
C  45.68600 32.81100 30.49400
C  46.18000 32.37200 31.79100
O  46.87100 31.38100 32.01700
O  45.60400 33.17600 32.71800
C  45.36300 32.58900 34.03900
H  50.01600 38.30200 29.48500
H  50.23600 37.02600 23.36100
H  47.09300 31.46300 24.39700
H  46.83200 35.63700 31.91000
H  49.42600 36.89000 31.55700
H  48.11400 38.60300 32.23200
H  46.64800 37.70500 31.88800
H  47.34000 38.56900 30.56300
H  49.75000 34.69000 31.92900
H  48.45600 33.49700 31.90100
H  49.58100 34.31000 34.16500
H  48.05100 33.54600 33.96300
H  52.53100 39.96100 27.49400
H  51.69500 39.27500 28.91800
H  50.97100 40.47400 27.97100
H  53.60400 39.78800 25.32900
H  52.10200 40.79000 25.63500
H  52.90800 40.65800 23.97900
H  50.07300 34.62800 22.18500
H  47.39000 33.17400 22.19200
H  47.94000 36.44200 21.84400
H  47.46500 35.11200 20.86200
H  49.00000 35.88100 20.58600
H  49.33700 31.98400 21.28200
H  48.65800 31.19800 22.74500
H  51.21700 31.60500 22.26300
H  50.61800 31.28600 23.86500
H  50.80500 32.95300 23.39100
H  45.32500 30.26700 25.36300
H  44.41800 30.22400 26.87400
H  45.91900 29.28100 26.71200
H  44.79500 33.42100 30.64500
H  45.57000 31.56000 34.33500
H  44.30300 32.81100 34.15700
H  45.82500 33.20300 34.81100
Mg 10.27400 48.78900 25.05900
C  8.24900 48.83000 27.84300
C  12.63600 50.29100 26.79900
C  12.27400 48.59000 22.26700
C  7.46600 48.01500 22.97000
N  10.39300 49.54000 27.09400
C  9.54100 49.28700 28.11300
C  10.11600 49.75700 29.42300
C  11.34900 50.56200 28.97800
C  11.48000 50.16500 27.50100
C  11.28900 52.11100 29.23100
C  10.31700 48.50500 30.43100
C  9.67600 48.58500 31.87400
H  10.37700 49.43500 32.93100
N  12.15600 49.43500 24.59200
C  12.98600 49.91200 25.53700
C  14.39900 49.85600 25.03400
C  14.35300 49.32600 23.72500
C  12.93700 49.15200 23.49300
C  15.54400 50.26000 25.95000
C  15.42000 49.01700 22.76500
O  15.16000 48.72000 21.60000
C  16.88200 49.11800 23.15500
N  9.87100 48.58100 22.86000
C  10.91500 48.39400 21.96500
C  10.40900 47.77900 20.63400
C  8.91000 47.40900 20.98800
C  8.68500 48.11400 22.33100
C  10.72700 48.61500 19.39800
C  8.65400 45.80900 21.06200
C  9.37100 45.03400 22.23300
N  8.23300 48.58600 25.26900
C  7.25500 48.20300 24.34800
C  5.99000 48.05400 25.10200
C  6.39100 48.32500 26.45700
C  7.72500 48.66600 26.53900
C  4.66600 47.64100 24.66200
C  5.82300 48.35800 27.81100
O  4.69700 48.15500 28.24000
C  7.10500 48.70000 28.80300
C  7.15800 47.51100 29.72800
O  7.38100 46.34300 29.40600
O  6.74000 47.81300 30.99800
C  6.62800 46.59700 31.87500
H  13.46600 50.62800 27.42400
H  12.97400 48.23900 21.50500
H  6.74500 47.50200 22.33000
H  9.31900 50.39500 29.80400
H  12.18500 50.09500 29.49700
H  10.25300 52.32500 29.49300
H  11.48400 52.60100 28.27700
H  11.96000 52.36600 30.05200
H  11.32400 48.48600 30.84900
H  10.22000 47.51900 29.97700
H  9.34700 47.60300 32.21400
H  8.84800 49.21900 31.55800
H  16.40200 49.59900 25.83200
H  15.39700 50.24100 27.03000
H  15.88100 51.27700 25.74700
H  17.05400 50.05000 23.69500
H  17.41400 48.94000 22.22100
H  17.09200 48.25300 23.78300
H  11.00100 46.86500 20.58500
H  8.25900 47.82000 20.21700
H  9.80000 48.82700 18.86600
H  11.40800 48.12000 18.70500
H  11.23000 49.50100 19.78400
H  9.08000 45.27800 20.21200
H  7.58100 45.64900 20.96000
H  8.56600 44.78800 22.92600
H  10.14200 45.62300 22.72900
H  9.86700 44.16000 21.81000
H  4.06000 47.20800 25.45800
H  4.93200 46.87800 23.93000
H  4.04100 48.40700 24.20300
H  7.02200 49.58100 29.44000
H  5.80800 45.96600 31.53400
H  6.38000 46.94700 32.87700
H  7.54500 46.02100 32.00100

