158

Mg -0.13800 44.30600 26.41900
C  2.25500 44.38500 29.10400
C  -2.50400 43.33000 28.73200
C  -2.07900 43.13900 23.88300
C  2.44700 44.74300 24.20100
N  -0.07900 43.87800 28.69700
C  0.98300 44.07400 29.55000
C  0.44800 44.03100 30.96400
C  -0.99200 43.39200 30.83800
C  -1.23200 43.60000 29.31600
C  -1.04800 41.87500 31.27300
C  0.47200 45.36400 31.80600
C  1.02200 45.10400 33.26800
H  0.52200 43.88000 34.07900
N  -2.09300 43.59600 26.30700
C  -2.87800 43.22900 27.35400
C  -4.20800 42.87200 26.83600
C  -4.11700 42.84000 25.42900
C  -2.75200 43.22700 25.14500
C  -5.41000 42.50400 27.69800
C  -5.15100 42.34700 24.35000
O  -4.86400 42.27700 23.18100
C  -6.57700 42.01700 24.77500
N  0.07300 43.91800 24.37800
C  -0.79600 43.41200 23.55700
C  -0.13900 43.11300 22.17100
C  1.06200 44.12700 22.13800
C  1.22400 44.29000 23.66500
C  0.27000 41.61100 21.96800
C  0.82600 45.40800 21.34300
C  1.70300 45.73000 20.11400
N  1.93400 44.50100 26.55200
C  2.84700 44.69200 25.54700
C  4.22200 44.90300 26.10300
C  3.95700 44.75300 27.48700
C  2.59600 44.52300 27.75300
C  5.49200 45.16400 25.36600
C  4.69400 44.76000 28.81900
O  5.88700 44.84700 29.07100
C  3.54800 44.54200 29.86000
C  4.01900 43.26200 30.60900
O  4.49600 42.27800 30.15600
O  3.84300 43.49600 31.95800
C  4.09800 42.30000 32.85700
H  -3.18600 42.99700 29.51800
H  -2.62400 42.83800 22.98600
H  3.16400 44.98100 23.41200
H  1.09600 43.31100 31.46400
H  -1.74800 43.94300 31.39700
H  -0.11400 41.55300 31.73200
H  -1.45300 41.29200 30.44600
H  -1.86300 41.84400 31.99600
H  -0.54000 45.75700 31.90000
H  1.00800 46.20600 31.36700
H  0.76300 46.02500 33.78900
H  2.10300 45.24600 33.25800
H  -6.24800 43.20100 27.69100
H  -5.15200 42.34800 28.74500
H  -5.87900 41.60300 27.30100
H  -7.17600 41.87000 23.87600
H  -7.03900 42.72700 25.46100
H  -6.42800 41.03700 25.22700
H  -0.88500 43.30800 21.40100
H  1.94700 43.62700 21.74300
H  0.08900 40.93800 22.80700
H  1.32300 41.47100 21.72200
H  -0.39900 41.20000 21.21300
H  0.87700 46.31900 21.93900
H  -0.18800 45.37700 20.94400
H  1.01500 45.61200 19.27700
H  2.59200 45.10000 20.11900
H  2.15500 46.71800 20.02400
H  5.37800 46.06800 24.76800
H  5.82400 44.28400 24.81600
H  6.23700 45.28200 26.15400
H  3.52100 45.30800 30.63400
H  3.49100 41.42600 32.62100
H  3.75700 42.51400 33.87000
H  5.18700 42.27500 32.88900
Mg -10.93700 16.75700 40.22900
C  -7.57700 16.26000 40.40000
C  -10.44900 20.13200 40.29700
C  -14.29400 17.18400 39.48700
C  -11.37400 13.29500 39.88800
N  -9.15300 17.99300 40.23500
C  -7.86100 17.64900 40.35500
C  -6.99300 18.81400 40.19600
C  -7.91300 19.95100 40.75900
C  -9.29600 19.37300 40.43600
C  -7.72100 20.29200 42.25800
C  -6.47700 19.10400 38.83300
C  -5.04400 18.69900 38.50700
H  -4.83000 18.01300 37.17400
N  -12.17900 18.43500 39.99400
C  -11.79000 19.76200 40.01900
C  -12.83000 20.61600 39.56100
C  -13.97800 19.79200 39.37300
C  -13.53500 18.38700 39.64500
C  -12.58800 22.04900 39.11400
C  -15.36600 20.23800 38.84700
O  -15.51800 21.40600 38.59300
C  -16.59600 19.35900 38.79600
N  -12.53800 15.44100 39.56600
C  -13.86500 15.85700 39.53300
C  -14.85900 14.66200 39.48500
C  -13.85900 13.45100 39.72900
C  -12.50100 14.10100 39.74000
C  -16.08000 14.75500 40.38600
C  -13.97100 12.41600 38.57500
C  -14.07700 10.88400 38.95000
N  -9.72100 15.06600 40.11900
C  -10.03800 13.72800 39.98500
C  -8.83300 12.96000 39.97600
C  -7.83500 13.90200 40.15800
C  -8.40900 15.20000 40.23300
C  -8.63600 11.54400 39.97300
C  -6.41300 14.10100 40.25800
O  -5.55000 13.29300 40.37700
C  -6.20400 15.62500 40.44500
C  -5.51300 15.71800 41.76800
O  -5.73100 15.02900 42.74100
O  -4.67700 16.75700 41.76000
C  -4.05300 16.99400 43.04900
H  -10.20500 21.19300 40.37500
H  -15.37600 17.21700 39.34600
H  -11.51700 12.21300 39.92300
H  -6.14200 18.68900 40.86600
H  -7.86500 20.90700 40.23800
H  -8.66100 20.31600 42.81000
H  -7.26000 21.27900 42.24800
H  -7.05400 19.62800 42.80800
H  -6.60600 20.16700 38.62500
H  -7.17000 18.62000 38.14500
H  -4.52200 18.12100 39.27100
H  -4.47300 19.62800 38.51700
H  -13.08200 22.74400 39.79400
H  -13.03700 22.10100 38.12200
H  -11.51600 22.23600 39.06100
H  -17.55600 19.86900 38.87200
H  -16.62800 18.67400 39.64400
H  -16.61800 18.92300 37.79800
H  -15.24000 14.64000 38.46400
H  -13.98600 12.86800 40.64000
H  -16.06700 13.84000 40.97700
H  -16.97500 14.69900 39.76600
H  -16.09400 15.67000 40.97900
H  -13.30600 12.58600 37.72800
H  -14.83500 12.79500 38.02900
H  -13.50400 10.19700 38.32700
H  -15.14000 10.65900 38.86300
H  -13.83200 10.74500 40.00400
H  -7.89900 11.20900 40.70200
H  -8.32500 11.17200 38.99700
H  -9.53400 11.12400 40.42600
H  -5.49600 16.06600 39.74400
H  -3.83500 16.06000 43.56700
H  -4.71000 17.55200 43.71600
H  -3.13900 17.53200 42.79500

