158

Mg 53.32500 24.39400 43.37700
C  50.54000 26.49700 42.99600
C  51.37400 21.72800 42.37100
C  56.19500 22.67300 42.80300
C  55.17400 27.27500 44.10900
N  51.25100 24.16000 42.65500
C  50.31600 25.17900 42.60700
C  48.91400 24.60000 42.19900
C  49.11600 23.03800 42.38300
C  50.65700 22.95400 42.47100
C  48.43000 22.47000 43.71300
C  48.42900 25.06800 40.81300
C  49.40600 25.40100 39.64900
H  49.02700 24.96000 38.23200
N  53.76500 22.47400 42.79400
C  52.77200 21.49500 42.50800
C  53.43600 20.24000 42.24900
C  54.85900 20.37400 42.53600
C  55.02700 21.92200 42.74000
C  52.70500 18.88800 41.88500
C  55.80600 19.27900 42.62300
O  55.51500 18.12400 42.29600
C  57.28500 19.47100 43.01300
N  55.39700 24.89400 43.30000
C  56.37200 24.01800 43.04200
C  57.72700 24.64500 43.41000
C  57.42200 26.17700 43.72000
C  55.93500 26.15900 43.71100
C  58.32900 23.84600 44.65100
C  58.07200 27.11400 42.59200
C  57.90100 26.79100 41.07700
N  52.93900 26.39600 43.71400
C  53.76200 27.44500 44.06300
C  52.94700 28.62500 44.37200
C  51.69200 28.26900 43.94900
C  51.75600 26.92800 43.49400
C  53.44100 29.88300 44.93000
C  50.31000 28.68700 43.90800
O  49.90400 29.79300 44.21800
C  49.44700 27.69200 43.10900
C  49.22100 28.32800 41.84900
O  50.02800 28.62300 40.97400
O  47.83200 28.57400 41.79700
C  47.24800 28.91000 40.48500
H  50.80600 20.86100 42.02600
H  57.18700 22.21900 42.75500
H  55.78700 28.15700 44.30400
H  48.24900 25.14500 42.86800
H  48.77200 22.43000 41.54600
H  47.63100 23.17000 43.95700
H  49.14600 22.34900 44.52600
H  47.86700 21.59700 43.38100
H  47.98500 26.05000 40.97100
H  47.72300 24.30600 40.48000
H  50.41700 25.12500 39.94800
H  49.34300 26.48800 39.60000
H  52.84000 18.75900 40.81200
H  51.65800 19.00100 42.16600
H  53.07600 18.00700 42.40900
H  57.63200 18.61500 43.59000
H  57.24500 20.27300 43.75100
H  57.93700 19.75400 42.18600
H  58.49400 24.47100 42.65500
H  57.69300 26.42300 44.74600
H  58.68600 24.56800 45.38500
H  59.14600 23.22800 44.28000
H  57.51300 23.25600 45.07100
H  59.14600 27.07800 42.77200
H  57.73300 28.12600 42.81200
H  57.59800 27.74800 40.65300
H  57.16100 26.03200 40.82500
H  58.87800 26.48800 40.70100
H  53.89300 30.51500 44.16500
H  54.04600 29.63100 45.80100
H  52.62200 30.45900 45.36100
H  48.52400 27.42700 43.62300
H  47.64900 29.88800 40.21700
H  46.16300 28.92000 40.58800
H  47.42500 28.16100 39.71300
Mg 36.58100 49.21300 25.55000
C  36.49400 47.24900 28.52700
C  35.25800 51.84700 27.41700
C  36.32200 50.98700 22.68700
C  37.45300 46.36700 23.81400
N  35.88100 49.42000 27.64600
C  36.14700 48.55200 28.70000
C  35.96200 49.29000 30.06300
C  35.31500 50.65400 29.69800
C  35.50800 50.64200 28.18600
C  33.84100 50.86300 30.10300
C  37.32500 49.46400 30.92900
C  37.20200 49.65500 32.48200
H  35.81300 49.70000 33.01000
N  35.93400 51.16200 25.09600
C  35.43400 52.10200 25.99300
C  35.33300 53.35200 25.28800
C  35.65300 53.15800 23.90800
C  36.05900 51.73800 23.84000
C  34.87200 54.55000 26.00100
C  35.80200 54.24000 22.72600
O  36.19600 53.89600 21.64100
C  35.64200 55.72000 22.86500
N  36.66900 48.66100 23.52300
C  36.63700 49.64100 22.50900
C  36.99500 49.03300 21.16500
C  37.57600 47.66700 21.67300
C  37.23200 47.54500 23.04700
C  35.77800 49.14600 20.15300
C  39.10900 47.55300 21.31300
C  40.16600 48.34400 22.06100
N  36.86500 47.14300 26.01700
C  37.24700 46.14200 25.17600
C  37.59900 44.99900 26.04000
C  37.31800 45.38500 27.36800
C  36.82300 46.67000 27.31100
C  38.28400 43.77200 25.66800
C  37.29300 44.89900 28.71900
O  37.74500 43.83800 29.25700
C  36.65100 46.07200 29.51400
C  35.25700 45.80000 30.01600
O  34.28700 45.72500 29.31000
O  35.24200 45.83900 31.39500
C  33.94400 45.37600 31.97300
H  34.87100 52.67000 28.02100
H  36.27500 51.48900 21.71800
H  37.87700 45.41000 23.50500
H  35.30800 48.69000 30.69600
H  35.91000 51.48900 30.06700
H  33.81100 51.78600 30.68300
H  33.50800 50.03100 30.72300
H  33.14800 50.98300 29.27000
H  37.90100 50.29900 30.53100
H  37.92900 48.56500 30.80700
H  37.84900 50.47600 32.79000
H  37.66000 48.79100 32.96400
H  35.63400 55.30600 26.19400
H  34.33500 54.37600 26.93300
H  34.11000 55.06600 25.41700
H  35.16800 56.19100 23.72600
H  35.04100 56.00300 22.00100
H  36.66600 56.08600 22.79300
H  37.86300 49.58100 20.79800
H  37.03400 46.81700 21.25800
H  35.67300 48.17800 19.66400
H  36.03900 49.88800 19.39800
H  34.92400 49.46200 20.75200
H  39.04500 47.74000 20.24100
H  39.27500 46.48000 21.40300
H  39.82100 49.13800 22.72400
H  40.93100 48.75600 21.40200
H  40.71700 47.65100 22.69700
H  38.80100 43.97500 24.73100
H  37.58200 42.94200 25.59000
H  39.14000 43.58100 26.31600
H  37.19200 46.47000 30.37200
H  33.85400 45.71800 33.00400
H  34.02000 44.29200 32.05500
H  33.10300 45.74100 31.38300

