158

Mg 30.13700 58.25800 39.18600
C  27.29200 56.52100 38.26800
C  32.03700 55.45900 38.10300
C  32.98500 60.14500 38.90000
C  28.18000 61.21300 39.19500
N  29.72000 56.32700 38.19400
C  28.41800 55.78900 38.11100
C  28.50500 54.40700 37.41400
C  29.98400 53.94000 37.92200
C  30.61800 55.32300 38.11000
C  30.03400 53.10600 39.19900
C  28.36100 54.43200 35.86500
C  27.30200 53.53700 35.24700
H  26.27400 54.29400 34.32500
N  32.34400 57.84500 38.86200
C  32.84900 56.63800 38.39800
C  34.27000 56.76900 38.19700
C  34.63900 58.10900 38.42200
C  33.36600 58.74900 38.78400
C  35.08800 55.52000 37.73900
C  36.01000 58.66100 38.27400
O  36.87500 57.95200 37.86400
C  36.35600 60.07500 38.64200
N  30.51800 60.34900 38.89600
C  31.77000 60.84900 39.04400
C  31.73900 62.37300 39.09500
C  30.21700 62.69200 39.19200
C  29.56600 61.30500 39.02900
C  32.70300 63.01600 40.12800
C  29.65200 63.68600 38.07300
C  29.61000 65.18700 38.57800
N  28.08600 58.77500 39.07700
C  27.41800 59.99300 39.16100
C  26.00500 59.76800 39.08900
C  25.90700 58.41500 38.63200
C  27.17700 57.84500 38.68800
C  24.96100 60.82900 39.12400
C  25.01400 57.43600 38.12000
O  23.83400 57.57000 37.97500
C  25.80800 56.15300 37.85000
C  25.36400 55.13200 38.82000
O  25.82200 54.94900 39.94800
O  24.40000 54.35900 38.24600
C  23.85000 53.11000 38.87400
H  32.58200 54.53600 37.89100
H  33.78500 60.88500 38.83900
H  27.60500 62.13800 39.12100
H  27.72700 53.77500 37.84100
H  30.41100 53.32700 37.12900
H  29.02800 52.99100 39.60300
H  30.61000 53.58500 39.99100
H  30.36300 52.10900 38.90600
H  29.34300 54.25300 35.42800
H  28.24000 55.45500 35.50800
H  26.58800 53.11800 35.95600
H  27.70200 52.78200 34.57000
H  34.61000 54.59400 38.05900
H  36.04100 55.43400 38.26000
H  35.21300 55.49000 36.65700
H  37.41400 60.25800 38.45700
H  36.03400 60.36300 39.64300
H  35.75000 60.71600 38.00200
H  32.07400 62.75300 38.13000
H  29.93500 63.01700 40.19300
H  33.15900 62.27500 40.78400
H  32.05500 63.71400 40.65800
H  33.43100 63.58000 39.54500
H  28.68900 63.31400 37.72200
H  30.30900 63.78600 37.20900
H  30.38500 65.80600 38.12500
H  29.72200 65.25100 39.66000
H  28.63600 65.67000 38.50700
H  24.28500 60.36800 39.84400
H  24.47200 60.93800 38.15700
H  25.38500 61.74400 39.54000
H  25.71100 55.77000 36.83400
H  24.08500 52.31700 38.16400
H  22.77400 53.16500 39.04100
H  24.36600 52.83400 39.79300
Mg 7.23800 53.47600 40.05200
C  6.57200 50.03100 40.09900
C  10.49300 52.74600 39.70600
C  7.74800 56.74600 39.14500
C  3.77300 54.23800 40.25000
N  8.35900 51.50600 39.79300
C  7.92600 50.28700 40.10500
C  9.05200 49.31900 40.06600
C  10.28500 50.27700 40.37800
C  9.66400 51.61800 39.97000
C  11.01200 50.00800 41.65600
C  9.20200 48.37400 38.81900
C  9.19800 49.12300 37.50700
H  8.08600 48.86800 36.42100
N  8.98500 54.62900 39.53900
C  10.19900 54.05700 39.35500
C  11.15700 55.05100 38.99500
C  10.34200 56.27700 38.71300
C  8.96100 55.94800 39.16000
C  12.61000 54.87000 38.85200
C  10.81800 57.56000 38.03800
O  11.99700 57.70600 37.76300
C  9.89300 58.70000 37.71000
N  6.01600 55.19000 39.78000
C  6.48200 56.42900 39.52400
C  5.37900 57.53200 39.53200
C  4.04600 56.72600 39.61700
C  4.59400 55.26600 39.95600
C  5.58900 58.57600 40.65500
C  3.09200 56.77400 38.41700
C  2.66300 58.22900 37.95700
N  5.51300 52.42000 40.20100
C  4.20700 52.89200 40.29700
C  3.36200 51.68000 40.40000
C  4.23600 50.61300 40.40200
C  5.52200 51.08700 40.20600
C  1.77900 51.65400 40.43600
C  4.25900 49.13400 40.56100
O  3.42100 48.31000 40.82900
C  5.71700 48.76600 40.20300
C  5.70100 47.93800 38.96000
O  5.51900 48.43600 37.86100
O  5.82000 46.58000 39.23000
C  5.67700 45.67800 38.13100
H  11.54500 52.56100 39.93200
H  7.89700 57.75900 38.76800
H  2.72300 54.45000 40.46300
H  8.80100 48.74500 40.95800
H  11.05700 50.16400 39.61700
H  12.03000 49.77600 41.34300
H  10.50500 49.15400 42.10600
H  10.98400 50.90400 42.27600
H  8.39700 47.64600 38.91500
H  10.18100 47.89800 38.88000
H  10.18100 48.89800 37.09500
H  9.12600 50.19300 37.69900
H  12.88600 54.61400 37.82900
H  13.04900 54.16200 39.55400
H  13.15300 55.80100 39.01300
H  9.10800 58.09900 37.25100
H  10.25300 59.43900 36.99500
H  9.65200 59.06000 38.71000
H  5.61500 57.96400 38.55900
H  3.49100 57.00700 40.51200
H  6.33900 59.26500 40.26600
H  5.91400 58.10600 41.58400
H  4.67600 59.13200 40.87000
H  2.21900 56.27100 38.83200
H  3.48800 56.25700 37.54300
H  3.43500 58.97200 38.15700
H  1.65600 58.30900 38.36900
H  2.53400 58.27300 36.87600
H  1.36700 50.65100 40.54400
H  1.38800 52.03900 39.49400
H  1.35100 52.08700 41.34000
H  6.14400 48.06900 40.92400
H  6.46000 44.93300 38.27300
H  5.53600 46.02700 37.10800
H  4.73300 45.17700 38.34400

