158

Mg 30.08600 58.91100 40.13100
C  27.45000 57.00700 39.11300
C  32.29700 56.44100 38.89200
C  32.89400 61.10200 40.23800
C  27.99500 61.57700 40.93900
N  29.89400 56.97600 39.00200
C  28.66000 56.37500 38.77300
C  28.88100 55.08600 37.98300
C  30.37200 54.76900 38.39800
C  30.93100 56.19000 38.66000
C  30.51500 53.88100 39.67800
C  28.67900 55.38100 36.47900
C  27.55200 54.56800 35.84000
H  26.89300 55.16300 34.62300
N  32.28500 58.75900 39.76700
C  32.90400 57.60600 39.27700
C  34.27000 57.80200 39.28100
C  34.56600 59.13400 39.65000
C  33.22800 59.75800 39.91500
C  35.27200 56.78100 38.87000
C  35.99900 59.67500 39.83800
O  36.96800 59.05000 39.61400
C  36.11900 61.05100 40.50800
N  30.41500 61.09300 40.37000
C  31.65300 61.69100 40.50500
C  31.50600 63.21500 41.04900
C  29.90200 63.27200 41.25800
C  29.39600 61.87000 40.84900
C  32.34500 63.58600 42.33400
C  29.12200 64.42700 40.41300
C  28.27000 65.43800 41.27500
N  28.12300 59.28400 40.12700
C  27.34000 60.38500 40.50600
C  25.95500 60.10800 40.35600
C  25.93000 58.76000 39.81900
C  27.23300 58.29900 39.66900
C  24.81200 61.05100 40.60800
C  25.07900 57.66500 39.39500
O  23.86100 57.64800 39.38800
C  25.99300 56.49700 38.94500
C  25.75500 55.43700 39.86300
O  26.21300 55.35100 40.97200
O  24.99000 54.59600 39.17800
C  24.26300 53.43800 39.86700
H  32.83700 55.52800 38.63400
H  33.79700 61.71500 40.20200
H  27.25900 62.32800 41.23400
H  28.20100 54.28700 38.27600
H  30.92800 54.28800 37.59200
H  31.01100 54.47300 40.44600
H  31.14000 52.98800 39.64900
H  29.48400 53.64900 39.94700
H  29.60400 55.11500 35.96600
H  28.48200 56.43600 36.29000
H  26.82100 54.33700 36.61600
H  28.05500 53.71200 35.38900
H  35.68100 57.11200 37.91500
H  34.87400 55.83900 38.49400
H  36.07500 56.77800 39.60600
H  35.55600 61.33200 41.39800
H  35.78000 61.86600 39.86800
H  37.18300 61.11700 40.73400
H  31.80400 63.99300 40.34500
H  29.57800 63.37500 42.29300
H  33.29500 63.05800 42.41900
H  31.75400 63.35600 43.22100
H  32.62000 64.64100 42.32400
H  28.36300 63.95400 39.79000
H  29.72000 64.97800 39.68700
H  27.20300 65.23200 41.18500
H  28.41600 66.44200 40.87700
H  28.64400 65.30100 42.28900
H  25.07400 61.98600 40.11400
H  24.73900 61.27900 41.67100
H  23.90500 60.57800 40.23100
H  25.83600 56.25000 37.89500
H  24.76400 53.31900 40.82700
H  24.47500 52.56600 39.24800
H  23.17900 53.53500 39.93000
Mg -5.80000 25.05300 26.23500
C  -4.07600 26.72500 28.76800
C  -7.37600 23.21900 28.74100
C  -7.23900 23.21300 23.79000
C  -3.87700 26.74700 23.90900
N  -5.73100 25.00800 28.44600
C  -4.93800 25.77800 29.26000
C  -5.34600 25.46800 30.73200
C  -6.12100 24.10600 30.69500
C  -6.43000 24.09100 29.20400
C  -5.22600 22.88100 31.18500
C  -6.24400 26.53900 31.41700
C  -6.19300 26.61300 32.98700
H  -5.75000 25.36700 33.77900
N  -7.19300 23.62700 26.25300
C  -7.76800 23.00100 27.35300
C  -8.77700 22.05000 26.97100
C  -8.73200 21.99100 25.48200
C  -7.64900 22.94400 25.09300
C  -9.61100 21.18800 27.94300
C  -9.56900 21.08100 24.56300
O  -9.50000 21.06400 23.35500
C  -10.62900 20.09500 25.13700
N  -5.41400 24.76700 24.18800
C  -6.16600 24.00800 23.38900
C  -5.63600 24.09200 21.94300
C  -4.89400 25.45000 21.91900
C  -4.69600 25.72200 23.43500
C  -4.81700 22.86600 21.40400
C  -5.60800 26.64500 21.15800
C  -4.69600 27.51800 20.30500
N  -4.36000 26.51400 26.26800
C  -3.64600 27.15900 25.25700
C  -2.79900 28.16300 25.78500
C  -2.95000 28.05000 27.15200
C  -3.87300 27.00500 27.38200
C  -2.00300 29.24900 25.06000
C  -2.62100 28.61100 28.43300
O  -1.97100 29.63700 28.67900
C  -3.24000 27.74400 29.52800
C  -2.16700 27.32500 30.51400
O  -0.98500 27.17900 30.29500
O  -2.72700 27.37800 31.78600
C  -1.78700 27.17200 32.86700
H  -7.76400 22.58300 29.54000
H  -7.61900 22.49800 23.05700
H  -3.42700 27.35700 23.12400
H  -4.48500 25.34800 31.39000
H  -7.03100 24.30000 31.26400
H  -4.27800 23.27000 31.55500
H  -4.96400 22.18200 30.39100
H  -5.67700 22.28800 31.98100
H  -7.17400 26.34300 30.88400
H  -5.92500 27.49400 31.00000
H  -7.17100 26.96100 33.32000
H  -5.47600 27.42000 33.13500
H  -10.64700 21.24800 27.60900
H  -9.59000 21.59300 28.95500
H  -9.29400 20.14500 27.95100
H  -11.08400 19.50200 24.34300
H  -11.35100 20.72900 25.65200
H  -10.20300 19.34700 25.80600
H  -6.54000 24.16100 21.33700
H  -3.86200 25.34900 21.58300
H  -5.59600 22.14900 21.14800
H  -4.13600 22.36000 22.08800
H  -4.24400 23.11600 20.51100
H  -6.08000 27.35100 21.84100
H  -6.37200 26.22300 20.50500
H  -5.18600 27.51200 19.33200
H  -3.70900 27.07700 20.16700
H  -4.53700 28.47600 20.80000
H  -1.96300 29.08500 23.98400
H  -0.99600 29.37600 25.45700
H  -2.56000 30.18600 25.03100
H  -3.78600 28.45400 30.14900
H  -0.90100 27.79700 32.75800
H  -1.53000 26.12200 33.00500
H  -2.18300 27.44900 33.84400

