158

Mg 17.10200 -2.20200 27.25200
C  16.11500 -0.50200 30.20000
C  18.69500 -4.41500 29.33200
C  17.94200 -3.76000 24.47300
C  15.53000 0.39500 25.45100
N  17.23500 -2.54300 29.51500
C  16.85700 -1.64600 30.48100
C  17.39600 -2.10000 31.91700
C  18.27200 -3.29500 31.58300
C  18.08200 -3.42900 30.03600
C  19.71100 -3.39500 32.14300
C  16.20900 -2.38200 32.89200
C  16.25900 -1.75300 34.33400
H  17.53200 -0.91100 34.69200
N  18.13800 -3.95500 26.97400
C  18.68600 -4.72600 27.96400
C  19.22200 -5.90400 27.28600
C  19.07200 -5.75200 25.88300
C  18.38500 -4.42700 25.69900
C  19.83900 -7.11200 28.01100
C  19.39400 -6.63500 24.66900
O  18.98700 -6.40900 23.56700
C  19.94200 -8.00600 24.94000
N  16.81000 -1.75800 25.32500
C  17.25700 -2.51600 24.31800
C  17.12500 -1.80500 22.94200
C  16.05200 -0.76700 23.31600
C  16.21500 -0.65400 24.81600
C  18.44900 -1.35700 22.25000
C  14.60800 -0.97900 22.84400
C  13.58700 -1.67700 23.76700
N  16.04900 -0.34600 27.69500
C  15.42300 0.48100 26.83500
C  14.72900 1.52800 27.60500
C  14.95400 1.18000 28.92200
C  15.80800 0.00300 28.90700
C  14.03900 2.74200 27.02100
C  14.72300 1.53000 30.29000
O  14.07600 2.49100 30.66000
C  15.50300 0.48300 31.16100
C  16.59900 1.20800 31.91300
O  17.78800 1.38800 31.55500
O  16.00900 1.82000 32.90500
C  16.75000 2.97900 33.44400
H  19.31400 -5.07600 29.94200
H  18.23700 -4.11000 23.48200
H  15.03800 1.21700 24.92800
H  17.98000 -1.23100 32.22000
H  17.78500 -4.13300 32.08000
H  20.43000 -3.56100 31.34000
H  19.73800 -4.23100 32.84100
H  20.11700 -2.51400 32.64100
H  16.24700 -3.44800 33.11200
H  15.29000 -2.40500 32.30700
H  16.30500 -2.57200 35.05100
H  15.37200 -1.12500 34.40900
H  20.82100 -7.39100 27.62900
H  19.01600 -7.82400 27.95200
H  19.91600 -6.87200 29.07100
H  21.03100 -8.04000 24.96300
H  19.59100 -8.63700 24.12400
H  19.62500 -8.56300 25.82200
H  16.67600 -2.67100 22.45500
H  16.35400 0.17100 22.85000
H  18.88900 -2.05400 21.53700
H  19.28400 -1.15700 22.92200
H  18.31100 -0.43000 21.69400
H  14.62500 -1.40000 21.83800
H  14.24500 0.04000 22.70900
H  14.09900 -2.23100 24.55300
H  12.93100 -2.38500 23.26000
H  12.99700 -0.88200 24.22500
H  13.95900 3.51200 27.78900
H  13.08100 2.44000 26.60000
H  14.62300 3.10000 26.17300
H  14.82900 -0.06900 31.81600
H  17.24000 3.51900 32.63400
H  17.56200 2.77600 34.14200
H  16.08200 3.57300 34.06900
Mg 35.59600 49.01400 25.43100
C  35.73400 47.21200 28.37600
C  34.38800 51.66600 27.25300
C  35.22600 50.63800 22.55800
C  36.60200 46.11500 23.67400
N  35.16600 49.36700 27.60300
C  35.33200 48.50100 28.65400
C  35.11700 49.19400 30.00000
C  34.58500 50.62400 29.56300
C  34.87800 50.61400 28.07400
C  33.15600 51.02800 29.93200
C  36.26600 49.22200 31.05500
C  35.93700 48.76700 32.52300
H  35.43000 49.76600 33.44500
N  34.86000 50.94900 24.93600
C  34.38500 51.87000 25.86500
C  33.91500 53.04000 25.10100
C  34.10200 52.71400 23.72000
C  34.78300 51.39100 23.67700
C  33.36300 54.26100 25.85000
C  33.67600 53.55000 22.52300
O  33.92000 53.20000 21.32000
C  33.03000 54.85800 22.67400
N  35.81100 48.40600 23.41100
C  35.77600 49.33100 22.41800
C  36.32100 48.77500 21.09400
C  36.76900 47.33700 21.50900
C  36.41300 47.28000 22.95200
C  35.33100 48.62000 19.90700
C  38.27500 47.05400 21.27600
C  38.57800 45.79900 20.46100
N  36.10700 47.06300 25.83900
C  36.40200 45.97600 25.04100
C  36.65600 44.81000 25.83500
C  36.37100 45.22400 27.11000
C  36.04300 46.64000 27.12900
C  37.09300 43.40600 25.49100
C  36.31400 44.78900 28.46000
O  36.55600 43.72900 29.00200
C  36.09500 46.09500 29.29700
C  34.76800 45.82300 30.12100
O  33.63600 45.94300 29.68500
O  35.14300 45.42900 31.44400
C  34.04300 44.98800 32.24700
H  33.95600 52.46400 27.86000
H  35.31600 51.21800 21.63700
H  36.96300 45.19900 23.20100
H  34.23700 48.73500 30.44900
H  35.21600 51.44200 29.91300
H  32.54200 50.25700 30.39900
H  32.52600 51.19800 29.06000
H  33.15900 51.90000 30.58600
H  36.76900 50.18900 31.05600
H  36.91300 48.51600 30.53400
H  36.82500 48.44800 33.07000
H  35.20000 47.96800 32.44000
H  33.60700 55.17900 25.31700
H  33.84100 54.38500 26.82200
H  32.29600 54.18000 26.05600
H  33.65900 55.57200 23.20600
H  32.15300 54.69800 23.30100
H  32.76800 55.25700 21.69400
H  37.20800 49.34500 20.81900
H  36.23800 46.55100 20.97300
H  35.79300 49.17900 19.09400
H  34.41100 49.19000 20.03800
H  35.04400 47.61600 19.59200
H  38.75300 46.98400 22.25200
H  38.76300 47.93200 20.85200
H  39.25600 45.12500 20.98400
H  39.06400 46.00700 19.50800
H  37.71900 45.12800 20.44800
H  37.85600 43.49700 24.71800
H  36.25800 42.81900 25.10800
H  37.60700 43.06800 26.39100
H  36.86600 46.23100 30.05500
H  33.71900 43.94900 32.19200
H  33.19400 45.67200 32.21400
H  34.46700 45.05100 33.24900

