158

Mg 2.60000 -0.95100 44.58500
C  5.82600 -0.60500 43.38300
C  1.50700 1.51300 42.42500
C  -0.52800 -1.88000 45.22100
C  3.76300 -3.82800 46.21600
N  3.62000 0.38000 43.07200
C  4.92300 0.30000 42.67100
C  5.21800 1.53700 41.80800
C  3.85000 2.31700 41.79800
C  2.91400 1.38600 42.46100
C  3.86100 3.75400 42.24100
C  5.87800 1.17900 40.39900
C  6.91300 2.16800 39.89900
H  6.48600 2.94100 38.62100
N  0.72900 -0.14800 44.05300
C  0.41500 0.87800 43.16000
C  -1.04100 1.06600 42.99600
C  -1.63200 0.15200 43.92400
C  -0.47000 -0.67400 44.50600
C  -1.54700 2.25400 42.13200
C  -3.02500 0.07200 44.22000
O  -3.81000 0.94600 43.87700
C  -3.64000 -1.05500 45.01500
N  1.72400 -2.64000 45.59800
C  0.36500 -2.76800 45.72600
C  0.05200 -4.20000 46.12300
C  1.41800 -4.80200 46.54400
C  2.40600 -3.72100 46.05600
C  -0.96700 -4.12000 47.27800
C  1.70200 -6.25400 46.06700
C  2.47800 -7.23100 46.94400
N  4.46200 -1.90600 44.93500
C  4.78800 -3.04000 45.66700
C  6.28500 -3.19900 45.71000
C  6.67200 -2.23900 44.81200
C  5.54100 -1.55800 44.34300
C  7.12100 -4.11200 46.47000
C  7.84300 -1.75500 44.13000
O  9.03200 -2.12300 44.14300
C  7.36200 -0.59600 43.19000
C  8.00400 0.65200 43.68900
O  7.50400 1.37900 44.52700
O  9.20600 0.88000 43.03200
C  9.76700 2.23500 43.31100
H  1.12900 2.34700 41.82900
H  -1.55200 -2.15900 45.47800
H  4.03800 -4.76000 46.71500
H  5.96600 2.20100 42.24000
H  3.64500 2.25300 40.72900
H  3.84500 4.45300 41.40400
H  4.82100 3.88600 42.74100
H  3.11800 3.98700 43.00300
H  5.12300 1.14700 39.61300
H  6.44300 0.25000 40.46300
H  7.80200 1.54100 39.83500
H  7.08600 2.98300 40.60200
H  -2.48700 1.98300 41.65300
H  -0.88600 2.41300 41.28000
H  -1.71700 3.13700 42.74800
H  -4.72400 -0.96200 44.95900
H  -3.37800 -1.06400 46.07300
H  -3.41000 -2.03400 44.59400
H  -0.33500 -4.72900 45.25200
H  1.45600 -4.81000 47.63400
H  -1.20300 -3.07000 47.45200
H  -0.64100 -4.55600 48.22200
H  -1.84700 -4.73400 47.08800
H  2.24000 -6.19600 45.12100
H  0.72700 -6.63300 45.75800
H  1.83900 -8.06500 47.23300
H  2.91400 -6.80600 47.84900
H  3.18000 -7.79000 46.32600
H  8.09200 -3.64500 46.63800
H  7.21400 -5.06000 45.94100
H  6.66600 -4.29000 47.44400
H  7.63300 -0.64300 42.13600
H  8.97400 2.98200 43.30800
H  10.54900 2.51700 42.60500
H  10.18900 2.24400 44.31600
Mg 30.14300 57.94800 41.52000
C  27.28900 56.25600 40.30200
C  32.03800 55.37900 40.22800
C  32.90000 59.91000 41.89100
C  28.00400 60.57000 42.17100
N  29.65100 56.02800 40.38600
C  28.45400 55.56700 40.03200
C  28.61700 54.22400 39.26100
C  30.04200 53.85700 39.70500
C  30.62200 55.18200 40.13900
C  30.00900 52.69200 40.76600
C  28.42900 54.53500 37.74500
C  27.07300 53.95900 37.15300
H  26.39400 54.60400 35.84500
N  32.10300 57.69200 41.19000
C  32.68300 56.55200 40.62400
C  34.08300 56.72000 40.41600
C  34.41600 58.05800 40.84300
C  33.11800 58.62600 41.32400
C  35.01700 55.60200 39.98500
C  35.76900 58.68600 40.81000
O  36.72500 57.99800 40.46300
C  35.97900 60.04900 41.20300
N  30.40400 59.98700 41.74800
C  31.66100 60.55400 42.00500
C  31.48700 62.10700 42.35200
C  29.96400 62.16600 42.65000
C  29.38400 60.78900 42.11900
C  32.36900 62.68000 43.46800
C  29.19000 63.37200 42.00300
C  28.32000 64.06300 42.99600
N  27.99600 58.34600 41.50900
C  27.33900 59.47900 41.69900
C  25.88800 59.26500 41.53900
C  25.83200 58.00000 40.98300
C  27.13300 57.51700 40.98500
C  24.80700 60.20100 41.87700
C  24.89500 56.96200 40.46800
O  23.68100 56.83700 40.37600
C  25.87400 55.88800 39.95000
C  25.44400 54.60000 40.64300
O  25.84300 54.12000 41.66400
O  24.43500 54.03800 39.90400
C  23.78700 52.81700 40.46200
H  32.62400 54.49900 39.95400
H  33.67500 60.52500 42.35300
H  27.34000 61.42600 42.30700
H  27.84000 53.51200 39.54100
H  30.60000 53.55700 38.81800
H  29.14300 52.03400 40.69900
H  30.27600 53.08700 41.74700
H  30.88600 52.07600 40.56900
H  29.27100 54.35200 37.07700
H  28.20300 55.59400 37.62100
H  26.32700 53.95600 37.94900
H  27.22900 52.92600 36.84200
H  35.69600 55.44500 40.82300
H  35.48000 55.98500 39.07500
H  34.70400 54.63500 39.59100
H  35.67700 60.13600 42.24700
H  35.31900 60.66700 40.59500
H  37.02100 60.35600 41.11200
H  31.82600 62.71700 41.51400
H  29.80300 62.10400 43.72700
H  33.15800 63.38000 43.19000
H  32.81100 61.83200 43.99000
H  31.76600 63.23100 44.19000
H  28.65100 62.98800 41.13700
H  29.91200 64.12800 41.69200
H  28.49900 65.13900 43.00300
H  28.55500 63.92000 44.05100
H  27.27100 63.91400 42.74100
H  24.70900 60.75100 40.94100
H  25.10300 60.98700 42.57100
H  23.81300 59.83700 42.13900
H  25.79800 55.80300 38.86600
H  22.73500 52.90000 40.18900
H  23.88500 52.75300 41.54500
H  24.13400 51.89100 40.00300

