158

Mg -11.10100 16.27900 42.24200
C  -7.79700 17.29600 42.28200
C  -11.89500 19.77700 41.47800
C  -14.32600 15.48400 41.50400
C  -10.27500 12.93500 42.39100
N  -9.96000 18.25900 41.78300
C  -8.62900 18.38700 41.98600
C  -8.22200 19.90200 41.81500
C  -9.57800 20.59700 42.10200
C  -10.50900 19.51100 41.75000
C  -9.85100 21.16900 43.57300
C  -7.70900 20.05400 40.32900
C  -6.20000 20.43500 40.10200
H  -5.36800 19.44800 39.26500
N  -12.88000 17.38400 41.47800
C  -12.93600 18.77400 41.32000
C  -14.20500 19.03600 40.73400
C  -14.97300 17.82500 40.65500
C  -14.10300 16.85200 41.24900
C  -14.53600 20.36000 40.27000
C  -16.37800 17.63800 40.03300
O  -16.97500 18.56700 39.52500
C  -17.03800 16.26000 40.00500
N  -12.03700 14.52800 41.74000
C  -13.40100 14.51100 41.81000
C  -13.89100 13.15700 42.43000
C  -12.63500 12.26200 42.10500
C  -11.55200 13.30800 42.06700
C  -14.36700 13.21600 43.86600
C  -12.73000 11.59400 40.76300
C  -12.48100 10.06500 40.88300
N  -9.45200 15.23100 42.53700
C  -9.21500 13.89100 42.46400
C  -7.77400 13.64300 42.56100
C  -7.19600 15.01500 42.66600
C  -8.28300 15.91900 42.45200
C  -7.06300 12.37100 42.58400
C  -5.91700 15.74700 42.71100
O  -4.79000 15.30000 42.90300
C  -6.27700 17.27700 42.61900
C  -5.98800 17.98900 43.95100
O  -6.30200 17.51600 45.02500
O  -5.32600 19.14000 43.70300
C  -5.37600 20.19600 44.73300
H  -12.22500 20.81400 41.38500
H  -15.32400 15.04400 41.46500
H  -9.90700 11.91900 42.54700
H  -7.37000 20.11200 42.46200
H  -9.70000 21.40600 41.38200
H  -8.91400 20.86200 44.03600
H  -10.63300 20.67700 44.15200
H  -9.97100 22.24300 43.42800
H  -8.36300 20.78300 39.85100
H  -7.85300 19.12300 39.78100
H  -5.73900 20.61900 41.07200
H  -6.11200 21.40000 39.60300
H  -14.85800 21.03400 41.06400
H  -15.22000 20.43900 39.42600
H  -13.62200 20.76400 39.83400
H  -18.02800 16.21700 39.55200
H  -17.29700 15.99400 41.03000
H  -16.39300 15.52300 39.52600
H  -14.72600 12.79600 41.83000
H  -12.39800 11.41600 42.75100
H  -15.43300 12.99100 43.86000
H  -14.40400 14.18000 44.37300
H  -13.76800 12.54600 44.48300
H  -12.07300 11.91000 39.95300
H  -13.72800 11.68400 40.33600
H  -13.21400 9.49800 40.30900
H  -12.45100 9.56200 41.84900
H  -11.55600 9.97100 40.31500
H  -7.74600 11.59700 42.23200
H  -6.81000 12.35900 43.64400
H  -6.15300 12.36200 41.98500
H  -5.67700 17.69600 41.81100
H  -4.41700 20.71400 44.70000
H  -5.50600 19.82000 45.74700
H  -6.23600 20.84900 44.58600
Mg -5.59100 24.80200 25.29100
C  -3.61900 26.12900 27.85800
C  -6.55400 22.22500 27.40900
C  -6.77200 23.18000 22.57700
C  -3.90000 27.01100 22.99900
N  -4.98000 24.22900 27.41000
C  -4.38500 25.01800 28.32300
C  -4.64300 24.60100 29.72300
C  -5.41000 23.23800 29.50100
C  -5.73700 23.24300 28.00000
C  -4.59900 22.03300 29.98600
C  -5.41700 25.70300 30.51700
C  -5.22100 25.82700 32.02100
H  -4.57400 24.73300 32.89600
N  -6.67800 23.07600 24.99500
C  -6.94200 22.10800 26.06500
C  -7.99700 21.25500 25.46600
C  -8.14800 21.56100 24.06500
C  -7.10500 22.57600 23.84700
C  -8.76900 20.27100 26.24900
C  -9.08700 20.85300 22.98200
O  -8.82500 20.98600 21.78200
C  -10.30100 19.97200 23.35800
N  -5.33800 25.04400 23.10400
C  -5.93900 24.23700 22.18800
C  -5.74600 24.63800 20.65800
C  -4.79300 25.87900 20.83100
C  -4.70200 25.99200 22.42400
C  -5.25600 23.47100 19.72300
C  -5.16100 27.08800 19.97600
C  -6.03500 28.17800 20.51000
N  -4.11300 26.31100 25.42000
C  -3.54000 27.09100 24.45400
C  -2.61700 28.00800 25.06000
C  -2.66700 27.67200 26.44600
C  -3.49100 26.61400 26.55100
C  -1.82300 29.02800 24.40500
C  -2.14400 28.03000 27.63900
O  -1.31400 28.89100 27.92700
C  -2.81600 27.05600 28.66700
C  -1.76700 26.24500 29.28800
O  -0.98000 25.55300 28.69100
O  -1.82100 26.19700 30.66800
C  -0.61100 25.63800 31.35800
H  -7.01900 21.55200 28.13100
H  -7.26300 22.63200 21.77000
H  -3.35000 27.68300 22.33600
H  -3.62100 24.54000 30.09700
H  -6.35100 23.32000 30.04400
H  -4.12600 21.70700 29.06000
H  -5.15600 21.22000 30.45100
H  -3.87800 22.36400 30.73400
H  -6.50100 25.66800 30.41500
H  -5.08800 26.63800 30.06400
H  -6.20100 26.03500 32.45000
H  -4.68000 26.77000 32.10400
H  -9.84700 20.40700 26.15500
H  -8.51400 20.15600 27.30200
H  -8.59400 19.25400 25.89800
H  -11.05300 20.69100 23.68000
H  -10.10500 19.08600 23.96200
H  -10.79000 19.58800 22.46300
H  -6.71800 24.99400 20.31700
H  -3.80400 25.56500 20.49800
H  -6.07100 22.95000 19.22000
H  -4.94300 22.63300 20.34700
H  -4.58200 23.73100 18.90800
H  -5.59500 26.59200 19.10800
H  -4.20000 27.57900 19.82100
H  -5.59300 29.14200 20.25800
H  -6.27200 28.18100 21.57400
H  -6.94300 28.25000 19.91200
H  -2.36700 29.85500 23.95000
H  -1.16100 28.51100 23.71000
H  -1.15200 29.38200 25.18800
H  -3.27500 27.52400 29.53800
H  -0.88500 24.66800 31.77400
H  -0.45100 26.44400 32.07400
H  0.32800 25.56200 30.80900

