158

Mg 9.15600 4.38000 28.06600
C  10.50300 2.83600 30.77800
C  7.39200 6.42900 30.05400
C  7.80800 5.84200 25.30200
C  10.76800 2.02600 26.02500
N  8.87400 4.46700 30.10600
C  9.61100 3.86500 31.05600
C  9.34000 4.34900 32.44900
C  8.29000 5.43300 32.16700
C  8.16000 5.43600 30.69100
C  6.95800 5.21200 32.95300
C  10.68700 4.80600 33.15400
C  10.47800 5.86600 34.24100
H  11.19500 5.66100 35.59300
N  7.76400 5.85600 27.73300
C  7.17400 6.59600 28.66200
C  6.21900 7.56200 28.04800
C  6.41300 7.50400 26.66900
C  7.30700 6.32400 26.46100
C  5.31400 8.42400 28.78800
C  5.90500 8.34100 25.55000
O  6.06500 7.96800 24.39900
C  5.30300 9.68400 25.87300
N  9.18000 3.96100 26.02200
C  8.61700 4.75700 25.08500
C  8.92200 4.27100 23.65500
C  9.78700 2.97500 23.88300
C  9.96200 2.98900 25.43300
C  7.69200 4.00900 22.69600
C  11.21000 2.98700 23.16900
C  11.32500 1.98400 21.97900
N  10.43600 2.74900 28.29100
C  10.92900 1.82200 27.40600
C  11.77000 0.85600 28.12800
C  11.70200 1.29100 29.47500
C  10.85200 2.38200 29.49100
C  12.37600 -0.39800 27.52600
C  12.10200 1.04400 30.83000
O  12.83200 0.15200 31.17400
C  11.36000 2.03200 31.73100
C  10.62400 1.36600 32.87000
O  9.40300 1.15700 32.85700
O  11.51300 1.33100 33.92200
C  11.13400 0.81700 35.19600
H  6.75900 7.05500 30.68700
H  7.49100 6.33800 24.38300
H  11.34400 1.34100 25.40000
H  8.83900 3.55400 33.00200
H  8.75100 6.41200 32.29800
H  6.79700 6.17000 33.44700
H  6.87300 4.37200 33.64100
H  6.10300 5.10400 32.28500
H  11.38700 5.21200 32.42400
H  11.11600 3.88800 33.55700
H  9.43900 5.87400 34.57100
H  10.76300 6.86800 33.91900
H  5.73300 9.41000 28.99000
H  5.11400 7.91700 29.73200
H  4.34000 8.51700 28.30700
H  6.10700 10.15300 26.44100
H  4.40300 9.52500 26.46700
H  5.14200 10.28000 24.97500
H  9.48200 5.09400 23.21000
H  9.22100 2.07300 23.65400
H  6.81900 3.95600 23.34700
H  7.83700 3.12200 22.07900
H  7.74800 4.85100 22.00700
H  12.09500 2.70900 23.74200
H  11.47400 3.88200 22.60500
H  10.43800 1.45700 21.62700
H  12.00400 1.20800 22.33100
H  11.77300 2.43700 21.09400
H  13.46400 -0.33200 27.49800
H  12.00700 -0.57100 26.51600
H  11.98200 -1.27500 28.04000
H  12.21800 2.61700 32.06300
H  10.77200 1.58500 35.88000
H  11.96700 0.28100 35.65000
H  10.34300 0.06900 35.13500
Mg 35.40100 2.44100 30.31900
C  32.74000 3.17400 32.46800
C  37.62800 2.53600 32.90900
C  37.95500 1.97500 28.10300
C  33.19200 2.70600 27.64800
N  35.19900 2.75600 32.39500
C  33.96800 2.98700 33.10500
C  34.24900 3.10700 34.63700
C  35.77400 3.19300 34.68400
C  36.26600 2.74100 33.24200
C  36.37000 4.55800 35.20800
C  33.70300 1.92500 35.50200
C  33.16400 2.19000 36.91800
H  33.91600 3.23100 37.82500
N  37.49100 2.10300 30.53000
C  38.17900 2.20300 31.70500
C  39.52500 1.73400 31.42100
C  39.65400 1.40200 30.09200
C  38.37400 1.85800 29.48800
C  40.64100 1.58100 32.42900
C  40.74200 0.76000 29.29600
O  40.63400 0.61200 28.05700
C  41.97800 0.23100 29.86100
N  35.59200 2.59200 28.16400
C  36.72400 2.32600 27.54300
C  36.55300 2.28200 26.00500
C  34.96300 2.42600 25.87000
C  34.54400 2.61000 27.30700
C  37.40500 3.44000 25.34200
C  34.22900 1.19000 25.31600
C  32.92800 1.32200 24.44300
N  33.37800 2.78400 30.06400
C  32.58300 2.82600 28.85500
C  31.20300 3.05000 29.24200
C  31.21400 3.35400 30.62500
C  32.56500 3.12100 31.09500
C  30.16200 3.23600 28.28200
C  30.43600 3.78000 31.77400
O  29.27900 4.20700 31.89700
C  31.42700 3.62100 32.98500
C  31.63700 4.94300 33.64200
O  32.00400 6.03100 33.14200
O  31.48900 4.78000 34.95000
C  31.61300 5.94900 35.91100
H  38.21100 2.58800 33.83100
H  38.73900 1.74000 27.38000
H  32.51000 2.78300 26.79800
H  33.83600 4.01500 35.07700
H  36.28600 2.37500 35.19100
H  35.75000 5.15800 35.87400
H  36.50300 5.20200 34.33800
H  37.33400 4.34500 35.67000
H  34.48100 1.16200 35.51800
H  32.83100 1.54900 34.96600
H  33.35300 1.21700 37.37200
H  32.08400 2.33200 36.92300
H  41.55600 1.81200 31.88300
H  40.63300 0.53800 32.74500
H  40.68100 2.23600 33.30000
H  42.50500 -0.40400 29.14900
H  41.70700 -0.29500 30.77700
H  42.60800 1.09100 30.08600
H  36.90500 1.38700 25.49200
H  34.70100 3.24300 25.19700
H  36.82100 3.92400 24.55900
H  38.32400 3.09200 24.86900
H  37.67200 4.19600 26.08100
H  33.89800 0.61000 26.17700
H  34.91200 0.57400 24.73100
H  32.68500 2.33000 24.10700
H  32.05800 0.95000 24.98500
H  33.16300 0.72600 23.56200
H  30.44500 3.53500 27.27300
H  29.41200 3.93700 28.64900
H  29.69200 2.26300 28.14300
H  30.89200 3.03000 33.72800
H  30.93100 5.90500 36.76000
H  31.36500 6.88600 35.41200
H  32.64100 5.99700 36.27000

