158

Mg 1.19600 -0.62600 44.56200
C  4.67100 0.30200 43.75000
C  0.29200 2.35200 42.72100
C  -1.72600 -1.86600 44.08200
C  2.55200 -3.67900 45.49800
N  2.37400 1.07100 43.30500
C  3.74600 1.15100 43.15600
C  4.12500 2.36200 42.22300
C  2.81600 3.21200 42.24000
C  1.73300 2.13800 42.72400
C  2.74700 4.54800 43.02800
C  4.53200 1.85300 40.81600
C  5.98100 2.28400 40.30700
H  6.08800 2.79300 38.85800
N  -0.46700 0.20300 43.69100
C  -0.73200 1.38800 43.08000
C  -2.10300 1.56400 42.76100
C  -2.78400 0.38000 43.09300
C  -1.65000 -0.51800 43.67200
C  -2.64700 2.82700 42.08500
C  -4.29700 0.00100 42.88000
O  -5.06800 0.84900 42.42900
C  -4.89600 -1.21900 43.47300
N  0.58300 -2.44800 44.85600
C  -0.72100 -2.75100 44.59000
C  -1.05900 -4.15400 45.06200
C  0.21600 -4.66900 45.69100
C  1.19000 -3.61600 45.28500
C  -2.41300 -4.20700 45.90700
C  0.42200 -6.12600 45.32500
C  0.78700 -7.11400 46.45400
N  3.23000 -1.54300 44.80300
C  3.58400 -2.77800 45.19900
C  4.97500 -2.90300 45.35300
C  5.53000 -1.70400 44.81100
C  4.39900 -0.97000 44.41500
C  5.69300 -4.11600 45.84400
C  6.68400 -0.91900 44.44800
O  7.90800 -1.06000 44.50600
C  6.15600 0.34300 43.71300
C  6.70900 1.58200 44.34400
O  6.43700 2.05300 45.42500
O  7.52800 2.19700 43.39800
C  8.03000 3.53000 43.76800
H  -0.06700 3.25100 42.21600
H  -2.66800 -2.40200 43.94800
H  2.89700 -4.61700 45.93900
H  4.93000 2.90300 42.72200
H  2.47400 3.40600 41.22400
H  3.75000 4.89200 43.27900
H  2.36200 4.33300 44.02500
H  2.15700 5.24700 42.43500
H  3.86600 2.19200 40.02300
H  4.57700 0.76400 40.84000
H  6.66100 1.44000 40.42700
H  6.35400 2.96800 41.06900
H  -2.49700 2.70300 41.01300
H  -2.23400 3.73200 42.53000
H  -3.72400 2.86200 42.25100
H  -5.97200 -1.12500 43.62000
H  -4.43600 -1.42600 44.44000
H  -4.70100 -2.03400 42.77500
H  -1.24300 -4.72400 44.15200
H  0.27300 -4.62500 46.77900
H  -2.26400 -4.56500 46.92500
H  -3.13200 -4.86000 45.41200
H  -2.86600 -3.21500 45.93100
H  1.28400 -6.15600 44.65800
H  -0.33500 -6.58200 44.68600
H  1.56300 -7.82300 46.16500
H  -0.08000 -7.75800 46.60300
H  0.96900 -6.59300 47.39400
H  6.58700 -3.78900 46.37600
H  5.76700 -4.66200 44.90400
H  5.07900 -4.73000 46.50200
H  6.62200 0.41100 42.73000
H  8.91000 3.82500 43.19500
H  8.32200 3.45600 44.81500
H  7.33100 4.36600 43.77100
Mg 40.99300 9.11200 29.91200
C  42.88200 10.16200 32.65800
C  38.62600 7.91100 32.19900
C  39.39300 8.12300 27.32700
C  43.78400 9.90800 27.85300
N  40.84400 9.04100 32.21500
C  41.63300 9.75800 33.09300
C  41.00500 9.71200 34.53900
C  39.86300 8.69200 34.40100
C  39.79000 8.50500 32.85300
C  40.06900 7.30700 35.06800
C  40.68400 11.12500 35.07800
C  39.99200 11.17300 36.41600
H  40.61600 12.19500 37.36600
N  39.21700 8.28200 29.78200
C  38.31000 7.90400 30.74800
C  37.06900 7.50000 30.11800
C  37.35500 7.53400 28.73700
C  38.73600 7.95300 28.54600
C  35.84200 7.06000 30.83600
C  36.39100 7.06800 27.54300
O  36.69600 7.21100 26.34500
C  35.05600 6.50600 27.80100
N  41.57500 8.97000 27.88900
C  40.70400 8.46800 27.04700
C  41.14500 8.65300 25.59600
C  42.37000 9.53800 25.73900
C  42.64500 9.46200 27.25100
C  41.57100 7.38600 24.87600
C  42.20300 10.95700 25.14200
C  40.91400 11.80100 25.37300
N  43.03900 9.73600 30.15100
C  43.99000 10.05900 29.22700
C  45.06700 10.60200 29.92000
C  44.67200 10.70000 31.24400
C  43.45500 10.09000 31.33900
C  46.29500 11.16200 29.40400
C  45.05000 11.18800 32.50100
O  46.09000 11.74000 32.78000
C  43.91700 10.85800 33.46800
C  44.51100 9.98300 34.54200
O  45.38100 9.13000 34.48200
O  43.88800 10.52300 35.68300
C  44.26500 9.84100 36.93400
H  37.89500 7.45200 32.86800
H  38.78700 7.97100 26.43200
H  44.49900 10.29900 27.12500
H  41.91000 9.28900 34.97500
H  38.92700 9.05700 34.82400
H  39.72600 6.41300 34.54800
H  39.80000 7.32200 36.12500
H  41.14900 7.19800 35.17200
H  40.13100 11.48800 34.21200
H  41.61300 11.67600 35.22500
H  39.91200 10.14400 36.76800
H  38.98900 11.55000 36.21500
H  36.01100 7.41900 31.85100
H  35.82900 5.97200 30.90400
H  34.91100 7.44400 30.42000
H  34.70800 5.92800 26.94500
H  34.31200 7.28200 27.97800
H  35.17700 5.78700 28.61200
H  40.41600 9.17100 24.97400
H  43.25600 9.11900 25.26400
H  40.71200 6.75900 24.63500
H  42.14600 6.80500 25.59600
H  42.09700 7.66900 23.96400
H  42.43500 10.93200 24.07700
H  42.95600 11.55500 25.65700
H  41.12500 12.76800 25.83000
H  40.28000 11.37300 26.15000
H  40.30900 11.96100 24.48100
H  47.06000 11.07500 30.17600
H  46.06500 12.21500 29.24100
H  46.58200 10.74700 28.43900
H  43.50300 11.77800 33.88100
H  44.06400 8.79600 36.69600
H  43.64700 10.15700 37.77400
H  45.32100 9.92700 37.18900

