158

Mg 46.09100 4.54500 47.86200
C  43.78800 7.34900 47.46600
C  43.37100 2.51600 46.81600
C  48.26000 2.01800 47.38000
C  48.60900 6.82400 48.17700
N  43.83700 4.91300 47.27300
C  43.19900 6.09500 47.16200
C  41.70800 5.94300 46.77900
C  41.59700 4.35100 46.61400
C  42.97100 3.86700 46.94500
C  40.49000 3.74200 47.47500
C  41.26700 6.79600 45.52700
C  42.25500 6.92200 44.31200
H  41.55800 6.94100 42.94800
N  45.83300 2.52600 47.38000
C  44.62200 1.90600 47.03100
C  44.94600 0.51600 46.75100
C  46.32600 0.31200 47.02200
C  46.88300 1.61700 47.34000
C  43.94700 -0.51400 46.21400
C  47.01200 -0.98000 46.75000
O  46.42900 -1.98000 46.43800
C  48.51400 -1.01300 46.70900
N  48.11300 4.35900 47.80300
C  48.83000 3.22500 47.76000
C  50.32200 3.50600 47.80400
C  50.38300 5.03500 47.99000
C  48.95300 5.48200 48.01600
C  50.95900 2.60700 48.96200
C  51.03900 5.86500 46.83500
C  52.09800 6.82100 47.37300
N  46.22100 6.62600 47.82300
C  47.32500 7.40000 48.01000
C  46.96400 8.80500 48.00800
C  45.58900 8.86000 47.81600
C  45.20000 7.47400 47.71800
C  47.90900 9.86200 48.28300
C  44.49700 9.73500 47.74500
O  44.38400 10.98000 47.76000
C  43.27500 8.76400 47.48900
C  42.26300 9.05800 48.47900
O  42.08200 8.22900 49.41100
O  41.54800 10.19000 48.25900
C  40.52100 10.46500 49.26000
H  42.59300 1.85400 46.43200
H  49.02500 1.26100 47.19400
H  49.40300 7.57300 48.17800
H  41.12300 6.43200 47.55800
H  41.49600 4.12100 45.55400
H  39.70200 4.46000 47.70100
H  40.89000 3.22700 48.34800
H  40.06100 2.96900 46.83700
H  40.84300 7.75600 45.82100
H  40.32900 6.38500 45.15300
H  42.94700 6.08200 44.36700
H  42.88100 7.81100 44.22400
H  44.16700 -0.72600 45.16800
H  42.90700 -0.18900 46.23200
H  44.03000 -1.44600 46.77300
H  48.92400 -0.79900 47.69600
H  48.95400 -0.27900 46.03500
H  48.97700 -1.94700 46.39000
H  50.79800 3.26100 46.85400
H  50.79800 5.36500 48.94200
H  51.58200 3.30800 49.51800
H  51.76700 2.05500 48.48200
H  50.34300 1.94700 49.57400
H  50.35500 6.40900 46.18400
H  51.65600 5.12000 46.33200
H  53.09900 6.66500 46.97100
H  52.23400 6.90100 48.45100
H  51.92300 7.84600 47.04600
H  48.36800 9.74700 49.26500
H  47.50700 10.86000 48.11100
H  48.72500 9.94100 47.56600
H  42.85200 9.05000 46.52600
H  40.47500 11.53500 49.45800
H  40.65600 10.02800 50.25000
H  39.54800 10.11900 48.91100
Mg 5.32000 55.12700 41.36600
C  4.77200 51.57900 40.79600
C  8.40800 54.85500 40.00300
C  5.48000 58.40900 41.54100
C  1.82200 55.13500 42.54900
N  6.40200 53.36000 40.44600
C  5.95500 52.10100 40.25400
C  7.11800 51.21200 39.64800
C  8.38100 52.17900 39.78000
C  7.71700 53.56200 40.07000
C  9.42500 51.83900 40.88300
C  6.84800 50.77100 38.18400
C  6.13900 51.77900 37.26500
H  6.88500 52.09700 35.92200
N  6.68400 56.42100 40.69800
C  7.93300 56.12400 40.29800
C  8.66500 57.37200 40.10200
C  7.88700 58.49700 40.56800
C  6.59100 57.81100 40.99700
C  10.13900 57.35700 39.60200
C  8.32700 59.88600 40.55200
O  9.44700 60.16500 40.16100
C  7.46900 61.01200 41.10700
N  3.71900 56.55400 41.80200
C  4.16200 57.86400 41.88100
C  3.05300 58.74700 42.20300
C  1.95400 57.72700 42.77300
C  2.44800 56.42300 42.25700
C  3.38800 59.79500 43.27200
C  0.63100 58.12900 42.09700
C  -0.53200 58.01600 42.98000
N  3.65900 53.65800 41.78500
C  2.35900 53.84700 42.29500
C  1.71500 52.58300 42.34100
C  2.62700 51.64900 41.87400
C  3.75000 52.37900 41.46400
C  0.35300 52.30200 42.86500
C  2.88500 50.25700 41.70800
O  2.22000 49.25100 41.92700
C  4.29100 50.13900 40.99500
C  4.13800 49.25200 39.77800
O  3.83500 49.60900 38.65100
O  4.46100 47.96600 40.09300
C  4.49300 47.00400 38.97300
H  9.49600 54.83500 39.91500
H  5.71100 59.45300 41.76000
H  0.77300 55.13800 42.85100
H  7.29600 50.29300 40.20700
H  8.91800 52.25800 38.83500
H  9.28700 50.80400 41.19800
H  9.35700 52.46300 41.77400
H  10.41500 51.95800 40.44200
H  6.53600 49.74000 38.35100
H  7.84300 50.65700 37.75200
H  6.00000 52.68500 37.85500
H  5.12100 51.40200 37.16600
H  10.35500 58.05800 38.79500
H  10.37200 56.48500 38.99000
H  10.84800 57.52100 40.41300
H  6.55700 61.17800 40.53400
H  7.88500 61.98300 40.83600
H  7.36300 60.94200 42.19000
H  2.77200 59.28100 41.29500
H  2.02700 57.69200 43.86000
H  4.24600 59.57600 43.90800
H  2.56500 59.93000 43.97500
H  3.47100 60.76000 42.77400
H  0.57100 57.64100 41.12400
H  0.68400 59.15500 41.73400
H  -0.36500 57.41200 43.87100
H  -1.32900 57.61200 42.35500
H  -0.73700 58.99800 43.40600
H  0.18300 53.04200 43.64600
H  0.23800 51.28100 43.22900
H  -0.25800 52.54800 41.99700
H  4.85300 49.59700 41.75500
H  5.33500 46.31400 39.01600
H  4.76000 47.35900 37.97800
H  3.66800 46.29300 38.99900

