158

Mg 46.95500 43.96800 42.23200
C  43.47800 43.15200 41.71300
C  47.72600 40.53300 41.49500
C  50.17800 44.81800 41.94000
C  45.99100 47.35100 42.20500
N  45.76100 42.07300 41.74300
C  44.37400 42.06900 41.54300
C  43.90800 40.69900 41.11000
C  45.27900 39.83000 41.18900
C  46.33700 40.84300 41.55500
C  45.14300 38.56600 42.11600
C  43.26100 40.61300 39.68500
C  43.91500 41.37700 38.62100
H  43.98300 40.74300 37.31400
N  48.68500 42.82900 41.79500
C  48.75900 41.47000 41.66200
C  50.17400 41.04000 41.64900
C  50.92200 42.26300 41.74800
C  49.89500 43.40600 41.83000
C  50.60600 39.64800 41.48200
C  52.47100 42.31900 41.64300
O  53.07800 41.29300 41.47500
C  53.24500 43.56700 41.47200
N  47.89400 45.78700 42.26600
C  49.32500 45.89100 42.08700
C  49.75100 47.37800 41.99000
C  48.39100 48.21000 42.11900
C  47.34800 47.06500 42.14200
C  50.71800 47.79200 43.14800
C  48.05400 49.26100 40.98500
C  47.77100 50.62800 41.59700
N  45.12000 45.05900 42.16200
C  44.92800 46.41200 42.21600
C  43.47100 46.65700 42.18500
C  42.92200 45.41100 42.02300
C  43.89600 44.43300 42.02700
C  42.79700 48.03100 42.08800
C  41.66000 44.85600 41.84700
O  40.52800 45.32700 41.92300
C  42.00800 43.27500 41.64800
C  41.40400 42.49800 42.79600
O  40.60000 41.55700 42.73000
O  41.86900 42.99700 44.01600
C  41.33900 42.27800 45.13500
H  47.87600 39.45200 41.48400
H  51.25900 44.91700 41.81900
H  45.64600 48.37500 42.36200
H  43.09700 40.49500 41.80800
H  45.67500 39.50200 40.22800
H  45.71700 38.77600 43.01900
H  45.42400 37.68900 41.53300
H  44.10900 38.28100 42.31000
H  42.25000 41.01400 39.61100
H  43.19200 39.54100 39.49800
H  44.90100 41.64000 39.00400
H  43.35600 42.30200 38.48200
H  50.46600 39.27800 40.46700
H  49.91700 39.10300 42.12700
H  51.57900 39.47300 41.94000
H  52.89700 43.97400 40.52300
H  54.31400 43.51600 41.26700
H  53.14000 44.14600 42.39000
H  50.23700 47.44500 41.01700
H  48.25300 48.53900 43.14900
H  50.66600 47.11000 43.99700
H  50.43500 48.74900 43.58800
H  51.78000 47.77300 42.90600
H  47.22300 49.00800 40.32600
H  48.94400 49.20100 40.35800
H  48.29500 51.30500 40.92300
H  48.16800 50.67000 42.61100
H  46.72700 50.92200 41.70800
H  43.46200 48.86000 42.33200
H  41.96600 48.21100 42.76900
H  42.35500 48.18400 41.10300
H  41.68300 42.97500 40.65200
H  41.65200 42.86500 45.99900
H  41.87100 41.32800 45.17300
H  40.27500 42.15000 44.93700
Mg -10.65700 39.08800 42.23600
C  -10.04500 35.90500 41.35800
C  -7.76800 40.09200 40.66600
C  -11.82300 42.31500 42.46900
C  -13.99100 38.06100 43.31900
N  -9.22100 38.12700 40.89600
C  -9.17900 36.79300 40.67400
C  -7.86500 36.44000 39.99600
C  -7.01100 37.74300 40.05500
C  -8.05900 38.71200 40.53600
C  -5.86400 37.69200 41.10300
C  -8.12000 35.90700 38.51200
C  -7.16000 34.74800 38.06300
H  -6.16600 35.22700 37.07300
N  -9.93900 40.95900 41.71500
C  -8.72800 41.19800 41.14800
C  -8.46900 42.60900 40.96000
C  -9.61900 43.29400 41.38500
C  -10.53300 42.20400 41.84700
C  -7.13700 43.20000 40.43200
C  -9.76300 44.87100 41.46000
O  -8.81500 45.60100 41.15500
C  -11.12100 45.47900 41.88800
N  -12.62300 40.06200 42.88000
C  -12.73400 41.37900 42.96300
C  -14.12600 41.78600 43.34900
C  -14.78800 40.47800 43.75400
C  -13.75600 39.44700 43.30500
C  -14.34200 43.02200 44.29800
C  -16.17400 40.18300 43.13200
C  -17.21100 39.70100 44.13200
N  -11.74900 37.40100 42.49800
C  -13.01900 37.09300 42.98000
C  -13.23100 35.69300 42.98500
C  -12.13300 35.14600 42.44100
C  -11.26600 36.22600 42.07600
C  -14.47800 34.90300 43.39000
C  -11.41100 33.92600 42.07800
O  -11.75100 32.75700 42.23900
C  -10.05400 34.35900 41.26500
C  -8.86200 33.86800 42.07200
O  -8.71000 33.87200 43.29200
O  -8.05300 33.24300 41.17400
C  -6.79500 32.66500 41.62100
H  -6.77400 40.39100 40.32600
H  -12.21600 43.33100 42.55000
H  -14.98200 37.72500 43.63300
H  -7.57700 35.52700 40.51800
H  -6.68900 38.04000 39.05700
H  -5.69500 36.64900 41.37000
H  -6.06200 38.28100 41.99800
H  -4.90700 38.09100 40.76600
H  -8.16900 36.70000 37.76600
H  -9.14000 35.52700 38.45000
H  -7.63500 33.82600 37.72900
H  -6.64100 34.32200 38.92200
H  -6.64600 43.94700 41.05500
H  -7.45700 43.73500 39.53800
H  -6.40700 42.47700 40.06900
H  -11.25100 45.21700 42.93800
H  -11.87900 45.01500 41.25800
H  -11.12000 46.53600 41.62000
H  -14.54800 42.16700 42.42000
H  -14.90200 40.52900 44.83700
H  -14.78400 42.76300 45.26000
H  -14.88000 43.77600 43.72200
H  -13.36300 43.41100 44.57600
H  -16.16400 39.41600 42.35800
H  -16.52600 41.09800 42.65600
H  -17.90300 39.01400 43.64600
H  -17.75300 40.60300 44.41600
H  -16.75400 39.19500 44.98300
H  -15.07100 34.82900 42.47800
H  -15.13300 35.37600 44.12200
H  -14.20100 33.96800 43.87700
H  -10.05700 34.05900 40.21700
H  -5.96100 33.35400 41.75200
H  -6.40100 31.98300 40.86700
H  -6.96700 32.08100 42.52500

