158

Mg 7.43200 52.96300 40.98500
C  6.98400 49.51300 40.30800
C  10.58300 52.70400 39.40200
C  7.52500 56.26600 40.89100
C  4.00300 52.98900 41.89700
N  8.46300 51.36500 39.90300
C  8.17100 50.00800 39.72400
C  9.31000 49.23700 39.00900
C  10.50400 50.14300 39.38400
C  9.82500 51.59500 39.55800
C  11.35600 49.83700 40.64300
C  8.97200 49.23300 37.44500
C  9.10600 47.88500 36.73600
H  8.19200 47.68300 35.47200
N  8.91100 54.34800 40.34500
C  10.15000 53.97300 39.83200
C  10.80700 55.23900 39.58300
C  10.01300 56.33300 39.97500
C  8.77400 55.72400 40.49600
C  12.13500 55.22500 38.91100
C  10.39300 57.80700 39.80600
O  11.50600 58.15800 39.45500
C  9.42600 58.87800 40.14700
N  5.88100 54.37100 41.02100
C  6.25900 55.65200 41.19000
C  5.06400 56.57000 41.73900
C  4.03900 55.48400 42.13100
C  4.65200 54.23100 41.64800
C  5.59300 57.53400 42.84900
C  2.59700 55.72200 41.58500
C  1.35700 55.36000 42.47800
N  5.85500 51.53200 41.14800
C  4.53400 51.71300 41.59800
C  3.93700 50.46900 41.73700
C  4.85400 49.48500 41.20500
C  5.99300 50.21400 40.85500
C  2.55200 50.35700 42.14700
C  5.11400 48.02500 40.93300
O  4.38100 47.00700 41.14800
C  6.59800 47.97800 40.41800
C  6.62400 47.17500 39.19900
O  6.36900 47.49400 38.02600
O  6.97900 45.90500 39.51700
C  6.76000 44.81400 38.56700
H  11.56100 52.66100 38.91800
H  7.43900 57.32300 41.15000
H  2.97500 52.97200 42.26400
H  9.33300 48.24000 39.45100
H  11.22500 50.11900 38.56700
H  10.83200 49.20400 41.35800
H  11.55200 50.70000 41.28000
H  12.29500 49.38200 40.32800
H  9.61000 49.87200 36.83500
H  7.96000 49.61900 37.32200
H  8.99600 47.05000 37.42900
H  10.11000 47.98000 36.32300
H  11.94700 55.23700 37.83800
H  12.71700 54.33900 39.16500
H  12.81100 56.03200 39.19600
H  9.06400 58.69900 41.15900
H  8.55000 58.78600 39.50600
H  9.88800 59.82800 39.87700
H  4.79600 57.06600 40.80700
H  3.97600 55.45800 43.21900
H  6.66200 57.48700 43.05500
H  4.98700 57.41400 43.74700
H  5.41400 58.56600 42.54700
H  2.47800 55.32000 40.57900
H  2.52500 56.80700 41.50200
H  0.89800 56.27600 42.85000
H  1.57800 54.68700 43.30600
H  0.54200 54.91700 41.90700
H  1.89900 50.85700 41.43200
H  2.38400 50.96300 43.03700
H  2.26700 49.30500 42.17200
H  7.24800 47.43700 41.10600
H  7.22600 45.16400 37.64600
H  5.72800 44.46700 38.51300
H  7.40900 43.99800 38.88600
Mg -2.24600 33.84800 25.71100
C  -3.91500 32.55500 28.62800
C  -0.56800 36.03700 27.61800
C  -0.98800 34.98700 22.82800
C  -4.42200 31.67200 23.80700
N  -2.19200 34.18800 27.93700
C  -2.96900 33.54200 28.93500
C  -2.63200 34.16100 30.30500
C  -1.57100 35.30800 29.96300
C  -1.45500 35.19100 28.37600
C  -2.05900 36.72400 30.45000
C  -1.98700 33.08400 31.26600
C  -2.64000 32.65700 32.61000
H  -1.87400 32.76900 33.92900
N  -0.92600 35.19300 25.32900
C  -0.30600 36.00600 26.25700
C  0.63900 36.86500 25.50400
C  0.54900 36.52000 24.13500
C  -0.49400 35.53500 24.03600
C  1.54200 37.90500 26.25600
C  1.40600 37.03500 22.93900
O  1.14100 36.84200 21.74700
C  2.58100 37.99400 23.38800
N  -2.80900 33.50700 23.56500
C  -2.05400 34.04400 22.62400
C  -2.55900 33.57600 21.15700
C  -3.58600 32.35900 21.51500
C  -3.68900 32.57300 23.03100
C  -3.01100 34.71200 20.25200
C  -3.09300 30.93800 21.13900
C  -1.82000 30.49200 21.81800
N  -3.77200 32.38700 26.04400
C  -4.55000 31.55800 25.21500
C  -5.35600 30.62300 25.99500
C  -5.16100 31.03500 27.34900
C  -4.17700 32.09300 27.33100
C  -6.24800 29.61600 25.50400
C  -5.62400 30.86500 28.67400
O  -6.46900 30.06500 29.13800
C  -4.78300 31.75300 29.65100
C  -5.54400 32.55500 30.52900
O  -6.03500 33.60300 30.05700
O  -5.60100 32.10500 31.80900
C  -6.22700 33.07500 32.73400
H  -0.14600 36.74300 28.33600
H  -0.60600 35.29700 21.85300
H  -4.98100 30.96600 23.19000
H  -3.53800 34.54500 30.77400
H  -0.54600 35.14200 30.29500
H  -2.06300 37.49100 29.67600
H  -1.37400 37.04600 31.23500
H  -3.04100 36.79200 30.91800
H  -1.00400 33.52400 31.43000
H  -1.64700 32.22300 30.69000
H  -3.00000 31.63100 32.54600
H  -3.50200 33.30700 32.76500
H  1.39100 38.91200 25.86800
H  2.55800 37.51200 26.21500
H  1.47700 37.81900 27.34100
H  2.16400 38.87400 23.87800
H  3.08100 38.47900 22.55000
H  3.26800 37.34800 23.93500
H  -1.72400 33.07800 20.66500
H  -4.54600 32.56000 21.03900
H  -3.02000 35.64400 20.81600
H  -3.94300 34.40000 19.78000
H  -2.24700 34.87400 19.49100
H  -2.96300 30.84300 20.06100
H  -3.90700 30.22800 21.28600
H  -1.10600 30.29600 21.01800
H  -1.97500 29.58300 22.39800
H  -1.43900 31.28800 22.45800
H  -7.05400 30.06600 24.92400
H  -6.76600 29.06600 26.29000
H  -5.77900 28.96200 24.76800
H  -4.18500 31.05800 30.24000
H  -7.23300 33.42500 32.50100
H  -5.53900 33.91800 32.67100
H  -6.37100 32.77800 33.77300

