158

Mg 49.42900 45.12300 42.13700
C  45.93900 44.84600 41.81500
C  49.73300 41.81700 41.79800
C  52.72400 45.56700 41.92500
C  48.96900 48.63100 41.78400
N  48.01900 43.56000 41.75900
C  46.63900 43.59500 41.75400
C  45.97200 42.26500 41.75500
C  47.16200 41.28800 41.96800
C  48.43600 42.26000 41.82300
C  47.20400 40.58100 43.39800
C  45.19000 42.07000 40.41700
C  45.67700 42.76000 39.13700
H  45.11100 42.23200 37.76300
N  51.07900 43.86000 41.98600
C  50.96100 42.52100 41.73200
C  52.24400 41.94000 41.55400
C  53.17200 42.99900 41.81300
C  52.39200 44.25200 41.92000
C  52.44200 40.55200 41.31200
C  54.67300 42.83800 41.96900
O  55.17600 41.76900 41.72800
C  55.62200 43.90800 42.36600
N  50.69600 46.83600 41.86000
C  51.99000 46.80300 41.94200
C  52.62500 48.16200 42.11500
C  51.46700 49.11200 42.10500
C  50.31200 48.16900 41.90800
C  53.49900 48.41200 43.38700
C  51.53200 50.30900 41.10100
C  51.01500 50.05600 39.65000
N  47.81600 46.53400 41.85400
C  47.79600 47.87700 41.79100
C  46.37700 48.35200 41.81400
C  45.64400 47.15800 41.80300
C  46.50100 46.11200 41.83900
C  45.86500 49.85000 41.72200
C  44.25300 46.66300 41.80800
O  43.17800 47.25300 41.71200
C  44.40600 45.13700 41.80900
C  43.65100 44.54100 43.03200
O  43.08500 43.43100 43.05500
O  43.85500 45.38200 44.16200
C  43.56600 44.66400 45.43600
H  49.80000 40.73000 41.87300
H  53.79400 45.74600 41.80000
H  48.70700 49.68900 41.85400
H  45.32100 42.24700 42.63000
H  47.18400 40.50800 41.20700
H  46.30100 40.76200 43.98100
H  48.13500 40.78900 43.92500
H  47.30600 39.51000 43.22000
H  44.13700 42.34800 40.47000
H  45.01000 40.99700 40.35600
H  46.76100 42.66400 39.08900
H  45.53200 43.83600 39.24000
H  52.25000 40.10800 42.28900
H  53.45700 40.21300 41.10400
H  51.84200 40.06000 40.54600
H  55.28700 44.34500 43.30700
H  55.53200 44.53900 41.48200
H  56.59700 43.42200 42.37300
H  53.15400 48.41400 41.19600
H  51.29500 49.48100 43.11600
H  52.82100 48.44200 44.23900
H  54.17100 49.26800 43.31100
H  54.15600 47.58100 43.64300
H  52.57800 50.60900 41.04900
H  51.03700 51.15700 41.57400
H  50.15800 50.70600 39.47800
H  50.72000 49.04200 39.37800
H  51.78800 50.36100 38.94600
H  46.16600 50.31000 42.66300
H  44.78000 49.76100 41.78100
H  46.13200 50.31100 40.77100
H  43.85200 44.58700 41.04900
H  44.06900 43.69700 45.42400
H  42.49400 44.62400 45.62800
H  43.98300 45.12800 46.33100
Mg 1.16800 42.72600 25.68900
C  2.35700 42.75700 28.97500
C  -1.82400 41.43000 26.90300
C  0.10100 42.65200 22.49900
C  4.38900 43.42200 24.54700
N  0.36800 42.14400 27.70700
C  1.04800 42.33500 28.90300
C  0.17000 42.07200 30.14200
C  -1.15300 41.55700 29.43500
C  -0.89400 41.72100 27.95100
C  -1.55400 40.12900 29.80000
C  -0.03300 43.38900 31.03400
C  0.58000 43.45800 32.44600
H  -0.36200 43.06600 33.60800
N  -0.53500 42.06000 24.85600
C  -1.68400 41.59500 25.47500
C  -2.72600 41.32400 24.53200
C  -2.17000 41.66800 23.22000
C  -0.78000 42.13600 23.48200
C  -4.08400 40.83700 25.02600
C  -3.00400 41.63900 21.89500
O  -2.52100 42.24600 20.89600
C  -4.28400 40.95600 21.71700
N  2.09900 43.08100 23.84500
C  1.36200 43.09100 22.65600
C  2.26900 43.40000 21.50600
C  3.60600 43.92500 22.13700
C  3.36200 43.47700 23.56500
C  2.40100 42.20100 20.53200
C  4.05400 45.35200 21.99700
C  3.96400 45.88300 20.52800
N  2.89400 43.10500 26.50100
C  4.18200 43.25100 25.89600
C  5.19100 43.39400 26.85700
C  4.52500 43.12800 28.03400
C  3.13700 43.08900 27.82300
C  6.61800 43.79500 26.57200
C  4.79000 43.00100 29.39300
O  5.82700 42.88200 29.96300
C  3.37900 42.90200 30.11100
C  3.43000 41.75700 31.05400
O  2.86900 40.65500 30.93800
O  4.18200 42.10000 32.16300
C  4.26800 41.09500 33.26000
H  -2.72800 40.93900 27.26800
H  -0.39400 42.55700 21.53000
H  5.37300 43.68200 24.15300
H  0.59600 41.34600 30.83400
H  -2.00100 42.20000 29.67400
H  -1.70800 39.47700 28.94000
H  -2.56800 40.21800 30.18800
H  -0.92900 39.63600 30.54500
H  -1.10300 43.57000 31.13400
H  0.24700 44.27300 30.46200
H  0.95900 44.46500 32.62500
H  1.43300 42.78700 32.34200
H  -4.25300 41.18100 26.04600
H  -4.20800 39.75600 25.09300
H  -4.89600 41.16100 24.37500
H  -4.17100 40.31800 20.84100
H  -5.09800 41.65800 21.53500
H  -4.47200 40.24500 22.52200
H  1.72900 44.22300 21.03700
H  4.42400 43.28100 21.81300
H  1.41900 41.82000 20.25200
H  2.91300 41.37700 21.02900
H  2.83600 42.51500 19.58300
H  5.12800 45.37900 22.18300
H  3.32500 45.98400 22.50400
H  3.27400 46.69800 20.30900
H  3.74600 45.08400 19.81900
H  4.97400 46.10800 20.18400
H  6.98300 43.27200 25.68800
H  7.31600 43.59200 27.38500
H  6.62500 44.87500 26.42700
H  3.28800 43.80100 30.72000
H  5.33500 41.06100 33.47700
H  3.85700 40.11500 33.01600
H  3.82500 41.44800 34.19200

