158

Mg 30.76400 58.07900 39.75600
C  28.42800 55.93200 38.71100
C  33.21000 55.78600 38.80600
C  33.02300 60.46800 40.13300
C  28.18700 60.42200 40.36400
N  30.80500 55.91600 38.98400
C  29.68600 55.31500 38.48300
C  30.08000 53.96600 37.77600
C  31.55800 53.81800 38.37900
C  31.90100 55.23200 38.71200
C  31.67900 52.78800 39.51300
C  29.99500 54.04300 36.17500
C  28.97800 53.08200 35.45900
H  28.06900 53.83200 34.45400
N  32.83300 58.15700 39.50000
C  33.71200 57.10600 39.10800
C  35.05600 57.58400 39.11900
C  35.05500 58.94000 39.67000
C  33.61400 59.25100 39.75600
C  36.24700 56.73300 38.68600
C  36.26600 59.83400 39.92100
O  37.39800 59.42600 39.68400
C  36.05700 61.22700 40.50100
N  30.68300 60.19000 40.20100
C  31.74400 60.98000 40.28300
C  31.38700 62.37400 40.81900
C  29.85500 62.35500 40.84400
C  29.48700 60.81400 40.44200
C  32.21700 62.67200 42.22500
C  29.20000 63.38200 39.89800
C  27.80000 63.95200 40.32600
N  28.75500 58.20600 39.65400
C  27.81800 59.20700 39.91600
C  26.52300 58.72100 39.60500
C  26.65700 57.46900 39.11500
C  28.07300 57.20000 39.12300
C  25.28400 59.53800 39.65300
C  25.96200 56.35900 38.38600
O  24.75800 56.20700 38.10400
C  27.09300 55.29800 38.20900
C  26.72900 54.06700 39.01100
O  27.15000 53.73600 40.14700
O  25.76100 53.31800 38.32000
C  25.17900 52.23400 39.05700
H  34.02500 55.06700 38.69100
H  33.59400 61.35800 40.40400
H  27.42700 61.15500 40.64300
H  29.35000 53.23900 38.13200
H  32.30600 53.54600 37.63400
H  32.44000 52.05700 39.24100
H  30.69800 52.33200 39.64100
H  32.04300 53.23900 40.43600
H  30.94000 53.72900 35.73200
H  29.91700 55.09500 35.90000
H  28.31600 52.53800 36.13300
H  29.62300 52.39300 34.91400
H  36.36400 57.01200 37.63800
H  35.95300 55.69100 38.80800
H  37.09500 56.89400 39.35100
H  36.98800 61.77100 40.66100
H  35.64600 61.19900 41.51000
H  35.43700 61.90500 39.91400
H  31.79700 63.12700 40.14600
H  29.69200 62.55100 41.90400
H  32.96400 63.44700 42.05200
H  32.73400 61.77600 42.56600
H  31.56100 63.03900 43.01500
H  29.13600 62.89900 38.92200
H  29.92100 64.13600 39.58500
H  27.37100 63.70800 41.29800
H  27.04700 63.74000 39.56800
H  27.91200 65.02400 40.16600
H  24.46600 58.86400 39.39800
H  25.36200 60.34500 38.92500
H  25.09400 60.02900 40.60700
H  27.11700 54.96500 37.17200
H  24.27400 52.65600 39.49600
H  25.77400 51.88000 39.89800
H  24.73000 51.46700 38.42600
Mg 6.53100 53.71000 41.28700
C  3.87300 51.57300 40.85600
C  8.69400 51.12600 40.21900
C  8.89600 55.98800 40.98200
C  4.28800 56.26300 42.11500
N  6.28500 51.72600 40.31800
C  5.06000 51.03600 40.26300
C  5.27100 49.67500 39.63500
C  6.80400 49.41700 39.81900
C  7.32200 50.84100 40.14500
C  7.08100 48.34400 40.89200
C  4.94500 49.77700 38.12800
C  4.27500 48.50700 37.53800
H  4.88100 47.87100 36.21100
N  8.49800 53.62500 40.65400
C  9.18500 52.49000 40.27800
C  10.57000 52.90300 39.98000
C  10.58800 54.33500 40.08100
C  9.27800 54.73600 40.53800
C  11.61200 51.96500 39.35000
C  11.74900 55.28100 39.54700
O  12.80500 54.77000 39.19300
C  11.62900 56.72300 39.33400
N  6.58400 55.93300 41.30200
C  7.70700 56.57500 41.46100
C  7.58300 58.01100 41.98400
C  6.02900 58.11600 41.98700
C  5.58100 56.70800 41.83500
C  8.25300 58.34700 43.43100
C  5.34200 59.01200 40.88200
C  5.24300 60.52800 41.22800
N  4.59800 53.95300 41.56300
C  3.72600 54.99000 41.97200
C  2.41200 54.55200 42.23000
C  2.44700 53.22000 41.79600
C  3.79200 52.91500 41.37100
C  1.32700 55.41100 42.89200
C  1.64000 52.05500 41.71400
O  0.50900 51.83000 42.18500
C  2.54800 50.93200 41.12800
C  1.93800 50.33800 39.92100
O  1.62400 50.95700 38.93200
O  1.69300 49.00700 40.10000
C  0.76400 48.45600 39.16900
H  9.43000 50.41000 39.84900
H  9.69800 56.69500 41.20800
H  3.67300 57.12300 42.38800
H  4.67900 48.86100 40.05400
H  7.20100 48.98600 38.90000
H  7.49500 48.84800 41.76600
H  7.93900 47.72000 40.64500
H  6.16300 47.80400 41.12400
H  5.84900 49.94600 37.54400
H  4.30900 50.63400 37.90600
H  3.30000 48.91300 37.26800
H  4.14200 47.70800 38.26700
H  12.18600 51.43000 40.10600
H  12.24000 52.49300 38.63300
H  11.07100 51.25600 38.72300
H  10.59300 56.93500 39.06900
H  12.23000 57.08200 38.49900
H  11.87100 57.21200 40.27800
H  8.11400 58.60400 41.24000
H  5.70000 58.42700 42.97800
H  9.13400 57.71200 43.53000
H  7.42000 58.05500 44.07000
H  8.52500 59.39800 43.53100
H  4.31400 58.65600 40.82600
H  5.83800 58.88600 39.92000
H  5.41300 60.71900 42.28800
H  4.32200 61.01300 40.90400
H  6.07500 61.02600 40.73000
H  1.54400 55.31800 43.95600
H  0.29300 55.18200 42.63100
H  1.48100 56.46200 42.65100
H  2.55700 50.08900 41.81900
H  0.52400 47.43100 39.45100
H  0.97500 48.62700 38.11400
H  -0.11700 49.08700 39.28300

