158

Mg 53.15400 24.19500 44.25200
C  50.66000 26.46500 43.44200
C  51.07400 21.59000 43.16400
C  55.78700 22.09400 43.96400
C  55.16300 26.73600 45.26200
N  51.13700 24.04400 43.35100
C  50.31300 25.12200 43.07400
C  48.94800 24.57900 42.48400
C  48.87500 23.12700 43.07700
C  50.37400 22.87800 43.17400
C  48.08100 23.01000 44.42800
C  48.95400 24.51400 40.90300
C  50.21200 24.93500 40.13000
H  50.10800 25.18200 38.61100
N  53.41400 22.08600 43.77400
C  52.39300 21.19800 43.37100
C  52.88700 19.88200 43.09600
C  54.34400 19.96300 43.37300
C  54.55000 21.43700 43.71500
C  52.00500 18.77800 42.65200
C  55.36800 18.78900 43.22000
O  54.86200 17.73500 42.84800
C  56.82200 18.85500 43.58800
N  55.21300 24.35800 44.59300
C  56.18600 23.37400 44.34900
C  57.58800 23.85500 44.83700
C  57.32300 25.33600 45.25100
C  55.77200 25.53500 45.12200
C  58.08800 22.95300 45.99200
C  58.08900 26.24000 44.32000
C  57.54100 26.31000 42.86300
N  53.01000 26.20200 44.30700
C  53.88100 27.17800 44.86800
C  53.31000 28.51900 44.85400
C  51.97700 28.26700 44.33600
C  51.86500 26.88800 44.05600
C  53.93600 29.91100 45.39300
C  50.71900 28.86500 43.87300
O  50.36300 29.99000 43.84900
C  49.85000 27.72200 43.38300
C  49.46200 28.01600 41.99700
O  50.09200 28.36400 41.08500
O  48.09100 27.90900 41.99800
C  47.46100 28.10900 40.61800
H  50.32300 20.88900 42.79400
H  56.61900 21.40700 43.79500
H  55.81700 27.60500 45.35700
H  48.11500 25.19700 42.81900
H  48.43100 22.46100 42.33700
H  48.66000 22.57100 45.23900
H  47.27000 22.36300 44.09400
H  47.62400 23.96800 44.67900
H  48.25800 25.24600 40.49200
H  48.57200 23.55400 40.55700
H  51.03000 24.21500 40.17200
H  50.50600 25.90400 40.53200
H  51.22600 19.22100 42.03200
H  51.42900 18.35100 43.47300
H  52.54100 18.03200 42.06500
H  56.96200 19.44200 44.49600
H  57.40500 19.32500 42.79700
H  57.04700 17.78800 43.60300
H  58.23500 23.64800 43.98500
H  57.80700 25.37200 46.22600
H  57.38700 22.13200 46.14200
H  58.01000 23.37100 46.99600
H  59.12400 22.64300 45.86000
H  59.16400 26.06500 44.29200
H  57.95900 27.22300 44.77100
H  56.91200 25.42700 42.75300
H  58.31500 26.18700 42.10500
H  56.96000 27.21600 42.68900
H  54.70100 30.10600 44.64100
H  54.44700 29.64600 46.31800
H  53.19100 30.70000 45.49900
H  49.03700 27.86500 44.09500
H  48.20700 28.26900 39.84000
H  46.81700 28.98800 40.63200
H  46.93200 27.22100 40.27200
Mg -5.97400 24.89100 26.09100
C  -4.17200 26.43100 28.60500
C  -7.41500 22.89400 28.54000
C  -7.07000 22.92300 23.53300
C  -4.21900 26.96100 23.68900
N  -5.76200 24.61900 28.25300
C  -5.03400 25.50700 29.09700
C  -5.40900 25.24900 30.55600
C  -6.12800 23.90400 30.51200
C  -6.41700 23.76300 29.00800
C  -5.26500 22.85700 31.11800
C  -6.22700 26.40800 31.15600
C  -5.43000 27.00000 32.38800
H  -5.00500 25.99600 33.45400
N  -7.22100 23.25100 26.07900
C  -7.79400 22.68300 27.17300
C  -8.75800 21.67900 26.67200
C  -8.61400 21.66700 25.26000
C  -7.59200 22.64200 24.88700
C  -9.70200 20.96500 27.56500
C  -9.32900 20.78200 24.30400
O  -9.21400 20.79100 23.06700
C  -10.27100 19.79300 24.70700
N  -5.77200 24.94700 23.91000
C  -6.27600 24.01100 23.07700
C  -5.82800 24.23000 21.61400
C  -5.25000 25.70600 21.70700
C  -5.06400 25.92900 23.20200
C  -4.81300 23.10900 21.16400
C  -6.15500 26.82400 21.08500
C  -5.48400 27.56300 19.90700
N  -4.52600 26.36900 26.10100
C  -3.97600 27.14800 25.09400
C  -2.96200 28.03100 25.59900
C  -3.03800 27.75900 27.03700
C  -3.94500 26.72900 27.24000
C  -2.26300 29.08200 24.81700
C  -2.50600 28.15100 28.25500
O  -1.68900 28.97500 28.42600
C  -3.15900 27.31300 29.32800
C  -2.13000 26.56900 30.05600
O  -1.65700 25.45500 29.74900
O  -1.84600 27.28700 31.21300
C  -1.05900 26.63700 32.30300
H  -7.77000 22.28200 29.37200
H  -7.30100 22.28400 22.67800
H  -3.65200 27.59700 23.00500
H  -4.46100 25.16700 31.08700
H  -7.03300 23.96300 31.11700
H  -5.71700 22.69700 32.09700
H  -4.20100 23.04300 31.26700
H  -5.44700 21.97500 30.50400
H  -7.26200 26.16800 31.39700
H  -6.46500 27.22500 30.47400
H  -6.06600 27.76600 32.83100
H  -4.53200 27.56700 32.14300
H  -9.43500 19.97200 27.92800
H  -10.69500 21.02200 27.11900
H  -9.80800 21.57300 28.46300
H  -10.33300 19.04800 23.91300
H  -11.25000 20.27100 24.73600
H  -9.85500 19.31300 25.59300
H  -6.70900 24.26000 20.97400
H  -4.23900 25.76100 21.30200
H  -3.84900 23.61300 21.09600
H  -5.03900 22.69600 20.18100
H  -4.72000 22.32100 21.91200
H  -6.38300 27.67600 21.72600
H  -7.09000 26.40100 20.71700
H  -6.28600 27.49900 19.17200
H  -4.62300 27.03100 19.50200
H  -5.41200 28.60500 20.22000
H  -2.93700 29.72700 24.25200
H  -1.72300 28.53500 24.04400
H  -1.52600 29.62100 25.41200
H  -3.61900 27.93200 30.09800
H  -1.55400 25.81600 32.82200
H  -0.79000 27.34400 33.08800
H  -0.08600 26.26700 31.98000

