158

Mg 46.52100 17.12300 28.86600
C  44.88600 16.87100 31.89400
C  48.99800 19.03900 30.50700
C  47.96600 17.64400 25.77600
C  44.06100 15.46200 27.35300
N  47.02900 17.73600 31.08700
C  46.12000 17.46800 32.09100
C  46.59200 18.09100 33.40200
C  47.82900 18.99400 32.97300
C  47.95700 18.59400 31.41400
C  47.69900 20.57500 33.07400
C  46.90500 17.07100 34.53600
C  46.33400 17.40900 35.95000
H  46.49000 18.85300 36.41700
N  48.22900 18.12200 28.22500
C  49.14400 18.77600 29.06700
C  50.14800 19.37600 28.17200
C  49.94500 18.94300 26.83900
C  48.69700 18.13400 26.91800
C  51.23600 20.21900 28.73700
C  50.79100 19.24600 25.61100
O  50.53400 18.83000 24.51400
C  52.05000 20.07200 25.76100
N  46.10300 16.50400 26.95900
C  46.77800 16.91900 25.82500
C  45.98200 16.62000 24.53400
C  44.99300 15.53400 25.04000
C  45.09400 15.77400 26.58100
C  45.28900 17.96700 24.13500
C  45.31000 14.10100 24.49800
C  44.94100 13.86800 23.00600
N  44.83100 16.24200 29.50600
C  43.83700 15.72600 28.70500
C  42.69800 15.42100 29.48200
C  43.09800 15.79500 30.73500
C  44.36300 16.33000 30.68100
C  41.35200 14.83200 29.01400
C  42.60200 15.91600 32.12900
O  41.52100 15.60500 32.60900
C  43.75000 16.62600 32.95500
C  43.19500 17.82900 33.63200
O  43.38200 19.00600 33.33900
O  42.45200 17.44200 34.72400
C  41.83200 18.59700 35.49100
H  49.74800 19.63000 31.03500
H  48.36100 17.80200 24.77100
H  43.25400 14.88900 26.89200
H  45.80300 18.79200 33.67400
H  48.74300 18.78300 33.52900
H  46.81500 20.84600 33.65000
H  47.59000 20.96500 32.06100
H  48.59900 20.96800 33.54800
H  47.96500 16.89600 34.72100
H  46.38900 16.16500 34.21600
H  46.90700 16.79700 36.64600
H  45.28100 17.14600 36.04300
H  50.84400 20.57200 29.69100
H  51.52800 21.07600 28.13100
H  52.16600 19.69900 28.96900
H  52.74600 19.78000 24.97400
H  52.39100 19.79200 26.75700
H  51.90100 21.14500 25.64600
H  46.69500 16.35200 23.75500
H  43.95900 15.74600 24.77000
H  45.94800 18.66500 23.61800
H  44.83000 18.41300 25.01700
H  44.42500 17.78500 23.49700
H  44.83600 13.36500 25.14700
H  46.37400 14.05400 24.73100
H  44.02600 14.42000 22.79100
H  44.73100 12.80200 22.92000
H  45.77800 14.11400 22.35200
H  41.35000 13.74200 29.03200
H  41.23800 15.22300 28.00300
H  40.55600 15.24400 29.63400
H  43.99600 15.88500 33.71600
H  41.92800 18.41200 36.56100
H  40.77500 18.83600 35.37800
H  42.21300 19.59800 35.28600
Mg -2.14500 33.84400 26.92200
C  -3.75600 32.05400 29.53900
C  -0.38600 35.51300 29.39000
C  -1.23700 35.90500 24.61300
C  -4.11100 32.01600 24.56000
N  -2.15200 33.81600 29.19800
C  -2.89400 33.03600 30.06500
C  -2.55200 33.31500 31.55000
C  -1.41900 34.44300 31.45700
C  -1.27500 34.63000 29.92600
C  -1.91700 35.79800 32.03900
C  -2.04800 31.97400 32.18500
C  -1.17100 31.94000 33.53400
H  -1.67900 31.07700 34.68500
N  -0.89100 35.45800 26.98300
C  -0.18000 35.93500 28.06700
C  0.77800 36.91200 27.53300
C  0.49300 37.07000 26.14500
C  -0.56900 36.16000 25.84000
C  1.70300 37.73100 28.41100
C  1.24800 37.82700 25.08300
O  1.04100 37.83800 23.90000
C  2.59000 38.45800 25.46800
N  -2.75700 33.98300 24.88500
C  -2.19400 35.01700 24.14000
C  -2.56100 34.87000 22.69400
C  -3.33400 33.47000 22.64600
C  -3.46200 33.11500 24.06900
C  -3.40000 36.06000 22.14900
C  -2.73200 32.38300 21.67500
C  -1.81900 31.27700 22.28400
N  -3.59200 32.27000 26.95800
C  -4.26800 31.64700 25.99400
C  -5.21900 30.68600 26.53800
C  -5.03600 30.80600 27.95000
C  -3.99600 31.74000 28.12400
C  -6.22100 29.80200 25.68200
C  -5.46500 30.33900 29.23700
O  -6.30200 29.57700 29.57800
C  -4.46900 31.08500 30.28000
C  -5.46100 31.65000 31.20900
O  -6.25200 32.55300 30.91000
O  -5.50000 30.99000 32.44000
C  -6.76500 31.16800 33.23200
H  0.29900 35.89600 30.14900
H  -0.78400 36.47200 23.79700
H  -4.69200 31.31700 23.95400
H  -3.46800 33.58500 32.07600
H  -0.58400 34.15300 32.09600
H  -2.55000 35.57700 32.89800
H  -2.52500 36.34200 31.31600
H  -1.12500 36.42200 32.45500
H  -1.48900 31.46400 31.40000
H  -2.96200 31.47900 32.51200
H  -0.99200 32.95700 33.88200
H  -0.17200 31.52500 33.40500
H  1.35700 38.76200 28.48600
H  2.69800 37.78700 27.96800
H  1.81200 37.31000 29.41000
H  2.90900 39.01600 24.58700
H  3.27000 37.61900 25.61400
H  2.72400 39.15100 26.29900
H  -1.69100 34.73900 22.05100
H  -4.34100 33.63400 22.26300
H  -3.47500 36.81900 22.92700
H  -4.41300 35.82700 21.82000
H  -3.00500 36.54600 21.25700
H  -2.13600 32.81300 20.86900
H  -3.62700 31.94100 21.23700
H  -1.39000 31.56000 23.24500
H  -1.11600 31.04400 21.48400
H  -2.44700 30.40800 22.48000
H  -6.30800 29.89900 24.59900
H  -7.25800 29.97400 25.96800
H  -6.19800 28.73600 25.91000
H  -3.92600 30.30400 30.81500
H  -6.80100 31.99600 33.94000
H  -6.89500 30.24200 33.79200
H  -7.62900 31.17300 32.56700

