158

Mg 1.14900 8.30700 26.58600
C  1.78000 10.19000 29.34400
C  1.29400 5.47700 28.49800
C  1.30200 6.58900 23.73900
C  1.47100 11.36400 24.67500
N  1.64400 7.92400 28.64600
C  1.78300 8.83000 29.63400
C  1.54800 8.09900 31.00800
C  1.56800 6.60500 30.67800
C  1.44700 6.65200 29.18600
C  2.85200 5.88500 31.17100
C  0.21300 8.51000 31.69500
C  0.30600 8.58900 33.20700
H  1.48500 7.93000 33.96800
N  1.28000 6.29000 26.14400
C  1.26900 5.32200 27.09900
C  1.38000 3.99700 26.43300
C  1.44400 4.29500 25.02500
C  1.39900 5.77700 24.89600
C  1.26300 2.62100 27.11100
C  1.44300 3.40000 23.86600
O  1.45800 3.77100 22.72200
C  1.49500 1.90000 24.08700
N  1.18400 8.86300 24.60700
C  1.31400 8.00600 23.58400
C  1.54000 8.65600 22.26500
C  1.05700 10.09100 22.51800
C  1.25000 10.15400 24.00100
C  3.01800 8.52400 21.78700
C  -0.39800 10.52400 21.98000
C  -0.61500 12.02500 21.68600
N  1.42000 10.42500 26.90500
C  1.60300 11.50300 26.05800
C  1.94500 12.65500 26.84000
C  2.08200 12.14500 28.10900
C  1.74300 10.80400 28.12800
C  2.04400 14.04000 26.31800
C  2.32100 12.57300 29.43600
O  2.68000 13.61100 29.90300
C  1.85400 11.36300 30.34100
C  2.81600 11.21100 31.40200
O  3.98400 10.94900 31.23300
O  2.16600 11.39900 32.56900
C  2.81800 11.50900 33.87100
H  1.11600 4.50300 28.95800
H  1.19200 6.04800 22.79700
H  1.51800 12.24800 24.03600
H  2.38100 8.24300 31.69700
H  0.74400 6.00800 31.06900
H  2.58200 5.29000 32.04400
H  3.61700 6.57900 31.51900
H  3.17700 5.25700 30.34200
H  -0.54900 7.87400 31.24400
H  0.01300 9.56500 31.50600
H  -0.58400 8.14100 33.64800
H  0.38500 9.65500 33.42000
H  2.14000 2.00500 26.91500
H  0.39700 2.09600 26.70900
H  1.10900 2.62400 28.19000
H  2.27700 1.50600 24.73700
H  1.51100 1.30100 23.17700
H  0.55400 1.69300 24.59700
H  0.90800 8.21700 21.49300
H  1.84200 10.78600 22.22000
H  3.47700 7.94000 22.58400
H  3.52800 9.45400 21.53900
H  2.94800 7.89300 20.90000
H  -1.21900 10.26000 22.64700
H  -0.54200 9.88300 21.11100
H  -1.20500 12.03300 20.76900
H  0.36000 12.50000 21.58000
H  -1.20600 12.49600 22.47200
H  1.62800 14.39700 25.37600
H  3.11100 14.25400 26.24600
H  1.69700 14.70100 27.11200
H  0.84600 11.60500 30.67700
H  3.86000 11.19100 33.83200
H  2.20200 11.00900 34.61800
H  2.85100 12.54800 34.19700
Mg 35.50900 48.36200 25.36200
C  35.84000 46.32600 28.18200
C  34.44700 51.05000 27.47700
C  34.53900 49.97900 22.78500
C  36.02000 45.44400 23.51100
N  35.25700 48.64300 27.59100
C  35.37300 47.66700 28.48700
C  35.02100 48.14000 29.93200
C  34.52400 49.60000 29.68200
C  34.80200 49.78100 28.16300
C  33.01800 49.81600 29.92700
C  36.16400 48.12400 30.98200
C  35.78400 47.78300 32.39300
H  35.52100 48.84700 33.44700
N  34.61500 50.31100 25.17800
C  34.28900 51.29100 26.07000
C  33.92500 52.51600 25.41600
C  33.94100 52.26400 24.03900
C  34.39900 50.85200 23.89100
C  33.47400 53.76500 26.15200
C  33.69800 53.21500 22.77700
O  33.94500 52.85500 21.61600
C  33.21200 54.60200 22.97700
N  35.26600 47.73700 23.43500
C  34.98100 48.63100 22.54500
C  34.80600 47.95000 21.10600
C  35.49200 46.62700 21.33400
C  35.63500 46.59000 22.85900
C  33.28900 47.91200 20.76700
C  36.86100 46.48500 20.51800
C  38.16700 47.21300 21.01600
N  36.09000 46.33100 25.70600
C  36.28100 45.25300 24.86100
C  36.63000 44.11100 25.55700
C  36.42300 44.44900 26.85600
C  36.13300 45.85000 26.88700
C  36.82800 42.73500 24.89000
C  36.48800 43.95500 28.26600
O  36.77600 42.86700 28.73700
C  36.13300 45.16100 29.13000
C  34.96700 44.80000 29.95200
O  33.84000 44.70800 29.57400
O  35.36900 44.57900 31.26400
C  34.27400 44.27900 32.13400
H  34.20900 51.85600 28.17400
H  34.34600 50.49500 21.84200
H  36.10200 44.59800 22.82700
H  34.29300 47.38200 30.22100
H  35.11400 50.34400 30.21700
H  32.77100 50.70600 30.50500
H  32.65700 48.89200 30.37900
H  32.55800 49.95300 28.94900
H  36.55500 49.14200 30.97800
H  36.99500 47.48500 30.68400
H  36.56800 47.15200 32.81100
H  34.82400 47.26700 32.41500
H  34.08900 54.61900 25.86900
H  33.59900 53.55400 27.21400
H  32.41300 54.00600 26.21500
H  33.04900 54.96400 21.96200
H  33.98500 55.15200 23.51400
H  32.27600 54.47300 23.52100
H  35.33700 48.57800 20.39000
H  34.92000 45.75700 21.01100
H  32.96900 46.96100 20.34100
H  33.02500 48.67600 20.03600
H  32.71800 48.07000 21.68100
H  36.56400 46.77100 19.50900
H  37.12000 45.42600 20.54000
H  38.86000 46.40900 21.26500
H  37.89900 47.89100 21.82600
H  38.57200 47.82300 20.20800
H  35.97800 42.08100 25.08300
H  37.65400 42.19900 25.35700
H  36.92100 42.89700 23.81600
H  37.00200 45.29500 29.77500
H  33.78900 43.31600 31.97600
H  33.58700 45.12500 32.09400
H  34.83100 44.37400 33.06600

