158

Mg 2.82000 -1.17800 45.12100
C  6.27600 -0.62800 44.54000
C  2.12900 1.54200 43.05000
C  -0.38000 -2.30700 45.03900
C  3.76800 -4.12200 46.90300
N  4.06100 0.32100 43.95200
C  5.46300 0.25000 43.80700
C  5.93400 1.36900 42.91600
C  4.59600 2.12300 42.63000
C  3.49100 1.28700 43.23400
C  4.50400 3.53100 43.24300
C  6.73400 0.72200 41.70900
C  7.96500 1.47700 41.08600
H  7.71000 2.23700 39.79500
N  1.11800 -0.40500 44.23600
C  1.01400 0.72200 43.43100
C  -0.39300 0.98900 43.23600
C  -1.16800 -0.01800 43.84200
C  -0.13800 -0.97600 44.43400
C  -0.94100 2.11100 42.42600
C  -2.68800 -0.13600 43.81000
O  -3.37000 0.70100 43.27500
C  -3.33900 -1.20700 44.60500
N  1.85400 -2.87000 45.79100
C  0.51000 -3.15300 45.66700
C  0.14300 -4.59600 46.20800
C  1.42800 -5.06900 46.96000
C  2.41600 -3.92000 46.50300
C  -1.21400 -4.57400 47.04700
C  1.82700 -6.57500 46.56000
C  1.28400 -7.66200 47.49600
N  4.61600 -2.16300 45.76600
C  4.85900 -3.26200 46.53400
C  6.23800 -3.47200 46.72300
C  6.83300 -2.38400 46.06200
C  5.83600 -1.72700 45.37600
C  6.98800 -4.60500 47.36100
C  8.11500 -1.71100 45.66900
O  9.24400 -1.96300 45.85500
C  7.74700 -0.62500 44.70900
C  8.26800 0.67600 45.28900
O  7.66000 1.34800 46.11500
O  9.40000 1.02900 44.59800
C  9.81500 2.39600 44.91600
H  1.89800 2.30700 42.30600
H  -1.35700 -2.76700 44.87700
H  3.94200 -5.03500 47.47600
H  6.55400 1.99500 43.55700
H  4.35700 2.18500 41.56900
H  5.34600 4.18000 43.00300
H  4.58400 3.26300 44.29600
H  3.53100 3.97400 43.03200
H  6.00100 0.59200 40.91200
H  7.07600 -0.30200 41.85700
H  8.73300 0.73000 40.88400
H  8.27300 2.21100 41.83000
H  -0.91700 1.80200 41.38100
H  -0.23500 2.93900 42.48900
H  -1.90400 2.55500 42.67600
H  -3.14100 -1.14300 45.67400
H  -3.01000 -2.20200 44.30400
H  -4.41500 -1.29400 44.45500
H  -0.06100 -5.27100 45.37700
H  1.21800 -4.87400 48.01100
H  -1.93900 -5.18200 46.50600
H  -1.53300 -3.53800 47.16000
H  -0.96000 -5.07200 47.98200
H  2.90200 -6.62500 46.38600
H  1.47400 -6.78100 45.55000
H  1.00600 -7.22000 48.45200
H  2.10700 -8.37700 47.48400
H  0.44800 -8.20800 47.06000
H  7.16700 -5.41700 46.65700
H  6.38400 -4.83400 48.23900
H  7.94300 -4.23200 47.73200
H  8.30300 -0.82000 43.79200
H  10.62000 2.53200 44.19400
H  10.21000 2.51000 45.92500
H  9.08400 3.17600 44.70500
Mg 0.79200 7.25400 26.90600
C  1.45400 9.14200 29.68600
C  1.19100 4.38300 28.69500
C  0.99100 5.57600 24.01300
C  1.23700 10.33500 25.06800
N  1.34500 6.87700 28.90400
C  1.29300 7.75900 29.93100
C  1.21700 7.07500 31.25400
C  1.46200 5.58800 30.93700
C  1.34500 5.60000 29.41400
C  2.80200 4.89800 31.43500
C  -0.09200 7.38400 32.03800
C  0.05300 7.70800 33.50400
H  1.26600 7.10300 34.24400
N  0.88400 5.21000 26.41800
C  1.01800 4.13500 27.30000
C  0.96800 2.87300 26.54700
C  1.00700 3.23000 25.10400
C  0.96200 4.71100 25.12600
C  0.91000 1.57900 27.35400
C  1.04900 2.36600 23.98600
O  0.91700 2.78500 22.81400
C  1.18100 0.88300 24.15100
N  0.98800 7.88500 24.79800
C  0.98100 6.97200 23.79300
C  0.89300 7.60800 22.38300
C  0.93800 9.14100 22.78800
C  0.99900 9.12200 24.33600
C  1.97300 7.22900 21.38300
C  -0.30000 10.01800 22.33500
C  -0.04900 11.12000 21.32200
N  1.09700 9.30700 27.24100
C  1.31900 10.39500 26.39200
C  1.55600 11.62000 27.22400
C  1.66500 11.15300 28.50700
C  1.40300 9.74200 28.44000
C  1.59900 13.00500 26.75200
C  1.93100 11.49900 29.90600
O  2.28300 12.59300 30.36200
C  1.62400 10.27700 30.74500
C  2.66900 10.19300 31.73000
O  3.71400 9.68100 31.63000
O  2.29200 11.06300 32.69000
C  3.33700 11.35100 33.75300
H  1.33400 3.53700 29.37000
H  1.11600 5.09100 23.04200
H  1.45200 11.21600 24.46000
H  2.10100 7.42300 31.78800
H  0.69000 4.92400 31.32600
H  3.38300 5.58100 32.05500
H  3.45800 4.66400 30.59600
H  2.54000 4.02000 32.02500
H  -0.82300 6.58500 31.91700
H  -0.63700 8.15600 31.49600
H  -0.79700 7.31800 34.06200
H  0.06500 8.78600 33.66600
H  1.10700 1.76400 28.41000
H  1.84000 1.06900 27.10600
H  0.00100 0.99500 27.20900
H  0.32300 0.48700 24.69300
H  2.16900 0.63000 24.53500
H  1.14100 0.47600 23.14000
H  -0.08000 7.33200 21.97700
H  1.87100 9.59600 22.45600
H  2.80000 6.98500 22.05000
H  2.05800 8.14200 20.79400
H  1.58100 6.39300 20.80400
H  -0.85300 10.28200 23.23600
H  -1.01800 9.31700 21.91000
H  -0.51400 10.84900 20.37400
H  1.03000 11.14400 21.16600
H  -0.49800 12.06100 21.63900
H  1.70100 12.97600 25.66700
H  2.41500 13.55100 27.22700
H  0.63800 13.47100 26.97200
H  0.68500 10.56600 31.21700
H  2.90500 11.80700 34.64400
H  3.96100 12.10200 33.27000
H  3.80500 10.41500 34.06000

