158

Mg 34.78400 3.04200 29.38200
C  33.11900 4.22000 32.12900
C  37.58700 2.51400 31.24300
C  36.49200 2.13300 26.52300
C  32.15900 4.06500 27.28000
N  35.31800 3.34300 31.47800
C  34.42700 3.83100 32.39600
C  35.17900 3.86300 33.78600
C  36.66600 3.53000 33.44800
C  36.53700 3.11700 31.99000
C  37.68500 4.72800 33.48800
C  34.51300 2.98600 34.86300
C  34.01800 3.74700 36.14100
H  35.00600 4.67700 36.82900
N  36.72500 2.40700 28.92700
C  37.67700 2.20700 29.87200
C  38.93400 1.78700 29.24100
C  38.63800 1.67100 27.86100
C  37.23700 2.03700 27.73500
C  40.15400 1.46500 30.03600
C  39.49500 1.18300 26.63800
O  39.02600 0.97400 25.56200
C  40.91700 0.84300 26.84500
N  34.36300 2.99900 27.19700
C  35.33200 2.72300 26.29100
C  34.73300 2.94900 24.81400
C  33.28500 3.44200 25.09100
C  33.22500 3.49700 26.61200
C  35.58700 4.02900 24.03000
C  32.16500 2.53000 24.36900
C  31.45500 1.44100 25.17300
N  33.02200 3.84200 29.61700
C  32.06600 4.22400 28.72200
C  30.92100 4.58600 29.42300
C  31.26700 4.54500 30.71400
C  32.60000 4.12300 30.81400
C  29.58100 4.96100 28.95500
C  30.80400 4.83300 32.05300
O  29.69000 5.25300 32.43500
C  32.00400 4.68200 33.06800
C  32.27800 6.10200 33.52800
O  33.02500 6.88400 33.02100
O  31.58400 6.30300 34.68300
C  31.98700 7.50000 35.47800
H  38.45700 2.51800 31.90400
H  36.99800 1.92500 25.57800
H  31.27300 4.32200 26.69600
H  35.05300 4.91300 34.05200
H  36.90800 2.62700 34.00800
H  37.09800 5.64500 33.43700
H  38.24400 4.74400 32.55200
H  38.30100 4.68900 34.38600
H  35.15000 2.18900 35.24600
H  33.67300 2.54000 34.32900
H  33.59200 2.98500 36.79500
H  33.15700 4.39300 35.96500
H  41.04400 2.04200 29.78400
H  40.34700 0.40500 29.87600
H  40.01800 1.51500 31.11700
H  41.42500 1.73100 27.22100
H  41.36900 0.49300 25.91700
H  40.98600 0.01000 27.54400
H  34.84700 1.96900 24.35100
H  33.13300 4.49000 24.83400
H  36.66300 3.96500 24.18800
H  35.26700 4.99100 24.43100
H  35.39400 3.93200 22.96100
H  32.56100 2.10900 23.44500
H  31.41100 3.17100 23.91200
H  30.42900 1.70900 25.42400
H  31.97200 1.18900 26.09900
H  31.38000 0.49600 24.63400
H  29.86400 5.65500 28.16300
H  28.95300 5.47100 29.68500
H  29.18700 4.00600 28.60600
H  31.95200 3.94600 33.87000
H  32.31700 8.24600 34.75400
H  32.72800 7.44500 36.27600
H  31.10400 8.00000 35.87500
Mg 9.73400 49.07600 26.56200
C  7.95200 48.80400 29.57400
C  12.42300 50.34600 28.31100
C  11.25800 49.83800 23.62600
C  6.72100 48.45900 24.86900
N  10.08700 49.53800 28.66700
C  9.30400 49.22100 29.72600
C  10.00700 49.57700 31.09000
C  11.31100 50.34800 30.59900
C  11.29500 50.10500 29.09400
C  11.27600 51.85300 30.98600
C  10.07200 48.38800 32.11900
C  9.50100 48.65700 33.53200
H  9.41800 47.44400 34.44400
N  11.61300 49.85900 26.04100
C  12.57500 50.19200 26.90000
C  13.82700 50.25300 26.19600
C  13.50800 50.29000 24.81400
C  12.03900 50.02000 24.75100
C  15.16400 50.49700 26.91300
C  14.47100 50.48600 23.66500
O  14.09000 50.58600 22.50800
C  15.94100 50.41300 23.91000
N  8.92700 49.43600 24.57800
C  9.84400 49.48300 23.52100
C  9.19500 48.96800 22.25800
C  7.85500 48.38700 22.70700
C  7.84600 48.79600 24.10600
C  9.08100 49.96500 21.02500
C  7.68700 46.81300 22.49400
C  8.30600 45.84500 23.47900
N  7.70600 48.74900 27.04600
C  6.62300 48.56800 26.26500
C  5.45000 48.35000 27.15800
C  5.91700 48.39600 28.47500
C  7.31100 48.64400 28.36400
C  4.00000 48.21300 26.59800
C  5.52800 48.36700 29.88200
O  4.39400 48.17900 30.39400
C  6.84500 48.34000 30.61600
C  7.13600 46.97600 31.12900
O  7.60600 46.08300 30.46500
O  6.77300 46.90500 32.47200
C  7.16000 45.62000 33.16000
H  13.34900 50.74800 28.72900
H  11.70200 50.19800 22.69600
H  5.82300 48.16800 24.32000
H  9.37000 50.29200 31.61100
H  12.18000 49.88400 31.06600
H  10.36600 52.16200 31.49900
H  11.39000 52.31500 30.00500
H  12.15900 52.07200 31.58700
H  11.14400 48.27400 32.27800
H  9.67400 47.47200 31.68300
H  8.55500 49.19700 33.54300
H  10.26500 49.31100 33.95300
H  15.85600 49.74200 26.53800
H  15.10700 50.50600 28.00100
H  15.62400 51.40300 26.52100
H  16.32900 51.18900 24.57000
H  16.25400 50.62700 22.88800
H  16.29900 49.42200 24.19200
H  9.78300 48.09600 21.97000
H  7.05700 48.93600 22.20800
H  9.88000 50.70200 20.94300
H  8.23900 50.65600 20.99600
H  8.91100 49.38000 20.12100
H  8.28400 46.65300 21.59600
H  6.61800 46.66000 22.34800
H  8.45500 46.38900 24.41200
H  9.23800 45.47100 23.05500
H  7.65500 45.01700 23.76200
H  3.24300 48.36000 27.36800
H  3.81000 47.22300 26.18200
H  3.61800 48.87800 25.82400
H  6.86500 49.00800 31.47700
H  6.67800 44.72300 32.77100
H  6.83300 45.58700 34.20000
H  8.23900 45.48500 33.09700

