158

Mg 17.18400 -1.33800 27.25500
C  16.26500 0.98500 29.62900
C  19.21000 -2.78000 29.61700
C  18.47600 -3.42000 24.79300
C  15.71000 0.59200 24.76300
N  17.80300 -0.84700 29.30700
C  17.13900 0.02600 30.20100
C  17.57600 -0.15700 31.62300
C  18.73100 -1.24000 31.49400
C  18.55700 -1.69000 30.02500
C  20.20700 -0.83300 31.90400
C  16.46200 -0.54700 32.58600
C  16.71600 -0.91700 34.06700
H  17.99400 -0.43200 34.76500
N  18.53300 -2.99100 27.25100
C  19.22500 -3.44300 28.33300
C  19.98700 -4.58600 27.87900
C  19.76400 -4.79500 26.51900
C  18.90800 -3.73100 26.10000
C  20.78800 -5.39100 28.93900
C  20.34000 -5.86300 25.56500
O  20.06800 -5.88800 24.34100
C  21.32800 -6.91900 26.06700
N  17.07100 -1.37800 25.09900
C  17.68100 -2.37500 24.36600
C  17.35700 -2.06300 22.88500
C  16.38100 -0.93500 22.87200
C  16.35900 -0.54700 24.33800
C  18.63800 -1.66000 22.10400
C  14.92800 -1.32900 22.43700
C  14.58600 -0.97800 20.94800
N  16.14700 0.43300 27.11800
C  15.61500 1.08900 26.07200
C  14.89500 2.20400 26.60200
C  15.09500 2.17600 28.02700
C  15.92200 1.10700 28.27100
C  14.09700 3.19700 25.76500
C  14.88400 2.91000 29.28700
O  14.23600 3.91200 29.47800
C  15.58900 2.11600 30.43600
C  16.46100 3.12000 31.14600
O  17.41000 3.70600 30.67900
O  15.95900 3.18900 32.48200
C  16.74100 4.11400 33.28800
H  19.78100 -3.15400 30.46900
H  18.87100 -4.14000 24.07300
H  15.28900 1.16800 23.93600
H  17.98900 0.76200 32.03700
H  18.49500 -2.11900 32.09400
H  20.12700 -0.03300 32.64000
H  20.73000 -0.49900 31.00800
H  20.79200 -1.60900 32.39800
H  15.95000 -1.34400 32.04600
H  15.74500 0.27200 32.64100
H  16.67600 -2.00300 34.14300
H  15.80600 -0.61400 34.58400
H  21.85100 -5.36500 28.70000
H  20.33700 -6.37200 28.78900
H  20.50200 -4.97700 29.90600
H  21.42500 -7.62500 25.24200
H  20.91300 -7.57100 26.83500
H  22.20100 -6.47500 26.54500
H  17.00400 -2.98500 22.42400
H  16.85500 -0.13800 22.30000
H  19.21100 -1.03700 22.79200
H  18.37000 -1.10200 21.20700
H  19.26400 -2.53100 21.91100
H  14.13600 -0.99100 23.10600
H  14.87300 -2.41600 22.50200
H  13.84900 -0.17700 21.00000
H  14.32500 -1.87300 20.38400
H  15.45000 -0.41500 20.59400
H  14.75200 3.89200 25.23800
H  13.56300 3.87400 26.43100
H  13.47800 2.65600 25.04900
H  14.93900 1.62400 31.15900
H  16.60700 5.15000 32.97700
H  17.76400 3.82800 33.04600
H  16.53700 3.96400 34.34800
Mg 9.20600 48.76800 26.27200
C  7.10300 48.92600 28.99500
C  11.73800 49.99300 28.14300
C  11.15900 48.76300 23.51500
C  6.39400 48.12900 24.18800
N  9.30500 49.54600 28.30300
C  8.36300 49.40600 29.25800
C  8.82100 49.88400 30.66500
C  10.30000 50.44300 30.29700
C  10.45800 50.00400 28.80800
C  10.43200 51.96700 30.48700
C  8.78900 48.80900 31.81700
C  9.80400 48.66400 32.91300
H  9.54300 47.62200 34.04700
N  11.24300 49.21100 25.89400
C  12.09800 49.74100 26.82000
C  13.40300 49.84000 26.13800
C  13.27500 49.40400 24.81300
C  11.82200 49.08800 24.68500
C  14.67000 50.09600 26.90300
C  14.29500 49.15200 23.66600
O  14.01900 48.64600 22.52700
C  15.78400 49.41600 23.93500
N  8.79700 48.67200 24.11300
C  9.82600 48.51800 23.24800
C  9.26600 47.99200 21.85800
C  7.79400 47.71400 22.19800
C  7.60100 48.28400 23.53800
C  9.44400 49.05100 20.64700
C  7.43400 46.18000 22.02100
C  6.13300 45.97900 21.35000
N  7.17100 48.37800 26.46300
C  6.15800 48.17600 25.56100
C  4.87700 48.02500 26.29500
C  5.23300 48.26800 27.67000
C  6.61300 48.48100 27.70200
C  3.59200 47.94400 25.68100
C  4.64600 48.27800 29.04100
O  3.55000 48.00200 29.41900
C  5.84200 48.67100 29.93400
C  5.92500 47.60200 30.84000
O  6.59200 46.61000 30.67500
O  5.10300 47.77300 31.92000
C  4.96500 46.64700 32.90100
H  12.51400 50.33100 28.83300
H  11.78600 48.50400 22.65900
H  5.49100 47.83400 23.65000
H  8.28800 50.70200 31.14900
H  11.02600 49.87900 30.88300
H  9.41800 52.36600 30.51700
H  11.09500 52.56400 29.86100
H  10.85200 52.03500 31.49000
H  8.75100 47.76600 31.50100
H  7.88400 48.84500 32.42300
H  9.91500 49.62000 33.42500
H  10.71400 48.31800 32.42300
H  14.46300 49.90500 27.95600
H  15.10700 51.06900 26.67600
H  15.44700 49.37300 26.65600
H  16.41300 49.23700 23.06300
H  16.18700 48.73800 24.68700
H  15.82500 50.41100 24.37800
H  9.77100 47.09400 21.50300
H  7.09400 48.22800 21.53900
H  10.03500 49.91600 20.94600
H  8.60300 49.69500 20.39000
H  9.97200 48.66300 19.77500
H  7.30700 45.80300 23.03600
H  8.33100 45.72200 21.60200
H  5.61400 45.06600 21.64200
H  6.23600 45.91800 20.26700
H  5.44400 46.78900 21.58500
H  3.27400 46.91900 25.87500
H  3.81100 48.12400 24.62900
H  3.00000 48.75600 26.10300
H  5.53300 49.61300 30.38700
H  4.00600 46.27400 32.54000
H  4.83000 47.03400 33.91100
H  5.71300 45.85900 32.98200

