158

Mg -1.26300 17.47700 26.89100
C  -1.61800 15.22200 29.76000
C  -1.75000 20.06900 29.02300
C  -1.72800 19.48400 24.17500
C  -1.66500 14.64000 24.84600
N  -1.71800 17.60500 29.19500
C  -1.69300 16.60800 30.16100
C  -1.91400 17.20600 31.60700
C  -2.18400 18.72000 31.26400
C  -1.87500 18.83000 29.74300
C  -3.67500 19.04100 31.53100
C  -0.69600 16.98000 32.50400
C  -0.51000 17.66900 33.82600
H  -0.89400 16.96300 35.13700
N  -1.37500 19.48800 26.63900
C  -1.54000 20.38300 27.64400
C  -1.54300 21.70200 27.02400
C  -1.47900 21.54100 25.60200
C  -1.55600 20.12300 25.42600
C  -1.69800 22.93100 27.91200
C  -1.30400 22.55500 24.54000
O  -1.27000 22.32800 23.33500
C  -1.19700 24.01300 24.92300
N  -1.72800 17.11100 24.85000
C  -1.71700 18.11600 23.90300
C  -1.95800 17.53500 22.57200
C  -1.70600 16.03800 22.81300
C  -1.69000 15.88900 24.29700
C  -3.35800 17.97700 22.00100
C  -0.34700 15.49000 22.22600
C  0.98700 16.14200 22.75300
N  -1.49100 15.37700 27.20800
C  -1.56900 14.36500 26.24100
C  -1.51200 13.04400 26.92000
C  -1.56300 13.36800 28.26500
C  -1.47300 14.73400 28.37400
C  -1.58400 11.67400 26.20500
C  -1.61800 12.75100 29.58500
O  -1.73100 11.60300 29.88400
C  -1.73200 13.96500 30.63500
C  -0.71000 13.67000 31.62100
O  0.48700 14.00100 31.71900
O  -1.34900 12.76000 32.41400
C  -0.73100 12.06800 33.52500
H  -1.83400 20.85200 29.78000
H  -2.02600 20.00100 23.26000
H  -1.55300 13.84800 24.10300
H  -2.74000 16.56500 31.91400
H  -1.52400 19.44200 31.74500
H  -3.94200 19.65200 30.66900
H  -3.80300 19.50800 32.50800
H  -4.36600 18.20000 31.47400
H  0.20900 17.15400 31.92100
H  -0.70700 15.92200 32.76500
H  -1.19600 18.49600 33.64300
H  0.44200 18.19800 33.86300
H  -2.04000 22.81100 28.94100
H  -2.38300 23.57100 27.35600
H  -0.72300 23.41100 27.99000
H  -0.29400 23.99700 25.53400
H  -2.04500 24.41700 25.47500
H  -0.95800 24.61800 24.04800
H  -1.15400 17.85400 21.90900
H  -2.53300 15.43400 22.44000
H  -3.64100 18.92700 22.45300
H  -4.00700 17.17200 22.34400
H  -3.27000 18.09800 20.92100
H  -0.42300 15.73000 21.16500
H  -0.31800 14.40100 22.25000
H  1.42500 16.71800 21.93800
H  1.69700 15.40200 23.12200
H  0.73000 16.78400 23.59500
H  -0.62200 11.34100 25.81500
H  -2.32100 11.63400 25.40300
H  -1.94300 10.94200 26.92900
H  -2.70200 13.99500 31.13300
H  -0.87700 12.65500 34.43200
H  0.34900 11.96400 33.42200
H  -1.20300 11.11600 33.76700
Mg 8.33400 48.28400 25.22600
C  6.37500 48.40200 28.17200
C  11.01000 49.10100 27.08900
C  10.10500 48.38700 22.47100
C  5.37700 47.90800 23.41100
N  8.57500 48.78400 27.34500
C  7.75500 48.56100 28.39300
C  8.44400 48.87400 29.71700
C  9.74800 49.43100 29.20600
C  9.83200 49.10900 27.77600
C  9.94500 50.99500 29.50700
C  8.63000 47.70500 30.76700
C  7.85600 47.75000 32.12600
H  7.59400 46.38100 32.92400
N  10.38300 48.62200 24.82600
C  11.31300 48.87900 25.74700
C  12.58200 49.02300 25.07100
C  12.38600 48.82700 23.70900
C  10.90800 48.64400 23.60200
C  13.88100 49.19300 25.79700
C  13.36400 48.68400 22.54800
O  12.96000 48.65600 21.36700
C  14.85800 48.80700 22.78100
N  7.78800 48.42800 23.22000
C  8.74300 48.32300 22.28100
C  8.12800 47.98600 20.91400
C  6.70900 47.72800 21.19100
C  6.58200 47.91400 22.70600
C  8.33700 49.05200 19.86800
C  6.25700 46.27200 20.72200
C  4.76600 46.08800 20.35200
N  6.26100 48.20300 25.64500
C  5.18600 48.14700 24.79200
C  3.93100 48.15800 25.52500
C  4.36400 48.19700 26.86200
C  5.72900 48.35100 26.87100
C  2.55100 47.79400 25.00100
C  3.94400 48.13900 28.24200
O  2.80100 47.98800 28.73900
C  5.24100 48.33600 29.17800
C  5.21100 47.20200 30.11400
O  5.78300 46.10700 29.87900
O  4.31700 47.46600 31.15800
C  4.01000 46.31100 32.08000
H  11.85400 49.39500 27.71700
H  10.68100 48.33100 21.54500
H  4.50800 47.85300 22.75200
H  7.76400 49.58100 30.19200
H  10.58900 48.94500 29.70100
H  10.95700 51.35300 29.31900
H  9.73500 51.21700 30.55300
H  9.32500 51.58000 28.82700
H  9.67800 47.49600 30.98300
H  8.25500 46.83200 30.23400
H  6.96800 48.38300 32.11400
H  8.58400 48.34500 32.67800
H  13.69600 49.50700 26.82400
H  14.47100 50.00700 25.37400
H  14.49400 48.29300 25.84300
H  15.10000 48.18400 23.64100
H  15.01800 49.87700 22.91700
H  15.53100 48.57500 21.95600
H  8.62000 47.07000 20.58600
H  6.00900 48.49200 20.85400
H  7.47500 49.67400 19.62600
H  8.61900 48.60800 18.91400
H  9.17300 49.61800 20.28000
H  6.32100 45.69900 21.64700
H  6.92600 45.73200 20.05200
H  4.68500 46.93300 19.66800
H  4.05900 46.12200 21.18100
H  4.70100 45.18000 19.75300
H  2.52800 47.77400 23.91200
H  1.81700 48.55700 25.26200
H  2.34600 46.82600 25.45900
H  4.96900 49.30800 29.58900
H  3.96600 45.36800 31.53500
H  2.98900 46.47000 32.42700
H  4.71500 46.19700 32.90300

