158

Mg 23.77300 -7.70400 46.81000
C  26.39000 -5.74500 45.59200
C  21.76000 -6.50300 44.34400
C  21.80600 -10.36700 47.17200
C  26.30800 -9.52000 48.67300
N  24.10500 -6.24000 45.19200
C  25.21500 -5.48500 44.88800
C  24.95600 -4.50500 43.68600
C  23.42600 -4.77000 43.32200
C  23.03300 -5.89900 44.34000
C  22.48700 -3.42800 43.22300
C  25.85300 -4.63400 42.32800
C  26.46000 -3.22900 42.02900
H  25.92400 -2.34300 40.94800
N  21.87900 -8.24500 46.05300
C  21.21300 -7.54700 45.08800
C  19.87100 -8.08400 45.00200
C  19.87400 -9.35100 45.79900
C  21.19500 -9.39900 46.34800
C  18.85100 -7.51000 44.06900
C  18.73300 -10.34700 45.91100
O  17.65300 -10.03100 45.41200
C  18.82600 -11.56400 46.69400
N  24.00700 -9.60000 47.84300
C  23.02500 -10.58900 47.77500
C  23.39100 -11.91200 48.59500
C  24.74000 -11.47300 49.22800
C  25.04500 -10.05600 48.56600
C  22.31100 -12.53400 49.57200
C  25.90500 -12.52300 49.25700
C  26.44300 -12.86400 50.66800
N  25.88700 -7.67900 47.20800
C  26.72100 -8.38300 47.98900
C  28.05400 -7.78100 47.92800
C  27.85700 -6.66800 47.12300
C  26.56200 -6.71200 46.63000
C  29.28000 -8.32800 48.64000
C  28.55900 -5.50800 46.60100
O  29.68800 -5.17200 46.74400
C  27.60000 -4.88600 45.58600
C  27.35200 -3.50500 46.01200
O  26.68000 -3.11800 46.97400
O  28.13700 -2.66000 45.30700
C  28.30400 -1.33600 45.79700
H  21.15300 -5.93300 43.63700
H  21.22300 -11.28800 47.24300
H  27.13200 -9.97000 49.23000
H  25.10300 -3.53400 44.15900
H  23.36000 -5.24900 42.34500
H  21.83100 -3.51500 42.35700
H  23.18500 -2.60100 43.08900
H  21.91700 -3.24100 44.13300
H  25.16700 -4.83900 41.50600
H  26.43700 -5.54300 42.18800
H  27.50700 -3.39500 41.77900
H  26.52400 -2.71200 42.98600
H  18.94900 -7.92300 43.06500
H  18.97600 -6.43300 43.96200
H  17.84900 -7.58200 44.49300
H  19.60400 -12.27700 46.42200
H  17.98000 -12.18000 46.39000
H  18.71600 -11.38200 47.76300
H  23.66100 -12.53100 47.73900
H  24.46800 -11.26400 50.26300
H  21.71800 -13.39200 49.25400
H  21.79300 -11.65700 49.96100
H  22.78300 -12.89900 50.48500
H  26.75900 -12.22000 48.65100
H  25.44100 -13.44600 48.91100
H  27.52000 -13.02000 50.59500
H  25.91300 -13.70700 51.11200
H  26.16800 -12.03900 51.32500
H  29.44000 -9.40600 48.67500
H  29.15200 -7.87400 49.62300
H  30.08000 -7.93700 48.01100
H  28.15400 -4.76600 44.65500
H  28.65700 -1.31800 46.82800
H  27.38600 -0.75300 45.73000
H  29.02400 -0.94500 45.07800
Mg 47.57900 44.94700 42.93300
C  44.13300 44.96900 42.28100
C  47.56800 41.57000 42.30700
C  51.06300 45.00000 42.61100
C  47.50000 48.42900 43.06400
N  46.00200 43.51500 42.28400
C  44.66400 43.70200 42.20000
C  43.96000 42.36200 41.90200
C  45.02400 41.24000 41.97300
C  46.31700 42.15600 42.25200
C  44.96100 40.16300 43.09400
C  43.11400 42.41900 40.64100
C  43.79800 42.92100 39.36400
H  43.58000 42.12500 38.09500
N  49.12600 43.45900 42.74600
C  48.88900 42.12200 42.53500
C  50.15600 41.43700 42.62800
C  51.17500 42.40100 42.81400
C  50.47500 43.72000 42.79100
C  50.30900 39.88300 42.44000
C  52.68100 42.10000 42.86200
O  53.16400 40.98300 42.61500
C  53.59700 43.26400 43.29500
N  49.06400 46.46700 42.89600
C  50.44200 46.23700 42.66800
C  51.22700 47.61500 42.52500
C  50.11900 48.66700 42.88200
C  48.79400 47.86200 42.98700
C  52.50900 47.65200 43.42100
C  50.04100 49.91200 41.92500
C  49.74000 51.22000 42.56400
N  46.18200 46.41500 42.78900
C  46.27800 47.78700 42.83600
C  44.97000 48.42100 42.68900
C  44.11000 47.30500 42.47900
C  44.91100 46.15600 42.48800
C  44.60400 49.89300 42.61000
C  42.72300 46.97800 42.25100
O  41.74500 47.68700 42.12600
C  42.70400 45.43700 42.14400
C  41.78000 44.92700 43.20200
O  40.59400 45.03000 43.12400
O  42.43600 44.57600 44.39900
C  41.58600 44.26200 45.47800
H  47.52700 40.50200 42.08000
H  52.13100 45.03600 42.38700
H  47.37500 49.50300 43.21600
H  43.22800 42.25100 42.70200
H  45.14700 40.74600 41.01000
H  43.94100 40.02300 43.45200
H  45.70700 40.30400 43.87600
H  45.30000 39.25300 42.59800
H  42.15600 42.89900 40.84000
H  42.92800 41.34900 40.56000
H  44.85100 43.20100 39.39800
H  43.35800 43.89200 39.13700
H  51.03100 39.71000 41.64200
H  49.39700 39.35300 42.16500
H  50.67900 39.40800 43.34900
H  54.05400 43.66500 42.39100
H  54.35700 42.85300 43.95900
H  53.15100 44.00400 43.96000
H  51.61600 47.76700 41.51900
H  50.24000 49.02500 43.90400
H  52.78900 48.60100 43.87900
H  53.41000 47.35700 42.88300
H  52.35900 46.91400 44.20900
H  49.34400 49.63000 41.13600
H  50.99000 50.04900 41.40500
H  50.71100 51.70100 42.67900
H  49.20100 51.18000 43.51000
H  49.26400 51.79300 41.76800
H  44.99000 50.13500 41.62000
H  45.19900 50.59700 43.19200
H  43.54300 50.06300 42.79200
H  42.40700 45.12400 41.14300
H  42.21000 44.41400 46.35900
H  41.27800 43.21700 45.49600
H  40.81300 45.02500 45.56600

