158

Mg 47.22100 44.65900 43.36200
C  43.61500 44.28800 43.06700
C  47.34600 41.24400 42.59800
C  50.42100 45.08300 42.76800
C  46.59700 48.16600 43.58900
N  45.67100 43.01000 42.73700
C  44.27300 43.09200 42.82800
C  43.61800 41.68800 42.84200
C  44.85700 40.73500 42.80400
C  46.03100 41.75100 42.70100
C  44.85300 39.71800 44.01800
C  42.53600 41.41900 41.78500
C  42.73600 42.18800 40.47000
H  42.56300 41.50300 39.04600
N  48.67800 43.37100 42.70500
C  48.54300 42.03200 42.54300
C  49.87000 41.49000 42.42000
C  50.81500 42.51000 42.31600
C  50.01800 43.77100 42.62100
C  50.14300 40.08100 42.46100
C  52.26900 42.41800 41.91300
O  52.69100 41.33100 41.59200
C  53.19300 43.62300 41.86000
N  48.31400 46.40400 43.03900
C  49.70600 46.29100 42.91400
C  50.37800 47.66500 43.17500
C  49.11900 48.67700 43.29400
C  47.92200 47.70700 43.32400
C  51.37500 47.61200 44.34300
C  49.00400 49.70600 42.17100
C  48.94600 51.14800 42.63000
N  45.50200 45.97100 43.52600
C  45.42000 47.33200 43.63700
C  43.99900 47.73000 43.64600
C  43.28600 46.59800 43.52700
C  44.23700 45.54600 43.34600
C  43.58400 49.14300 44.01100
C  41.99700 46.09400 43.44900
O  40.95600 46.72500 43.49300
C  42.10400 44.50200 43.06600
C  41.34500 43.79100 44.05100
O  40.23300 43.37700 43.83900
O  41.92100 43.92300 45.30300
C  41.23900 43.30300 46.42900
H  47.57700 40.20100 42.37500
H  51.50000 45.22200 42.86800
H  46.56300 49.25500 43.67000
H  43.16000 41.72400 43.83100
H  44.82500 40.24500 41.83100
H  45.57900 40.00100 44.78100
H  45.29100 38.77300 43.69900
H  43.82600 39.58100 44.35700
H  41.61500 41.89000 42.12600
H  42.18400 40.41200 41.56200
H  43.70200 42.69200 40.43100
H  42.06100 43.03300 40.33600
H  50.95900 39.98900 43.17700
H  50.47400 39.69500 41.49800
H  49.31800 39.45600 42.80400
H  52.82700 44.47900 41.29400
H  54.08200 43.30000 41.31900
H  53.59700 43.80100 42.85700
H  50.85000 47.92600 42.22800
H  49.21900 49.19400 44.24800
H  52.39600 47.52200 43.97200
H  51.07300 46.69600 44.85200
H  51.24700 48.44100 45.03900
H  48.07000 49.51800 41.64300
H  49.90900 49.85800 41.58200
H  48.86800 51.22000 43.71500
H  48.02900 51.68300 42.38600
H  49.85000 51.70100 42.37400
H  42.72600 49.40700 43.39200
H  44.50200 49.72100 43.90700
H  43.26700 49.05600 45.05100
H  41.63000 44.24900 42.11800
H  40.37800 42.72800 46.09000
H  40.88100 44.13800 47.03100
H  41.81000 42.62100 47.06000
Mg 16.56000 52.15500 24.80800
C  18.46800 51.31000 27.72600
C  13.81700 52.60300 26.90600
C  14.74100 52.46900 22.13900
C  19.43800 50.96100 22.87500
N  16.23600 51.98900 26.99400
C  17.20500 51.75800 28.00400
C  16.56300 51.99300 29.40900
C  15.06500 52.30800 29.13300
C  15.04500 52.40300 27.56900
C  13.90200 51.35400 29.58100
C  17.41200 53.15500 30.14000
C  17.69000 52.87900 31.64300
H  16.89400 51.91700 32.41300
N  14.51400 52.55900 24.55300
C  13.53400 52.66800 25.53100
C  12.26100 52.95800 24.85000
C  12.57500 53.06000 23.45100
C  13.98100 52.77000 23.30900
C  11.01200 53.17900 25.59000
C  11.61600 53.38800 22.25000
O  12.04000 53.43700 21.09200
C  10.07400 53.66600 22.48000
N  16.98600 51.63700 22.87300
C  16.08000 52.02400 21.87900
C  16.65600 51.95100 20.47500
C  18.20300 51.76600 20.75800
C  18.26600 51.46600 22.31000
C  16.01900 50.83300 19.65300
C  19.05400 53.04900 20.40900
C  20.46300 52.86000 19.99600
N  18.52300 51.18400 25.19600
C  19.59000 50.82500 24.36500
C  20.68600 50.38400 25.15200
C  20.29200 50.57900 26.46800
C  18.93800 51.01600 26.45300
C  22.01700 50.08900 24.60200
C  20.69600 50.47800 27.82600
O  21.79100 50.18000 28.27600
C  19.50600 50.92100 28.74400
C  19.10200 49.71600 29.43200
O  18.55500 48.75200 28.90200
O  19.55400 49.68100 30.72600
C  19.37700 48.45300 31.51900
H  13.03700 52.94100 27.59100
H  14.44500 52.82300 21.15000
H  20.29100 50.94300 22.19400
H  16.74900 51.05300 29.92900
H  14.93300 53.30200 29.55900
H  13.23400 51.85400 30.28200
H  14.41400 50.59300 30.17000
H  13.33700 50.89300 28.77100
H  16.83800 54.08100 30.09600
H  18.30300 53.38800 29.55700
H  17.70500 53.84600 32.14600
H  18.71800 52.52400 31.71800
H  10.41500 52.31000 25.31400
H  10.45700 54.09900 25.40300
H  11.10800 53.14000 26.67500
H  9.63900 54.08800 21.57400
H  9.95900 54.47400 23.20200
H  9.55100 52.78900 22.86100
H  16.45700 52.88500 19.94900
H  18.61100 50.91200 20.21800
H  15.49200 51.32800 18.83700
H  15.25900 50.39800 20.30200
H  16.79700 50.13300 19.34900
H  19.01600 53.70900 21.27600
H  18.46700 53.54100 19.63400
H  20.79700 53.52200 19.19600
H  20.68800 51.84500 19.67000
H  21.19000 52.92300 20.80500
H  22.01900 50.15100 23.51400
H  22.23700 49.02300 24.66400
H  22.75100 50.72400 25.09800
H  19.88500 51.60100 29.50700
H  18.35700 48.30800 31.87800
H  19.95300 48.52000 32.44200
H  19.66000 47.61100 30.88800

