158

Mg 35.61600 2.25900 30.19200
C  33.31200 3.25600 32.51100
C  38.05100 2.62400 32.80700
C  38.05900 1.31900 28.06900
C  33.50200 2.73300 27.71700
N  35.65800 2.99600 32.41400
C  34.54800 3.12100 33.13800
C  34.86500 3.15200 34.64000
C  36.36000 3.18800 34.61200
C  36.75500 2.85600 33.21900
C  36.98600 4.56900 35.13400
C  34.19100 1.95000 35.45100
C  33.69500 2.38700 36.86200
H  34.43500 3.47200 37.62800
N  37.75200 1.96900 30.39100
C  38.50900 2.14400 31.55600
C  39.84600 1.86300 31.18900
C  39.96700 1.49700 29.78600
C  38.56500 1.52300 29.36500
C  41.06000 2.04900 32.11100
C  41.10800 1.04800 28.89200
O  40.91600 0.63600 27.76200
C  42.59200 1.05400 29.40200
N  35.84400 2.29700 28.15200
C  36.85200 1.65200 27.53000
C  36.54500 1.43700 26.04300
C  34.97900 1.56700 25.95200
C  34.71800 2.25500 27.32400
C  37.18300 2.47500 25.01900
C  34.27600 0.12600 25.97200
C  32.99600 0.07700 25.14700
N  33.71400 2.81700 30.13200
C  32.96800 3.01800 28.98300
C  31.61900 3.40100 29.38400
C  31.63700 3.40500 30.80600
C  33.03000 3.18100 31.16700
C  30.47600 3.52600 28.49300
C  30.87200 3.63700 31.97600
O  29.69600 3.98300 32.23000
C  31.96800 3.60800 33.15300
C  32.05400 5.00100 33.76700
O  32.52600 5.98100 33.22300
O  31.41000 4.97100 34.99100
C  31.45300 6.26300 35.80500
H  38.76800 2.70700 33.62600
H  38.71500 0.93000 27.28600
H  32.73600 2.76300 26.93900
H  34.43300 4.08100 35.01200
H  36.64700 2.36400 35.26600
H  36.18500 5.30700 35.18500
H  37.80500 4.84000 34.46700
H  37.31800 4.30400 36.13800
H  34.82900 1.07500 35.57900
H  33.28100 1.54200 35.01200
H  33.76600 1.58200 37.59300
H  32.64500 2.67500 36.82800
H  41.59500 1.11900 32.30100
H  40.68200 2.54600 33.00500
H  41.72200 2.78600 31.65500
H  42.62300 0.39000 30.26500
H  42.76500 2.03300 29.84900
H  43.26100 0.79900 28.58100
H  36.76000 0.38100 25.88300
H  34.62500 2.09200 25.06400
H  36.61800 2.65200 24.10400
H  38.15600 2.04000 24.79100
H  37.37300 3.41600 25.53600
H  34.13900 -0.22000 26.99600
H  34.97400 -0.56000 25.49200
H  32.74400 1.06100 24.75100
H  32.20600 -0.34200 25.77100
H  33.07600 -0.60400 24.30000
H  30.16200 2.57400 28.06200
H  30.66400 4.29900 27.74900
H  29.70800 3.89100 29.17500
H  31.79000 2.83900 33.90400
H  30.56600 6.25600 36.43800
H  31.41700 7.03500 35.03600
H  32.41400 6.24500 36.31900
Mg 54.44200 24.07600 44.50300
C  51.88100 26.26900 43.98700
C  52.53400 21.52600 43.32700
C  57.25000 21.96100 44.42100
C  56.57000 26.82100 45.46900
N  52.56700 23.94600 43.72700
C  51.64000 24.93100 43.51800
C  50.35500 24.49700 42.84900
C  50.45100 22.96500 43.11900
C  51.95200 22.77800 43.44600
C  49.53500 22.39500 44.24800
C  50.18200 24.81200 41.31900
C  48.68500 24.79600 40.76400
H  48.51500 24.15500 39.41600
N  54.82700 22.08800 43.90100
C  53.89900 21.19500 43.49100
C  54.48700 19.86500 43.33000
C  55.85100 20.06000 43.45300
C  56.06200 21.41100 43.88600
C  53.62400 18.58100 43.01700
C  56.91100 19.02300 43.29700
O  56.59200 17.85300 43.15200
C  58.37700 19.25800 43.35100
N  56.63000 24.39100 44.74600
C  57.50500 23.32100 44.83100
C  58.88600 23.85100 45.38800
C  58.66700 25.33800 45.66500
C  57.23200 25.59200 45.16900
C  59.38200 23.01500 46.60600
C  59.67900 26.40500 45.05100
C  60.46300 27.24700 46.07900
N  54.25300 26.14700 44.71000
C  55.17700 27.09600 45.22500
C  54.40900 28.29400 45.44300
C  53.12300 28.09900 44.97900
C  53.09600 26.75300 44.53600
C  54.99700 29.52000 46.14900
C  51.78600 28.67200 44.75200
O  51.29300 29.81100 44.95200
C  50.96500 27.50300 44.02600
C  50.66800 28.18400 42.72600
O  51.53800 28.59200 41.96400
O  49.35200 27.93100 42.36500
C  48.90900 28.54100 41.16900
H  51.79900 20.76000 43.07100
H  58.07900 21.27700 44.61400
H  57.18500 27.62300 45.88300
H  49.46900 24.71100 43.44700
H  50.30700 22.40100 42.19800
H  50.04200 22.34600 45.21200
H  49.21100 21.38800 43.98400
H  48.62100 22.99000 44.26700
H  50.65900 23.98900 40.78700
H  50.73200 25.71800 41.06700
H  48.31700 25.80500 40.57500
H  47.95000 24.34400 41.42900
H  53.71800 18.32100 41.96200
H  52.55500 18.71300 43.18400
H  53.89900 17.70200 43.60100
H  58.50200 20.06700 42.63200
H  58.85100 18.31700 43.07200
H  58.70100 19.52600 44.35700
H  59.52300 23.73300 44.51200
H  58.70300 25.47300 46.74600
H  58.57800 22.35000 46.92200
H  59.64600 23.65400 47.44900
H  60.28100 22.48300 46.29400
H  59.19400 27.10300 44.36900
H  60.52600 25.84500 44.65300
H  60.18500 26.94900 47.09000
H  60.31200 28.30100 45.84600
H  61.54600 27.30500 45.96700
H  54.41600 29.80400 47.02600
H  55.15500 30.39400 45.51700
H  55.98200 29.26500 46.54200
H  50.02500 27.31100 44.54200
H  48.79300 29.59900 41.40700
H  47.90000 28.17800 40.97200
H  49.57100 28.29200 40.34000

