158

Mg 16.96200 -1.42500 27.47900
C  15.93100 0.64800 30.14100
C  19.31100 -2.79100 29.70200
C  18.42700 -2.89800 24.95700
C  14.68200 0.13700 25.48300
N  17.55600 -1.10700 29.75500
C  16.93200 -0.23000 30.61200
C  17.45500 -0.46700 32.04300
C  18.72200 -1.29100 31.76400
C  18.57800 -1.78200 30.31200
C  20.14900 -0.76000 32.09700
C  16.35900 -1.03900 32.98000
C  16.39500 -0.71900 34.45800
H  17.60500 -0.00600 34.99800
N  18.49900 -2.84900 27.36600
C  19.30100 -3.28300 28.40400
C  20.09300 -4.40100 27.89500
C  19.91400 -4.40900 26.46600
C  18.95500 -3.34200 26.16500
C  20.86800 -5.29900 28.86500
C  20.49300 -5.33000 25.46600
O  20.15400 -5.17900 24.32300
C  21.58000 -6.26500 25.78700
N  16.55000 -1.50200 25.50000
C  17.32700 -2.10600 24.61300
C  16.83100 -1.94500 23.12600
C  15.53800 -1.03600 23.33400
C  15.54600 -0.79300 24.86400
C  17.95100 -1.47600 22.16300
C  14.24500 -1.76300 22.89600
C  13.43900 -1.11500 21.80500
N  15.61700 0.12500 27.73600
C  14.73000 0.65200 26.80300
C  13.90200 1.61000 27.40600
C  14.23400 1.55800 28.78400
C  15.34200 0.70900 28.90800
C  12.91800 2.49400 26.70800
C  13.92300 2.13400 30.10400
O  13.02700 2.89600 30.56300
C  15.08600 1.51100 30.96900
C  15.78200 2.59100 31.66300
O  16.66700 3.29300 31.31100
O  15.11100 2.64700 32.81900
C  15.32200 3.91000 33.56100
H  19.97300 -3.35200 30.36500
H  18.92600 -3.33000 24.08800
H  14.07800 0.68700 24.75800
H  17.73400 0.49500 32.47200
H  18.57600 -2.22500 32.30500
H  20.76000 -0.53300 31.22300
H  20.73800 -1.56300 32.54100
H  20.09200 0.15800 32.68300
H  16.52000 -2.11000 32.85000
H  15.41000 -0.71200 32.55500
H  16.12600 -1.58600 35.06100
H  15.57100 -0.01800 34.59100
H  21.87300 -4.97700 29.13800
H  20.95200 -6.29200 28.42200
H  20.34000 -5.41500 29.81100
H  21.27400 -7.12700 26.38000
H  22.22500 -5.61200 26.37500
H  22.01000 -6.43700 24.80100
H  16.54000 -2.97300 22.90900
H  15.61200 -0.05300 22.87000
H  18.91000 -1.19900 22.60000
H  17.48800 -0.56300 21.78900
H  18.12600 -2.08700 21.27800
H  13.62000 -1.79200 23.78800
H  14.51900 -2.79400 22.67200
H  14.09500 -0.33400 21.42000
H  12.51900 -0.71600 22.23200
H  13.25600 -1.89900 21.07100
H  12.58200 3.38000 27.24800
H  12.01500 1.95000 26.43200
H  13.39200 2.83200 25.78600
H  14.41000 0.97000 31.63100
H  14.37700 4.25600 33.98000
H  15.63600 4.77000 32.96900
H  16.05900 3.75200 34.34900
Mg 47.93600 25.37000 28.34400
C  48.85500 27.57800 30.78600
C  46.98800 23.15600 30.82900
C  47.18700 23.10200 25.96900
C  49.53900 27.35900 25.97500
N  47.91600 25.36300 30.60100
C  48.25700 26.44700 31.38500
C  47.85900 26.17900 32.83900
C  47.52400 24.61600 32.85500
C  47.33800 24.37500 31.35500
C  48.62500 23.73300 33.49500
C  46.68900 27.07800 33.33300
C  46.98000 28.07000 34.54000
H  45.91600 28.08700 35.71100
N  47.13800 23.42700 28.38400
C  46.85900 22.75900 29.48500
C  46.32400 21.43700 29.05800
C  46.31100 21.34700 27.66300
C  46.83700 22.64800 27.27800
C  46.12300 20.31600 30.01100
C  45.87700 20.24100 26.64200
O  45.99900 20.42400 25.45100
C  45.35100 18.93700 27.04100
N  48.28800 25.27400 26.29800
C  47.82800 24.27400 25.51300
C  48.31100 24.45300 24.03500
C  48.94500 25.83100 23.95600
C  48.91900 26.15000 25.51900
C  49.23600 23.28700 23.54800
C  48.17700 26.84900 22.97900
C  49.06900 27.56300 21.88100
N  48.97300 27.13700 28.28900
C  49.50500 27.87700 27.31000
C  50.12800 29.06100 27.84100
C  49.88100 29.02900 29.18600
C  49.20500 27.80800 29.41100
C  50.73300 30.22100 27.19400
C  49.99100 29.69000 30.41200
O  50.45400 30.78000 30.71700
C  49.20700 28.90600 31.44600
C  50.16000 28.74900 32.58400
O  51.14700 28.01400 32.60400
O  49.75400 29.56900 33.58900
C  50.62300 29.34200 34.79300
H  46.71300 22.57700 31.71300
H  46.94700 22.33600 25.22800
H  50.12900 28.02800 25.34500
H  48.73100 26.35800 33.46800
H  46.58100 24.48900 33.38600
H  48.19400 23.30800 34.40100
H  49.46900 24.33700 33.83100
H  49.00300 23.10200 32.69100
H  45.75200 26.58400 33.59100
H  46.43200 27.76500 32.52700
H  46.88600 29.06400 34.10100
H  47.99100 28.07800 34.94700
H  45.08600 20.37100 30.34200
H  46.75300 20.60600 30.85300
H  46.43400 19.34200 29.63200
H  44.49100 19.18700 27.66200
H  46.16600 18.49400 27.61200
H  45.09900 18.30100 26.19300
H  47.39000 24.33000 23.46400
H  49.98600 25.70800 23.66000
H  48.84000 22.93200 22.59700
H  49.16900 22.51800 24.31800
H  50.23900 23.70500 23.46000
H  47.87600 27.73300 23.54000
H  47.24800 26.39900 22.62900
H  49.87000 26.90300 21.54500
H  49.42000 28.53300 22.23300
H  48.48900 27.80000 20.98900
H  51.08600 29.92500 26.20600
H  51.65400 30.53500 27.68400
H  50.12900 31.12600 27.12200
H  48.26100 29.31300 31.80200
H  50.09000 28.55100 35.32000
H  50.55000 30.23600 35.41200
H  51.67800 29.14400 34.60400

