158

Mg -1.74100 16.77900 26.25100
C  -2.46600 14.34300 28.66400
C  -2.49000 19.19700 28.38400
C  -1.82700 18.92900 23.56400
C  -1.19100 14.09400 23.97200
N  -2.65600 16.70800 28.23400
C  -2.62600 15.67400 29.13100
C  -2.71500 16.21700 30.58700
C  -2.88100 17.76100 30.38700
C  -2.75800 17.89400 28.86400
C  -4.01500 18.46500 30.99100
C  -1.52800 15.79000 31.55000
C  -1.20000 16.64200 32.79100
H  -0.86200 15.76200 34.06400
N  -2.02700 18.77300 25.97500
C  -2.33100 19.63600 26.98700
C  -2.34500 21.02000 26.54000
C  -2.10800 20.91700 25.11100
C  -1.99700 19.54000 24.81900
C  -2.49700 22.19200 27.56800
C  -1.95900 21.97100 24.15100
O  -1.95000 21.74200 22.92900
C  -1.79600 23.32000 24.59400
N  -1.66000 16.51900 24.03000
C  -1.65400 17.58000 23.17600
C  -1.35800 17.20300 21.75000
C  -0.97400 15.65900 21.93300
C  -1.17200 15.37500 23.45700
C  -2.52900 17.48500 20.79600
C  0.49200 15.31700 21.59300
C  1.59300 15.73500 22.59700
N  -1.85200 14.62400 26.22700
C  -1.57900 13.74200 25.28000
C  -1.79600 12.40600 25.72000
C  -2.07200 12.56100 27.09600
C  -2.10800 13.96500 27.36500
C  -1.69700 11.12400 24.84400
C  -2.39900 11.86800 28.33500
O  -2.52600 10.67500 28.60100
C  -2.48300 12.96800 29.45000
C  -1.19800 12.75900 30.20000
O  -0.08600 13.02000 29.80800
O  -1.54700 12.23400 31.41900
C  -0.38000 11.97700 32.28200
H  -2.59200 20.00100 29.11700
H  -1.71900 19.51100 22.64700
H  -0.91100 13.31800 23.25700
H  -3.66500 15.75000 30.84700
H  -2.09800 18.40700 30.78400
H  -3.77000 19.17700 31.77900
H  -4.75500 17.78700 31.41800
H  -4.49100 19.13500 30.27600
H  -0.57200 15.73700 31.02900
H  -1.78600 14.82400 31.98300
H  -1.94400 17.39000 33.06600
H  -0.23400 17.07600 32.53400
H  -2.93300 21.84800 28.50600
H  -3.04800 23.04100 27.16300
H  -1.51100 22.51100 27.90600
H  -1.37500 23.87200 23.75300
H  -1.07500 23.36400 25.40900
H  -2.72200 23.78300 24.93400
H  -0.50900 17.81200 21.44100
H  -1.67600 15.02700 21.38800
H  -3.34200 17.88800 21.39900
H  -2.89300 16.58800 20.29600
H  -2.21000 18.18700 20.02600
H  0.76300 15.80000 20.65400
H  0.61200 14.25100 21.39600
H  2.01800 14.85000 23.07200
H  1.29800 16.42300 23.38900
H  2.39300 16.24100 22.05800
H  -2.62800 10.72600 24.44000
H  -1.15700 10.43600 25.49400
H  -1.05700 11.28700 23.97600
H  -3.32800 12.96600 30.13900
H  -0.87600 11.61100 33.18100
H  0.27700 12.84700 32.28300
H  0.14800 11.07300 31.97900
Mg 47.35900 25.34000 28.67900
C  48.36700 27.58200 31.18500
C  46.45200 23.10000 31.04300
C  46.41600 23.29900 26.17000
C  48.58400 27.67100 26.27000
N  47.31700 25.47900 30.88600
C  47.79300 26.46800 31.73800
C  47.59000 26.09900 33.21100
C  47.16300 24.55600 33.09200
C  46.94100 24.32600 31.55000
C  48.18800 23.52300 33.80300
C  46.50100 27.03600 33.89100
C  47.02300 27.72700 35.20600
H  45.94200 27.86800 36.38900
N  46.58300 23.39600 28.62300
C  46.29000 22.64600 29.68200
C  45.81400 21.38600 29.25900
C  45.69700 21.42700 27.83700
C  46.25200 22.75400 27.47800
C  45.34000 20.30400 30.21100
C  45.19900 20.32600 26.85600
O  45.15500 20.49800 25.63800
C  44.62100 19.02200 27.30400
N  47.58000 25.43900 26.50800
C  47.02500 24.49400 25.67200
C  47.19900 24.84700 24.17500
C  47.68600 26.32000 24.27600
C  47.94300 26.50200 25.77700
C  48.06500 23.80300 23.46000
C  46.77500 27.37200 23.73800
C  45.34800 27.38300 24.37000
N  48.33700 27.18500 28.63000
C  48.73600 28.01000 27.60500
C  49.46900 29.14800 28.21800
C  49.21200 29.01200 29.60000
C  48.52400 27.81700 29.80400
C  50.18200 30.21900 27.52600
C  49.52900 29.61000 30.89700
O  50.19900 30.60600 31.11100
C  49.00200 28.66100 31.94600
C  50.18200 28.24800 32.84400
O  50.87000 27.23200 32.79900
O  50.40700 29.22100 33.80000
C  51.54200 28.91800 34.73100
H  46.18400 22.39000 31.82800
H  46.07600 22.55000 25.45200
H  48.93800 28.44700 25.58800
H  48.54200 26.12800 33.74100
H  46.13600 24.41200 33.42700
H  48.84800 23.05800 33.07200
H  47.62900 22.71500 34.27500
H  48.67300 24.09200 34.59700
H  45.55300 26.51700 34.03200
H  46.13400 27.75400 33.15800
H  47.49700 28.67100 34.93900
H  47.80000 27.09900 35.64300
H  44.41100 19.80900 29.92700
H  45.12700 20.72800 31.19300
H  46.08000 19.50900 30.29700
H  45.17500 18.59800 28.14200
H  44.68200 18.36700 26.43500
H  43.55200 19.04400 27.51800
H  46.18400 24.83500 23.77700
H  48.64300 26.46100 23.77300
H  48.37500 22.99100 24.11700
H  48.98300 24.28100 23.11900
H  47.54900 23.28100 22.65400
H  46.72900 27.31200 22.65100
H  47.19800 28.32900 24.04500
H  45.34900 28.23900 25.04600
H  45.15800 26.40500 24.81200
H  44.57000 27.52900 23.62200
H  51.23800 29.96400 27.42600
H  49.98300 31.17200 28.01400
H  49.77400 30.39400 26.53000
H  48.32700 29.19600 32.61500
H  51.20100 28.09900 35.36400
H  51.81900 29.76300 35.36000
H  52.49000 28.73200 34.22700

