158

Mg 35.15200 2.13000 29.52300
C  32.94500 3.28800 31.98800
C  37.74000 2.37800 31.81000
C  37.26400 1.40800 26.97700
C  32.53400 2.50300 27.05300
N  35.26100 2.91500 31.67700
C  34.22400 3.02200 32.47300
C  34.67900 3.20400 33.91900
C  36.25200 3.18100 33.83700
C  36.45800 2.79900 32.31200
C  36.93600 4.49400 34.24800
C  34.03100 2.05500 34.76300
C  33.25800 2.51900 35.95500
H  33.97500 3.55800 36.84800
N  37.17200 1.86800 29.42300
C  38.07000 1.97300 30.50600
C  39.37700 1.74800 30.07400
C  39.29000 1.48800 28.61700
C  37.84900 1.52500 28.28500
C  40.60800 1.75100 30.96100
C  40.34000 1.30200 27.57700
O  40.07800 1.03800 26.43500
C  41.76900 1.22600 27.96200
N  34.95200 2.11400 27.31600
C  35.94200 1.66100 26.53500
C  35.39100 1.29000 25.10600
C  33.91600 1.30700 25.21400
C  33.79700 2.03000 26.60500
C  35.89000 2.27600 24.05000
C  33.21000 -0.04900 25.13000
C  33.42000 -0.91500 23.88400
N  33.14300 2.74800 29.49800
C  32.22400 2.87200 28.42200
C  31.02400 3.41500 28.96600
C  31.25900 3.69500 30.29600
C  32.56800 3.20600 30.58800
C  29.79100 3.59900 28.18900
C  30.67500 4.16500 31.56800
O  29.51400 4.53600 31.72700
C  31.73700 3.93200 32.68400
C  32.03200 5.35400 33.07000
O  32.93600 6.07800 32.59300
O  31.15900 5.76600 33.97700
C  31.40100 7.02300 34.56500
H  38.53800 2.36200 32.55600
H  37.83900 0.88000 26.21300
H  31.77100 2.36800 26.28300
H  34.28200 4.17700 34.20800
H  36.66000 2.42600 34.51000
H  37.81700 4.73000 33.65100
H  37.29800 4.51200 35.27600
H  36.15100 5.24600 34.17100
H  34.84000 1.41100 35.10800
H  33.37400 1.48900 34.10300
H  33.07900 1.68600 36.63400
H  32.30100 2.92700 35.63100
H  41.36500 1.10500 30.51800
H  40.47200 1.33200 31.95800
H  40.77400 2.82800 30.98100
H  41.84400 0.22200 28.37800
H  42.13500 1.91600 28.72300
H  42.39600 1.34200 27.07800
H  35.82800 0.32400 24.85800
H  33.48000 1.97700 24.47400
H  36.19700 3.19800 24.54400
H  35.13600 2.49300 23.29400
H  36.75000 1.96400 23.45800
H  32.15200 0.21100 25.13500
H  33.48900 -0.59500 26.03100
H  33.68700 -1.90500 24.25600
H  34.21800 -0.74800 23.16100
H  32.47600 -0.95200 23.34000
H  29.99700 3.27400 27.17000
H  29.40000 4.61500 28.24400
H  28.97600 2.93800 28.48300
H  31.19900 3.35600 33.43600
H  31.43900 7.86900 33.87900
H  32.41100 6.95800 34.96800
H  30.78000 7.31900 35.41000
Mg 9.76400 47.98000 27.01800
C  8.01200 47.68900 29.95700
C  12.49600 48.98700 28.73100
C  11.51100 47.92500 24.05500
C  6.83100 47.14800 25.15700
N  10.15100 48.27200 29.14800
C  9.30500 48.12400 30.18000
C  10.05200 48.37400 31.52700
C  11.28700 49.17500 30.98800
C  11.36200 48.81900 29.53000
C  11.19000 50.74300 31.07100
C  10.39000 47.08900 32.36900
C  10.13400 47.24800 33.87100
H  10.12200 45.99400 34.69100
N  11.75000 48.49600 26.48600
C  12.70800 48.77900 27.35300
C  13.99700 48.82700 26.65700
C  13.75200 48.38500 25.31400
C  12.26700 48.25000 25.21100
C  15.25400 49.18100 27.29600
C  14.73400 48.17000 24.22600
O  14.28700 47.83100 23.14500
C  16.19900 48.31900 24.45900
N  9.21400 47.65500 24.90400
C  10.11700 47.73400 23.88600
C  9.51600 47.54000 22.52000
C  8.03900 47.13800 22.81900
C  7.98100 47.38300 24.37700
C  9.72100 48.81500 21.60200
C  7.66500 45.64100 22.45000
C  6.26000 45.29000 21.91400
N  7.78400 47.67700 27.44900
C  6.75000 47.27400 26.55500
C  5.60700 46.91300 27.36700
C  6.03800 47.20000 28.69900
C  7.40400 47.55500 28.70500
C  4.24800 46.67200 26.85200
C  5.57500 47.25100 30.05300
O  4.46300 47.07700 30.57900
C  6.92100 47.45500 30.91200
C  7.07700 46.19700 31.69500
O  7.52200 45.16300 31.24800
O  6.55700 46.39700 33.00600
C  6.66700 45.21600 33.82800
H  13.42600 49.25500 29.23600
H  12.05600 47.81700 23.11500
H  5.95400 46.81200 24.60000
H  9.45300 49.05500 32.13200
H  12.19400 48.86900 31.51000
H  11.17000 51.04900 30.02400
H  11.95900 51.33500 31.56700
H  10.25400 51.08100 31.51600
H  11.45300 46.88300 32.24100
H  9.89400 46.25400 31.87400
H  9.12300 47.65100 33.93800
H  10.99600 47.83300 34.19100
H  15.40300 49.20800 28.37600
H  15.70600 50.11500 26.96200
H  15.86700 48.28300 27.21400
H  16.79300 48.06000 23.58300
H  16.42000 47.54800 25.19600
H  16.43500 49.33100 24.78800
H  9.94600 46.73700 21.92100
H  7.30400 47.82900 22.40500
H  10.26500 49.57800 22.16000
H  8.78900 49.18300 21.17500
H  10.38900 48.53300 20.78900
H  7.87900 44.95100 23.26600
H  8.38100 45.26100 21.72100
H  5.56200 46.11800 21.79400
H  5.90200 44.63300 22.70700
H  6.30500 44.67900 21.01300
H  4.25900 45.72800 26.30800
H  4.07100 47.40700 26.06600
H  3.45800 46.63900 27.60300
H  6.86800 48.36300 31.51300
H  7.53800 44.63000 33.53800
H  5.82000 44.56400 33.61400
H  6.55900 45.49600 34.87600

