158

Mg 44.78200 5.38600 46.19600
C  42.89100 8.38000 46.43100
C  41.90600 3.79000 45.21700
C  46.75000 2.61200 45.45600
C  47.70300 7.35700 46.19600
N  42.62400 6.08400 45.68200
C  42.10800 7.30100 45.99700
C  40.53900 7.28200 45.90300
C  40.28300 5.78300 45.45000
C  41.68900 5.15700 45.41000
C  39.26700 5.04000 46.35900
C  39.86900 8.36500 44.94500
C  40.62300 8.64800 43.63800
H  39.96800 8.37800 42.38300
N  44.39900 3.43000 45.46800
C  43.11300 2.98300 45.23200
C  43.28900 1.48400 45.06400
C  44.69500 1.18000 44.90800
C  45.34600 2.43100 45.26200
C  42.15000 0.58300 44.96300
C  45.22900 -0.15100 44.59500
O  44.49200 -1.13700 44.61900
C  46.63300 -0.46000 44.29000
N  46.93600 4.95000 46.05700
C  47.47300 3.71900 45.77400
C  49.00700 3.83800 45.59000
C  49.36800 5.34800 45.59200
C  47.90200 5.96400 45.94600
C  49.79800 3.00400 46.64400
C  49.97800 5.79300 44.21300
C  48.96500 6.02300 43.02200
N  45.25200 7.40000 46.53800
C  46.44500 8.03400 46.42900
C  46.20600 9.40200 46.85600
C  44.86300 9.62200 46.84700
C  44.28800 8.36500 46.60800
C  47.30200 10.38800 47.08100
C  43.81400 10.63400 46.96600
O  43.80900 11.79300 47.15500
C  42.47200 9.76500 46.78900
C  41.49700 9.89400 47.84300
O  41.46200 9.14500 48.84900
O  40.47100 10.80100 47.57100
C  39.49700 10.85700 48.64800
H  41.00800 3.16800 45.23000
H  47.43500 1.77500 45.30500
H  48.61200 7.96100 46.25400
H  40.17200 7.41900 46.92000
H  39.86500 5.72200 44.44500
H  38.41300 4.63600 45.81500
H  38.90900 5.81300 47.03900
H  39.71600 4.21200 46.90600
H  39.59900 9.20700 45.58200
H  38.87800 7.97700 44.70700
H  41.55600 8.08600 43.61300
H  40.94300 9.69000 43.65700
H  42.14100 0.12000 43.97700
H  41.22100 1.15300 44.93700
H  42.07400 -0.13100 45.78200
H  46.73200 -1.46000 43.86800
H  47.29000 -0.43800 45.16000
H  46.89200 0.21100 43.47100
H  49.29200 3.55500 44.57700
H  49.93100 5.63800 46.47900
H  50.47500 2.30300 46.15600
H  49.04800 2.51300 47.26300
H  50.34800 3.58400 47.38500
H  50.69300 5.09700 43.77400
H  50.49500 6.74500 44.33000
H  47.96000 6.20200 43.40500
H  48.82500 5.16200 42.36800
H  49.29800 6.78600 42.31800
H  48.28000 9.94200 47.25900
H  47.10400 11.06900 47.90800
H  47.35700 10.92000 46.13100
H  41.96700 10.13000 45.89500
H  38.95000 9.91500 48.69700
H  38.67600 11.50100 48.33500
H  39.88100 11.11000 49.63600
Mg 47.99400 25.57800 29.98000
C  48.81500 28.03300 32.33000
C  46.77200 23.68200 32.60000
C  47.37700 23.19700 27.79100
C  49.45800 27.50800 27.53200
N  47.83500 25.90000 32.27400
C  48.20400 26.92100 33.00900
C  47.80000 26.77900 34.48500
C  47.35500 25.29100 34.51600
C  47.36000 24.90900 32.99800
C  48.29500 24.40000 35.31900
C  46.81200 27.79600 35.04600
C  47.33000 28.45300 36.39800
H  46.18800 28.60600 37.43400
N  47.12900 23.81100 30.19100
C  46.66800 23.18500 31.29900
C  45.95800 21.96900 30.94500
C  46.04600 21.85500 29.57200
C  46.94300 22.94900 29.12100
C  45.20600 21.12500 32.07000
C  45.43900 20.84800 28.71300
O  45.64100 20.84800 27.48800
C  44.58200 19.78600 29.29700
N  48.19800 25.45200 27.91900
C  48.01600 24.30300 27.27300
C  48.45500 24.38300 25.85900
C  48.81000 25.93900 25.72800
C  48.83200 26.33900 27.14100
C  49.59600 23.45100 25.44700
C  47.73700 26.87300 24.96300
C  48.44700 28.02000 24.19400
N  48.91800 27.37300 29.90500
C  49.55300 28.05600 28.84400
C  50.05700 29.32600 29.31700
C  49.81600 29.31500 30.63800
C  49.09600 28.13700 30.97200
C  50.85300 30.32500 28.45800
C  50.01600 30.10500 31.82200
O  50.52700 31.17600 31.99300
C  49.37000 29.30000 32.97400
C  50.45300 29.04100 34.00500
O  51.53700 28.48300 33.84300
O  50.03300 29.58600 35.22800
C  51.02200 29.71900 36.31500
H  46.65800 22.95200 33.40400
H  47.16000 22.38700 27.09100
H  49.83200 28.20200 26.77600
H  48.72200 26.72300 35.06400
H  46.33200 25.10900 34.84500
H  47.99700 23.35400 35.37400
H  48.50800 24.76800 36.32200
H  49.22600 24.46000 34.75400
H  45.86000 27.26500 35.06700
H  46.59800 28.57700 34.31600
H  47.62500 29.43300 36.02400
H  48.20800 28.01000 36.86800
H  45.61500 20.13400 32.26400
H  44.21800 20.89200 31.67200
H  44.93500 21.74200 32.92700
H  43.56100 20.08100 29.53700
H  45.06200 19.31800 30.15600
H  44.51400 18.99500 28.54900
H  47.60600 24.18300 25.20600
H  49.77700 26.08000 25.24500
H  50.49300 23.93800 25.06300
H  49.24300 22.81400 24.63500
H  49.91600 22.88800 26.32400
H  47.01500 27.37500 25.60800
H  47.24100 26.15000 24.31600
H  48.23100 28.01600 23.12600
H  49.52800 27.89700 24.24500
H  48.17500 28.98500 24.62300
H  50.89800 29.97100 27.42800
H  51.85000 30.50100 28.86200
H  50.34300 31.28400 28.36600
H  48.58500 29.93400 33.38600
H  52.03900 29.58500 35.94700
H  50.80100 28.95600 37.06100
H  50.87900 30.71900 36.72500

