158

Mg 34.88300 2.39000 29.22200
C  32.70600 3.93900 31.46100
C  37.22800 2.06500 31.72300
C  36.98600 1.28000 26.96500
C  32.49700 3.09900 26.64800
N  35.01500 3.04400 31.31000
C  33.94200 3.57900 32.07200
C  34.30800 3.37400 33.58200
C  35.88300 3.20400 33.53500
C  36.12600 2.70500 32.10000
C  36.87300 4.39700 33.91200
C  33.45000 2.26900 34.30000
C  32.78900 2.84500 35.57700
H  33.45500 4.02800 36.33000
N  36.83200 1.64800 29.38000
C  37.61400 1.64300 30.43000
C  38.82400 0.92400 30.11000
C  38.71100 0.58300 28.73200
C  37.44400 1.16600 28.26200
C  40.08900 0.79500 31.07100
C  39.72500 -0.19500 27.80500
O  39.51100 -0.52900 26.61300
C  41.10700 -0.72800 28.43600
N  34.72300 2.29100 27.14200
C  35.75300 1.77000 26.46400
C  35.43800 1.68700 24.94700
C  33.90800 1.98800 24.93200
C  33.69500 2.58300 26.30900
C  36.26200 2.61200 24.11100
C  32.95600 0.78400 24.55900
C  32.56700 -0.25400 25.63400
N  32.98800 3.40300 29.02300
C  32.09800 3.53600 27.93600
C  30.79500 3.99400 28.43200
C  30.95800 4.15800 29.81700
C  32.31700 3.80000 30.10500
C  29.60800 4.30800 27.54100
C  30.34300 4.62800 31.01800
O  29.25000 5.03700 31.17900
C  31.42900 4.43100 32.14000
C  31.53300 5.77500 32.78500
O  31.96200 6.76200 32.22800
O  31.06400 5.77200 34.02700
C  31.17000 7.07100 34.73100
H  38.04300 1.94600 32.43900
H  37.65600 0.95300 26.16700
H  31.80000 3.22500 25.81700
H  34.15300 4.40300 33.90400
H  36.21300 2.41200 34.20700
H  37.59000 4.68500 33.14300
H  37.45600 4.10300 34.78400
H  36.38400 5.35700 34.07800
H  33.96900 1.36000 34.60200
H  32.63800 2.02400 33.61500
H  32.78100 2.03700 36.30800
H  31.76100 3.08000 35.30100
H  39.90100 1.25200 32.04200
H  41.00700 1.20700 30.65300
H  40.23000 -0.27300 31.24100
H  40.94100 -1.05600 29.46200
H  41.88300 0.03700 28.40200
H  41.51600 -1.58600 27.90300
H  35.57900 0.63100 24.71500
H  33.79100 2.83300 24.25300
H  36.93300 3.22600 24.71100
H  35.65800 3.33000 23.55600
H  36.88900 1.99300 23.47000
H  33.33400 0.22100 23.70600
H  32.03300 1.18600 24.14000
H  31.51300 -0.04500 25.81600
H  33.12900 -0.22800 26.56800
H  32.76700 -1.23700 25.20800
H  29.87300 4.34800 26.48500
H  29.10300 5.25600 27.72800
H  29.02000 3.41200 27.74000
H  31.02200 3.73800 32.87700
H  30.44900 7.73200 34.25000
H  32.19200 7.43800 34.63800
H  30.93700 6.79300 35.75900
Mg 47.34100 17.03400 27.84000
C  45.66800 16.87900 30.92400
C  49.66700 19.15700 29.41400
C  48.54800 17.94900 24.82600
C  44.66000 15.39500 26.30000
N  47.57700 17.92400 29.99800
C  46.84000 17.63400 31.06700
C  47.43700 18.20800 32.32000
C  48.55500 19.12300 31.75700
C  48.63900 18.75400 30.27700
C  48.30200 20.67400 31.95900
C  48.09000 17.11500 33.24400
C  47.83400 17.29700 34.74400
H  47.58800 18.72100 35.27000
N  49.02600 18.18200 27.24300
C  49.90200 18.86600 28.01300
C  50.93600 19.52300 27.13000
C  50.63200 19.13000 25.78300
C  49.37200 18.37500 25.91400
C  51.97700 20.42000 27.71100
C  51.37400 19.56100 24.48000
O  50.81100 19.31900 23.45600
C  52.69900 20.26300 24.61600
N  46.72400 16.67300 25.87000
C  47.38800 17.10000 24.82500
C  46.94700 16.48800 23.49500
C  45.70500 15.56600 24.00200
C  45.63600 15.89100 25.45400
C  46.59800 17.54500 22.39500
C  45.91400 14.03100 23.74000
C  46.65700 13.18900 24.72200
N  45.61200 16.13600 28.47300
C  44.61200 15.55400 27.71000
C  43.60700 15.07000 28.62700
C  43.94900 15.59300 29.88200
C  45.15500 16.28400 29.71600
C  42.44200 14.25100 28.33500
C  43.57400 15.56700 31.24100
O  42.63900 15.04500 31.79100
C  44.62100 16.52500 31.93000
C  43.83400 17.70900 32.42300
O  43.44800 18.61300 31.81000
O  43.72800 17.58700 33.76500
C  43.25200 18.85000 34.42400
H  50.21400 19.91500 29.97800
H  48.84400 18.23100 23.81300
H  43.80300 14.88800 25.85200
H  46.66600 18.74700 32.87100
H  49.46200 18.82600 32.28300
H  48.24000 21.16900 30.99000
H  49.10800 21.08200 32.56900
H  47.36500 20.91900 32.45900
H  49.17600 17.06600 33.17200
H  47.71200 16.15200 32.90100
H  48.73400 16.93200 35.23800
H  47.12800 16.55400 35.11400
H  52.10600 20.47800 28.79200
H  51.78700 21.40600 27.28600
H  52.91200 19.98100 27.36500
H  52.72600 21.27900 25.01200
H  53.17600 20.29100 23.63600
H  53.37400 19.64700 25.20900
H  47.73400 15.84500 23.10200
H  44.78500 15.91800 23.53400
H  45.61600 17.40600 21.94100
H  47.25300 17.47800 21.52600
H  46.57700 18.57300 22.75800
H  46.57700 14.00200 22.87500
H  45.01600 13.46100 23.50200
H  47.55000 12.93900 24.14800
H  45.99000 12.35800 24.95200
H  47.00000 13.74600 25.59300
H  41.96300 13.89000 29.24500
H  42.87000 13.42100 27.77300
H  41.83700 14.87700 27.67900
H  45.05700 16.02600 32.79600
H  42.22400 19.07200 34.13800
H  43.84800 19.73500 34.19900
H  43.27300 18.86500 35.51400

