158

Mg -1.24300 17.94700 27.35300
C  -2.21800 15.80400 30.08100
C  -1.53800 20.63200 29.31900
C  -0.95500 19.70500 24.56300
C  -1.46400 14.85000 25.34200
N  -1.85400 18.15300 29.41400
C  -2.05800 17.21200 30.40300
C  -2.37800 17.80600 31.76900
C  -2.31800 19.32900 31.39800
C  -1.82500 19.39700 29.99200
C  -3.68300 20.16100 31.74700
C  -1.27600 17.53700 32.87300
C  -1.71800 17.10000 34.20400
H  -0.61400 16.48100 35.14300
N  -1.16200 19.85800 27.01800
C  -1.27100 20.88000 27.96700
C  -1.04000 22.19600 27.31300
C  -0.91600 21.94300 25.93100
C  -0.97500 20.47600 25.76800
C  -1.20500 23.57700 27.98500
C  -0.82200 22.90000 24.68700
O  -0.87900 22.44500 23.52000
C  -0.67900 24.37800 24.89300
N  -1.53700 17.35100 25.23300
C  -1.17500 18.29500 24.33200
C  -0.90300 17.62300 22.91500
C  -0.88400 16.11600 23.27500
C  -1.33200 16.06500 24.74300
C  -1.80500 18.05700 21.75600
C  0.41800 15.34600 23.01100
C  1.68600 15.82900 23.77500
N  -1.79100 15.78200 27.59200
C  -1.68500 14.69800 26.73500
C  -2.00100 13.46000 27.40600
C  -2.26200 13.89100 28.73800
C  -2.15500 15.25300 28.80700
C  -2.07400 11.96800 26.81800
C  -2.70500 13.31600 30.03300
O  -3.00700 12.14900 30.34900
C  -2.67000 14.61600 30.91700
C  -1.66300 14.32700 32.01700
O  -0.46000 14.43700 31.82800
O  -2.22200 13.72000 33.10800
C  -1.27100 13.06000 34.08000
H  -1.71300 21.45100 30.02000
H  -0.82000 20.20700 23.60200
H  -1.63300 13.97400 24.71300
H  -3.33800 17.39100 32.07600
H  -1.64700 19.86400 32.07000
H  -3.90800 20.82000 30.90900
H  -3.44000 20.80500 32.59200
H  -4.48500 19.45100 31.95000
H  -0.78600 18.46200 33.17600
H  -0.42900 16.90900 32.59600
H  -2.40700 16.26800 34.05900
H  -2.29400 17.86100 34.73100
H  -1.86600 23.52400 28.85000
H  -1.72100 24.28200 27.33400
H  -0.25600 24.03100 28.27200
H  0.11800 24.38700 25.63600
H  -1.62200 24.77800 25.26500
H  -0.44300 24.84400 23.93600
H  0.07300 18.01000 22.62200
H  -1.64200 15.52400 22.76100
H  -2.86900 17.86400 21.88900
H  -1.61900 17.39100 20.91300
H  -1.57300 19.07900 21.45700
H  0.59600 15.43100 21.93900
H  0.22900 14.27900 23.12000
H  2.12300 14.84700 23.95800
H  1.44700 16.38900 24.67900
H  2.29800 16.35000 23.03800
H  -1.31200 11.35000 27.29300
H  -1.87500 11.99900 25.74700
H  -3.02600 11.53900 27.13000
H  -3.58300 14.77900 31.48900
H  -1.91300 13.07800 34.96100
H  -0.29200 13.49800 34.27600
H  -1.15100 12.02100 33.77500
Mg 10.27400 48.78900 25.05900
C  8.24900 48.83000 27.84300
C  12.63600 50.29100 26.79900
C  12.27400 48.59000 22.26700
C  7.46600 48.01500 22.97000
N  10.39300 49.54000 27.09400
C  9.54100 49.28700 28.11300
C  10.11600 49.75700 29.42300
C  11.34900 50.56200 28.97800
C  11.48000 50.16500 27.50100
C  11.28900 52.11100 29.23100
C  10.31700 48.50500 30.43100
C  9.67600 48.58500 31.87400
H  10.37700 49.43500 32.93100
N  12.15600 49.43500 24.59200
C  12.98600 49.91200 25.53700
C  14.39900 49.85600 25.03400
C  14.35300 49.32600 23.72500
C  12.93700 49.15200 23.49300
C  15.54400 50.26000 25.95000
C  15.42000 49.01700 22.76500
O  15.16000 48.72000 21.60000
C  16.88200 49.11800 23.15500
N  9.87100 48.58100 22.86000
C  10.91500 48.39400 21.96500
C  10.40900 47.77900 20.63400
C  8.91000 47.40900 20.98800
C  8.68500 48.11400 22.33100
C  10.72700 48.61500 19.39800
C  8.65400 45.80900 21.06200
C  9.37100 45.03400 22.23300
N  8.23300 48.58600 25.26900
C  7.25500 48.20300 24.34800
C  5.99000 48.05400 25.10200
C  6.39100 48.32500 26.45700
C  7.72500 48.66600 26.53900
C  4.66600 47.64100 24.66200
C  5.82300 48.35800 27.81100
O  4.69700 48.15500 28.24000
C  7.10500 48.70000 28.80300
C  7.15800 47.51100 29.72800
O  7.38100 46.34300 29.40600
O  6.74000 47.81300 30.99800
C  6.62800 46.59700 31.87500
H  13.46600 50.62800 27.42400
H  12.97400 48.23900 21.50500
H  6.74500 47.50200 22.33000
H  9.31900 50.39500 29.80400
H  12.18500 50.09500 29.49700
H  10.25300 52.32500 29.49300
H  11.48400 52.60100 28.27700
H  11.96000 52.36600 30.05200
H  11.32400 48.48600 30.84900
H  10.22000 47.51900 29.97700
H  9.34700 47.60300 32.21400
H  8.84800 49.21900 31.55800
H  16.40200 49.59900 25.83200
H  15.39700 50.24100 27.03000
H  15.88100 51.27700 25.74700
H  17.05400 50.05000 23.69500
H  17.41400 48.94000 22.22100
H  17.09200 48.25300 23.78300
H  11.00100 46.86500 20.58500
H  8.25900 47.82000 20.21700
H  9.80000 48.82700 18.86600
H  11.40800 48.12000 18.70500
H  11.23000 49.50100 19.78400
H  9.08000 45.27800 20.21200
H  7.58100 45.64900 20.96000
H  8.56600 44.78800 22.92600
H  10.14200 45.62300 22.72900
H  9.86700 44.16000 21.81000
H  4.06000 47.20800 25.45800
H  4.93200 46.87800 23.93000
H  4.04100 48.40700 24.20300
H  7.02200 49.58100 29.44000
H  5.80800 45.96600 31.53400
H  6.38000 46.94700 32.87700
H  7.54500 46.02100 32.00100

