158

Mg 44.32000 3.18200 48.20200
C  42.11300 5.79900 47.37600
C  41.58500 1.05000 47.58400
C  46.42200 0.56700 48.14600
C  47.08400 5.44400 47.67700
N  42.06700 3.45800 47.41300
C  41.37700 4.59500 47.37700
C  39.87800 4.29100 46.99700
C  39.72600 2.81900 47.38500
C  41.22900 2.37900 47.41000
C  38.98500 2.55600 48.78000
C  39.61300 4.63800 45.50900
C  38.68600 5.80600 45.20900
H  39.03100 6.79400 44.01600
N  44.03400 1.04700 48.11600
C  42.84800 0.38100 47.88500
C  43.16200 -1.00700 47.88900
C  44.51500 -1.20100 47.97700
C  45.08600 0.15600 48.09600
C  42.10900 -2.02500 47.70500
C  45.34100 -2.49800 47.94100
O  44.80500 -3.60700 47.80600
C  46.81900 -2.55400 48.16100
N  46.39400 3.09900 48.07300
C  47.03800 1.89000 48.11600
C  48.59600 2.01600 47.87700
C  48.82800 3.54400 47.99300
C  47.37100 4.06100 47.89700
C  49.43000 1.27900 48.94300
C  49.86900 4.17400 47.06300
C  51.05100 3.24300 46.53900
N  44.57400 5.23100 47.70200
C  45.76400 6.06300 47.61000
C  45.27700 7.39400 47.38000
C  43.89200 7.31600 47.26500
C  43.54000 5.96200 47.43600
C  46.33400 8.51400 47.08800
C  42.82000 8.17600 47.04400
O  42.76500 9.42900 46.98100
C  41.57400 7.18900 47.07700
C  40.70000 7.74700 48.16000
O  40.70500 7.29000 49.29400
O  39.88400 8.75200 47.64500
C  38.66800 9.01900 48.47200
H  40.72600 0.40200 47.39900
H  47.28200 -0.10500 48.09400
H  47.89600 6.16100 47.53600
H  39.34100 4.98200 47.64600
H  39.24500 2.10800 46.71400
H  38.67900 3.46000 49.30800
H  39.72500 2.04000 49.39200
H  38.22900 1.77300 48.71800
H  39.20700 3.77300 44.98500
H  40.61300 4.69900 45.08100
H  38.55000 6.41400 46.10300
H  37.75100 5.36400 44.86200
H  41.17400 -1.64300 47.29600
H  41.99500 -2.61400 48.61500
H  42.32100 -2.83400 47.00500
H  47.42900 -2.05300 47.41000
H  47.10100 -3.60700 48.17400
H  47.03500 -2.16000 49.15400
H  48.93100 1.81700 46.85900
H  49.16000 3.75700 49.00900
H  48.81800 1.02800 49.80900
H  50.21500 1.91500 49.35200
H  49.93200 0.45800 48.43200
H  50.32200 4.97800 47.64300
H  49.39100 4.68200 46.22600
H  51.33900 2.59500 47.36700
H  51.95900 3.78700 46.27800
H  50.72000 2.75400 45.62300
H  47.22900 8.19500 46.55400
H  46.59200 9.00300 48.02700
H  45.82300 9.26300 46.48300
H  41.10600 7.33100 46.10200
H  38.53100 8.66800 49.49500
H  37.81500 8.54700 47.98600
H  38.36800 10.06600 48.42400
Mg 53.24600 23.20300 44.25600
C  50.91000 25.56200 43.42600
C  51.02700 20.79000 43.09800
C  55.66400 20.88800 44.77200
C  55.45300 25.78300 45.00400
N  51.28500 23.22900 43.03900
C  50.53000 24.29600 42.92700
C  49.18100 23.87700 42.32600
C  48.99000 22.37800 42.65600
C  50.51600 22.11000 43.05500
C  48.08700 22.06700 43.83000
C  49.18100 24.12600 40.70900
C  47.74000 24.33600 40.11800
H  47.15800 23.24700 39.25700
N  53.36800 21.15900 43.90600
C  52.35500 20.35300 43.46200
C  52.71200 18.98100 43.52900
C  54.06400 18.97300 43.94000
C  54.44200 20.37900 44.25700
C  51.75000 17.79400 43.14800
C  54.86600 17.73500 43.90500
O  54.37700 16.70500 43.56300
C  56.27900 17.71100 44.27700
N  55.35500 23.26800 44.71500
C  56.11700 22.20800 44.96400
C  57.54600 22.64800 45.41400
C  57.42100 24.23400 45.55300
C  56.01800 24.48100 45.04800
C  58.20200 22.00100 46.61300
C  58.51600 25.08800 44.83800
C  59.70900 25.39400 45.80000
N  53.26500 25.23200 44.32000
C  54.21700 26.15700 44.72200
C  53.71100 27.44200 44.61100
C  52.38400 27.25800 44.17000
C  52.19700 25.91500 43.94200
C  54.35000 28.76400 44.89400
C  51.17900 27.93800 43.82000
O  50.90600 29.10900 43.92300
C  50.11800 26.86900 43.41700
C  49.57900 27.12700 42.05700
O  50.18200 27.32800 41.04600
O  48.21300 27.10500 42.18900
C  47.41500 27.78100 41.14900
H  50.22700 20.09100 42.84700
H  56.50200 20.18800 44.77400
H  56.05500 26.57100 45.46100
H  48.22700 24.31400 42.62000
H  48.77700 21.81900 41.74400
H  48.70000 21.59700 44.59900
H  47.30800 21.41700 43.43100
H  47.65900 22.96600 44.27500
H  49.57700 23.25100 40.19300
H  49.78000 24.98400 40.40100
H  47.75700 25.30700 39.62500
H  47.03500 24.45700 40.94100
H  52.10200 17.06300 42.42100
H  50.76800 18.12900 42.81400
H  51.49800 17.41400 44.13800
H  56.77000 17.94800 43.33400
H  56.51800 16.65700 44.42200
H  56.55600 18.25700 45.17900
H  58.20100 22.37000 44.58800
H  57.42200 24.43900 46.62300
H  57.70500 21.09000 46.94500
H  58.44500 22.58900 47.49900
H  59.23700 21.77600 46.35600
H  58.00400 26.01900 44.59400
H  58.85300 24.71300 43.87200
H  59.54000 24.90900 46.76100
H  59.79400 26.47500 45.91100
H  60.58400 24.97600 45.30300
H  54.10300 29.08100 45.90700
H  54.01500 29.55500 44.22200
H  55.43700 28.68600 44.87400
H  49.35300 26.80600 44.19000
H  46.90100 27.09300 40.47800
H  47.92600 28.59600 40.63500
H  46.60100 28.20400 41.73800

