158

Mg 34.89400 3.30800 29.15800
C  32.79200 4.19400 31.82500
C  37.46300 3.05400 31.41800
C  36.83500 2.76900 26.54100
C  32.12500 3.77100 26.96800
N  35.01900 3.53200 31.36700
C  34.04700 3.82200 32.28800
C  34.56700 3.90900 33.72400
C  36.09000 3.74500 33.49200
C  36.21300 3.44400 31.98900
C  36.98500 4.96800 33.86600
C  33.98700 2.83800 34.69900
C  34.75000 2.62600 36.03800
H  35.54300 3.70200 36.71800
N  36.88800 2.97100 29.03800
C  37.76400 2.89400 30.03700
C  39.03500 2.46200 29.49000
C  38.85100 2.31600 28.08800
C  37.49400 2.79000 27.81300
C  40.25200 2.17600 30.34300
C  39.85900 1.81700 27.06700
O  39.65600 1.98900 25.88400
C  41.17800 1.22500 27.50800
N  34.46800 3.35500 27.01600
C  35.45600 3.02400 26.17700
C  34.97100 3.14800 24.72000
C  33.41400 3.12600 24.95500
C  33.29300 3.47600 26.39200
C  35.58700 4.52900 24.19000
C  32.74100 1.76400 24.59400
C  31.45500 1.73400 23.83400
N  32.84700 3.81800 29.29500
C  31.89400 3.93300 28.36900
C  30.66500 4.29500 28.94600
C  30.94100 4.42400 30.33700
C  32.29900 4.12200 30.48800
C  29.43200 4.52500 28.22500
C  30.41300 4.76900 31.61500
O  29.31300 5.18500 31.88300
C  31.53100 4.48300 32.68500
C  31.66900 5.53600 33.64500
O  32.27200 6.57300 33.48500
O  30.96600 5.19700 34.80300
C  30.84300 6.16300 35.91800
H  38.23700 2.95500 32.18100
H  37.49700 2.54600 25.70100
H  31.21300 3.89100 26.38000
H  34.30300 4.92900 34.00200
H  36.38400 2.86100 34.05700
H  36.47000 5.64000 34.55200
H  37.22400 5.56700 32.98800
H  37.92700 4.63800 34.30500
H  34.00500 1.91000 34.12600
H  32.97200 3.20600 34.84700
H  35.33600 1.72000 35.88600
H  34.01700 2.28200 36.76700
H  40.33100 1.08900 30.31500
H  40.12800 2.48700 31.38100
H  41.14600 2.73200 30.05900
H  41.84900 1.18500 26.65100
H  40.93200 0.25000 27.93000
H  41.70600 1.78500 28.28000
H  35.27600 2.33400 24.06200
H  32.98200 3.85600 24.26900
H  35.77300 5.22200 25.01000
H  34.97600 5.00600 23.42400
H  36.55900 4.31100 23.74800
H  32.59000 1.13300 25.46900
H  33.40300 1.29600 23.86500
H  30.81100 2.57900 24.07800
H  30.99000 0.78700 24.10700
H  31.56500 1.67100 22.75200
H  29.35300 5.45800 27.66600
H  28.65000 4.52400 28.98500
H  29.25500 3.67000 27.57200
H  31.26500 3.63600 33.31800
H  31.11200 7.16500 35.58400
H  31.55300 5.97600 36.72400
H  29.78600 6.23200 36.17200
Mg 27.23900 50.39600 26.10000
C  25.07700 51.26400 28.89900
C  29.44900 49.27900 28.45700
C  29.37200 50.07200 23.63200
C  24.85200 51.82600 23.90000
N  27.31800 50.46600 28.39600
C  26.27200 50.69200 29.27600
C  26.59500 50.29100 30.70000
C  28.03100 49.71200 30.54100
C  28.27100 49.79300 29.03200
C  29.18700 50.38200 31.38300
C  25.59700 49.28400 31.29400
C  24.88100 49.74100 32.50900
H  25.78900 50.26200 33.74500
N  29.19500 49.72600 26.04700
C  29.96000 49.29700 27.16500
C  31.23000 48.87000 26.55200
C  31.22600 49.09100 25.18100
C  29.90300 49.61000 24.91800
C  32.29900 48.20400 27.41400
C  32.36900 48.86200 24.17900
O  32.27500 49.30100 23.04700
C  33.66400 48.21700 24.63000
N  27.24700 51.20700 24.09000
C  28.19100 50.70400 23.31400
C  27.71400 50.80400 21.77500
C  26.21400 51.15000 21.88200
C  26.09700 51.41400 23.36000
C  28.54700 51.74000 20.81900
C  25.25600 49.97700 21.48800
C  24.33200 50.46600 20.33300
N  25.39200 51.38600 26.33300
C  24.50100 51.85900 25.33700
C  23.28200 52.33800 25.98400
C  23.48500 52.18700 27.39500
C  24.73900 51.57300 27.57500
C  22.08600 52.98400 25.37000
C  22.90900 52.36200 28.65900
O  21.86300 52.97100 28.92900
C  23.94000 51.83200 29.75200
C  24.38600 52.90800 30.69100
O  25.42100 53.60600 30.61900
O  23.41900 53.07600 31.60200
C  23.86400 53.73300 32.85100
H  30.02100 48.71200 29.19500
H  29.84700 49.70300 22.72100
H  23.99100 52.06400 23.27200
H  26.55800 51.19900 31.30200
H  28.04500 48.66600 30.84900
H  28.81900 50.94100 32.24300
H  29.90600 51.04600 30.90400
H  29.81700 49.55200 31.70300
H  26.02300 48.28800 31.41600
H  24.83600 49.16300 30.52400
H  24.30600 48.94100 32.97600
H  24.16600 50.52300 32.25500
H  32.54600 47.18800 27.10700
H  31.92100 47.98200 28.41200
H  33.16300 48.86700 27.38900
H  33.38500 47.25500 25.05800
H  34.17500 48.82200 25.38000
H  34.21500 47.93700 23.73200
H  27.71800 49.80200 21.34400
H  26.19700 52.13100 21.40900
H  29.53500 51.90800 21.24800
H  27.98600 52.66800 20.70600
H  28.69300 51.21000 19.87800
H  24.65400 49.72200 22.36000
H  25.93600 49.13900 21.33800
H  24.82100 50.40100 19.36100
H  24.05900 51.50500 20.52100
H  23.34900 49.99800 20.27900
H  21.95400 52.80100 24.30400
H  22.09300 54.02400 25.69700
H  21.20300 52.64100 25.91000
H  23.47100 50.97900 30.24300
H  24.40400 54.64800 32.60900
H  24.56700 53.14800 33.44300
H  23.00800 53.97200 33.48200

