158

Mg 40.50900 10.07600 29.44300
C  42.57700 11.37200 31.93900
C  38.51100 8.58500 31.93200
C  38.70400 8.59900 27.03600
C  42.90300 11.12200 27.08200
N  40.64100 9.89400 31.68000
C  41.43300 10.67600 32.45100
C  40.93400 10.66000 33.96000
C  39.78800 9.62800 33.91900
C  39.62200 9.33800 32.37200
C  39.99800 8.33100 34.68300
C  40.49700 12.03400 34.49500
C  39.72900 12.15100 35.87600
H  40.34600 13.11200 36.91100
N  38.82800 8.76000 29.54000
C  38.11200 8.33300 30.63000
C  36.91300 7.57700 30.13400
C  37.00600 7.49900 28.70300
C  38.20700 8.31900 28.33600
C  36.01600 6.91200 31.14300
C  36.02800 6.79600 27.76100
O  36.27500 6.66300 26.54000
C  34.73300 6.15900 28.36400
N  40.78800 9.86000 27.32400
C  39.79000 9.35700 26.56300
C  40.23900 9.43900 25.07900
C  41.46900 10.51100 25.11700
C  41.76800 10.49200 26.63000
C  40.68500 8.02500 24.62800
C  41.15500 11.86000 24.37900
C  40.49700 12.97000 25.24100
N  42.32600 11.10900 29.44300
C  43.21000 11.42700 28.39900
C  44.40800 11.98200 28.93200
C  44.08100 12.18900 30.34300
C  42.88100 11.53300 30.55800
C  45.61900 12.44100 28.25100
C  44.63400 12.68300 31.59200
O  45.66700 13.26600 31.86800
C  43.51500 12.35500 32.63800
C  44.17000 11.82800 33.90800
O  44.78700 10.79900 33.93800
O  43.73100 12.57000 35.00500
C  44.25500 12.04500 36.34700
H  37.84700 8.36300 32.77000
H  38.09500 8.16200 26.24100
H  43.43000 11.66800 26.29700
H  41.62100 10.41300 34.76900
H  38.86100 10.13500 34.18500
H  39.11000 8.00600 35.22500
H  40.82800 8.17800 35.37300
H  40.10300 7.54800 33.93300
H  39.87700 12.50900 33.73400
H  41.41000 12.62900 34.52900
H  39.64000 11.15800 36.31700
H  38.70500 12.49700 35.74300
H  35.09500 7.48200 31.26600
H  36.46600 6.89700 32.13500
H  35.77900 5.89800 30.82300
H  34.03400 5.98400 27.54600
H  34.39500 6.93200 29.05400
H  35.02400 5.28800 28.95200
H  39.37400 9.76500 24.50200
H  42.34800 10.26400 24.52200
H  40.72000 7.29300 25.43500
H  41.69400 8.07100 24.21900
H  40.01300 7.51900 23.93500
H  40.55200 11.65000 23.49500
H  42.14400 12.21400 24.08900
H  40.78100 13.08900 26.28700
H  39.40900 12.92000 25.28800
H  40.61900 13.81300 24.56100
H  46.53600 12.45900 28.84000
H  45.43000 13.46000 27.91200
H  45.76500 11.77700 27.39900
H  42.97200 13.28200 32.82200
H  43.88100 11.04000 36.54400
H  44.01100 12.67300 37.20300
H  45.34300 12.08100 36.30100
Mg 36.17600 49.33200 24.95000
C  36.29300 47.62200 27.96400
C  34.70900 52.04300 26.55900
C  35.87100 50.78600 21.94200
C  37.27400 46.34500 23.34900
N  35.60800 49.76400 27.04900
C  35.80600 48.92200 28.18200
C  35.47300 49.67300 29.48000
C  34.84100 51.02600 28.96100
C  35.05400 50.90600 27.39900
C  33.37800 51.33800 29.41300
C  36.84600 49.85600 30.29500
C  36.77800 49.30300 31.69600
H  36.30700 50.31400 32.71700
N  35.45900 51.15100 24.32300
C  34.97400 52.15000 25.12300
C  34.54200 53.29200 24.32400
C  34.95000 52.97400 22.98100
C  35.43400 51.59700 23.03000
C  34.09500 54.64500 24.92600
C  34.98300 53.80700 21.73000
O  35.42300 53.44500 20.62900
C  34.63100 55.27000 21.90100
N  36.48300 48.63800 22.95800
C  36.26300 49.44600 21.86400
C  36.76600 48.72600 20.51400
C  37.61000 47.58200 21.16100
C  37.04700 47.45600 22.60300
C  35.45700 48.24800 19.72400
C  39.17000 47.83600 21.16000
C  39.92500 47.25300 20.00700
N  36.75600 47.37800 25.49700
C  37.16400 46.26200 24.77500
C  37.44000 45.11600 25.65200
C  37.16800 45.62700 26.87500
C  36.73100 46.97900 26.75400
C  37.79200 43.68800 25.30400
C  37.26700 45.24000 28.29500
O  37.64700 44.20500 28.79300
C  36.68600 46.52500 29.05700
C  35.65200 46.12900 30.02900
O  34.41600 46.33200 29.97500
O  36.30400 45.52600 31.10900
C  35.34900 45.16700 32.20200
H  34.14700 52.77800 27.13900
H  35.56100 51.13700 20.95500
H  37.78600 45.60100 22.73600
H  34.77800 49.02200 30.01000
H  35.48800 51.84000 29.28700
H  32.65800 51.25800 28.59900
H  33.35700 52.33400 29.85600
H  32.96700 50.66500 30.16600
H  37.11800 50.90500 30.41100
H  37.61800 49.37100 29.69800
H  37.69600 48.74800 31.89100
H  36.05200 48.49000 31.67300
H  34.80500 55.39800 24.58500
H  34.01200 54.59700 26.01200
H  33.09200 54.87300 24.56300
H  33.64700 55.45000 22.33300
H  34.77000 55.67900 20.90000
H  35.37000 55.77000 22.52600
H  37.33200 49.41400 19.88700
H  37.44100 46.66900 20.58900
H  35.58300 47.19200 19.48200
H  35.15800 48.78000 18.82100
H  34.59400 48.23300 20.39000
H  39.68400 47.61200 22.09500
H  39.29700 48.90500 20.98900
H  39.36800 46.91700 19.13300
H  40.35900 46.32100 20.37000
H  40.64600 48.03300 19.76200
H  37.77200 43.60500 24.21700
H  37.14800 43.05100 25.90900
H  38.81400 43.51300 25.64100
H  37.50400 46.92300 29.65700
H  35.93900 45.18100 33.11900
H  34.80600 44.22200 32.20700
H  34.67800 45.99900 32.41600

