158

Mg 48.21100 44.18400 43.20500
C  44.77800 44.22000 42.72200
C  48.07000 40.70700 42.52700
C  51.46200 44.19400 43.46200
C  48.22800 47.66000 42.98300
N  46.54900 42.56300 42.47800
C  45.23400 42.86300 42.57800
C  44.40600 41.61700 42.52300
C  45.49600 40.46000 42.61000
C  46.80500 41.24700 42.45200
C  45.44300 39.61600 43.87500
C  43.55300 41.55100 41.23400
C  44.12200 42.23500 40.00800
H  43.77600 41.54600 38.71300
N  49.61200 42.62600 42.97300
C  49.32900 41.27100 42.81800
C  50.59500 40.59500 42.75700
C  51.62900 41.55300 43.07200
C  50.94600 42.89000 43.17600
C  50.81200 39.12000 42.50500
C  53.15200 41.27300 43.34000
O  53.64300 40.18300 43.37100
C  54.06500 42.40900 43.72500
N  49.61300 45.71100 43.07500
C  50.85700 45.44200 43.41500
C  51.77400 46.68000 43.52800
C  50.78000 47.83900 43.16600
C  49.46900 47.07700 43.07100
C  52.55500 46.95600 44.78200
C  51.09400 48.61500 41.85000
C  51.87000 49.97100 42.07400
N  46.84500 45.69300 42.89600
C  46.97800 47.05600 42.93400
C  45.68700 47.71300 42.87300
C  44.74700 46.62500 42.87400
C  45.52400 45.40700 42.85800
C  45.46700 49.21600 42.92400
C  43.29800 46.24900 42.92600
O  42.34500 46.96200 43.00100
C  43.27800 44.65400 42.75500
C  42.24400 44.18400 43.69100
O  41.25900 43.60500 43.28800
O  42.53100 44.47800 44.97700
C  41.63400 44.06600 46.02600
H  47.95400 39.62500 42.43000
H  52.51200 44.35400 43.71200
H  48.30800 48.74700 42.90700
H  43.68400 41.75000 43.33000
H  45.51700 39.77800 41.76000
H  46.01700 38.70400 43.70800
H  44.41600 39.28900 44.03700
H  45.85600 40.11100 44.75400
H  42.61800 42.04600 41.49500
H  43.40200 40.48600 41.05600
H  45.20400 42.30000 40.12100
H  43.75500 43.26100 39.97200
H  51.39600 38.85400 41.62300
H  49.93300 38.49600 42.34300
H  51.05700 38.65100 43.45800
H  54.33800 43.20000 43.02600
H  55.05300 42.00900 43.95800
H  53.66700 42.86200 44.63300
H  52.51600 46.59300 42.73500
H  50.71900 48.60900 43.93400
H  52.22100 46.28600 45.57400
H  52.42300 47.95400 45.20100
H  53.60000 46.70700 44.59700
H  50.16100 48.85600 41.34100
H  51.79600 48.04200 41.24400
H  51.23100 50.83800 41.90500
H  52.63900 49.92400 41.30300
H  52.30600 50.11100 43.06300
H  44.63200 49.46400 42.26900
H  46.37900 49.70900 42.58800
H  45.26000 49.53200 43.94700
H  42.81300 44.37300 41.81000
H  42.10200 43.27500 46.61100
H  40.68200 43.65800 45.68700
H  41.38600 44.87900 46.70800
Mg 9.09800 48.29200 27.40800
C  6.84800 48.21000 30.12600
C  11.74000 49.08100 29.44600
C  11.00200 48.42900 24.71400
C  6.17400 47.91600 25.35600
N  9.24200 48.60000 29.55800
C  8.23100 48.40400 30.48000
C  8.79800 48.41800 31.90200
C  10.25600 48.96000 31.62700
C  10.44000 48.92300 30.11000
C  10.30200 50.32000 32.33900
C  8.78700 47.05900 32.75800
C  9.81300 46.82000 33.89200
H  9.19900 46.36900 35.28000
N  11.03400 48.67700 27.14200
C  11.97400 48.97000 28.07000
C  13.30400 48.97400 27.52400
C  13.13600 49.00000 26.13600
C  11.66900 48.62700 25.90900
C  14.57800 49.14700 28.48400
C  14.12700 49.27000 25.00100
O  13.82500 49.13700 23.83500
C  15.60200 49.59700 25.35200
N  8.52600 48.24300 25.30900
C  9.60600 48.35900 24.43600
C  9.13800 48.23000 22.94700
C  7.58300 48.17200 23.13700
C  7.42200 48.06200 24.67200
C  9.65500 49.20700 21.84500
C  6.81700 47.01000 22.36600
C  6.76200 47.12700 20.85800
N  6.86800 48.14100 27.66100
C  5.87700 48.01100 26.71600
C  4.55900 47.90900 27.38400
C  4.89500 48.00600 28.76200
C  6.29400 48.11100 28.82400
C  3.13800 47.77100 26.71800
C  4.33900 47.95100 30.08300
O  3.18300 47.87200 30.41700
C  5.63700 47.98300 31.04900
C  5.62800 46.64600 31.64800
O  5.92600 45.58500 31.09300
O  5.21100 46.73000 32.96100
C  5.20000 45.45700 33.70200
H  12.58100 49.14100 30.14000
H  11.59400 48.44700 23.79700
H  5.26000 47.86200 24.76100
H  8.11400 49.09200 32.41700
H  10.98000 48.26200 32.04700
H  11.29200 50.38800 32.79200
H  9.53600 50.37900 33.11200
H  10.13900 51.11500 31.61200
H  8.83700 46.24800 32.03100
H  7.77000 47.04200 33.15000
H  10.24200 47.77300 34.19900
H  10.42700 45.98700 33.55000
H  15.43200 48.62800 28.05000
H  14.46400 48.70400 29.47300
H  14.85000 50.20000 28.55400
H  16.08600 48.62900 25.22400
H  15.72300 50.17400 26.26900
H  16.00000 50.24900 24.57400
H  9.40200 47.21400 22.65400
H  7.15100 49.12900 22.84600
H  10.27000 48.72100 21.08800
H  10.31600 49.97000 22.25600
H  9.03200 49.79400 21.17000
H  5.84700 47.07200 22.86000
H  7.33300 46.07600 22.58500
H  7.18500 46.17600 20.53400
H  7.23200 47.91900 20.27500
H  5.72000 47.16100 20.53800
H  3.03500 46.83500 26.17000
H  3.03000 48.53500 25.94900
H  2.37800 47.76400 27.50000
H  5.61500 48.70100 31.86900
H  4.71200 45.61300 34.66400
H  6.24500 45.27700 33.95700
H  4.75300 44.59200 33.21200

