158

Mg 36.19600 2.32500 29.93100
C  33.83500 3.76500 32.05800
C  38.24700 2.09600 32.65800
C  38.54600 1.34000 27.82700
C  33.95400 2.87600 27.30800
N  36.09300 3.17500 31.99800
C  35.01100 3.51200 32.68900
C  35.25400 3.56300 34.18000
C  36.78300 3.29800 34.30400
C  37.07400 2.84700 32.88300
C  37.43300 4.49700 34.87900
C  34.52000 2.47700 34.99200
C  33.80800 3.08100 36.31100
H  34.55200 4.10300 37.11000
N  38.15200 1.70600 30.23400
C  38.80400 1.62700 31.42700
C  40.07800 0.92300 31.25400
C  40.17600 0.84800 29.83200
C  38.93100 1.31800 29.20800
C  41.07400 0.74700 32.41200
C  41.32500 0.38700 28.95300
O  41.38400 0.33800 27.73900
C  42.62100 -0.11800 29.61200
N  36.23900 2.18900 27.92600
C  37.38400 1.89800 27.27600
C  37.22600 2.05300 25.67000
C  35.72100 2.25500 25.49400
C  35.25700 2.41000 27.04600
C  38.12400 3.18900 25.17400
C  35.08200 1.02200 24.89000
C  33.76900 1.22700 24.08600
N  34.18500 3.02000 29.63300
C  33.44500 3.19900 28.57600
C  32.14400 3.70600 28.94600
C  32.24800 3.92300 30.30200
C  33.55800 3.56600 30.67900
C  31.05800 4.04100 27.97800
C  31.53700 4.51800 31.42100
O  30.43900 5.04000 31.49500
C  32.52400 4.21600 32.65200
C  32.63700 5.52300 33.35000
O  33.27500 6.49900 33.00100
O  31.84400 5.45600 34.51400
C  31.88700 6.64400 35.40000
H  38.92200 2.10800 33.51600
H  39.29700 0.96400 27.13000
H  33.27600 3.17000 26.50400
H  34.93600 4.56500 34.46800
H  36.95700 2.38300 34.87000
H  37.61300 4.24700 35.92400
H  36.86000 5.42100 34.80100
H  38.43800 4.66600 34.49200
H  35.10000 1.63600 35.37000
H  33.72900 2.04800 34.37600
H  33.56500 2.25700 36.98200
H  32.89900 3.46400 35.84800
H  41.70300 -0.12300 32.21900
H  40.43200 0.62600 33.28400
H  41.61900 1.67000 32.61400
H  43.08100 0.72500 30.12700
H  43.36300 -0.42200 28.87300
H  42.44200 -0.93700 30.30900
H  37.51600 1.10000 25.22600
H  35.38800 3.17600 25.01600
H  38.94100 2.82000 24.55400
H  38.53100 3.68500 26.05600
H  37.50300 3.92000 24.65800
H  34.82500 0.38300 25.73500
H  35.79700 0.66900 24.14700
H  33.68100 0.34100 23.45700
H  33.87700 2.06500 23.39700
H  32.92300 1.40700 24.74800
H  31.03800 5.08300 27.65900
H  30.09500 3.72700 28.38300
H  31.12600 3.37500 27.11700
H  32.10400 3.49300 33.35100
H  31.27300 7.27500 34.75800
H  32.88000 7.05600 35.57900
H  31.34700 6.40100 36.31500
Mg 6.08600 53.50600 40.68300
C  5.20200 50.10000 40.50800
C  9.34300 52.66700 39.83300
C  6.64300 56.76800 39.82400
C  2.67000 54.30700 41.17400
N  7.12900 51.56800 40.12900
C  6.60100 50.30100 40.17000
C  7.57400 49.27100 39.74700
C  8.94300 50.05500 39.83900
C  8.46700 51.53300 39.90500
C  9.83800 49.60900 41.07600
C  7.40000 48.58400 38.35500
C  6.98000 49.46500 37.12600
H  6.00200 48.89400 36.10600
N  7.70600 54.60300 39.96800
C  9.03900 54.06200 39.76400
C  9.95100 55.14600 39.32800
C  9.12800 56.35300 39.41800
C  7.75000 55.93700 39.76100
C  11.34600 55.08000 38.80500
C  9.58700 57.80000 39.00300
O  10.76200 57.99200 38.75400
C  8.65800 58.96300 38.94800
N  4.77200 55.28100 40.38600
C  5.28100 56.45700 40.18800
C  4.22300 57.59800 40.25200
C  2.99100 56.81800 40.74400
C  3.47600 55.35400 40.84200
C  4.64200 58.81100 41.22600
C  1.75500 56.97200 39.71200
C  0.46800 57.63300 40.26700
N  4.30900 52.44000 40.98300
C  2.99100 52.90300 41.12100
C  2.08700 51.75900 41.28100
C  2.89800 50.63400 41.05500
C  4.26100 51.13600 40.86100
C  0.61200 51.88300 41.52200
C  2.97000 49.20400 40.94300
O  2.09300 48.38600 41.17700
C  4.44300 48.78400 40.71000
C  4.38500 47.86200 39.55400
O  4.14200 48.21800 38.42700
O  4.75100 46.53400 39.88700
C  5.07300 45.71200 38.72200
H  10.38900 52.47800 39.58200
H  6.77800 57.83900 39.65700
H  1.67100 54.61300 41.49200
H  7.49900 48.53500 40.54800
H  9.55000 49.87600 38.95100
H  10.71100 49.07800 40.69600
H  9.28000 48.88900 41.67400
H  10.23400 50.42600 41.67900
H  6.62100 47.83800 38.51100
H  8.33200 48.07100 38.11700
H  7.87800 49.82000 36.62000
H  6.59300 50.42100 37.48100
H  11.50900 55.26100 37.74200
H  11.76900 54.10900 39.06500
H  12.01700 55.75100 39.34100
H  9.22100 59.87200 38.73500
H  8.35300 59.24900 39.95500
H  7.81900 58.93100 38.25300
H  4.10100 58.04300 39.26400
H  2.76300 57.11100 41.76900
H  3.89100 58.99800 41.99400
H  4.74100 59.78100 40.73800
H  5.56400 58.50000 41.71700
H  1.49700 55.96000 39.40100
H  1.97800 57.52000 38.79700
H  -0.24800 56.82400 40.41600
H  0.04800 58.40100 39.61900
H  0.68200 58.08100 41.23800
H  0.19100 51.50800 40.58900
H  0.23600 52.89900 41.63800
H  0.54900 51.24100 42.40100
H  4.80500 48.22700 41.57400
H  5.94900 46.02800 38.15500
H  4.17900 45.74500 38.09800
H  5.21400 44.66700 38.99900

