158

Mg -2.77800 17.38800 27.19100
C  -3.36600 15.06900 29.76000
C  -3.22300 19.91000 29.54300
C  -2.54400 19.50100 24.79200
C  -3.11700 14.72400 24.86200
N  -3.25000 17.45200 29.34200
C  -3.32800 16.40200 30.16600
C  -3.37300 16.88300 31.67500
C  -3.79000 18.40500 31.48500
C  -3.47400 18.61000 30.02900
C  -5.31900 18.77800 31.75200
C  -2.07000 16.60600 32.41300
C  -1.93600 17.35700 33.70200
H  -1.59700 16.66900 34.95100
N  -2.68000 19.45800 27.17600
C  -2.84300 20.34800 28.24100
C  -2.59600 21.68900 27.72700
C  -2.22400 21.55300 26.37700
C  -2.47800 20.14000 26.04700
C  -2.71400 22.89900 28.51400
C  -1.58200 22.55200 25.42800
O  -1.37000 22.33400 24.24600
C  -1.23200 23.82600 25.95100
N  -2.75700 17.16600 25.11400
C  -2.77100 18.20100 24.32800
C  -2.90700 17.85500 22.83100
C  -3.04600 16.28800 22.90800
C  -2.90500 16.04700 24.38700
C  -3.89700 18.66700 22.04100
C  -2.16300 15.42900 21.99700
C  -0.74900 14.99700 22.32900
N  -3.21400 15.31600 27.20700
C  -3.24000 14.33700 26.27000
C  -3.41300 12.99800 26.87200
C  -3.28600 13.29600 28.19600
C  -3.28100 14.66000 28.38300
C  -3.54500 11.72700 26.11400
C  -3.25900 12.64100 29.47000
O  -3.16500 11.49000 29.85200
C  -3.40600 13.80700 30.48000
C  -2.34400 13.64100 31.49400
O  -1.19800 13.70600 31.14600
O  -2.90600 13.17400 32.68300
C  -1.89600 12.59200 33.59500
H  -3.34800 20.75400 30.22500
H  -2.45300 20.13600 23.90800
H  -3.24000 13.93600 24.11700
H  -4.10700 16.27900 32.20800
H  -3.23500 19.09600 32.11900
H  -5.43600 18.65200 32.82800
H  -6.03700 18.17800 31.19200
H  -5.40700 19.84000 31.52300
H  -1.09700 16.81100 31.96600
H  -2.22500 15.57000 32.71200
H  -2.87300 17.88200 33.89000
H  -1.15500 18.11400 33.65100
H  -1.75300 23.36700 28.72700
H  -3.13800 22.69800 29.49700
H  -3.29600 23.72700 28.10900
H  -0.51500 23.71800 26.76500
H  -2.11500 24.37900 26.27100
H  -0.78200 24.51200 25.23400
H  -1.98700 18.17000 22.34000
H  -4.09700 16.09000 22.69600
H  -3.51200 19.45100 21.38800
H  -4.63800 19.06100 22.73600
H  -4.52300 18.04900 21.39700
H  -2.05100 16.05700 21.11300
H  -2.75600 14.58800 21.63900
H  -0.42900 15.36800 23.30200
H  0.03600 15.28900 21.63100
H  -0.69500 13.91600 22.46400
H  -4.13200 11.02600 26.70700
H  -2.55000 11.43900 25.77500
H  -4.18000 11.89700 25.24400
H  -4.37800 13.73800 30.96900
H  -2.28900 12.91400 34.55900
H  -0.87900 12.84900 33.29600
H  -1.92600 11.50200 33.60000
Mg 24.18500 -4.66100 45.90300
C  26.33800 -2.47300 44.34700
C  21.73400 -3.53300 43.63200
C  22.48800 -7.49200 46.52700
C  26.95500 -5.93100 47.82400
N  24.04400 -3.24700 44.18300
C  25.02800 -2.37100 43.83000
C  24.60500 -1.30500 42.75100
C  23.06100 -1.39400 42.95200
C  22.87000 -2.79300 43.63400
C  22.50100 -0.28200 43.85500
C  25.14100 -1.82600 41.36200
C  25.88900 -0.82700 40.53200
H  25.77400 -0.92100 39.00200
N  22.27900 -5.47600 45.16800
C  21.49800 -4.78100 44.28100
C  20.24700 -5.50500 44.29900
C  20.42300 -6.72000 45.07900
C  21.74300 -6.61700 45.63400
C  19.12400 -5.08100 43.38400
C  19.45200 -7.90200 45.37100
O  18.29800 -7.87300 44.83300
C  19.85800 -9.19800 46.06000
N  24.68100 -6.46100 47.07000
C  23.74100 -7.36900 47.23900
C  24.25400 -8.42600 48.30700
C  25.53100 -7.73400 48.87200
C  25.84800 -6.68300 47.80300
C  23.29800 -8.83000 49.48400
C  26.76000 -8.78000 49.11300
C  27.56100 -8.62200 50.47700
N  26.19800 -4.24300 46.19500
C  27.20600 -4.78300 46.95400
C  28.45900 -4.09900 46.79500
C  28.14800 -3.25300 45.67300
C  26.79100 -3.33700 45.40200
C  29.73400 -4.42800 47.47600
C  28.76700 -2.33400 44.72900
O  29.89400 -2.00200 44.37700
C  27.58000 -1.77700 43.91800
C  27.58100 -0.26700 44.04000
O  27.18500 0.35700 45.00000
O  27.91400 0.21000 42.82700
C  28.20500 1.66700 42.82500
H  20.82300 -3.12300 43.19200
H  22.03700 -8.36300 47.00700
H  27.77100 -6.25200 48.47400
H  25.03400 -0.35700 43.07800
H  22.57100 -1.25700 41.98800
H  23.28200 0.31700 44.32200
H  21.95800 -0.72800 44.68900
H  21.81200 0.29000 43.23300
H  24.28600 -2.02300 40.71500
H  25.80700 -2.67500 41.52100
H  26.92400 -1.13000 40.69000
H  25.75800 0.20800 40.84400
H  19.31100 -5.52000 42.40400
H  19.07800 -3.99300 43.33200
H  18.16500 -5.49500 43.69500
H  19.20200 -9.99300 45.70800
H  19.75300 -9.03200 47.13200
H  20.85400 -9.45700 45.70000
H  24.47500 -9.37400 47.81700
H  25.37800 -7.27700 49.85000
H  23.84300 -8.87400 50.42700
H  23.00900 -9.88100 49.50300
H  22.44800 -8.14700 49.47900
H  27.43100 -8.84300 48.25600
H  26.34300 -9.78700 49.08700
H  28.37700 -7.94000 50.23600
H  27.99300 -9.55800 50.83000
H  26.81500 -8.20100 51.15000
H  30.40300 -5.00500 46.83700
H  29.46000 -4.97200 48.37900
H  30.26000 -3.50600 47.72500
H  27.87300 -1.97100 42.88600
H  27.76500 2.04000 41.90000
H  29.28100 1.84000 42.81400
H  27.81400 2.32800 43.59900

