158

Mg 16.79300 52.56000 25.40200
C  18.21400 51.43500 28.32400
C  14.34800 53.94000 27.31400
C  15.09400 53.06900 22.56000
C  19.15500 50.66400 23.54300
N  16.36100 52.54300 27.63600
C  17.23000 52.29900 28.61300
C  16.60100 52.57900 30.01600
C  15.30600 53.44200 29.60100
C  15.33500 53.39700 28.09400
C  13.94500 52.88600 30.19700
C  17.58100 53.32700 31.02500
C  17.37800 53.40900 32.55300
H  16.27000 52.41400 33.07600
N  15.05200 53.45400 24.97600
C  14.14300 53.91700 25.91500
C  12.98300 54.46600 25.22000
C  13.17500 54.25300 23.81900
C  14.45300 53.53300 23.73900
C  11.83400 55.27400 25.97600
C  12.30400 54.71500 22.66600
O  12.50000 54.43200 21.47500
C  11.08200 55.59000 22.97000
N  17.18800 52.11600 23.33700
C  16.29100 52.37800 22.37800
C  16.68400 51.72400 21.08100
C  18.11000 51.14900 21.30700
C  18.15000 51.31300 22.84400
C  15.69700 50.58000 20.61900
C  19.39500 51.83800 20.68500
C  19.83000 51.20700 19.40900
N  18.33800 51.30900 25.81700
C  19.30100 50.68600 24.97700
C  20.32400 50.06500 25.77900
C  19.85600 50.25100 27.09000
C  18.71600 51.07900 27.04700
C  21.56400 49.30700 25.38800
C  20.17200 50.06400 28.53200
O  21.10700 49.44400 29.02000
C  19.12300 50.77700 29.35700
C  18.58500 49.72900 30.37100
O  17.90700 48.68500 30.12400
O  19.03900 50.03100 31.60500
C  18.94600 49.03300 32.60700
H  13.54400 54.30900 27.95300
H  14.67800 53.25800 21.56800
H  19.85400 50.01500 23.01000
H  16.31300 51.60200 30.40400
H  15.24200 54.49000 29.89400
H  13.19000 52.55600 29.48400
H  13.45500 53.62000 30.83600
H  14.16800 52.02100 30.82200
H  17.43900 54.33800 30.64400
H  18.63200 53.10100 30.84500
H  17.25300 54.44900 32.85400
H  18.28100 53.02200 33.02500
H  11.45100 56.15400 25.45800
H  12.15000 55.49600 26.99600
H  11.01600 54.56800 26.11900
H  10.55400 55.80800 22.04200
H  11.41800 56.56300 23.32800
H  10.45200 55.09300 23.70800
H  16.68900 52.52400 20.34100
H  18.01400 50.08600 21.08800
H  14.64200 50.75200 20.83400
H  15.99800 49.61000 21.01500
H  15.77200 50.46600 19.53800
H  20.14500 51.92300 21.47100
H  19.03500 52.85200 20.51100
H  20.78500 50.71400 19.58800
H  20.16700 51.98300 18.72000
H  19.07800 50.52300 19.01500
H  21.58800 49.18100 24.30600
H  21.49900 48.28700 25.76800
H  22.45600 49.86000 25.68100
H  19.49100 51.52600 30.05800
H  19.53200 49.44200 33.42900
H  19.36700 48.08200 32.27700
H  17.92700 48.84300 32.94300
Mg 9.37200 48.17900 26.72000
C  7.39400 48.13400 29.57700
C  11.99200 49.27900 28.63200
C  11.21300 48.29500 23.90600
C  6.60300 47.68600 24.78900
N  9.62000 48.69500 28.97100
C  8.65600 48.56000 29.91500
C  9.29400 48.84100 31.32900
C  10.84100 49.16800 30.96100
C  10.86700 49.07000 29.39400
C  11.49900 50.44800 31.57800
C  8.97000 47.71200 32.27700
C  10.02000 47.45200 33.23400
H  9.50900 46.94100 34.63400
N  11.36000 48.62400 26.35900
C  12.24800 49.07300 27.23800
C  13.56100 49.29600 26.61100
C  13.38600 48.92900 25.24100
C  11.92200 48.62100 25.09900
C  14.80100 49.80400 27.31100
C  14.36500 48.73500 24.09400
O  14.05400 48.42800 22.93300
C  15.79500 48.79800 24.39800
N  8.99900 47.88500 24.65800
C  9.90200 48.06300 23.70900
C  9.29400 47.90800 22.27400
C  7.80900 47.54000 22.56200
C  7.77300 47.63300 24.09800
C  9.47300 49.20700 21.41600
C  7.28800 46.18500 21.87600
C  6.76400 46.33000 20.51200
N  7.45300 47.85500 27.08700
C  6.43300 47.73100 26.14400
C  5.20200 47.50900 26.86600
C  5.56800 47.54400 28.22600
C  6.94200 47.79200 28.29800
C  3.88900 47.20000 26.23500
C  5.07400 47.58700 29.58600
O  3.89600 47.52900 29.99600
C  6.20300 47.85200 30.53500
C  6.29300 46.62400 31.26400
O  6.70100 45.57400 30.87400
O  5.58800 46.81200 32.48400
C  5.28600 45.55500 33.17100
H  12.87400 49.55600 29.21400
H  11.70100 48.31600 22.93000
H  5.77400 47.64000 24.08000
H  8.80800 49.77600 31.60900
H  11.39400 48.26900 31.23500
H  11.01800 50.78800 32.49500
H  11.46000 51.25500 30.84600
H  12.53900 50.21600 31.80700
H  8.86000 46.88100 31.58100
H  8.02900 47.96600 32.76500
H  10.58600 48.35900 33.44600
H  10.69800 46.68800 32.85100
H  15.16200 50.57500 26.63000
H  15.49900 49.04600 27.66500
H  14.54800 50.34800 28.22100
H  16.41000 48.57900 23.52500
H  15.98100 48.23200 25.31000
H  16.03700 49.84800 24.56000
H  9.83000 47.11600 21.75200
H  7.18600 48.34300 22.16800
H  9.80900 48.79400 20.46500
H  10.29700 49.79300 21.82400
H  8.58900 49.83800 21.33200
H  6.50900 45.73800 22.49400
H  8.22300 45.62800 21.80200
H  6.26000 47.29500 20.44900
H  6.09200 45.51400 20.24800
H  7.62200 46.28200 19.84100
H  3.74900 46.17900 25.87900
H  3.60800 47.85400 25.40900
H  3.15200 47.41700 27.00700
H  5.90900 48.64900 31.21800
H  4.97200 45.70600 34.20400
H  6.18700 44.94600 33.24700
H  4.45200 44.97600 32.77500

