158

Mg 36.03100 2.46900 30.13200
C  33.54400 3.46900 32.34500
C  38.40200 2.75400 32.65200
C  38.29100 1.97400 27.75200
C  33.45900 2.62200 27.47500
N  36.03300 3.14700 32.27000
C  34.83400 3.38000 32.98900
C  35.09700 3.56300 34.43700
C  36.71400 3.53900 34.46700
C  37.10600 3.12300 33.05200
C  37.27400 4.91000 34.78500
C  34.41300 2.45500 35.28300
C  33.75300 2.83100 36.60600
H  34.54300 3.87000 37.53700
N  38.08600 2.49900 30.22900
C  38.89100 2.51100 31.35200
C  40.23400 1.97900 30.94300
C  40.20300 1.95200 29.49400
C  38.84700 2.18600 29.06700
C  41.29300 1.49500 31.85900
C  41.31200 1.77100 28.57000
O  41.13200 1.87200 27.39300
C  42.64200 1.35300 29.15500
N  35.86900 2.38900 27.87600
C  36.99600 1.97000 27.22300
C  36.72300 1.88900 25.71900
C  35.13200 1.84700 25.62900
C  34.78200 2.36900 27.09500
C  37.24100 3.02600 24.85300
C  34.56700 0.46300 25.41900
C  33.32900 0.33900 24.47100
N  33.93000 2.86400 29.92900
C  33.02600 2.92400 28.83400
C  31.69200 3.35500 29.28600
C  31.87300 3.62100 30.64700
C  33.24000 3.26100 30.96800
C  30.57300 3.68700 28.44000
C  31.23100 4.09700 31.88900
O  30.12100 4.58800 32.08300
C  32.24900 4.01900 32.97300
C  32.41600 5.41300 33.54700
O  32.99800 6.34100 32.97700
O  31.72200 5.55700 34.73100
C  31.57700 6.99200 35.03400
H  39.19400 2.75100 33.40400
H  38.85200 1.60700 26.89000
H  32.65900 2.69800 26.73600
H  34.69300 4.54700 34.67600
H  37.11300 2.77100 35.12900
H  36.52900 5.69400 34.92500
H  37.98400 5.33100 34.07400
H  37.93900 4.84800 35.64700
H  35.11300 1.62900 35.41000
H  33.60400 2.01100 34.70300
H  33.63500 1.87200 37.11100
H  32.76600 3.19300 36.31500
H  40.97000 1.43500 32.89900
H  42.15200 2.16500 31.83000
H  41.76900 0.56100 31.56100
H  42.99200 2.14500 29.81800
H  43.35200 1.20400 28.34200
H  42.71700 0.35800 29.59500
H  37.17200 0.96100 25.36500
H  34.69900 2.56300 24.93100
H  36.45600 3.65600 24.43600
H  37.92400 2.68700 24.07400
H  37.81800 3.60900 25.57100
H  34.27700 0.02000 26.37200
H  35.37400 -0.12700 24.98400
H  33.19000 1.25200 23.89100
H  32.42600 0.01800 24.99000
H  33.38900 -0.50300 23.78200
H  29.68900 3.72100 29.07800
H  30.61600 2.83100 27.76700
H  30.67400 4.66800 27.97600
H  31.90200 3.45500 33.83900
H  30.94300 7.24900 35.88300
H  31.13500 7.42300 34.13600
H  32.57500 7.37000 35.25400
Mg -12.70900 16.14300 42.71800
C  -9.58200 14.53000 42.35900
C  -11.31500 18.76100 41.00300
C  -15.79800 17.38800 42.26700
C  -13.95700 13.15500 43.95200
N  -10.64000 16.53500 41.73500
C  -9.53400 15.79400 41.81300
C  -8.37500 16.44700 41.09500
C  -8.92800 17.90500 40.94000
C  -10.39100 17.75100 41.20900
C  -8.29200 18.98100 41.85100
C  -8.05400 15.73500 39.72300
C  -6.53200 15.44300 39.45900
H  -5.93500 16.34300 38.30800
N  -13.47500 17.90500 41.80500
C  -12.72300 18.83400 41.16200
C  -13.55500 19.90100 40.70700
C  -14.89500 19.52400 40.95800
C  -14.77300 18.21300 41.69500
C  -12.95600 21.09300 39.91200
C  -16.06400 20.36900 40.65600
O  -15.84000 21.46500 40.10200
C  -17.49300 19.99700 41.08800
N  -14.56700 15.38500 43.16200
C  -15.75600 16.09800 42.94000
C  -16.96900 15.31500 43.48900
C  -16.42500 13.91600 43.90100
C  -14.91300 14.09300 43.58300
C  -17.69800 16.23300 44.56600
C  -17.04000 12.69400 43.11700
C  -17.49000 11.38700 43.89000
N  -11.92700 14.22000 43.19200
C  -12.57000 13.08300 43.64600
C  -11.64900 11.94100 43.70400
C  -10.46500 12.51800 43.30300
C  -10.68000 13.91300 42.95100
C  -11.99300 10.52600 44.14000
C  -9.09200 12.18800 43.00800
O  -8.54800 11.11500 43.13000
C  -8.50800 13.48900 42.32700
C  -7.34300 13.89700 43.16100
O  -7.33300 13.84100 44.38100
O  -6.19700 14.25300 42.36600
C  -5.00300 14.45900 43.18200
H  -10.77300 19.58500 40.53300
H  -16.80800 17.76500 42.09100
H  -14.40400 12.24600 44.36100
H  -7.46300 16.45100 41.69200
H  -8.83800 18.24100 39.90700
H  -7.65000 18.58200 42.63600
H  -8.98500 19.63300 42.38100
H  -7.86400 19.75100 41.20900
H  -8.39100 16.34600 38.88600
H  -8.62900 14.81400 39.62800
H  -6.39500 14.38200 39.24700
H  -5.91900 15.63700 40.33900
H  -13.18600 21.15400 38.84800
H  -11.88500 21.28100 39.84000
H  -13.29700 21.91500 40.54100
H  -17.80300 19.14100 40.48800
H  -18.22500 20.75900 40.81700
H  -17.54800 19.73100 42.14400
H  -17.56200 15.16900 42.58700
H  -16.81700 13.82900 44.91400
H  -17.83500 15.66500 45.48600
H  -18.73500 16.45000 44.30900
H  -17.27500 17.21400 44.78000
H  -16.55200 12.34300 42.20700
H  -18.00700 13.05800 42.77000
H  -16.81500 10.60200 43.55100
H  -18.46300 10.96900 43.63000
H  -17.36000 11.47900 44.96800
H  -12.52800 10.41900 45.08300
H  -11.13800 9.85000 44.11100
H  -12.59400 10.06400 43.35700
H  -8.10800 13.11700 41.38400
H  -5.23300 15.35600 43.75800
H  -4.18300 14.62300 42.48200
H  -4.78200 13.75800 43.98800

