158

Mg 9.01800 4.81200 27.17100
C  10.43200 3.11600 29.90200
C  6.93800 6.45200 29.28000
C  7.50900 5.95400 24.45200
C  10.60200 2.33800 25.12400
N  8.70200 4.80300 29.31600
C  9.55200 4.19700 30.23800
C  9.20900 4.57600 31.65100
C  8.03500 5.67600 31.37900
C  7.81000 5.54200 29.89000
C  6.79900 5.35700 32.25500
C  10.42700 5.09400 32.52200
C  10.10300 5.83200 33.83600
H  10.82500 5.48100 35.14100
N  7.55800 6.19200 26.88700
C  6.76800 6.74800 27.90800
C  5.75600 7.52200 27.29100
C  6.01400 7.53700 25.82500
C  7.09100 6.53000 25.69000
C  4.58300 8.17600 28.09100
C  5.26300 8.26800 24.69300
O  5.49700 8.05500 23.50300
C  4.09000 9.21200 25.05000
N  9.09000 4.25700 25.05300
C  8.43600 5.04400 24.15600
C  8.88000 4.70300 22.71200
C  9.88000 3.50900 22.93400
C  9.79300 3.27400 24.46000
C  7.57700 4.38100 21.84600
C  11.45100 3.75200 22.43400
C  12.16300 2.76100 21.47000
N  10.18700 3.08400 27.45000
C  10.77300 2.26200 26.46400
C  11.68900 1.30900 27.14100
C  11.54000 1.60600 28.48300
C  10.63700 2.62000 28.62000
C  12.60400 0.30100 26.55600
C  11.82600 1.21300 29.87300
O  12.46200 0.28300 30.29700
C  11.24200 2.33300 30.79600
C  10.39800 1.73700 31.87500
O  9.31300 1.21400 31.59400
O  11.06000 1.72200 33.07600
C  10.36100 0.94500 34.08900
H  6.34100 6.95400 30.04400
H  7.09100 6.38600 23.54000
H  11.03800 1.59700 24.45000
H  8.79500 3.76900 32.25500
H  8.55100 6.60600 31.61800
H  5.90200 5.45100 31.64200
H  6.60400 6.12600 33.00200
H  6.80100 4.35700 32.68700
H  10.96200 5.77100 31.85600
H  11.00000 4.22300 32.84000
H  9.03400 5.63600 33.92800
H  10.40500 6.86500 33.66500
H  4.48600 7.78100 29.10300
H  3.66400 7.95500 27.54900
H  4.76500 9.24200 28.22200
H  3.22800 8.70700 25.48500
H  3.93200 9.83300 24.16900
H  4.44000 9.94500 25.77600
H  9.48700 5.47900 22.24700
H  9.53300 2.59900 22.44500
H  7.81800 3.64800 21.07500
H  7.27400 5.28600 21.32000
H  6.75500 4.12600 22.51500
H  12.08100 3.80900 23.32200
H  11.41900 4.70800 21.91100
H  11.47400 2.27800 20.77800
H  12.56000 1.93000 22.05200
H  12.92000 3.27500 20.87800
H  12.67200 0.25600 25.46900
H  12.20000 -0.67200 26.83600
H  13.61700 0.59500 26.82900
H  12.01800 2.93400 31.27100
H  10.01800 -0.04400 33.78700
H  9.67600 1.49600 34.73300
H  11.18000 0.61500 34.72800
Mg 35.76200 3.37200 29.99200
C  33.21000 4.34700 32.37400
C  38.03600 3.20700 32.74200
C  38.03700 2.27200 27.94300
C  33.28300 3.69900 27.58800
N  35.63800 3.85300 32.29400
C  34.47300 4.13800 33.00000
C  34.87000 4.27300 34.55300
C  36.41200 4.21000 34.47700
C  36.76400 3.64700 33.06500
C  37.15800 5.53300 34.82300
C  34.18800 3.10600 35.31200
C  34.32300 3.00700 36.83700
H  35.17700 3.90200 37.71300
N  37.84800 2.95700 30.24500
C  38.53600 2.82100 31.44100
C  39.76300 2.09400 31.21000
C  39.79500 1.84200 29.78300
C  38.52600 2.32600 29.27300
C  40.79300 1.68700 32.23200
C  40.87300 1.15400 28.92500
O  40.70100 0.82500 27.74900
C  42.28200 0.77200 29.49000
N  35.75300 3.21400 28.05100
C  36.82500 2.66500 27.38300
C  36.48500 2.50800 25.87600
C  34.88000 2.83400 25.84500
C  34.58200 3.26800 27.28900
C  37.30900 3.45900 24.98200
C  34.03900 1.64700 25.29800
C  33.40500 1.74200 23.83500
N  33.70800 4.02900 29.93700
C  32.83200 4.05800 28.80300
C  31.48200 4.30900 29.29100
C  31.58000 4.49700 30.67600
C  32.94900 4.35600 30.99000
C  30.23400 4.34600 28.55700
C  30.91600 4.90400 31.84000
O  29.75400 5.27200 32.00200
C  31.92600 4.80900 32.99700
C  31.95000 6.11800 33.72400
O  32.43800 7.17800 33.38300
O  31.39700 5.84500 34.94100
C  31.55100 6.96000 35.95000
H  38.67100 3.05500 33.61600
H  38.76200 1.99600 27.17400
H  32.54100 3.66900 26.78800
H  34.58300 5.22500 35.00000
H  36.72500 3.42200 35.16300
H  37.80000 5.40900 35.69500
H  36.39500 6.24000 35.14900
H  37.70000 5.86800 33.93900
H  34.53900 2.20700 34.80500
H  33.12200 3.16400 35.09100
H  34.44100 1.93800 37.01800
H  33.29900 3.32300 37.03500
H  41.80000 1.96500 31.92000
H  40.83100 0.60400 32.10900
H  40.55900 2.03500 33.23800
H  42.94700 0.34200 28.74100
H  42.06900 0.01100 30.24100
H  42.83900 1.59400 29.94000
H  36.67300 1.50200 25.50100
H  34.78100 3.78500 25.32100
H  36.69200 3.72900 24.12500
H  38.21100 2.98700 24.59100
H  37.62900 4.35800 25.50900
H  33.17700 1.65900 25.96500
H  34.54200 0.71100 25.54000
H  33.71700 2.61000 23.25500
H  32.33700 1.90600 23.98000
H  33.45000 0.87200 23.18100
H  30.17400 3.55900 27.80400
H  29.97900 5.34300 28.19700
H  29.52400 4.04100 29.32600
H  31.48100 4.08400 33.67900
H  30.69700 7.63800 35.97200
H  32.48600 7.52000 35.92400
H  31.56300 6.39600 36.88200

