158

Mg 1.86200 -1.21000 44.27200
C  5.23400 -0.19100 43.47900
C  0.83700 1.62100 42.41400
C  -1.22500 -2.49000 44.02800
C  3.15300 -4.22300 45.22300
N  2.95800 0.43500 42.81700
C  4.27800 0.69600 42.92200
C  4.60800 2.08800 42.33300
C  3.19000 2.78200 42.21300
C  2.28200 1.61200 42.52500
C  3.01200 4.01300 43.12700
C  5.41700 2.02900 41.02100
C  6.88600 2.49800 41.07300
H  7.92300 1.60200 40.36800
N  -0.01800 -0.45400 43.45000
C  -0.21400 0.75700 42.80900
C  -1.63000 0.95200 42.62200
C  -2.27900 -0.26200 43.04600
C  -1.15400 -1.16400 43.52300
C  -2.29000 2.20500 42.05600
C  -3.73600 -0.59800 42.96600
O  -4.54100 0.25900 42.67500
C  -4.30700 -1.93100 43.33900
N  1.06500 -3.06300 44.69400
C  -0.24100 -3.38900 44.54700
C  -0.50500 -4.81400 44.93800
C  0.95300 -5.46300 45.10900
C  1.78500 -4.15300 44.99600
C  -1.49200 -5.05900 46.18500
C  1.44400 -6.53700 44.03600
C  1.66000 -7.91300 44.68200
N  3.71300 -2.08200 44.37000
C  4.08200 -3.29800 44.87600
C  5.49100 -3.38800 45.13600
C  5.93900 -2.15500 44.64400
C  4.85500 -1.45000 44.07300
C  6.26600 -4.41000 45.87900
C  7.05700 -1.28000 44.61100
O  8.18100 -1.48300 45.09000
C  6.67300 0.01000 43.73500
C  6.86400 1.12300 44.73400
O  6.09000 1.36300 45.65800
O  8.04800 1.78300 44.47100
C  8.28500 3.18000 45.07500
H  0.43200 2.53500 41.97400
H  -2.17000 -3.03200 44.10100
H  3.47200 -5.15100 45.70200
H  5.18400 2.65800 43.06100
H  3.10200 3.14100 41.18700
H  2.06500 3.90700 43.65500
H  2.92700 4.77500 42.35100
H  3.87200 4.15800 43.78100
H  4.83400 2.66600 40.35600
H  5.48700 1.00900 40.64300
H  7.24700 2.72000 42.07800
H  6.82700 3.49100 40.62700
H  -2.83300 2.07400 41.12100
H  -1.56300 2.96900 41.78100
H  -2.95100 2.65000 42.80000
H  -5.35000 -2.04100 43.04400
H  -4.17100 -2.12800 44.40200
H  -3.86900 -2.62200 42.61700
H  -1.01900 -5.27400 44.09400
H  1.05200 -5.75100 46.15600
H  -2.15200 -5.92400 46.11400
H  -2.12200 -4.19100 46.37700
H  -0.90200 -5.34300 47.05700
H  2.38300 -6.30700 43.53200
H  0.63500 -6.61000 43.30900
H  1.18900 -8.74700 44.16200
H  1.23700 -7.91800 45.68600
H  2.71000 -8.05400 44.93900
H  6.53000 -5.31100 45.32500
H  5.74400 -4.76200 46.76900
H  7.22700 -4.01300 46.20600
H  7.36200 0.17300 42.90700
H  7.59200 3.51800 45.84600
H  8.09600 3.87500 44.25700
H  9.34300 3.14400 45.33500
Mg -10.53000 17.06900 40.59700
C  -7.12300 16.56300 40.49000
C  -10.14700 20.32000 39.93000
C  -13.80300 17.13700 39.94100
C  -10.79400 13.42500 40.71700
N  -8.80100 18.27700 39.97500
C  -7.48600 17.92200 40.15800
C  -6.57800 19.07500 39.92300
C  -7.52000 20.28700 40.12700
C  -8.89500 19.62600 39.94200
C  -7.42500 20.94700 41.54500
C  -5.94100 19.06600 38.50800
C  -4.42000 18.74100 38.49000
H  -3.93200 17.89400 37.30800
N  -11.81400 18.57000 39.98000
C  -11.48900 19.87300 39.88200
C  -12.64200 20.67800 39.76000
C  -13.70100 19.79600 39.68000
C  -13.13900 18.41800 39.88600
C  -12.62100 22.16700 39.75300
C  -15.20200 20.20600 39.61800
O  -15.47200 21.37400 39.40300
C  -16.32400 19.18000 39.76900
N  -12.06400 15.55500 40.35200
C  -13.30900 15.89200 40.08500
C  -14.34200 14.62500 40.18300
C  -13.28900 13.49700 40.24500
C  -11.99600 14.19200 40.52300
C  -15.36100 14.67100 41.43500
C  -13.22800 12.62900 38.99700
C  -13.05800 11.08000 39.17500
N  -9.24800 15.29400 40.71200
C  -9.48100 13.92500 40.75400
C  -8.24200 13.22900 40.94900
C  -7.24600 14.22000 40.89800
C  -7.89300 15.44200 40.60200
C  -8.01400 11.71700 41.21700
C  -5.88300 14.39600 40.91800
O  -4.93300 13.61000 41.16300
C  -5.72800 16.01600 40.76400
C  -5.01200 16.61400 41.91500
O  -3.99800 17.28600 41.79800
O  -5.53600 16.11300 43.06400
C  -4.84000 16.51600 44.31400
H  -10.06900 21.40800 39.88900
H  -14.89300 17.16700 39.87900
H  -10.82300 12.34100 40.84200
H  -5.76100 19.12500 40.64300
H  -7.41300 20.96900 39.28400
H  -6.37000 20.83300 41.79300
H  -8.08900 20.35500 42.17500
H  -7.76600 21.95000 41.28800
H  -6.03900 20.09400 38.16000
H  -6.47000 18.31600 37.91900
H  -4.18900 18.35800 39.48400
H  -3.92800 19.70400 38.35500
H  -13.38900 22.64300 40.36200
H  -12.69900 22.55700 38.73800
H  -11.73800 22.66300 40.15600
H  -16.26800 18.58600 38.85600
H  -17.22400 19.78200 39.89400
H  -16.27000 18.51000 40.62700
H  -14.80100 14.54300 39.19800
H  -13.51300 12.85200 41.09400
H  -15.68400 13.68400 41.76500
H  -16.30200 15.18400 41.23300
H  -14.82600 15.26000 42.18000
H  -12.47500 13.03300 38.32000
H  -14.19000 12.78900 38.51100
H  -13.91800 10.63400 39.67400
H  -12.20200 10.90400 39.82800
H  -12.80900 10.48300 38.29800
H  -6.97700 11.64300 41.54300
H  -8.15300 11.10000 40.32900
H  -8.65900 11.28900 41.98500
H  -5.12200 16.31500 39.90900
H  -3.79900 16.20000 44.25300
H  -5.35000 16.22400 45.23200
H  -4.88300 17.60500 44.30100

