158

Mg 47.25600 25.18500 28.77000
C  48.08800 27.31100 31.52900
C  46.24200 22.83100 31.09500
C  47.04200 23.07900 26.25100
C  48.85400 27.46300 26.71500
N  47.57300 24.93600 31.09200
C  47.56500 26.07900 31.97200
C  47.16300 25.62400 33.50400
C  46.86700 24.10500 33.30600
C  46.86900 23.91600 31.70900
C  47.93700 23.17600 34.06600
C  46.04000 26.45400 34.15500
C  46.32000 27.06800 35.52000
H  45.11100 27.22400 36.46200
N  46.59300 23.36100 28.60100
C  46.14000 22.52800 29.68900
C  45.59900 21.27600 29.14600
C  45.90000 21.20900 27.75000
C  46.51100 22.59200 27.46700
C  44.84600 20.23200 30.04700
C  45.83700 19.97500 26.81200
O  46.19000 20.08900 25.64400
C  45.22100 18.73000 27.26800
N  47.91500 25.23200 26.82200
C  47.65300 24.30600 25.89900
C  47.80400 24.77700 24.47400
C  48.17900 26.27200 24.68700
C  48.35300 26.37300 26.18500
C  48.82100 23.99200 23.59100
C  47.06500 27.32900 24.21200
C  47.56100 28.75600 23.82300
N  48.24300 27.03700 29.03600
C  48.85600 27.80200 28.07900
C  49.25000 29.02600 28.63300
C  48.98000 28.91400 30.00700
C  48.37900 27.64600 30.20400
C  49.90400 30.13200 27.90300
C  48.98700 29.60600 31.29500
O  49.21200 30.74600 31.61800
C  48.53300 28.48600 32.39500
C  49.55000 28.13600 33.35900
O  50.63700 27.58800 33.15100
O  49.18100 28.75700 34.57000
C  50.05000 28.31600 35.64900
H  45.87800 22.02800 31.73900
H  46.90100 22.38000 25.42400
H  49.34300 28.13600 26.00800
H  47.94100 25.75100 34.25700
H  45.86000 23.88000 33.65700
H  47.54700 22.84600 35.02900
H  48.88200 23.71900 34.08700
H  48.23000 22.29100 33.50000
H  45.20400 25.80100 34.40700
H  45.61200 27.20400 33.49000
H  46.76900 28.05800 35.43500
H  47.09400 26.48200 36.01800
H  43.99400 19.82300 29.50400
H  44.36700 20.75000 30.87700
H  45.41600 19.39200 30.44400
H  45.83800 18.40700 28.10700
H  45.28300 17.95700 26.50200
H  44.20300 19.02500 27.52100
H  46.82800 24.78700 23.98900
H  49.11900 26.49700 24.18400
H  49.31200 23.15100 24.08000
H  49.62800 24.67400 23.32000
H  48.34400 23.77500 22.63500
H  46.29000 27.35900 24.97800
H  46.59400 26.87300 23.34200
H  47.31000 29.57100 24.50100
H  47.18700 29.07200 22.84900
H  48.64700 28.68500 23.77500
H  49.20800 30.64400 27.23900
H  50.80600 29.76300 27.41500
H  50.33900 30.80900 28.63900
H  47.65700 28.86000 32.92600
H  49.50300 27.50100 36.12200
H  50.31800 29.00900 36.44600
H  51.01400 27.87600 35.39200
Mg 16.44800 51.93900 25.49300
C  18.07700 50.78000 28.48300
C  13.77500 52.69300 27.47400
C  14.85800 52.62300 22.85100
C  19.27300 50.63300 23.72100
N  16.12100 52.08700 27.73500
C  16.97600 51.62300 28.70200
C  16.39100 51.95600 30.06100
C  14.90400 52.37900 29.80500
C  14.90400 52.38300 28.27600
C  13.74700 51.50500 30.45700
C  17.28900 53.00000 30.82200
C  17.67800 52.63200 32.27000
H  16.82000 51.68000 33.18500
N  14.55900 52.55500 25.18100
C  13.57300 52.81700 26.09700
C  12.33900 53.18500 25.47100
C  12.63700 53.27500 24.03300
C  14.04300 52.83800 23.96400
C  11.06900 53.53100 26.33200
C  11.66300 53.49400 22.84000
O  12.03300 53.37100 21.71100
C  10.37200 54.12800 23.13800
N  16.98600 51.55800 23.58000
C  16.09200 52.06200 22.65400
C  16.69000 51.87000 21.23900
C  18.18000 51.46700 21.59600
C  18.16100 51.18900 23.08500
C  15.96100 50.81600 20.37800
C  19.25400 52.44900 20.96000
C  19.67200 52.25400 19.50400
N  18.34200 50.85200 25.95000
C  19.32300 50.36800 25.10800
C  20.43200 49.74000 25.85800
C  19.92000 49.82000 27.21000
C  18.69500 50.55100 27.23100
C  21.67300 49.20900 25.32700
C  20.23200 49.55100 28.58800
O  21.20900 48.93600 29.07300
C  19.03200 50.16000 29.50500
C  18.54200 49.12600 30.45000
O  17.89600 48.07200 30.08900
O  19.06400 49.31200 31.70900
C  18.82000 48.15300 32.61800
H  12.91200 52.97000 28.08400
H  14.42200 53.05000 21.94500
H  20.15400 50.43800 23.10700
H  16.44500 51.05400 30.67100
H  14.78600 53.38400 30.21000
H  13.15400 51.13900 29.61800
H  13.18500 52.15000 31.13300
H  14.12500 50.70600 31.09400
H  16.84400 53.99400 30.87000
H  18.21000 53.10100 30.24900
H  17.71000 53.60400 32.76400
H  18.73100 52.35500 32.33100
H  11.09500 54.50900 26.81300
H  10.90200 52.74300 27.06700
H  10.19000 53.59400 25.69100
H  9.66700 53.45200 23.62300
H  9.75400 54.56300 22.35200
H  10.46400 54.97700 23.81500
H  16.71700 52.79000 20.65500
H  18.45400 50.48100 21.22000
H  15.04400 50.51700 20.88500
H  16.59700 49.99100 20.05500
H  15.68700 51.29500 19.43800
H  20.18500 52.45500 21.52700
H  18.79700 53.43800 20.95600
H  18.88600 51.67900 19.01400
H  20.57600 51.69800 19.25300
H  19.69200 53.22900 19.01800
H  21.56000 48.12800 25.23700
H  22.43700 49.47700 26.05700
H  21.84700 49.69900 24.36900
H  19.51100 50.96600 30.06100
H  19.61400 47.42600 32.45200
H  17.79700 47.79300 32.51400
H  19.03300 48.50300 33.62800

