158

Mg -3.06600 17.18100 26.12600
C  -3.64200 14.76000 28.66500
C  -3.34400 19.51700 28.69200
C  -3.09500 19.48400 23.80600
C  -3.45800 14.80900 23.77500
N  -3.49500 17.08400 28.53900
C  -3.53100 15.94900 29.36300
C  -3.58200 16.40900 30.83200
C  -3.51100 18.04600 30.69600
C  -3.50200 18.24600 29.22900
C  -4.52700 18.86900 31.57300
C  -2.43500 15.78500 31.74100
C  -1.75800 16.49900 32.86000
H  -1.03300 15.65600 33.87000
N  -3.08400 19.15000 26.19500
C  -3.17600 19.96600 27.33600
C  -2.95300 21.34100 26.86100
C  -2.88900 21.40000 25.42600
C  -3.12100 19.99400 25.06800
C  -2.85400 22.57300 27.70900
C  -2.62200 22.53000 24.44300
O  -2.82600 22.39700 23.25600
C  -2.17400 23.90500 24.95200
N  -3.41300 17.18200 23.97500
C  -3.22300 18.18200 23.25000
C  -2.97000 17.85100 21.76800
C  -3.22600 16.34900 21.70200
C  -3.31100 16.06100 23.22500
C  -3.89800 18.68500 20.81300
C  -2.16600 15.51200 20.96100
C  -2.70200 14.52400 19.84700
N  -3.37500 15.16700 26.18000
C  -3.57100 14.33200 25.08900
C  -3.74000 12.93900 25.47900
C  -3.76800 13.09300 26.90500
C  -3.58400 14.45800 27.27900
C  -3.98300 11.73100 24.72500
C  -4.01300 12.32000 28.20000
O  -4.29900 11.19800 28.44300
C  -3.93100 13.43300 29.33800
C  -2.84400 13.01200 30.24100
O  -1.64600 13.02700 29.99900
O  -3.39900 12.59400 31.45700
C  -2.54600 12.09100 32.52500
H  -3.58400 20.36500 29.33700
H  -3.18400 20.25100 23.03400
H  -3.62600 14.04400 23.01500
H  -4.56800 16.11900 31.19500
H  -2.53800 18.33900 31.09100
H  -4.75300 18.22000 32.41800
H  -5.51800 18.98600 31.13400
H  -4.14400 19.82200 31.94000
H  -1.64900 15.35000 31.12500
H  -2.95700 15.01200 32.30400
H  -2.52000 17.11900 33.33200
H  -1.05300 17.20500 32.42300
H  -2.80300 22.21300 28.73700
H  -3.69700 23.26400 27.68100
H  -1.92400 23.09500 27.48400
H  -2.22800 24.64600 24.15400
H  -1.13200 23.80500 25.25800
H  -2.76900 24.32500 25.76300
H  -1.93200 18.16200 21.65300
H  -4.25000 16.29500 21.33300
H  -3.80200 18.23300 19.82600
H  -3.87500 19.77200 20.89300
H  -4.92200 18.50800 21.14300
H  -1.66400 14.81200 21.62900
H  -1.44900 16.18800 20.49500
H  -2.39100 14.94800 18.89300
H  -3.78800 14.52400 19.93500
H  -2.41700 13.51400 20.14400
H  -5.03300 11.45100 24.80900
H  -3.32100 10.97300 25.14300
H  -3.76700 11.97900 23.68500
H  -4.82600 13.49800 29.95700
H  -2.95300 11.22300 33.04400
H  -2.29700 12.91700 33.19100
H  -1.58300 11.69800 32.20100
Mg -6.12100 24.85600 25.80500
C  -4.42800 26.12100 28.69100
C  -7.69500 22.66200 27.76100
C  -7.20300 23.36500 23.08400
C  -4.05200 27.05000 23.90400
N  -6.06700 24.56200 28.02800
C  -5.44900 25.19400 29.02700
C  -5.93300 24.73900 30.40200
C  -6.76200 23.50400 30.00600
C  -6.84300 23.56700 28.52300
C  -5.94100 22.18600 30.38500
C  -6.63300 25.87300 31.22300
C  -6.37900 25.98300 32.76400
H  -5.94800 24.72700 33.50900
N  -7.42500 23.28000 25.48600
C  -8.04000 22.59200 26.41000
C  -9.07900 21.74900 25.74600
C  -8.92600 21.94900 24.31700
C  -7.79100 22.87600 24.23200
C  -10.04900 20.84000 26.53700
C  -9.66300 21.40900 23.14100
O  -9.39700 21.62300 21.98100
C  -10.71100 20.44300 23.50100
N  -5.49700 24.99300 23.80700
C  -6.20600 24.30000 22.86100
C  -5.56300 24.65200 21.42400
C  -4.66100 25.87700 21.71200
C  -4.60900 25.93300 23.28400
C  -4.81500 23.53000 20.67500
C  -5.21600 27.23500 21.08000
C  -4.24600 28.24500 20.53400
N  -4.58700 26.32200 26.16700
C  -3.91400 27.18200 25.29200
C  -2.97800 28.02700 26.00400
C  -3.17000 27.63100 27.38400
C  -4.15800 26.61400 27.43300
C  -1.97800 28.88500 25.40800
C  -2.68900 27.90000 28.72500
O  -1.90100 28.71600 29.17100
C  -3.46100 26.88500 29.61600
C  -2.48400 26.03800 30.37500
O  -1.77700 25.17600 29.87500
O  -2.44900 26.41100 31.72200
C  -1.67100 25.52000 32.54100
H  -8.22600 21.89800 28.33300
H  -7.57500 22.89800 22.16900
H  -3.33300 27.60900 23.30200
H  -4.99600 24.54800 30.92500
H  -7.78200 23.55800 30.38400
H  -5.64700 22.30200 31.42900
H  -5.10200 22.18600 29.69000
H  -6.56400 21.29900 30.27400
H  -7.68100 25.80400 30.93100
H  -6.20100 26.80500 30.86000
H  -7.35700 26.22400 33.17900
H  -5.66200 26.76100 33.02700
H  -11.07000 20.95600 26.17500
H  -9.85600 20.99800 27.59800
H  -9.87400 19.77600 26.37600
H  -11.13400 20.12500 22.54800
H  -11.53600 21.03600 23.89400
H  -10.43300 19.52600 24.02100
H  -6.39400 24.98600 20.80200
H  -3.66900 25.70100 21.29500
H  -4.79700 22.75700 21.44300
H  -3.79700 23.88600 20.51500
H  -5.32800 23.26900 19.74900
H  -5.71400 27.72400 21.91700
H  -5.92500 27.04200 20.27400
H  -3.22000 27.87700 20.53000
H  -4.35000 29.15400 21.12700
H  -4.52300 28.47700 19.50500
H  -1.25900 29.25300 26.14100
H  -2.49700 29.73200 24.95900
H  -1.44000 28.37300 24.61100
H  -3.96100 27.56600 30.30500
H  -0.60300 25.71900 32.45300
H  -1.77000 24.43600 32.50300
H  -2.05600 25.79000 33.52400

