158

Mg 1.01900 43.03600 26.42600
C  3.41800 43.08600 28.90800
C  -1.31700 41.95400 28.73000
C  -0.98800 42.39000 23.93700
C  3.72100 43.46100 24.11000
N  1.03600 42.62500 28.52400
C  2.10500 42.87900 29.42500
C  1.63400 42.88700 30.88600
C  0.15200 42.26700 30.77200
C  -0.05700 42.32100 29.24400
C  -0.16400 40.88800 31.42900
C  1.65900 44.35700 31.50800
C  1.70400 44.41600 33.03900
H  1.33800 43.10600 33.76700
N  -0.89800 42.34800 26.38400
C  -1.67800 41.97600 27.39400
C  -3.00500 41.74900 26.87900
C  -2.94200 41.77900 25.41600
C  -1.55600 42.16900 25.20000
C  -4.16800 41.52300 27.88600
C  -4.01200 41.47500 24.44700
O  -3.80800 41.42500 23.22800
C  -5.39400 41.25500 24.88400
N  1.36900 43.00100 24.30600
C  0.30400 42.68500 23.54800
C  0.72200 42.84900 21.98400
C  2.13200 43.45900 22.02200
C  2.49000 43.29600 23.52600
C  0.60000 41.55900 21.15300
C  2.29700 44.88200 21.53800
C  1.56800 45.97000 22.39300
N  3.12100 43.20100 26.40700
C  4.03000 43.45000 25.45600
C  5.34900 43.57900 26.06500
C  5.13900 43.33700 27.45000
C  3.72800 43.25700 27.59600
C  6.63500 43.84200 25.40200
C  5.77500 43.21000 28.66300
O  6.95600 43.19700 29.05300
C  4.65800 43.11400 29.74500
C  4.94800 41.88000 30.60100
O  5.11700 40.70000 30.24000
O  4.96200 42.28400 31.91400
C  5.10400 41.27600 32.97100
H  -1.96700 41.62100 29.54200
H  -1.64300 42.21900 23.08100
H  4.51300 43.87800 23.48400
H  2.19800 42.17000 31.48100
H  -0.55700 42.98100 31.19000
H  0.66000 40.39700 31.94700
H  -0.45100 40.17200 30.66000
H  -0.99400 40.98500 32.13000
H  0.73000 44.80400 31.15400
H  2.47300 44.92700 31.06000
H  0.96800 45.08300 33.48800
H  2.71300 44.76800 33.25700
H  -4.82800 42.37800 27.73900
H  -3.83500 41.70500 28.90800
H  -4.78900 40.63100 27.80700
H  -6.08100 41.05100 24.06200
H  -5.72500 42.06000 25.54000
H  -5.23400 40.36700 25.49600
H  0.06000 43.58700 21.53000
H  2.75600 42.78400 21.43700
H  1.50200 40.95000 21.20800
H  0.25600 41.78100 20.14300
H  -0.29100 41.08500 21.56600
H  1.83300 44.94900 20.55400
H  3.37800 45.02400 21.54300
H  0.70200 45.62700 22.96000
H  1.20400 46.73500 21.70700
H  2.30400 46.41800 23.06100
H  7.41300 44.30400 26.01100
H  6.34700 44.67100 24.75600
H  7.11200 43.03400 24.84800
H  4.59500 43.97600 30.40900
H  4.75900 40.29800 32.63500
H  4.50800 41.71300 33.77200
H  6.11600 41.20400 33.36900
Mg -5.74600 25.47000 25.39600
C  -3.97100 26.78200 28.13500
C  -7.01400 23.12500 27.54700
C  -7.00200 23.94100 22.70200
C  -3.90300 27.71900 23.35200
N  -5.52600 25.02200 27.63400
C  -4.83800 25.79800 28.51400
C  -5.23900 25.35500 29.92600
C  -6.10600 24.05700 29.75000
C  -6.21600 24.01400 28.21100
C  -5.44900 22.72600 30.33400
C  -6.04300 26.42000 30.84800
C  -6.95300 25.92000 32.02300
H  -6.34600 24.86200 32.91200
N  -6.83200 23.72600 25.16300
C  -7.31300 22.94800 26.16700
C  -8.14800 21.92000 25.54100
C  -8.17900 22.13800 24.11400
C  -7.33800 23.32600 23.93200
C  -8.72700 20.71700 26.28500
C  -8.89400 21.36100 23.02100
O  -8.85400 21.69300 21.83400
C  -9.72000 20.06000 23.33500
N  -5.60900 25.95100 23.29200
C  -6.21200 25.12600 22.36900
C  -5.81400 25.62100 21.01600
C  -4.94900 26.90200 21.24400
C  -4.84000 26.89000 22.72800
C  -5.04300 24.56900 20.17200
C  -5.45900 28.21600 20.50900
C  -5.94800 29.40600 21.31900
N  -4.30800 27.04300 25.57600
C  -3.67000 27.87400 24.66400
C  -2.80600 28.75100 25.34500
C  -2.87300 28.31400 26.68800
C  -3.81600 27.27600 26.80100
C  -1.91300 29.71900 24.77400
C  -2.32800 28.61500 27.99900
O  -1.59000 29.50200 28.38000
C  -3.10900 27.66200 28.99500
C  -2.06300 26.92400 29.78100
O  -1.15600 26.20200 29.35700
O  -2.20200 27.35700 31.10600
C  -1.15300 26.85900 32.05300
H  -7.59400 22.45500 28.18500
H  -7.15900 23.37900 21.77900
H  -3.34200 28.37400 22.68200
H  -4.23300 25.16800 30.30200
H  -7.13200 24.03600 30.11900
H  -4.57600 22.89600 30.96400
H  -5.23500 22.04600 29.50900
H  -6.14500 22.16300 30.95600
H  -6.44400 27.16400 30.16000
H  -5.25900 26.90300 31.43200
H  -7.86200 25.49600 31.59700
H  -7.23500 26.80800 32.59000
H  -9.75800 20.70700 25.92900
H  -8.80700 20.88300 27.35900
H  -8.18600 19.84300 25.92100
H  -8.88600 19.59900 23.86400
H  -10.00300 19.47300 22.46100
H  -10.55500 20.33600 23.97800
H  -6.73600 25.94100 20.53100
H  -3.94700 26.73500 20.84700
H  -4.51100 23.90000 20.84800
H  -4.38200 25.01100 19.42600
H  -5.81000 24.01100 19.63600
H  -6.20300 27.87100 19.79000
H  -4.66700 28.60300 19.86900
H  -6.62700 29.89700 20.62200
H  -5.09400 30.04400 21.54800
H  -6.48400 29.07800 22.21000
H  -1.59600 29.52500 23.74900
H  -1.01100 29.76200 25.38500
H  -2.40900 30.68200 24.89800
H  -3.71200 28.19700 29.72800
H  -1.60400 26.79900 33.04300
H  -0.33200 27.56700 32.16300
H  -0.81500 25.85400 31.80000

