158

Mg 30.77300 58.57000 40.65500
C  28.17700 56.63300 39.64500
C  33.00600 56.03200 39.54300
C  33.38800 60.73000 40.84900
C  28.52100 61.29100 41.12300
N  30.61900 56.61400 39.69400
C  29.42500 55.98800 39.48400
C  29.53100 54.55000 38.92300
C  31.04900 54.38300 39.10600
C  31.62300 55.77300 39.54400
C  31.52900 53.16900 40.10000
C  29.10700 54.47200 37.33000
C  28.03700 53.46600 36.84300
H  27.15500 53.94200 35.69700
N  32.93200 58.39200 40.24500
C  33.61600 57.29300 39.82300
C  35.01900 57.59500 39.72600
C  35.18000 58.96900 40.18300
C  33.80300 59.47400 40.42200
C  36.02500 56.53200 39.17300
C  36.54300 59.69600 40.36300
O  37.58100 59.26600 39.94700
C  36.60700 60.99400 40.97100
N  30.92600 60.70600 40.76900
C  32.09300 61.32900 41.07000
C  31.90400 62.84300 41.27700
C  30.39400 62.95700 41.60000
C  29.87700 61.60100 41.03100
C  32.91600 63.54700 42.18600
C  29.66100 64.16800 40.90000
C  28.51100 64.70900 41.64400
N  28.71800 58.88100 40.66100
C  27.92300 60.02400 40.85100
C  26.51700 59.63100 40.69500
C  26.60000 58.26900 40.21900
C  27.96200 57.93700 40.18600
C  25.25800 60.50900 40.83100
C  25.75900 57.18300 39.75800
O  24.54100 57.07400 39.59900
C  26.73900 56.01100 39.44500
C  26.34700 54.88800 40.35300
O  26.88700 54.57200 41.42300
O  25.19600 54.33700 39.86300
C  24.61800 53.33900 40.77500
H  33.64700 55.18600 39.28600
H  34.16800 61.48000 40.99600
H  27.74900 62.03400 41.33500
H  28.90400 53.90100 39.53600
H  31.53300 54.15100 38.15700
H  30.67800 52.97400 40.75200
H  32.43900 53.46800 40.62100
H  31.73000 52.29800 39.47700
H  30.06200 54.28100 36.84100
H  28.73400 55.37600 36.84800
H  27.45300 53.23800 37.73500
H  28.44400 52.50300 36.53500
H  36.66800 56.88200 38.36500
H  35.57000 55.60300 38.82700
H  36.73600 56.18200 39.92200
H  36.03700 60.86800 41.89200
H  36.16600 61.74000 40.31000
H  37.58300 61.34500 41.30600
H  31.99800 63.25000 40.27100
H  30.25100 62.89600 42.67900
H  33.48000 64.34500 41.70300
H  33.53700 62.86600 42.76700
H  32.36200 64.07100 42.96400
H  29.31500 63.76500 39.94900
H  30.27900 65.01500 40.60200
H  28.94200 65.60000 42.10000
H  28.29700 64.06900 42.50000
H  27.62200 64.96500 41.06800
H  24.98800 60.91900 39.85800
H  25.50300 61.36100 41.46500
H  24.39300 60.02000 41.28000
H  26.38900 55.77400 38.44100
H  25.32900 52.67300 41.26400
H  23.90900 52.71400 40.23300
H  24.15600 53.85500 41.61700
Mg 1.23200 42.75800 24.91700
C  3.11200 42.43100 27.84300
C  -1.62600 42.05800 26.96600
C  -0.58300 42.36500 22.13000
C  4.24800 42.80600 23.01800
N  0.80900 42.46900 27.25400
C  1.74500 42.32100 28.16500
C  1.12700 42.09600 29.55100
C  -0.38000 41.90000 29.26500
C  -0.44500 42.08500 27.73400
C  -0.97000 40.56000 29.72800
C  1.50200 43.24100 30.50000
C  1.12300 43.07400 31.96100
H  0.87800 41.68600 32.62400
N  -0.77200 42.40100 24.61500
C  -1.78000 42.19100 25.56000
C  -3.05700 42.11700 24.84400
C  -2.74800 42.33400 23.47900
C  -1.32600 42.29100 23.36900
C  -4.42700 42.06500 25.59500
C  -3.72700 42.39900 22.39800
O  -3.45500 42.20800 21.22100
C  -5.23200 42.53500 22.58000
N  1.77900 42.50600 22.86500
C  0.81800 42.34400 21.94300
C  1.32300 42.38100 20.49900
C  2.86900 42.71500 20.77200
C  3.04200 42.74100 22.29500
C  1.05600 41.10200 19.71400
C  3.29200 44.03900 20.10200
C  2.86600 45.33400 20.74900
N  3.25900 42.74600 25.28200
C  4.34500 42.83500 24.42800
C  5.57200 42.86100 25.26300
C  5.12800 42.70200 26.53400
C  3.73400 42.64400 26.54300
C  6.93400 43.11500 24.84300
C  5.48600 42.53000 27.91300
O  6.59200 42.50600 28.38500
C  4.27200 42.40300 28.82100
C  4.22900 41.12700 29.63300
O  4.00500 40.01900 29.11200
O  4.46400 41.30300 30.95400
C  4.76500 40.05300 31.67000
H  -2.56600 41.93300 27.50700
H  -1.09000 42.30600 21.16500
H  5.12500 42.95600 22.38500
H  1.57500 41.19000 29.95800
H  -1.04600 42.65200 29.69000
H  -0.32600 40.03400 30.43400
H  -1.16700 39.95600 28.84300
H  -1.97100 40.67300 30.14300
H  0.93900 44.09000 30.11200
H  2.54700 43.53800 30.58600
H  0.25700 43.69100 32.19900
H  1.95400 43.60500 32.42400
H  -4.66000 43.10900 25.80400
H  -4.30500 41.52800 26.53600
H  -5.26800 41.62800 25.05700
H  -5.75200 41.62800 22.88800
H  -5.72300 42.98000 21.71400
H  -5.32800 43.25500 23.39200
H  0.81200 43.24000 20.06300
H  3.59800 41.96000 20.48000
H  0.16800 40.55900 20.03600
H  1.89400 40.40500 19.74100
H  0.92200 41.46600 18.69500
H  2.83700 43.93100 19.11800
H  4.37600 44.08400 19.99300
H  2.20200 45.08300 21.57600
H  2.37800 46.01300 20.05000
H  3.75100 45.82700 21.15200
H  7.61000 42.36400 25.25300
H  7.11100 44.10600 25.26200
H  7.09800 42.98400 23.77300
H  4.35000 43.24900 29.50300
H  5.51100 39.40300 31.21300
H  3.88000 39.41900 31.72400
H  5.17100 40.18700 32.67300

