158

Mg 47.40400 16.47100 29.15400
C  45.20600 16.12500 31.79300
C  49.67200 18.00000 31.25900
C  49.40700 17.10500 26.49700
C  44.97700 14.95900 27.06200
N  47.37300 17.06000 31.20900
C  46.38200 16.82500 32.16500
C  46.83200 17.11800 33.63200
C  48.13600 17.91400 33.39100
C  48.43100 17.61400 31.89900
C  48.18700 19.42200 33.64700
C  46.86300 15.87500 34.62900
C  47.75200 15.97800 35.84500
H  47.54700 17.22400 36.75000
N  49.40100 17.35600 28.86400
C  50.14000 17.87300 29.89900
C  51.41400 18.35700 29.37600
C  51.35600 18.15300 27.95500
C  50.03500 17.50300 27.70100
C  52.59000 18.70200 30.24200
C  52.41500 18.37100 26.81000
O  52.18300 18.07100 25.63200
C  53.69100 18.97900 27.08400
N  47.22700 16.16000 27.09000
C  48.16900 16.53200 26.20100
C  47.71500 16.28400 24.78100
C  46.48100 15.33700 25.04400
C  46.13000 15.51800 26.52600
C  47.43800 17.55200 23.99300
C  46.74800 13.83300 24.63400
C  46.14800 13.23400 23.38300
N  45.41300 15.65300 29.34800
C  44.60800 15.14200 28.44700
C  43.37700 14.76700 29.09700
C  43.55900 15.14000 30.42500
C  44.81500 15.66400 30.52900
C  42.18300 14.15900 28.48400
C  42.97500 15.10500 31.75100
O  41.90600 14.62700 32.10300
C  43.96900 15.85000 32.69900
C  43.36400 17.01100 33.31200
O  42.96100 18.02100 32.79500
O  43.30500 16.72100 34.61500
C  42.50100 17.60500 35.47400
H  50.42400 18.53000 31.84700
H  50.01000 17.30400 25.60900
H  44.19400 14.60400 26.38800
H  46.07300 17.76900 34.06800
H  48.94700 17.47200 33.97000
H  49.18300 19.85200 33.74800
H  47.59800 19.70000 34.52100
H  47.73300 19.70400 32.69700
H  47.29700 15.01200 34.12400
H  45.88000 15.57900 34.99700
H  48.77100 15.81500 35.49500
H  47.41600 15.18700 36.51500
H  53.45000 19.05500 29.67200
H  52.99900 17.91900 30.88000
H  52.22400 19.47000 30.92300
H  53.37100 19.95300 27.45300
H  54.24200 19.05200 26.14700
H  54.11600 18.28800 27.81200
H  48.52100 15.79000 24.23800
H  45.66400 15.78200 24.47500
H  46.86800 18.20700 24.65200
H  46.88300 17.41000 23.06600
H  48.38600 18.04200 23.77000
H  46.39600 13.25300 25.48700
H  47.81400 13.62100 24.56300
H  46.85800 12.51900 22.96600
H  45.90300 13.96100 22.60900
H  45.35900 12.59400 23.77800
H  41.96600 14.87000 27.68800
H  41.43600 14.14900 29.27700
H  42.18500 13.11900 28.15500
H  44.27700 15.16700 33.49000
H  42.35700 17.36700 36.52700
H  41.50600 17.57100 35.03000
H  42.92100 18.61100 35.51300
Mg 27.46900 50.38500 25.81100
C  25.18200 51.17200 28.37900
C  29.48000 48.80700 28.07700
C  29.75600 49.90700 23.33300
C  25.18300 51.55200 23.45300
N  27.35700 50.22500 27.97600
C  26.33000 50.50100 28.80200
C  26.58900 50.06200 30.25500
C  28.06900 49.47800 30.08600
C  28.36600 49.47300 28.60900
C  29.17500 50.21800 30.84700
C  25.55800 49.14100 30.93700
C  24.83000 49.67900 32.25500
H  25.74500 50.15600 33.39600
N  29.34300 49.48500 25.74500
C  30.05700 48.83800 26.79000
C  31.21600 48.19000 26.24600
C  31.36500 48.67100 24.91500
C  30.18800 49.45400 24.63900
C  32.12700 47.41900 27.17100
C  32.52700 48.61800 23.99900
O  32.56300 49.10800 22.87700
C  33.74800 47.88600 24.49300
N  27.49000 50.77200 23.72600
C  28.49800 50.34500 22.93800
C  28.07800 50.30200 21.44300
C  26.54800 50.62900 21.51600
C  26.39200 51.05400 22.99700
C  29.03000 51.13200 20.49800
C  25.61000 49.47200 21.09500
C  24.83100 49.76200 19.77900
N  25.59700 51.31100 25.83300
C  24.82600 51.76200 24.82500
C  23.60300 52.36300 25.37300
C  23.68800 52.15000 26.76300
C  24.92400 51.45000 27.00200
C  22.51700 53.08000 24.63700
C  23.00300 52.32600 28.02400
O  21.91800 52.79700 28.32400
C  24.03700 51.76700 29.11300
C  24.43300 52.98900 29.91500
O  25.38500 53.65800 29.68900
O  23.64800 53.10100 31.08500
C  23.99800 54.25300 31.97700
H  30.06000 48.25100 28.81600
H  30.40900 49.67100 22.48900
H  24.52600 51.75100 22.60300
H  26.60000 51.01500 30.78500
H  28.03200 48.45000 30.44900
H  29.56200 49.47700 31.54600
H  28.75300 50.98600 31.49600
H  30.07000 50.52700 30.30600
H  26.03200 48.18400 31.15800
H  24.70300 48.97100 30.28200
H  24.34200 48.78500 32.64200
H  24.21400 50.55000 32.02800
H  32.75400 48.17000 27.65200
H  32.83000 46.67800 26.79200
H  31.52100 46.88100 27.90000
H  33.70400 46.79700 24.48800
H  33.91900 48.25900 25.50300
H  34.50100 48.28200 23.81200
H  28.13000 49.25000 21.16000
H  26.34700 51.49500 20.88500
H  29.48500 50.39000 19.84200
H  29.75200 51.65600 21.12400
H  28.46700 51.69600 19.75400
H  24.81600 49.33700 21.83100
H  26.07800 48.50300 20.92500
H  25.26200 48.98200 19.15100
H  25.15200 50.68500 19.29700
H  23.74800 49.63900 19.76400
H  21.79600 53.66700 25.20600
H  22.04800 52.32800 24.00300
H  23.02500 53.78300 23.97600
H  23.49700 51.03600 29.71500
H  24.67800 53.87300 32.73900
H  23.03500 54.56900 32.37800
H  24.41200 55.11400 31.45200

