158

Mg 16.96500 -2.59700 27.99600
C  16.08600 -0.66300 30.84400
C  18.22800 -4.96900 29.98600
C  17.89700 -4.33800 25.13900
C  15.47800 -0.18000 26.04600
N  17.17500 -2.74300 30.15200
C  16.74800 -1.86400 31.10900
C  17.02500 -2.45400 32.56200
C  17.88300 -3.78800 32.23500
C  17.85100 -3.83100 30.67400
C  19.30800 -3.75800 32.93600
C  15.74500 -2.72400 33.40600
C  15.84900 -2.22700 34.87900
H  17.20600 -1.65600 35.43700
N  17.70100 -4.51300 27.68200
C  18.05300 -5.37700 28.64400
C  18.39200 -6.60600 28.00400
C  18.45800 -6.37600 26.56700
C  18.08700 -5.00900 26.44300
C  18.71800 -7.86600 28.84800
C  18.85700 -7.33800 25.41900
O  18.84300 -7.07500 24.23900
C  19.41900 -8.68300 25.86100
N  16.87000 -2.25000 25.88400
C  17.35500 -3.04200 24.93800
C  17.05000 -2.51600 23.58900
C  16.10400 -1.27200 23.86400
C  16.12400 -1.24800 25.32600
C  18.32400 -2.26800 22.62000
C  14.66700 -1.20000 23.24600
C  13.58200 -2.02100 23.89700
N  16.20100 -0.63300 28.28700
C  15.50300 0.10200 27.44400
C  14.90800 1.17200 28.23100
C  15.12200 0.90700 29.52800
C  15.93600 -0.20800 29.55400
C  14.00300 2.32800 27.73000
C  14.77800 1.43000 30.80800
O  14.17200 2.41900 31.17500
C  15.41000 0.37700 31.73000
C  16.39800 0.97000 32.71000
O  17.61200 0.94700 32.59600
O  15.73100 1.65400 33.62800
C  16.50900 2.54500 34.54800
H  18.60500 -5.66100 30.74200
H  18.29300 -4.85800 24.26400
H  14.99900 0.50400 25.34200
H  17.63600 -1.65600 32.98200
H  17.39500 -4.70700 32.56000
H  19.96000 -4.19000 32.17700
H  19.22900 -4.33800 33.85600
H  19.66600 -2.79200 33.29300
H  15.45300 -3.77400 33.38900
H  14.88400 -2.22900 32.95700
H  15.50000 -2.99600 35.56900
H  15.10300 -1.48500 35.16600
H  17.96900 -8.61100 28.58000
H  18.72300 -7.71900 29.92800
H  19.74200 -8.14700 28.60200
H  20.18700 -8.76800 26.63000
H  19.92400 -9.12900 25.00300
H  18.59500 -9.28700 26.24000
H  16.48700 -3.33000 23.13200
H  16.71900 -0.47000 23.45700
H  18.27000 -1.26400 22.19900
H  18.36800 -3.01800 21.83000
H  19.24900 -2.37300 23.18700
H  14.80600 -1.45100 22.19400
H  14.37900 -0.15000 23.29600
H  13.91100 -2.69100 24.69200
H  13.14800 -2.68100 23.14700
H  12.79500 -1.32500 24.18900
H  13.02400 2.19000 28.19000
H  13.93700 2.33500 26.64200
H  14.27600 3.31400 28.10400
H  14.60400 -0.07900 32.30600
H  15.93400 3.47000 34.57200
H  17.48900 2.82100 34.15900
H  16.60900 2.24000 35.59000
Mg 25.41200 50.04200 26.18500
C  23.34700 51.22800 28.81400
C  27.70000 49.37200 28.57400
C  27.61100 49.41300 23.76700
C  23.23100 51.26700 23.93400
N  25.38800 50.06100 28.52300
C  24.48300 50.70200 29.36400
C  24.82600 50.39100 30.82000
C  26.33300 50.09600 30.68500
C  26.53300 49.79200 29.18200
C  27.38400 51.18300 31.21400
C  23.97100 49.24100 31.35300
C  23.61900 49.31700 32.92600
H  24.37300 50.24500 33.84400
N  27.39300 49.37900 26.22000
C  28.14100 49.21100 27.30300
C  29.44900 48.74400 26.93800
C  29.47000 48.71200 25.51300
C  28.13800 49.10400 25.07700
C  30.58700 48.35700 27.88900
C  30.60500 48.43000 24.53900
O  30.54400 48.68700 23.32200
C  31.94900 47.91700 25.03500
N  25.40900 50.27400 24.15500
C  26.44500 49.94700 23.34400
C  25.99600 50.01500 21.85300
C  24.54300 50.52300 21.85000
C  24.36900 50.70200 23.40900
C  26.98200 50.63400 20.83300
C  23.50100 49.53000 21.31100
C  22.22400 50.10900 20.76800
N  23.65500 51.07600 26.32000
C  22.88000 51.55100 25.32000
C  21.69800 52.25800 25.84900
C  21.86700 52.11600 27.21500
C  23.07000 51.46700 27.43300
C  20.65800 52.93400 25.03800
C  21.32400 52.41800 28.50300
O  20.27100 53.02400 28.82000
C  22.21600 51.85800 29.60200
C  22.60300 53.02200 30.43900
O  23.15500 53.98400 30.03800
O  22.06600 52.88500 31.71500
C  22.43600 54.00600 32.61000
H  28.51900 49.22300 29.28100
H  28.22000 49.22300 22.88100
H  22.45500 51.55600 23.22100
H  24.67500 51.34400 31.32500
H  26.60400 49.16500 31.18100
H  26.88300 52.14400 31.32100
H  28.15000 51.39800 30.47000
H  27.83300 50.98800 32.18800
H  24.47900 48.32400 31.05400
H  23.00800 49.21300 30.84400
H  23.67500 48.28800 33.28000
H  22.56400 49.59100 32.92500
H  30.47500 48.78800 28.88400
H  31.58400 48.61100 27.52800
H  30.61000 47.27000 27.96500
H  32.46300 47.52700 24.15600
H  31.80800 47.04600 25.67600
H  32.48200 48.73300 25.52200
H  25.97000 48.98900 21.48600
H  24.39800 51.44400 21.28500
H  27.89900 50.87300 21.37100
H  26.51500 51.56600 20.51500
H  27.19100 49.90500 20.05100
H  23.22400 48.76600 22.03800
H  23.99100 48.97900 20.50900
H  21.50900 50.09300 21.59100
H  21.94700 49.66000 19.81500
H  22.34800 51.18400 20.63000
H  20.34400 52.53900 24.07200
H  21.06400 53.94200 24.95600
H  19.77800 53.02900 25.67400
H  21.60600 51.10800 30.10600
H  21.65500 54.75900 32.50300
H  23.41800 54.45100 32.44700
H  22.39100 53.71700 33.66000

