158

Mg 16.55900 -3.15100 27.65000
C  16.01500 -0.84300 30.31200
C  18.34800 -5.08400 29.79800
C  17.79700 -4.97000 24.93400
C  15.05900 -0.87900 25.47500
N  17.27900 -2.85700 29.79100
C  16.77100 -1.95200 30.71300
C  17.40700 -2.20100 32.09800
C  18.25600 -3.51900 31.88700
C  17.88100 -3.89000 30.40400
C  19.80200 -3.38800 32.12600
C  16.34900 -2.39000 33.16600
C  16.79100 -2.16200 34.55700
H  18.12500 -1.49800 34.96100
N  17.71000 -4.96800 27.43600
C  18.36300 -5.57100 28.44900
C  19.00400 -6.78800 27.90500
C  18.93300 -6.73800 26.48700
C  18.09100 -5.55200 26.24900
C  19.70200 -7.84800 28.74000
C  19.43100 -7.71900 25.36500
O  19.18300 -7.52600 24.21700
C  20.29600 -8.99300 25.65500
N  16.60300 -2.84000 25.52500
C  17.18400 -3.74000 24.64900
C  16.86300 -3.35300 23.17400
C  15.88700 -2.03200 23.39200
C  15.80800 -1.90300 24.92900
C  18.16000 -3.06500 22.36100
C  14.49900 -2.11700 22.64100
C  14.08000 -0.94200 21.72500
N  15.61700 -1.28500 27.81200
C  15.01900 -0.50600 26.84300
C  14.52800 0.65400 27.47700
C  14.88600 0.58800 28.82900
C  15.54800 -0.65200 28.99200
C  13.77400 1.64900 26.85300
C  14.74800 1.30700 30.10400
O  14.36000 2.40600 30.44300
C  15.47200 0.35400 31.14300
C  16.52300 1.08200 31.92900
O  17.68300 1.26300 31.58200
O  15.92100 1.44600 33.09900
C  16.78300 2.29400 33.99200
H  18.90600 -5.62500 30.56400
H  18.16500 -5.41700 24.00800
H  14.58900 -0.12400 24.84100
H  18.10500 -1.41900 32.39800
H  17.80700 -4.27400 32.53200
H  20.42100 -3.21900 31.24500
H  20.19200 -4.33900 32.48800
H  20.00700 -2.67600 32.92600
H  15.92200 -3.38900 33.08800
H  15.55800 -1.65900 33.00000
H  16.62800 -3.06300 35.14900
H  16.06700 -1.44200 34.93900
H  19.67500 -7.44500 29.75300
H  20.72000 -8.02100 28.39200
H  19.24000 -8.83300 28.67600
H  19.93200 -9.60600 26.48000
H  21.29800 -8.60000 25.82600
H  20.51500 -9.54900 24.74300
H  16.13200 -4.00300 22.69300
H  16.52000 -1.19300 23.10200
H  19.02200 -3.52900 22.84100
H  18.36500 -2.03300 22.07500
H  18.08500 -3.56000 21.39300
H  13.69900 -2.30100 23.35800
H  14.54800 -2.96300 21.95500
H  13.82700 -1.38700 20.76300
H  14.83800 -0.17500 21.56600
H  13.12900 -0.54600 22.08100
H  12.83400 1.17500 26.57000
H  14.31000 2.15200 26.04800
H  13.52100 2.41000 27.59200
H  14.79400 -0.00600 31.91700
H  16.19500 3.09100 34.44700
H  17.59100 2.80800 33.47100
H  17.20300 1.70000 34.80400
Mg 36.50300 49.48900 25.05200
C  36.73500 47.73000 28.20000
C  35.63100 52.35600 26.83100
C  36.41000 51.16300 22.20200
C  37.24700 46.45900 23.49900
N  36.20100 49.88700 27.21400
C  36.52100 49.10900 28.31100
C  36.41100 49.90500 29.63200
C  35.85000 51.29500 29.19600
C  35.81100 51.19500 27.60900
C  34.51000 51.74000 29.89700
C  37.81400 50.05400 30.25300
C  38.04300 50.17800 31.83700
H  36.76300 50.40100 32.67100
N  36.02900 51.52500 24.58500
C  35.63700 52.50800 25.41100
C  35.49200 53.75400 24.66800
C  35.67400 53.41600 23.23800
C  35.98900 51.97800 23.31400
C  34.99200 55.01200 25.27400
C  35.56200 54.26900 22.01300
O  35.69000 53.83400 20.82800
C  35.38500 55.67900 22.27600
N  36.60800 48.87400 23.10700
C  36.65200 49.81000 22.07700
C  37.11600 49.13500 20.75200
C  37.60000 47.64700 21.24300
C  37.14300 47.62700 22.70700
C  36.04400 49.13500 19.57200
C  39.14300 47.48000 21.09000
C  39.55700 46.04100 20.69100
N  36.75600 47.50900 25.62400
C  37.06900 46.40200 24.86000
C  37.14500 45.26400 25.70600
C  37.01500 45.78600 27.01000
C  36.76900 47.13900 26.93500
C  37.60200 43.96700 25.35200
C  37.12100 45.37200 28.39200
O  37.46500 44.36300 28.94000
C  36.84700 46.65900 29.23400
C  35.63500 46.37300 30.11300
O  34.65900 45.85200 29.62500
O  35.94200 46.69300 31.40500
C  34.78000 46.39500 32.29400
H  35.48900 53.24100 27.45400
H  36.33600 51.65600 21.23000
H  37.51100 45.55200 22.95100
H  35.68300 49.47800 30.32300
H  36.50700 52.15000 29.35400
H  34.67400 52.61600 30.52500
H  34.13200 51.05600 30.65600
H  33.66500 51.94400 29.23900
H  38.34300 50.86600 29.75400
H  38.37500 49.17100 29.94600
H  38.70600 51.04200 31.88000
H  38.56000 49.31500 32.25700
H  35.67900 55.82400 25.03300
H  35.13200 55.09300 26.35300
H  33.96900 55.35800 25.13000
H  36.13300 56.06100 22.97100
H  34.35100 55.95700 22.47800
H  35.63500 56.14800 21.32500
H  37.96800 49.73600 20.43500
H  36.95100 46.95900 20.70000
H  35.07800 49.12900 20.07600
H  36.09700 48.32400 18.84600
H  36.22500 50.08800 19.07500
H  39.71300 47.44600 22.01900
H  39.63800 48.21900 20.46000
H  38.68100 45.39300 20.71800
H  40.28200 45.61200 21.38300
H  40.05500 46.09500 19.72300
H  38.42200 43.65200 25.99600
H  37.80600 43.81400 24.29300
H  36.72000 43.34700 25.51200
H  37.70900 46.90400 29.85500
H  34.55800 45.33300 32.19400
H  33.94700 47.06900 32.09400
H  34.99600 46.46800 33.36000

