158

Mg 42.46800 41.20900 26.80600
C  41.35100 43.67400 29.06400
C  43.46600 39.41500 29.41300
C  43.26700 38.81900 24.52900
C  41.61900 43.35600 24.17400
N  42.44900 41.55400 28.92500
C  41.91200 42.57800 29.71200
C  42.01100 42.38300 31.20100
C  42.93400 41.10600 31.23100
C  43.05900 40.71400 29.70600
C  44.37700 41.45000 31.77600
C  40.62300 42.24900 31.91500
C  40.45500 42.99900 33.23900
H  39.91200 42.10800 34.46300
N  43.39200 39.46200 26.98000
C  43.67800 38.81500 28.12400
C  44.11900 37.48000 27.79400
C  44.14500 37.32600 26.40300
C  43.55700 38.56800 25.90000
C  44.51400 36.47600 28.86300
C  44.59700 36.16500 25.56000
O  44.36600 36.11100 24.37200
C  45.37600 35.12900 26.22000
N  42.52900 41.19700 24.62200
C  42.82200 40.05500 23.93000
C  42.52900 40.16900 22.44000
C  41.98200 41.70800 22.28800
C  42.03100 42.12000 23.76400
C  43.72300 40.02900 21.46800
C  40.55000 41.77600 21.57800
C  39.35100 41.39700 22.38900
N  41.70100 43.19100 26.63200
C  41.44600 43.90200 25.51800
C  40.94000 45.18200 25.86500
C  40.79400 45.17500 27.25600
C  41.31300 43.91500 27.70300
C  40.46100 46.28300 24.89700
C  40.40300 45.89500 28.45400
O  39.87600 47.01400 28.56500
C  40.72400 44.95600 29.61400
C  41.58500 45.70300 30.53300
O  42.76400 45.87500 30.28600
O  40.80100 46.17500 31.52900
C  41.47700 46.98500 32.54300
H  43.82000 38.76100 30.21200
H  43.41300 38.05500 23.76200
H  41.36400 43.87500 23.24800
H  42.44500 43.23400 31.72600
H  42.63700 40.25200 31.83900
H  44.35100 42.52900 31.92900
H  45.17800 41.14700 31.10200
H  44.56700 40.96100 32.73200
H  40.49300 41.22600 32.26800
H  39.79100 42.62900 31.32200
H  39.66500 43.71700 33.02300
H  41.34700 43.60200 33.41000
H  44.13200 36.75400 29.84500
H  45.59400 36.37000 28.95900
H  44.02300 35.51700 28.69600
H  44.77700 34.48200 26.86000
H  46.17500 35.64100 26.75600
H  45.82800 34.47100 25.47700
H  41.82700 39.35200 22.27100
H  42.62000 42.40300 21.74100
H  43.79000 40.92100 20.84400
H  43.70900 39.12000 20.86600
H  44.64100 39.92800 22.04600
H  40.53100 41.10100 20.72200
H  40.30900 42.79600 21.28100
H  38.79200 40.69800 21.76700
H  38.65500 42.23300 22.46300
H  39.52900 41.06200 23.41100
H  39.79700 47.00600 25.37100
H  39.99200 45.80300 24.03900
H  41.38600 46.77900 24.60100
H  39.83900 44.69200 30.19200
H  42.54300 46.84000 32.71800
H  40.85200 46.81200 33.41800
H  41.54500 48.06200 32.39200
Mg -1.14100 34.00800 27.25400
C  -3.04800 32.39500 29.63300
C  0.29500 35.94900 29.74000
C  0.17100 36.02600 24.83500
C  -2.97800 32.32600 24.74300
N  -1.49300 34.25100 29.40700
C  -2.22100 33.36100 30.11800
C  -1.95800 33.64300 31.62300
C  -0.98900 34.79300 31.64900
C  -0.70600 35.04300 30.18800
C  -1.38400 36.07400 32.44200
C  -1.37100 32.28300 32.32800
C  -2.03700 31.86900 33.58900
H  -1.26600 32.15000 34.89500
N  0.09700 35.76000 27.28600
C  0.62600 36.36700 28.42200
C  1.37200 37.50700 28.00700
C  1.34200 37.57500 26.58600
C  0.47300 36.48800 26.14500
C  2.04000 38.36400 29.05600
C  2.05500 38.52500 25.65600
O  2.00600 38.31200 24.46100
C  2.62100 39.81500 26.16000
N  -1.42900 34.16600 25.07200
C  -0.62400 34.98200 24.34400
C  -0.88100 34.83100 22.83300
C  -1.72500 33.58800 22.88200
C  -2.18400 33.35300 24.31600
C  -1.59400 36.08900 22.22700
C  -1.10800 32.34400 22.15300
C  0.02800 31.58800 22.91100
N  -2.75500 32.74300 27.08900
C  -3.24800 32.02300 26.03600
C  -4.20000 31.01600 26.53100
C  -4.16100 31.13800 27.94900
C  -3.18900 32.13900 28.23700
C  -5.06200 30.01900 25.78000
C  -4.68200 30.62800 29.16500
O  -5.55900 29.84700 29.34900
C  -3.89900 31.40800 30.31400
C  -4.98700 32.09500 31.15300
O  -5.62200 33.12300 30.85600
O  -5.24200 31.38300 32.32400
C  -6.32500 31.94200 33.18900
H  0.79900 36.45000 30.56900
H  0.71700 36.58900 24.07500
H  -3.34800 31.54600 24.07500
H  -2.91900 33.85900 32.09100
H  -0.06000 34.43500 32.09300
H  -1.24000 37.00400 31.89300
H  -0.72700 35.96600 33.30500
H  -2.43700 36.00800 32.71700
H  -0.30200 32.42000 32.49300
H  -1.42100 31.45100 31.62500
H  -2.26000 30.80200 33.57000
H  -2.99900 32.38100 33.58400
H  3.07200 38.43000 28.71200
H  1.94100 37.96800 30.06600
H  1.57400 39.34900 29.10400
H  2.95900 40.38000 25.29100
H  3.54500 39.61500 26.70200
H  1.95600 40.27400 26.89100
H  0.10300 34.66400 22.39600
H  -2.62600 33.77300 22.29700
H  -1.43600 36.96300 22.85900
H  -2.67300 36.10000 22.07600
H  -1.05800 36.24500 21.29100
H  -0.61200 32.64300 21.22900
H  -1.88400 31.63700 21.85700
H  -0.38200 30.65200 23.29200
H  0.54200 32.21300 23.64200
H  0.77600 31.23900 22.19900
H  -5.09200 30.15700 24.69900
H  -6.07200 30.21700 26.13800
H  -4.65100 29.04500 26.04700
H  -3.36300 30.69500 30.94000
H  -7.09600 32.32900 32.52300
H  -5.90900 32.69500 33.85900
H  -6.84700 31.17700 33.76300

