158

Mg 34.46700 3.28200 30.12500
C  32.37600 3.91000 32.81100
C  37.21000 3.11800 32.43200
C  36.60200 2.77700 27.54900
C  31.87600 3.73500 28.00100
N  34.76400 3.48300 32.26100
C  33.67700 3.57700 33.21000
C  34.13100 3.42100 34.71400
C  35.70200 3.45000 34.59600
C  35.95900 3.42700 33.03900
C  36.31500 4.72700 35.25300
C  33.52900 2.16300 35.37600
C  32.67300 2.54100 36.65800
H  33.38000 3.44500 37.72200
N  36.54100 2.88100 30.00100
C  37.47900 2.87400 31.06400
C  38.75000 2.41500 30.57600
C  38.67500 2.38800 29.12800
C  37.22400 2.68400 28.83400
C  40.00600 2.07700 31.41200
C  39.76400 2.11000 28.10800
O  39.62000 2.00100 26.94100
C  41.22000 1.94800 28.64200
N  34.28900 3.40800 27.99000
C  35.31900 3.10400 27.17000
C  34.79300 2.93900 25.70800
C  33.23700 2.81200 25.88100
C  33.08100 3.31300 27.37400
C  35.23100 3.96500 24.64600
C  32.69800 1.37100 25.80400
C  31.43400 1.24300 24.89600
N  32.49700 3.92000 30.27300
C  31.55000 4.11300 29.32000
C  30.25900 4.37000 29.97700
C  30.60900 4.34100 31.36800
C  31.88300 4.04200 31.46900
C  28.94300 4.41700 29.39600
C  29.98300 4.42000 32.63700
O  28.86400 4.70200 33.00900
C  31.13000 4.19200 33.66900
C  31.27200 5.38200 34.47500
O  31.85500 6.42200 34.13600
O  30.58100 5.26700 35.68800
C  30.67200 6.45800 36.53800
H  38.05700 2.99400 33.11100
H  37.30200 2.62100 26.72500
H  30.96300 3.77400 27.40400
H  33.60800 4.25700 35.17900
H  36.12900 2.58300 35.10100
H  35.51000 5.26500 35.75300
H  36.97000 5.28700 34.58600
H  36.95300 4.35900 36.05800
H  34.29700 1.43500 35.63800
H  32.79400 1.70800 34.71200
H  32.30900 1.59600 37.06400
H  31.83700 3.09200 36.22800
H  40.28100 1.02500 31.33500
H  39.76100 2.14400 32.47200
H  40.81500 2.79500 31.27500
H  41.60300 2.81400 29.18200
H  41.75000 1.74600 27.71200
H  41.14300 1.04500 29.24600
H  35.13100 1.99900 25.27100
H  32.78400 3.49700 25.16500
H  34.36000 4.57000 24.39300
H  35.61700 3.48100 23.74900
H  35.93200 4.64500 25.13100
H  32.51700 0.90700 26.77400
H  33.47800 0.76500 25.34200
H  30.72500 0.69500 25.51700
H  31.55200 0.60400 24.02000
H  30.95400 2.18100 24.61800
H  28.95700 4.44100 28.30600
H  28.33300 5.24200 29.76500
H  28.35100 3.56400 29.72700
H  30.80600 3.36700 34.30400
H  31.70600 6.57400 36.86300
H  30.13400 6.12400 37.42600
H  30.24900 7.40700 36.20900
Mg 35.65300 49.02100 24.84300
C  35.90100 47.15400 27.72600
C  34.24300 51.63700 26.58400
C  34.83000 50.60600 21.90800
C  36.96900 46.26600 22.97300
N  34.99100 49.28300 26.92200
C  35.25200 48.36400 27.96300
C  34.94100 48.99000 29.38700
C  34.41000 50.43100 28.97700
C  34.60400 50.50900 27.44600
C  32.94000 50.58400 29.45000
C  36.12700 49.21200 30.31300
C  35.96300 49.14100 31.91500
H  34.66700 48.92800 32.62900
N  34.52000 50.85100 24.33500
C  34.16600 51.78100 25.20000
C  33.68900 52.92200 24.43500
C  33.84300 52.64200 23.06500
C  34.48300 51.32100 23.02800
C  33.18300 54.19200 25.09500
C  33.49600 53.49000 21.94700
O  33.97000 53.24600 20.85800
C  32.72300 54.82300 22.14400
N  35.89100 48.52400 22.76600
C  35.48800 49.37100 21.76300
C  35.76500 48.69600 20.33800
C  36.61400 47.41700 20.82400
C  36.46500 47.42500 22.27100
C  34.42000 48.42600 19.60500
C  38.14200 47.38300 20.31400
C  38.92400 48.72300 20.63100
N  36.25900 47.06300 25.20400
C  36.84600 46.08800 24.39400
C  37.16800 44.92900 25.23500
C  36.86100 45.40100 26.56600
C  36.26200 46.60600 26.46700
C  37.82300 43.62200 24.82100
C  36.94200 44.95600 27.95500
O  37.27200 43.89000 28.44300
C  36.28400 46.13300 28.77800
C  35.08300 45.64600 29.45000
O  34.05900 45.33800 28.89000
O  35.27900 45.35900 30.77700
C  34.22000 44.55400 31.44600
H  33.76000 52.50600 27.03500
H  34.79200 51.04300 20.90800
H  37.29600 45.41900 22.36600
H  34.18600 48.44600 29.95400
H  34.89500 51.29000 29.44100
H  32.38000 50.98500 28.60500
H  32.83200 51.44900 30.10400
H  32.42400 49.75900 29.94000
H  36.66700 50.11100 30.01500
H  36.93200 48.55900 29.97700
H  36.34700 50.05100 32.37500
H  36.67300 48.34600 32.14600
H  33.83500 55.00700 24.78300
H  33.13500 54.16400 26.18300
H  32.15700 54.36200 24.76800
H  31.85500 54.60000 22.76400
H  32.38100 55.20300 21.18200
H  33.37700 55.55300 22.62000
H  36.27700 49.36900 19.65100
H  36.20400 46.44500 20.55100
H  34.42500 48.82900 18.59200
H  33.61400 48.78100 20.24700
H  34.34900 47.34000 19.55000
H  38.01100 47.26700 19.23800
H  38.57000 46.48100 20.75100
H  39.86900 48.63000 21.16600
H  38.40200 49.45600 21.24500
H  39.26100 49.21600 19.71900
H  37.02700 42.88500 24.92200
H  38.63500 43.43100 25.52400
H  38.16900 43.59200 23.78800
H  36.90300 46.50300 29.59600
H  33.50500 45.11800 32.04500
H  34.69200 43.90100 32.17900
H  33.57000 44.02200 30.75000

