158

Mg 41.01300 9.22600 29.13000
C  42.95800 10.60100 31.69100
C  38.90200 7.91900 31.38300
C  39.42100 7.88000 26.61100
C  43.72300 10.02900 26.92800
N  40.95800 9.30700 31.32900
C  41.77600 10.01300 32.12400
C  41.33400 9.92900 33.58300
C  40.05500 9.01200 33.53300
C  39.96500 8.62300 31.99500
C  40.04800 7.73500 34.42100
C  41.32900 11.24100 34.39000
C  40.33700 11.34500 35.51400
H  41.03300 11.67100 36.85000
N  39.40300 8.05300 29.04500
C  38.57900 7.63600 30.03700
C  37.41800 7.02700 29.50800
C  37.49600 7.19300 28.11500
C  38.82100 7.68300 27.86500
C  36.35200 6.45000 30.39000
C  36.49300 6.99400 27.10700
O  36.77200 7.33800 25.99300
C  35.10500 6.51100 27.32100
N  41.65600 8.66200 27.09100
C  40.69400 8.26000 26.23200
C  41.21700 8.11500 24.80400
C  42.32900 9.22900 24.85300
C  42.60000 9.34200 26.34100
C  41.79400 6.70900 24.42100
C  41.93200 10.65600 24.28900
C  40.44200 11.07100 24.36000
N  42.95600 10.11200 29.22100
C  43.92200 10.35400 28.28400
C  45.05800 11.06500 28.87700
C  44.74500 11.14800 30.24300
C  43.45000 10.54700 30.37300
C  46.27200 11.45100 28.16400
C  45.10300 11.72400 31.47400
O  46.06000 12.42400 31.81000
C  43.96300 11.33000 32.55600
C  44.56500 10.36500 33.42300
O  45.07100 9.32700 33.02800
O  44.58800 10.85400 34.70000
C  45.34400 10.02100 35.65500
H  38.10700 7.85600 32.12900
H  38.88900 7.49400 25.73900
H  44.48300 10.37300 26.22300
H  42.17400 9.45700 34.09300
H  39.21600 9.66900 33.75900
H  39.00900 7.40900 34.46000
H  40.63700 7.90200 35.32300
H  40.59200 6.94200 33.90700
H  41.05100 11.89500 33.56300
H  42.29200 11.62200 34.72900
H  39.85800 10.43000 35.86100
H  39.64000 12.13800 35.24200
H  35.45400 6.31500 29.78700
H  36.13800 7.01300 31.29900
H  36.68600 5.45200 30.67400
H  34.59400 6.65400 26.36900
H  34.49300 7.11600 27.99000
H  34.96600 5.43800 27.45400
H  40.42100 8.21100 24.06500
H  43.13300 8.80400 24.25300
H  41.11000 6.14000 23.79100
H  41.64100 6.15600 25.34700
H  42.81100 6.59500 24.04500
H  42.31500 10.70900 23.27000
H  42.37800 11.53700 24.75000
H  40.28700 11.64000 25.27700
H  39.78900 10.19800 24.34600
H  40.13300 11.77800 23.59100
H  47.15700 11.23500 28.76300
H  46.14500 12.52900 28.05700
H  46.34900 10.98000 27.18400
H  43.66400 12.23300 33.08900
H  45.20400 10.53000 36.60900
H  46.37200 10.06100 35.29500
H  44.91600 9.01900 35.68700
Mg 9.72600 47.47100 26.37700
C  7.97700 47.57800 29.34600
C  12.42500 48.51200 28.06200
C  11.38900 47.50900 23.46900
C  6.72500 46.82300 24.55700
N  10.08300 48.18800 28.43200
C  9.23300 48.13600 29.51500
C  10.01100 48.46200 30.87500
C  11.16200 49.34200 30.21200
C  11.25600 48.65400 28.78000
C  10.86200 50.98800 30.18400
C  10.47500 47.29200 31.73300
C  10.03100 47.38600 33.24400
H  10.02700 46.21200 34.19700
N  11.64100 47.76100 25.90600
C  12.66000 48.00500 26.77800
C  13.90100 47.93200 26.06700
C  13.64500 47.63600 24.69800
C  12.14200 47.64800 24.60900
C  15.22700 48.02100 26.70200
C  14.58700 47.49300 23.53000
O  14.26400 47.49600 22.35900
C  16.02100 47.56800 23.74800
N  9.13500 47.14500 24.29600
C  10.00400 47.45800 23.30500
C  9.32700 47.29600 21.86200
C  7.86400 46.80900 22.30100
C  7.85000 46.99400 23.81800
C  9.29000 48.55900 21.01400
C  7.43200 45.40500 21.85400
C  8.31600 44.11900 22.16400
N  7.68400 47.38700 26.76700
C  6.60200 47.06600 25.97300
C  5.46200 46.94200 26.77800
C  6.00200 47.00200 28.11800
C  7.33900 47.34400 28.07700
C  4.10700 46.55200 26.36100
C  5.62400 46.88400 29.54000
O  4.56200 46.63500 30.05100
C  6.94700 47.17400 30.34800
C  7.29700 45.90700 31.01100
O  8.03600 45.02900 30.54500
O  6.65300 45.85600 32.17900
C  6.98400 44.66400 33.03600
H  13.28100 48.86400 28.64300
H  11.94100 47.37600 22.53600
H  5.76500 46.64300 24.06800
H  9.29500 49.07000 31.42800
H  12.09000 49.22600 30.77200
H  10.04300 51.21500 30.86700
H  10.72400 51.25800 29.13700
H  11.77100 51.46500 30.54900
H  11.56200 47.21900 31.77100
H  10.13100 46.35200 31.30100
H  9.03400 47.82400 33.21700
H  10.73800 48.07100 33.71100
H  15.21100 48.10900 27.78900
H  15.73000 48.91900 26.34300
H  15.82100 47.13700 26.47100
H  16.17100 48.62400 23.97400
H  16.57400 47.39300 22.82500
H  16.18000 46.79200 24.49700
H  9.77500 46.46600 21.31500
H  7.07700 47.50000 21.99900
H  10.05200 48.41400 20.24800
H  9.50500 49.46200 21.58600
H  8.31800 48.62100 20.52500
H  7.33800 45.42200 20.76800
H  6.38600 45.22800 22.10600
H  9.20000 44.40600 22.73500
H  8.57000 43.61000 21.23400
H  7.85000 43.41100 22.85000
H  3.52900 46.51100 27.28400
H  4.12700 45.66800 25.72400
H  3.72900 47.36100 25.73700
H  6.63000 47.85100 31.14200
H  7.87800 44.98600 33.57100
H  7.14600 43.69100 32.57200
H  6.19400 44.54200 33.77700

