158

Mg 6.99300 56.31300 41.78300
C  7.09100 52.79500 42.02000
C  10.20000 56.12100 40.65500
C  6.68600 59.57000 40.92300
C  3.66500 56.35100 42.85300
N  8.38300 54.56100 41.15900
C  8.22700 53.22800 41.29600
C  9.39900 52.43500 40.70900
C  10.53700 53.55800 40.65800
C  9.67500 54.84600 40.83100
C  11.67900 53.55400 41.74000
C  8.99300 51.84400 39.34400
C  9.59300 50.52200 38.93000
H  8.88400 49.73300 37.79900
N  8.29400 57.62400 40.98100
C  9.63500 57.42600 40.61000
C  10.18600 58.66500 40.23500
C  9.18900 59.66800 40.26500
C  7.93900 58.96600 40.70400
C  11.58100 58.81800 39.95500
C  9.51500 61.13500 39.90000
O  10.67700 61.49800 39.68400
C  8.36300 62.06600 39.74400
N  5.36200 57.73500 41.80500
C  5.55800 58.98500 41.41800
C  4.29200 59.84600 41.64400
C  3.19700 58.79500 42.13200
C  4.07600 57.52300 42.23900
C  4.38200 61.10200 42.52800
C  1.95200 58.67800 41.19900
C  0.58100 59.01200 41.84700
N  5.66100 54.88700 42.37900
C  4.39300 55.10100 42.98200
C  4.03700 53.80800 43.68200
C  5.02800 52.90100 43.27100
C  5.98300 53.60000 42.51600
C  2.79100 53.63100 44.45800
C  5.55700 51.53200 43.41000
O  5.12200 50.65000 44.15800
C  6.81100 51.36900 42.52600
C  6.42100 50.47400 41.48800
O  5.51900 50.68300 40.72800
O  7.31600 49.42200 41.42700
C  6.98500 48.31600 40.51800
H  11.28900 56.09500 40.57100
H  6.62400 60.65900 40.96100
H  2.72700 56.40500 43.40900
H  9.66500 51.78800 41.54500
H  10.93200 53.50000 39.64400
H  11.88600 52.60300 42.23100
H  11.36200 54.18200 42.57300
H  12.57600 54.03900 41.35600
H  9.31300 52.45700 38.50100
H  7.91300 51.93800 39.22700
H  9.41400 49.87000 39.78500
H  10.65900 50.67400 38.75800
H  12.06900 57.88500 40.23800
H  12.13500 59.56100 40.52900
H  11.72900 58.97700 38.88700
H  7.79300 62.24400 40.65600
H  7.71300 61.61900 38.99200
H  8.64400 62.93700 39.15300
H  4.05700 60.18600 40.63600
H  2.98300 59.07900 43.16300
H  4.63100 62.06100 42.07400
H  5.14400 60.87600 43.27300
H  3.47100 61.19700 43.11900
H  1.87300 57.71400 40.69500
H  2.00000 59.46400 40.44600
H  -0.01300 58.09800 41.85000
H  0.15800 59.76500 41.18200
H  0.70200 59.51300 42.80800
H  2.84300 52.58100 44.74800
H  1.92100 53.88200 43.85100
H  2.71100 54.24300 45.35700
H  7.69900 51.01200 43.04800
H  6.14900 47.68400 40.81800
H  7.89800 47.80600 40.21300
H  6.56100 48.70100 39.59000
Mg 16.14600 51.16400 26.04900
C  18.36600 50.33600 28.61600
C  13.49200 51.24900 28.23900
C  13.96700 51.16000 23.32500
C  18.72200 50.35800 23.76300
N  15.93600 50.82100 28.12900
C  17.02700 50.69500 28.96300
C  16.67000 51.04800 30.38800
C  15.11400 50.90900 30.31600
C  14.79700 51.04900 28.81000
C  14.61300 49.64800 31.07800
C  17.21200 52.41400 30.95200
C  17.42900 52.48100 32.52600
H  16.56900 51.51900 33.43500
N  14.09200 51.37200 25.82300
C  13.18900 51.41100 26.91100
C  11.84700 51.42500 26.30400
C  11.95000 51.42200 24.86600
C  13.34900 51.34300 24.64500
C  10.65800 51.52200 27.22200
C  10.79300 51.35200 23.87900
O  11.00200 51.35900 22.64000
C  9.39200 51.13000 24.38700
N  16.32700 50.70300 23.85000
C  15.28900 50.97400 22.96800
C  15.82000 50.99200 21.55400
C  17.37300 50.94600 21.73600
C  17.48600 50.56600 23.17300
C  15.18500 49.79900 20.62800
C  18.18400 52.23100 21.32400
C  19.21400 52.08400 20.17100
N  18.14500 50.54800 26.15700
C  19.10100 50.33300 25.16600
C  20.35600 49.90600 25.80400
C  20.09300 49.97100 27.17800
C  18.74900 50.34900 27.31000
C  21.55000 49.57200 25.12500
C  20.72900 49.74100 28.48400
O  21.86400 49.32700 28.84200
C  19.57900 50.15100 29.55400
C  19.46000 48.98300 30.42900
O  19.26800 47.85400 30.06100
O  19.54700 49.37800 31.71000
C  19.37300 48.31700 32.65000
H  12.75000 51.21600 29.04000
H  13.35300 51.30900 22.43400
H  19.49200 50.22100 23.00100
H  17.10200 50.29500 31.04700
H  14.69800 51.70800 30.92900
H  13.81400 49.96600 31.74800
H  15.43300 49.19700 31.63700
H  14.22900 49.05100 30.25100
H  16.62400 53.27300 30.62800
H  18.16100 52.61700 30.45600
H  17.24300 53.53200 32.75000
H  18.51200 52.38200 32.60800
H  10.05200 50.61800 27.16000
H  9.98800 52.36100 27.03200
H  10.87700 51.63000 28.28400
H  8.93200 51.93900 24.95500
H  9.44500 50.21100 24.97100
H  8.82100 50.83300 23.50700
H  15.43800 51.93300 21.15900
H  17.81700 50.13500 21.16000
H  14.46600 49.20700 21.19500
H  16.02300 49.21900 20.24200
H  14.73300 50.25700 19.74800
H  18.56800 52.86500 22.12300
H  17.54800 52.94900 20.80600
H  18.68700 52.41100 19.27400
H  19.54400 51.04500 20.16500
H  20.05600 52.77000 20.25500
H  21.39400 48.60100 24.65500
H  22.50700 49.58400 25.64800
H  21.76800 50.23200 24.28600
H  19.75600 51.06400 30.12200
H  20.26700 47.70400 32.54000
H  18.44000 47.75400 32.69500
H  19.51100 48.84700 33.59200

