158

Mg 44.72800 4.09100 46.51900
C  42.69000 7.06100 46.29900
C  41.60200 2.47400 45.66000
C  46.39700 1.30600 45.97800
C  47.55300 6.11400 46.52900
N  42.41300 4.69200 46.06900
C  41.89400 5.96900 46.04200
C  40.40900 5.96500 45.82400
C  40.03800 4.45800 45.78200
C  41.42100 3.80700 45.84900
C  38.99500 3.97000 46.86900
C  39.96200 6.70900 44.53100
C  40.99700 6.89300 43.36600
H  40.52300 7.21300 41.93100
N  44.11100 2.13900 46.07700
C  42.79300 1.67600 45.76000
C  42.88000 0.23500 45.47600
C  44.28600 -0.17700 45.53800
C  44.98800 1.11600 45.84600
C  41.62300 -0.57300 45.15200
C  44.83000 -1.59400 45.22300
O  44.05900 -2.49200 44.85700
C  46.32700 -1.88400 45.41500
N  46.69300 3.79700 46.47100
C  47.13700 2.49600 46.20300
C  48.68500 2.50300 46.18100
C  49.03700 4.02700 46.34000
C  47.70900 4.70600 46.41200
C  49.31600 1.55600 47.18500
C  49.92100 4.68800 45.15800
C  51.20900 5.44600 45.58300
N  45.16300 6.13300 46.57600
C  46.37200 6.79800 46.55400
C  46.12000 8.24600 46.65700
C  44.72200 8.40200 46.60000
C  44.12400 7.07500 46.49100
C  47.02200 9.44600 46.70600
C  43.66500 9.33900 46.73400
O  43.68700 10.54000 46.93700
C  42.34700 8.58100 46.48900
C  41.51100 8.71600 47.65400
O  41.68900 8.17700 48.75500
O  40.46500 9.56100 47.40600
C  39.55900 9.74800 48.52800
H  40.78900 1.83500 45.30800
H  47.13800 0.51600 45.83800
H  48.42800 6.76300 46.46400
H  40.02800 6.42500 46.73600
H  39.55600 4.22500 44.83300
H  38.55900 4.77900 47.45600
H  39.54200 3.22600 47.44900
H  38.15200 3.53500 46.33200
H  39.78900 7.69300 44.96700
H  39.07000 6.23900 44.11700
H  41.61400 5.99500 43.32500
H  41.71200 7.69100 43.56600
H  40.77700 -0.18700 45.72100
H  41.73100 -1.65200 45.25800
H  41.50800 -0.52000 44.06900
H  46.24200 -2.93500 45.69000
H  46.80600 -1.35500 46.24000
H  46.88600 -1.68900 44.50000
H  48.87000 2.27600 45.13100
H  49.53700 4.24400 47.28500
H  50.27400 2.01500 47.42900
H  49.44100 0.55400 46.77300
H  48.68000 1.50100 48.06800
H  49.31400 5.20100 44.41100
H  50.26300 3.80600 44.61700
H  51.95400 4.81900 45.09500
H  51.58500 5.43200 46.60600
H  51.07800 6.47300 45.24300
H  46.56500 10.25700 46.13800
H  47.94200 9.18800 46.18100
H  47.31400 9.81000 47.69100
H  41.83200 8.90300 45.58500
H  39.71100 10.75700 48.91200
H  39.62400 8.97500 49.29400
H  38.59500 9.56500 48.05300
Mg 49.02000 35.78600 27.58000
C  47.03800 34.00300 29.84600
C  49.15000 38.30300 30.03000
C  50.88500 37.47000 25.51200
C  48.61400 33.22100 25.28800
N  48.13700 36.08900 29.67400
C  47.55000 35.16700 30.44400
C  47.48900 35.56200 31.90000
C  47.89900 37.08400 31.84900
C  48.42700 37.18000 30.42500
C  46.88400 38.20700 32.34200
C  48.45900 34.70000 32.71600
C  48.13400 34.40800 34.16600
H  47.05800 35.29700 34.88400
N  49.97600 37.57800 27.71100
C  49.96000 38.43800 28.80900
C  50.79200 39.51400 28.49000
C  51.28300 39.37700 27.16100
C  50.68200 38.12000 26.68200
C  50.95900 40.65200 29.50100
C  52.19700 40.39500 26.37600
O  52.59700 40.18300 25.24800
C  52.67300 41.69200 27.01900
N  49.51100 35.46900 25.51500
C  50.44100 36.28800 24.96900
C  50.88300 35.79300 23.57900
C  50.10300 34.39000 23.55000
C  49.35100 34.34600 24.86200
C  50.54000 36.72400 22.45600
C  50.92800 33.10800 23.23600
C  50.35100 32.11000 22.15100
N  48.04700 33.96000 27.43300
C  47.90000 33.04000 26.43900
C  47.02100 31.93600 26.88000
C  46.60700 32.34400 28.14900
C  47.28400 33.48200 28.52000
C  46.54200 30.74100 26.16200
C  45.75700 32.01400 29.31700
O  45.05700 31.01000 29.57000
C  46.05200 33.05800 30.44300
C  46.39800 32.20500 31.53800
O  47.23600 31.32900 31.53100
O  45.69700 32.60700 32.62700
C  45.73400 31.73300 33.75900
H  49.22900 38.97800 30.88500
H  51.67500 37.90100 24.89400
H  48.49100 32.37800 24.60400
H  46.45100 35.48200 32.22500
H  48.75900 37.14800 32.51500
H  46.03700 37.67800 32.77900
H  46.54600 38.64400 31.40200
H  47.28700 38.81000 33.15500
H  49.46100 35.12500 32.64200
H  48.62000 33.71100 32.28900
H  49.05800 34.62000 34.70300
H  48.07000 33.32000 34.18700
H  50.55000 40.52000 30.50300
H  50.56300 41.58000 29.09000
H  52.00600 40.94900 29.56600
H  53.21000 42.37600 26.36200
H  53.42400 41.34300 27.72700
H  51.87400 42.24400 27.51300
H  51.96000 35.64300 23.65300
H  49.32600 34.43700 22.78800
H  50.12200 36.15000 21.62900
H  51.44900 37.08900 21.97800
H  49.80100 37.44700 22.80100
H  51.09000 32.64200 24.20800
H  51.88400 33.51500 22.90700
H  50.35300 31.10000 22.56100
H  51.09400 32.07900 21.35400
H  49.37300 32.43500 21.79600
H  45.46900 30.81300 25.98100
H  46.71800 29.88800 26.81800
H  47.04600 30.59100 25.20800
H  45.12400 33.61100 30.58900
H  45.04200 30.91300 33.56500
H  45.40700 32.27100 34.64900
H  46.72700 31.36100 34.00900

