158

Mg 0.85500 7.78900 26.19900
C  1.17700 9.25400 29.35800
C  0.47300 4.79100 27.64400
C  1.13700 6.39700 23.13500
C  1.64900 10.87300 24.82500
N  0.93600 7.06900 28.25000
C  0.77400 7.84200 29.39900
C  0.52800 7.00000 30.66300
C  0.48400 5.54500 30.06900
C  0.57500 5.85400 28.57000
C  1.57600 4.61000 30.67000
C  -0.81400 7.47700 31.40400
C  -0.77700 7.81000 32.91400
H  0.24500 7.23700 33.79100
N  0.72700 5.84400 25.50400
C  0.53500 4.76700 26.26100
C  0.54000 3.59800 25.42800
C  0.73500 4.00800 24.11300
C  0.86400 5.45700 24.19500
C  0.28000 2.15900 25.99500
C  0.77100 3.03800 22.81500
O  0.94300 3.52400 21.71200
C  0.61600 1.57700 22.79400
N  1.12600 8.58900 24.20800
C  1.29800 7.80700 23.14600
C  1.66600 8.62100 21.87400
C  1.80700 10.08500 22.45400
C  1.57200 9.81600 23.90900
C  2.98200 8.12100 21.14100
C  0.84100 11.13500 21.90400
C  -0.71000 11.02300 22.13500
N  1.32300 9.69600 26.89700
C  1.55100 10.82800 26.22800
C  1.66000 11.93300 27.10800
C  1.53200 11.39000 28.38000
C  1.34200 10.05200 28.19800
C  2.09300 13.31100 26.74100
C  1.74000 11.59300 29.78200
O  2.08500 12.55900 30.38700
C  1.17700 10.30300 30.49700
C  2.10500 10.08200 31.66500
O  3.29600 9.68600 31.71200
O  1.53300 10.71500 32.71900
C  2.30500 11.10300 33.92800
H  0.41000 3.88400 28.24900
H  1.27000 5.99100 22.13000
H  1.90900 11.88500 24.50800
H  1.44700 7.25400 31.19200
H  -0.48400 5.13500 30.35500
H  2.48600 4.36500 30.12200
H  1.03800 3.75700 31.08400
H  1.87700 4.93900 31.66500
H  -1.57100 6.69100 31.41300
H  -1.18500 8.32300 30.82600
H  -1.77000 7.52600 33.26400
H  -0.56000 8.87800 32.92500
H  0.94900 1.56000 25.37800
H  -0.77000 1.93200 25.81300
H  0.62300 2.15800 27.03000
H  1.39100 0.97400 23.26800
H  0.58900 1.37300 21.72400
H  -0.35400 1.37500 23.24800
H  0.83500 8.56700 21.17100
H  2.78200 10.56700 22.37900
H  3.61100 7.71700 21.93400
H  3.57000 8.90800 20.66800
H  2.73800 7.42300 20.34100
H  0.99700 11.26900 20.83300
H  1.17400 12.11200 22.25400
H  -0.88500 10.08800 22.66700
H  -1.18400 10.96500 21.15500
H  -1.15400 11.87800 22.64400
H  2.80100 13.59200 27.52100
H  1.11200 13.75000 26.56100
H  2.67300 13.48400 25.83500
H  0.12200 10.43900 30.73300
H  2.22200 12.13600 34.26500
H  3.37700 10.91200 33.89400
H  1.86000 10.47500 34.70000
Mg -2.09200 34.43100 26.95800
C  -3.93900 32.91300 29.50500
C  -1.14300 36.91300 29.20800
C  -0.75700 36.12700 24.42500
C  -3.56800 32.31400 24.70600
N  -2.49700 34.87500 29.10300
C  -3.19900 33.99900 29.93300
C  -3.11200 34.44700 31.35200
C  -2.44700 35.91800 31.25200
C  -1.96200 35.95100 29.81700
C  -3.31000 37.09200 31.61800
C  -2.44900 33.43200 32.33100
C  -3.02300 33.43300 33.80000
H  -2.19400 34.08500 34.86000
N  -0.98300 36.14100 26.87100
C  -0.63200 37.00400 27.95000
C  0.28200 38.02200 27.36700
C  0.27400 37.88200 25.89800
C  -0.56300 36.73100 25.69500
C  0.87700 39.19700 28.14800
C  1.10600 38.62400 24.82300
O  0.83300 38.50800 23.67400
C  2.09100 39.69000 25.33800
N  -2.18900 34.29800 24.90900
C  -1.49600 35.07200 24.06900
C  -1.55600 34.53000 22.58300
C  -2.29900 33.22700 22.75400
C  -2.76900 33.31300 24.18400
C  -2.24100 35.61300 21.65800
C  -1.44400 31.96200 22.59500
C  -1.97800 30.73600 21.82000
N  -3.52900 32.89500 27.02500
C  -3.96100 32.08900 25.99700
C  -4.85800 31.07400 26.55100
C  -4.78800 31.31100 27.95700
C  -4.01200 32.45400 28.16300
C  -5.54600 29.96700 25.74900
C  -5.27600 30.80500 29.21100
O  -6.01000 29.84600 29.46100
C  -4.54400 31.76200 30.31400
C  -5.65300 32.19700 31.20200
O  -6.54300 32.96300 30.88600
O  -5.58500 31.54900 32.43900
C  -6.55500 31.87900 33.45000
H  -0.82900 37.75900 29.82200
H  -0.31200 36.58400 23.53900
H  -4.07100 31.63400 24.01700
H  -4.12400 34.53400 31.74700
H  -1.59500 36.01400 31.92400
H  -3.11700 37.36200 32.65600
H  -4.34300 36.80700 31.41700
H  -3.14100 37.98900 31.02300
H  -1.40900 33.75000 32.40900
H  -2.49000 32.45600 31.84800
H  -3.13000 32.38000 34.06100
H  -4.00400 33.90600 33.77600
H  1.96600 39.20200 28.19600
H  0.49800 39.26100 29.16800
H  0.64000 40.08800 27.56500
H  1.59700 40.56600 25.75900
H  2.77600 39.93500 24.52700
H  2.73800 39.12200 26.00600
H  -0.50900 34.43200 22.29600
H  -3.12100 33.16100 22.04100
H  -1.51700 35.93600 20.91000
H  -2.64900 36.44400 22.23400
H  -3.03400 35.10900 21.10500
H  -1.21900 31.67700 23.62300
H  -0.50900 32.21000 22.09300
H  -2.23900 29.93300 22.50900
H  -1.34800 30.53900 20.95200
H  -2.91000 31.09900 21.38600
H  -5.48000 30.10000 24.66900
H  -6.61300 29.85600 25.94400
H  -5.16400 28.98600 26.03100
H  -3.73900 31.24800 30.83900
H  -6.78200 31.08200 34.15800
H  -7.51600 32.20400 33.05100
H  -6.25800 32.70500 34.09800

