158

Mg 25.85100 0.52500 29.90300
C  27.95200 0.38600 32.65300
C  23.17300 0.99700 32.03400
C  23.95400 0.86700 27.09200
C  28.63000 -0.32300 27.85500
N  25.57200 0.68400 32.14100
C  26.66000 0.72700 33.03400
C  26.12300 0.84200 34.53000
C  24.62100 0.97400 34.29800
C  24.43000 0.91200 32.77100
C  23.58300 0.22500 35.16900
C  26.64400 2.15200 35.18900
C  25.78000 2.77100 36.29800
H  26.54200 3.31700 37.58800
N  23.85000 0.81900 29.60900
C  22.92200 0.97000 30.63600
C  21.63000 1.15500 29.96800
C  21.84700 1.06000 28.55100
C  23.26600 0.90400 28.37800
C  20.35000 1.49700 30.75300
C  20.91100 1.15300 27.39700
O  21.22600 0.99500 26.24200
C  19.50000 1.40800 27.68400
N  26.27600 0.43400 27.79900
C  25.32900 0.71500 26.84500
C  25.90300 0.60500 25.48700
C  27.47400 0.33400 25.71300
C  27.46000 0.01200 27.20400
C  25.13300 -0.43300 24.59100
C  28.33800 1.53100 25.23100
C  29.21100 1.28400 24.03800
N  27.85400 0.07100 30.14200
C  28.81200 -0.41900 29.29000
C  30.06700 -0.67100 30.03600
C  29.79600 -0.23800 31.32500
C  28.40800 0.09000 31.37400
C  31.35800 -1.29500 29.68300
C  30.32800 -0.10800 32.65900
O  31.46700 -0.38400 33.01800
C  29.16600 0.40100 33.58200
C  29.07700 -0.56300 34.74100
O  28.91100 -1.76800 34.65200
O  29.19000 0.07200 35.98500
C  28.90300 -0.84900 37.15300
H  22.36000 1.04600 32.76100
H  23.38000 0.89500 26.16200
H  29.50300 -0.43100 27.20800
H  26.29700 -0.03700 35.15000
H  24.30300 1.99900 34.48600
H  24.09100 -0.13800 36.06200
H  23.16300 -0.55200 34.53000
H  22.89600 0.96800 35.57400
H  26.77100 2.91000 34.41600
H  27.62600 1.94300 35.61200
H  24.93900 2.14900 36.60000
H  25.41400 3.70800 35.87800
H  19.96100 2.47100 30.45600
H  20.44300 1.43900 31.83700
H  19.56200 0.85300 30.36200
H  18.93000 0.56100 28.06500
H  19.05300 1.66900 26.72500
H  19.43500 2.26400 28.35600
H  25.78200 1.49400 24.86600
H  27.86400 -0.60000 25.30800
H  25.74200 -1.32900 24.46900
H  24.89900 -0.06000 23.59400
H  24.19500 -0.71300 25.07000
H  28.95400 2.00300 25.99800
H  27.63500 2.31300 24.94400
H  30.19400 1.66400 24.31700
H  28.89000 1.99200 23.27400
H  29.26200 0.23400 23.75200
H  31.31000 -2.19700 29.07300
H  31.97000 -1.49200 30.56300
H  31.84100 -0.51700 29.09200
H  29.48700 1.38600 33.91900
H  29.31200 -0.37100 38.04400
H  29.40900 -1.81200 37.22100
H  27.83100 -1.00900 37.26500
Mg -4.88400 26.08000 25.80500
C  -3.15700 27.30700 28.65000
C  -6.38700 23.78800 28.12200
C  -5.98700 24.37600 23.28000
C  -2.92600 28.10500 23.87000
N  -4.88200 25.64900 28.06000
C  -4.14000 26.35000 28.96600
C  -4.55100 25.98500 30.41000
C  -5.35000 24.65100 30.25200
C  -5.60400 24.69600 28.72600
C  -4.62700 23.32200 30.78700
C  -5.31700 27.11300 31.14500
C  -5.08300 27.22800 32.70600
H  -4.90100 25.97000 33.56200
N  -6.16900 24.42000 25.69300
C  -6.69400 23.68400 26.75000
C  -7.59100 22.72100 26.20000
C  -7.54700 22.86800 24.78400
C  -6.55300 23.95400 24.50500
C  -8.33500 21.74800 27.14600
C  -8.32100 22.08500 23.73700
O  -8.18100 22.17300 22.51900
C  -9.54600 21.23200 24.13100
N  -4.43800 26.23800 23.80900
C  -5.02400 25.33400 22.96200
C  -4.69300 25.65700 21.49500
C  -3.84400 26.95700 21.67300
C  -3.80800 27.21900 23.21700
C  -3.84300 24.53200 20.77200
C  -4.41200 28.33400 21.05100
C  -3.49600 29.00100 19.99700
N  -3.35700 27.37600 26.12700
C  -2.67300 28.25200 25.25900
C  -1.95100 29.26400 25.92000
C  -2.06100 28.88900 27.26700
C  -2.87400 27.73400 27.36500
C  -1.09600 30.34000 25.31500
C  -1.58100 29.21000 28.59300
O  -0.85000 30.13300 28.96700
C  -2.31600 28.18500 29.60400
C  -1.14700 27.44900 30.20300
O  -0.35300 26.83100 29.55300
O  -1.06000 27.51200 31.56900
C  0.06800 26.81600 32.15000
H  -6.87100 23.18400 28.89200
H  -6.37900 23.87700 22.39100
H  -2.29100 28.66400 23.18000
H  -3.65400 25.75000 30.98300
H  -6.31200 24.73900 30.75800
H  -4.74700 23.31000 31.87000
H  -3.64800 23.48800 30.33600
H  -4.96400 22.39100 30.33100
H  -6.37800 26.90800 30.99600
H  -5.22400 27.99400 30.51100
H  -5.94000 27.75200 33.12800
H  -4.15100 27.79300 32.70800
H  -9.25100 22.21000 27.51400
H  -7.77800 21.50700 28.05100
H  -8.42200 20.78400 26.64400
H  -10.16000 21.01300 23.25800
H  -10.14400 21.73900 24.88800
H  -9.22300 20.24100 24.45200
H  -5.62700 25.94400 21.01100
H  -2.77900 26.82400 21.48200
H  -3.22300 25.00700 20.01200
H  -4.59800 23.82500 20.43000
H  -3.19800 24.10200 21.53900
H  -4.56500 29.02100 21.88200
H  -5.35100 28.26100 20.50200
H  -3.92800 29.14600 19.00600
H  -2.64600 28.34400 19.81500
H  -3.12100 29.91100 20.46400
H  -1.21500 30.19600 24.24100
H  -0.04100 30.10200 25.45300
H  -1.39300 31.32900 25.66400
H  -2.93400 28.80000 30.25800
H  -0.14300 25.83400 32.57200
H  0.34800 27.61200 32.84100
H  0.97700 26.80400 31.54900

