158

Mg 2.11700 -1.75900 43.27600
C  5.34300 -0.82200 43.02800
C  1.15400 1.00600 41.44200
C  -1.02600 -3.05800 43.13600
C  3.24000 -4.90300 44.60700
N  3.20800 -0.22500 42.11300
C  4.53300 0.01100 42.20400
C  4.93300 1.20200 41.34100
C  3.56400 1.97200 41.23200
C  2.54600 0.85000 41.63200
C  3.43200 3.29700 42.12300
C  5.60300 0.90800 39.96900
C  6.47900 2.08200 39.46800
H  6.05000 2.68400 38.07100
N  0.33300 -1.07100 42.46900
C  0.07100 0.11100 41.78300
C  -1.35100 0.37500 41.63800
C  -2.01700 -0.76200 42.22000
C  -0.91900 -1.70200 42.60100
C  -1.94700 1.61800 40.96900
C  -3.55900 -0.90300 42.32900
O  -4.23500 0.02500 41.81600
C  -4.19500 -1.93700 43.21800
N  1.17200 -3.66400 43.91800
C  -0.12000 -3.93600 43.75100
C  -0.52800 -5.29400 44.24700
C  0.91200 -5.96600 44.64100
C  1.86500 -4.78300 44.32300
C  -1.43800 -5.32500 45.52200
C  1.30400 -7.28800 43.95900
C  0.40300 -8.51200 44.32300
N  3.82100 -2.65400 43.83500
C  4.14700 -3.84900 44.44000
C  5.54700 -3.87200 44.81100
C  6.09700 -2.72700 44.33000
C  4.99800 -2.02800 43.72900
C  6.39400 -4.93900 45.46200
C  7.29100 -1.92500 44.15200
O  8.45400 -2.08100 44.45300
C  6.84500 -0.63900 43.24700
C  7.28500 0.58500 43.99600
O  7.03900 0.73400 45.15700
O  7.88600 1.58400 43.24500
C  8.47600 2.72800 43.99800
H  0.89500 1.97800 41.01700
H  -2.04400 -3.44200 43.04200
H  3.50300 -5.81900 45.14000
H  5.72700 1.77800 41.81600
H  3.44400 2.35800 40.21900
H  4.24500 3.44100 42.83500
H  2.47000 3.21900 42.62800
H  3.43500 4.15100 41.44500
H  4.87200 0.69100 39.18900
H  6.16100 -0.01800 40.11000
H  7.41700 1.54500 39.32300
H  6.48900 2.94000 40.14000
H  -2.18400 1.49200 39.91300
H  -1.33500 2.50200 41.14600
H  -2.79700 1.87000 41.60300
H  -4.57300 -2.82300 42.70700
H  -4.94600 -1.39100 43.78900
H  -3.49600 -2.16900 44.02100
H  -0.98600 -5.75100 43.37000
H  0.99200 -6.24800 45.69100
H  -1.38700 -4.27000 45.79400
H  -1.08300 -6.01800 46.28500
H  -2.48200 -5.50400 45.26400
H  2.29500 -7.57300 44.31400
H  1.40800 -7.16200 42.88100
H  0.92400 -9.22200 44.96500
H  0.19900 -8.99900 43.37000
H  -0.53100 -8.27700 44.83400
H  6.38200 -5.76600 44.75300
H  6.05200 -5.23100 46.45500
H  7.39300 -4.55400 45.67100
H  7.24100 -0.74600 42.23700
H  7.75600 3.53100 43.84200
H  9.35800 3.12700 43.49700
H  8.72300 2.41300 45.01200
Mg -11.36500 39.01400 41.43200
C  -9.17900 36.15000 40.73000
C  -9.16500 40.88200 39.53000
C  -13.72100 41.22300 41.43800
C  -13.65300 36.48100 42.72100
N  -9.46600 38.53000 40.14200
C  -8.77500 37.28100 39.99600
C  -7.68400 37.38300 38.99700
C  -7.57900 38.97900 38.82300
C  -8.76600 39.53600 39.53000
C  -6.16200 39.57200 39.21000
C  -7.92600 36.58800 37.70600
C  -6.80400 35.59100 37.38000
H  -5.49200 36.11100 36.74600
N  -11.40300 40.93400 40.74400
C  -10.37200 41.51900 40.07300
C  -10.71700 42.93200 39.96300
C  -12.05800 43.05700 40.46100
C  -12.51800 41.71200 40.88700
C  -9.82400 43.88100 39.35500
C  -12.88500 44.28700 40.59200
O  -12.38000 45.40700 40.22300
C  -14.27700 44.29800 40.92600
N  -13.36600 38.79600 41.92600
C  -14.10000 39.94400 41.95900
C  -15.50400 39.73100 42.52500
C  -15.55100 38.21300 42.67400
C  -14.09600 37.75700 42.49600
C  -15.86100 40.57100 43.79600
C  -16.63300 37.56000 41.83600
C  -17.98000 37.81900 42.40000
N  -11.40800 36.90900 41.76900
C  -12.36200 36.03800 42.32000
C  -11.82300 34.67400 42.58200
C  -10.57700 34.68600 41.93400
C  -10.37100 36.06000 41.49500
C  -12.50900 33.59200 43.28700
C  -9.46600 33.84800 41.58200
O  -9.38600 32.62000 41.79200
C  -8.50500 34.86000 40.83600
C  -7.22400 34.82200 41.61200
O  -6.43000 33.92700 41.53000
O  -7.15700 35.85300 42.46300
C  -6.02200 35.78600 43.33600
H  -8.42100 41.54900 39.09100
H  -14.56500 41.88600 41.64200
H  -14.41700 35.83800 43.16300
H  -6.81900 36.98900 39.53100
H  -7.71100 39.26100 37.77800
H  -5.47000 38.78100 39.50200
H  -6.31700 40.32500 39.98200
H  -5.68700 40.04700 38.35200
H  -7.87900 37.30200 36.88400
H  -8.87900 36.06300 37.75700
H  -7.17800 34.81500 36.71300
H  -6.44500 35.06300 38.26400
H  -9.25200 44.23400 40.21300
H  -10.49500 44.56300 38.83400
H  -9.16100 43.55600 38.55200
H  -14.76800 43.62300 40.22500
H  -14.67000 45.28600 40.68400
H  -14.55600 44.01000 41.93900
H  -16.26500 40.02900 41.80500
H  -15.74600 38.06800 43.73600
H  -16.22400 41.52800 43.42200
H  -14.86700 40.71800 44.22000
H  -16.60200 40.11800 44.45400
H  -16.41900 36.49300 41.76500
H  -16.59900 37.99500 40.83700
H  -18.43300 36.95400 42.88400
H  -18.69800 37.99900 41.60000
H  -18.03000 38.65700 43.09500
H  -11.75700 32.87200 43.60800
H  -13.20700 33.14400 42.58000
H  -13.06900 33.87000 44.18000
H  -8.21400 34.35000 39.91800
H  -6.16600 36.70200 43.90800
H  -5.15200 35.83200 42.68100
H  -6.12900 34.91400 43.98100

