158

Mg 46.45400 15.63100 27.46300
C  44.53100 15.47600 30.43900
C  48.64300 17.66800 29.05800
C  48.22200 16.03800 24.52900
C  43.93700 14.00300 25.73600
N  46.56200 16.46600 29.50300
C  45.69100 16.31500 30.59600
C  46.24000 16.95600 31.83300
C  47.48400 17.82300 31.30600
C  47.58000 17.28800 29.89300
C  47.29200 19.31700 31.25400
C  46.56200 15.91900 32.97200
C  46.04200 16.27400 34.37000
H  46.97900 15.96900 35.53300
N  48.32200 16.48900 26.94700
C  49.01000 17.40600 27.73800
C  50.17200 17.80900 27.04300
C  50.11500 17.31500 25.76100
C  48.88600 16.49800 25.71000
C  51.29500 18.68500 27.67000
C  51.04000 17.42400 24.47200
O  50.90000 16.72600 23.51200
C  52.26800 18.26400 24.50200
N  46.14100 15.09600 25.37100
C  46.98900 15.32000 24.32400
C  46.45900 14.71900 23.01500
C  45.24200 13.84900 23.51800
C  45.12900 14.24000 24.96700
C  46.18000 15.70900 21.95300
C  45.40100 12.31300 23.29500
C  46.56100 11.68700 24.11300
N  44.60600 14.97300 27.92600
C  43.70300 14.28000 27.11100
C  42.53400 13.86300 27.92100
C  42.88500 14.37400 29.20700
C  44.11900 15.01000 29.15900
C  41.27600 13.28500 27.45900
C  42.29600 14.58100 30.49600
O  41.17000 14.33900 30.85100
C  43.36000 15.22900 31.40700
C  42.85700 16.51700 32.03500
O  42.89500 17.62400 31.46900
O  42.35000 16.37200 33.32700
C  42.36200 17.57700 34.11600
H  49.27900 18.46200 29.45500
H  48.69500 16.49600 23.65800
H  43.17500 13.32700 25.34300
H  45.51200 17.60800 32.31600
H  48.35200 17.64600 31.94100
H  46.39100 19.57300 31.81200
H  47.20200 19.68900 30.23300
H  48.22600 19.70900 31.65600
H  47.64100 15.77100 33.00500
H  46.05300 14.98400 32.73700
H  45.13100 15.75700 34.66900
H  45.77100 17.32100 34.50900
H  51.03400 19.68400 28.01800
H  52.16700 18.65900 27.01700
H  51.60400 18.12600 28.55400
H  52.82800 18.25700 23.56700
H  52.81900 17.72200 25.27000
H  52.00900 19.27600 24.81400
H  47.27400 14.06200 22.70900
H  44.37400 14.16100 22.93800
H  45.98800 16.67700 22.41500
H  45.31100 15.45000 21.35000
H  46.99700 15.76300 21.23300
H  45.53400 12.20900 22.21800
H  44.50800 11.75200 23.57000
H  47.35100 11.38500 23.42600
H  46.14800 10.95700 24.80900
H  46.99000 12.48700 24.71600
H  41.27100 13.53800 26.39900
H  40.55300 13.87400 28.02500
H  41.11700 12.23000 27.68000
H  43.59800 14.60300 32.26700
H  41.71400 18.34800 33.69800
H  43.36900 17.98700 34.18600
H  41.94600 17.28700 35.08100
Mg -9.56600 40.35700 42.46000
C  -8.29300 37.17900 41.48900
C  -6.79900 41.71700 41.01600
C  -11.03000 43.37900 42.73400
C  -12.59600 38.72500 43.39800
N  -7.77700 39.49900 41.24600
C  -7.47700 38.21100 41.01400
C  -5.98500 38.05100 40.54700
C  -5.47000 39.55000 40.42100
C  -6.69900 40.26400 40.83800
C  -4.23400 39.98200 41.25900
C  -5.53700 37.08400 39.33200
C  -4.03200 36.90500 39.15500
H  -3.48900 37.67800 37.99500
N  -8.94700 42.36600 42.07100
C  -7.80600 42.63900 41.46000
C  -7.66300 44.07500 41.47200
C  -8.84700 44.67000 42.02500
C  -9.73900 43.50300 42.29300
C  -6.39500 44.77200 40.93300
C  -9.10100 46.17200 42.19500
O  -8.25400 46.96700 41.87200
C  -10.38000 46.64900 42.80000
N  -11.53900 40.95100 43.00700
C  -11.88000 42.28800 43.05600
C  -13.36500 42.34100 43.30900
C  -13.79900 40.88000 43.59900
C  -12.52900 40.11200 43.35800
C  -13.79800 43.35200 44.41800
C  -15.01100 40.41100 42.67400
C  -15.95700 39.34600 43.17600
N  -10.32100 38.35000 42.59400
C  -11.54900 37.86600 42.98700
C  -11.50800 36.38200 42.94100
C  -10.26100 36.08400 42.39600
C  -9.56700 37.29400 42.19500
C  -12.59600 35.53200 43.32100
C  -9.36700 35.04900 41.89000
O  -9.60000 33.84900 41.82500
C  -8.10300 35.70600 41.35600
C  -6.94200 35.22600 42.18600
O  -6.77300 35.51600 43.34700
O  -6.10700 34.34100 41.51300
C  -4.93000 33.86000 42.22400
H  -5.86900 42.21200 40.73100
H  -11.61000 44.29800 42.62400
H  -13.52300 38.28200 43.76800
H  -5.38200 37.64400 41.35800
H  -5.26200 39.95900 39.43300
H  -4.29600 40.94900 41.75800
H  -3.38900 40.08100 40.57800
H  -4.01400 39.25200 42.03800
H  -5.80700 37.73900 38.50400
H  -6.09100 36.14700 39.27800
H  -3.93800 35.83500 38.97000
H  -3.42700 37.20800 40.00900
H  -6.32600 45.85600 41.02600
H  -6.04400 44.28500 40.02300
H  -5.67900 44.54100 41.72200
H  -10.35200 47.73700 42.84800
H  -10.60300 46.08100 43.70300
H  -11.17800 46.40100 42.09900
H  -13.76700 42.67700 42.35300
H  -14.01400 40.64000 44.64100
H  -12.92800 43.98500 44.59500
H  -14.20100 42.84700 45.29600
H  -14.63400 43.93200 44.02700
H  -14.64700 40.00200 41.73200
H  -15.69000 41.24500 42.50400
H  -15.58400 39.17200 44.18500
H  -15.83800 38.44600 42.57200
H  -17.00300 39.60500 43.01600
H  -12.75100 35.72300 44.38300
H  -12.41500 34.46800 43.16600
H  -13.44900 35.98900 42.81800
H  -7.98400 35.31900 40.34400
H  -4.37200 34.75600 42.49500
H  -4.33100 33.27400 41.52600
H  -5.30700 33.12800 42.93800

