158

Mg 1.67100 -1.90800 44.50300
C  5.04300 -1.00400 44.39200
C  0.91000 0.76000 42.61900
C  -1.36200 -3.19300 44.25500
C  2.74300 -4.87100 46.16200
N  2.86500 -0.42500 43.48100
C  4.18600 -0.12300 43.64000
C  4.61900 1.09700 42.84000
C  3.26700 1.80900 42.50100
C  2.31400 0.57200 42.77700
C  2.85900 3.04500 43.29600
C  5.49200 0.82900 41.59200
C  6.68100 1.70000 41.16300
H  6.90100 2.09400 39.68400
N  -0.05900 -1.27200 43.68900
C  -0.20600 -0.11600 43.01300
C  -1.65500 0.16100 42.88100
C  -2.30700 -0.97100 43.28900
C  -1.26600 -1.87900 43.78800
C  -2.20900 1.40400 42.20200
C  -3.71300 -1.16700 43.18400
O  -4.38700 -0.37300 42.64300
C  -4.33400 -2.39800 43.73300
N  0.84500 -3.85900 44.99900
C  -0.47800 -4.03700 44.89900
C  -0.87600 -5.44700 45.28800
C  0.42000 -5.93000 45.94600
C  1.45100 -4.90200 45.69100
C  -2.06400 -5.59500 46.26000
C  0.89100 -7.33200 45.35300
C  0.05000 -8.52900 45.81600
N  3.48900 -2.80500 45.23400
C  3.81200 -3.94700 45.95100
C  5.19500 -3.90900 46.31100
C  5.71400 -2.79700 45.65800
C  4.66000 -2.14400 45.06200
C  5.87700 -4.92100 47.13700
C  6.93800 -2.01600 45.39300
O  8.10300 -2.23900 45.69000
C  6.58000 -0.80900 44.57000
C  7.04700 0.40000 45.30400
O  6.76500 0.75400 46.47400
O  7.87300 1.09100 44.45100
C  8.05800 2.50400 44.81400
H  0.70100 1.71000 42.12400
H  -2.32400 -3.70500 44.32500
H  3.02700 -5.78000 46.69600
H  5.13200 1.69800 43.59000
H  3.14000 2.07600 41.45200
H  3.60800 3.19500 44.07400
H  1.89300 2.92300 43.78600
H  2.88900 3.93500 42.66800
H  4.92700 0.95700 40.66800
H  5.84600 -0.20200 41.55900
H  7.59500 1.15300 41.39500
H  6.66200 2.53300 41.86600
H  -2.52400 1.17000 41.18500
H  -1.47500 2.20500 42.11800
H  -3.13100 1.60400 42.74800
H  -3.93200 -3.29900 43.26900
H  -5.41700 -2.42800 43.61400
H  -4.12900 -2.47700 44.80000
H  -1.12400 -5.95000 44.35300
H  0.40100 -6.06800 47.02700
H  -2.51800 -4.62000 46.43900
H  -1.65000 -5.90000 47.22100
H  -2.75000 -6.35400 45.88400
H  1.90400 -7.47500 45.72900
H  0.90100 -7.21800 44.26900
H  0.77100 -9.07500 46.42500
H  -0.29600 -9.14400 44.98600
H  -0.76000 -8.16700 46.44900
H  5.15700 -5.69000 47.41900
H  6.20600 -4.50300 48.08800
H  6.69600 -5.28700 46.51700
H  7.00500 -0.76700 43.56700
H  8.95100 2.85600 44.29600
H  8.13800 2.77000 45.86800
H  7.17100 3.04700 44.48900
Mg 9.53000 47.52100 25.49400
C  7.34900 47.77300 28.22400
C  12.01600 48.83100 27.45000
C  11.63200 47.40700 22.84600
C  6.80600 46.79200 23.40900
N  9.57200 48.25100 27.60400
C  8.65200 48.16300 28.60000
C  9.21000 48.79700 29.88100
C  10.65700 49.39400 29.51200
C  10.77300 48.77200 28.09000
C  10.68500 50.95300 29.63100
C  9.40100 47.67300 31.02700
C  8.60300 47.87100 32.33400
H  8.84700 46.76700 33.47200
N  11.58200 47.90900 25.25600
C  12.41300 48.47700 26.16100
C  13.80800 48.45200 25.60500
C  13.69700 48.00300 24.22900
C  12.26800 47.69400 24.08000
C  15.02800 48.98800 26.35500
C  14.79000 47.66200 23.23000
O  14.56600 47.21300 22.12400
C  16.23700 47.80800 23.71800
N  9.16800 47.40500 23.33500
C  10.25100 47.20800 22.56200
C  9.78400 46.82700 21.16400
C  8.27300 46.52900 21.30300
C  8.06800 46.84700 22.77900
C  10.27000 47.67200 19.94100
C  7.90200 45.03700 20.90500
C  8.10100 43.84100 21.87900
N  7.47500 47.33300 25.69200
C  6.51300 47.02000 24.78100
C  5.23000 46.93900 25.48300
C  5.56700 47.14300 26.85300
C  6.93800 47.46400 26.93700
C  3.86300 46.79500 24.93400
C  5.00400 47.11100 28.13400
O  3.86900 46.77800 28.49700
C  6.14000 47.58100 29.12100
C  6.20600 46.50400 30.14600
O  6.95300 45.56400 30.10000
O  5.24600 46.73200 31.14500
C  4.86800 45.51800 31.88700
H  12.72400 49.43700 28.02000
H  12.34900 47.37000 22.02300
H  5.97900 46.45400 22.78100
H  8.54200 49.55400 30.29000
H  11.49700 49.06300 30.12200
H  9.91800 51.39900 30.26400
H  10.45000 51.26500 28.61300
H  11.64900 51.37000 29.92300
H  10.42800 47.64000 31.39000
H  9.14300 46.72500 30.55600
H  7.54100 47.71500 32.14400
H  8.71000 48.90500 32.66300
H  14.68600 49.15400 27.37700
H  15.36600 49.92100 25.90300
H  15.81800 48.23800 26.35500
H  16.99400 47.79300 22.93400
H  16.29900 46.99500 24.44200
H  16.48700 48.70900 24.27900
H  10.15700 45.80600 21.08200
H  7.65700 47.23700 20.74800
H  9.42800 48.18600 19.47800
H  10.70100 46.98400 19.21300
H  11.02800 48.35400 20.32800
H  8.29700 44.87900 19.90200
H  6.83100 45.07300 20.70600
H  8.50500 44.25100 22.80400
H  8.73400 43.05500 21.46600
H  7.07800 43.46600 21.91300
H  3.75400 47.25100 23.95000
H  3.13100 47.02900 25.70700
H  3.60200 45.74300 24.82300
H  5.85400 48.55600 29.51400
H  3.78300 45.42000 31.84800
H  5.22300 45.86100 32.85900
H  5.35800 44.56800 31.67600

