158

Mg 16.85000 -1.04100 27.29100
C  16.04700 1.18400 29.91400
C  18.90500 -2.68200 29.47500
C  18.30100 -2.61800 24.68900
C  15.52800 1.49300 25.01200
N  17.57400 -0.68900 29.43600
C  16.91800 0.15400 30.33700
C  17.39600 -0.10900 31.80500
C  18.44200 -1.24700 31.61600
C  18.35400 -1.59700 30.09500
C  19.91300 -0.86900 31.99700
C  16.16200 -0.42000 32.73600
C  16.25600 0.01600 34.27000
H  17.62100 0.57000 34.77200
N  18.17600 -2.64400 27.10800
C  18.83000 -3.13600 28.13200
C  19.69300 -4.25800 27.61000
C  19.45900 -4.29000 26.25900
C  18.60900 -3.16000 25.92700
C  20.48600 -5.19700 28.42800
C  19.95400 -5.30800 25.22500
O  19.67300 -5.28200 24.00000
C  20.66800 -6.50800 25.69900
N  16.97800 -0.51200 25.22100
C  17.46600 -1.46200 24.30700
C  17.29700 -1.00800 22.89200
C  16.27400 0.13100 23.05000
C  16.26300 0.39600 24.51100
C  18.60400 -0.46200 22.23800
C  14.87100 -0.23900 22.43900
C  13.68400 -0.58300 23.42900
N  15.87100 0.91200 27.44000
C  15.32800 1.77100 26.42800
C  14.58100 2.86800 27.01400
C  14.80900 2.67900 28.43700
C  15.61400 1.50100 28.61900
C  13.87000 3.94300 26.19700
C  14.59300 3.17400 29.72900
O  13.90000 4.18000 30.09200
C  15.38300 2.29100 30.74500
C  16.42200 3.13600 31.38100
O  17.62600 3.09200 31.28200
O  15.79100 3.80400 32.35000
C  16.62000 4.61000 33.29300
H  19.61500 -3.15200 30.15900
H  18.74500 -3.06900 23.79900
H  15.13300 2.35100 24.46500
H  17.85400 0.75500 32.28700
H  18.04100 -2.14600 32.08300
H  19.82800 0.03300 32.60300
H  20.52600 -0.65500 31.12200
H  20.32500 -1.62800 32.66300
H  15.90000 -1.47700 32.75000
H  15.32400 0.11600 32.29100
H  15.98900 -0.79200 34.95100
H  15.41900 0.68800 34.45500
H  20.20800 -6.23500 28.24500
H  20.46200 -4.87200 29.46800
H  21.50600 -4.90800 28.17300
H  21.58100 -6.15400 26.17800
H  21.01100 -7.18700 24.91700
H  20.15900 -7.25000 26.31400
H  16.84000 -1.77400 22.26600
H  16.66700 1.03800 22.59200
H  18.34000 0.28800 21.49200
H  19.05500 -1.32200 21.74400
H  19.37200 -0.07700 22.90900
H  14.96500 -0.87400 21.55700
H  14.42600 0.69700 22.10100
H  14.06600 -1.17900 24.25800
H  12.98200 -1.26000 22.94300
H  13.15900 0.33400 23.69600
H  13.74200 3.60500 25.16900
H  14.42800 4.87800 26.24000
H  12.94900 4.23600 26.70000
H  14.65600 1.93800 31.47600
H  15.84400 5.30900 33.60400
H  17.41500 5.12500 32.75500
H  17.00100 4.04100 34.14200
Mg 9.54000 47.77800 26.73900
C  7.70200 47.72200 29.67800
C  12.30500 48.90200 28.45300
C  11.21600 47.60300 23.93700
C  6.54900 47.10200 24.91600
N  9.94900 48.13400 28.93100
C  9.01700 48.15300 29.89100
C  9.61200 48.70100 31.22100
C  10.92800 49.39100 30.62200
C  11.09500 48.85100 29.19500
C  10.85200 50.96400 30.56900
C  9.96200 47.65100 32.27700
C  9.42900 47.80000 33.73100
H  9.47400 46.51200 34.65400
N  11.49500 48.07400 26.35500
C  12.49600 48.55400 27.16300
C  13.74800 48.34500 26.49300
C  13.48000 47.97600 25.11900
C  11.96700 47.83800 25.07200
C  15.05400 48.65900 27.20600
C  14.50100 47.74800 24.05600
O  14.15800 47.29400 22.97600
C  15.91400 47.80400 24.34900
N  8.92900 47.73300 24.69500
C  9.80700 47.46200 23.72900
C  9.20800 47.13800 22.38100
C  7.69800 47.09700 22.67200
C  7.70500 47.27100 24.18500
C  9.62900 48.09700 21.19500
C  7.06600 45.81300 22.12500
C  5.53000 45.98800 21.73900
N  7.43200 47.59300 27.18400
C  6.39100 47.19600 26.38800
C  5.23100 46.98800 27.16700
C  5.67700 47.16900 28.48600
C  7.06400 47.54500 28.43900
C  3.82400 46.60700 26.74800
C  5.31700 47.18000 29.82100
O  4.20500 46.95400 30.28000
C  6.59600 47.62300 30.65000
C  6.82600 46.56100 31.57400
O  7.09500 45.41900 31.23400
O  6.39500 46.92100 32.80500
C  6.29700 45.83300 33.72500
H  13.12000 49.38600 28.99600
H  11.67900 47.52300 22.95100
H  5.66000 46.87000 24.32600
H  8.93800 49.42400 31.68200
H  11.82500 49.17700 31.20400
H  11.70700 51.42400 31.06500
H  10.02000 51.42000 31.10600
H  10.79900 51.43500 29.58700
H  11.04000 47.49400 32.30000
H  9.60500 46.65400 32.02300
H  8.38200 48.09900 33.68400
H  10.02900 48.58700 34.18800
H  14.81300 48.66900 28.26900
H  15.30600 49.66600 26.87400
H  15.88500 47.97000 27.05400
H  16.59800 47.77100 23.50200
H  16.18100 46.88500 24.87000
H  16.16900 48.70200 24.91300
H  9.68900 46.18500 22.16000
H  7.26600 47.99300 22.22600
H  9.94100 47.56500 20.29600
H  10.31100 48.81800 21.64500
H  8.77800 48.74800 20.99300
H  7.17200 44.98500 22.82600
H  7.64900 45.46600 21.27200
H  5.39200 45.66700 20.70700
H  5.29100 47.04800 21.82300
H  4.91100 45.43400 22.44400
H  3.88900 46.01500 25.83600
H  3.20700 47.50300 26.67500
H  3.36800 46.01900 27.54500
H  6.39600 48.53200 31.21700
H  7.09400 45.13700 33.46200
H  5.25400 45.52200 33.67700
H  6.50600 46.24500 34.71200

