158

Mg 41.68600 40.36400 27.11500
C  41.06800 42.78100 29.65500
C  42.90300 38.19500 29.43700
C  42.04000 38.03200 24.62400
C  41.07800 42.81600 24.80400
N  41.95600 40.62500 29.29300
C  41.47400 41.56000 30.19700
C  41.78900 41.15900 31.69700
C  42.27100 39.68600 31.54000
C  42.39800 39.46500 29.98200
C  43.53400 39.27500 32.32700
C  40.66100 41.42800 32.68800
C  40.75000 40.87500 34.13100
H  40.87900 41.83500 35.27700
N  42.25500 38.33900 27.01400
C  42.78300 37.71200 28.08800
C  43.13200 36.39300 27.70800
C  43.00000 36.31900 26.34500
C  42.36900 37.56100 25.90800
C  43.67100 35.27700 28.71800
C  43.27700 35.23100 25.35800
O  42.97800 35.20000 24.12500
C  44.16700 34.12300 25.90400
N  41.61200 40.49000 25.03700
C  41.63200 39.34900 24.23100
C  41.32900 39.77800 22.78200
C  40.85600 41.28900 22.95800
C  41.28700 41.54900 24.32600
C  42.46800 39.67000 21.71600
C  39.33200 41.54200 22.79600
C  38.35700 40.42200 23.20200
N  41.30500 42.43200 27.16700
C  41.14900 43.33400 26.13300
C  40.94300 44.73500 26.59400
C  40.85000 44.55100 27.98600
C  41.07800 43.16000 28.28500
C  40.94200 45.92100 25.74800
C  40.64700 45.17700 29.28300
O  40.40200 46.36000 29.56200
C  40.83000 44.09800 30.43700
C  42.05000 44.56200 31.21000
O  43.17700 44.65200 30.76300
O  41.66800 44.85600 32.44800
C  42.73900 45.29300 33.39700
H  43.14500 37.43500 30.18200
H  42.02000 37.31300 23.80200
H  40.76900 43.55800 24.06400
H  42.53500 41.86900 32.05400
H  41.46700 39.06600 31.93600
H  44.00300 40.12300 32.82700
H  44.31500 38.95500 31.63700
H  43.38300 38.51000 33.08800
H  39.73400 41.01400 32.29100
H  40.29000 42.44400 32.55000
H  41.60200 40.19600 34.17700
H  40.01800 40.07800 34.26000
H  43.38000 35.26200 29.76900
H  44.75600 35.17200 28.70000
H  43.32500 34.28300 28.43400
H  43.58800 33.36800 26.43500
H  44.96200 34.57100 26.50000
H  44.56500 33.60100 25.03400
H  40.52500 39.24300 22.27600
H  41.44300 41.81600 22.20600
H  42.04900 39.29900 20.78000
H  43.21700 38.93500 22.01400
H  43.02400 40.59400 21.55400
H  39.23700 41.67400 21.71800
H  38.96200 42.44000 23.29100
H  37.56800 40.81000 23.84700
H  38.83600 39.67200 23.83200
H  37.98600 39.92300 22.30700
H  40.64900 46.83200 26.27000
H  40.36600 45.92700 24.82300
H  42.00600 46.02200 25.53400
H  39.93900 44.15800 31.06200
H  43.18800 46.28300 33.31600
H  43.63400 44.67800 33.30400
H  42.40300 45.13700 34.42200
Mg -5.41500 25.45000 25.52800
C  -4.09900 26.81200 28.42700
C  -7.36100 23.42100 27.25200
C  -6.29800 24.10200 22.54500
C  -3.00300 27.43100 23.76900
N  -5.48200 24.94300 27.66800
C  -5.01400 25.78700 28.68100
C  -5.60000 25.39800 30.00600
C  -6.62800 24.24100 29.60600
C  -6.47800 24.14700 28.07000
C  -6.48900 22.93000 30.42400
C  -6.35700 26.52400 30.79900
C  -6.09700 26.55900 32.33400
H  -5.65900 25.29200 32.99800
N  -6.62300 23.90900 24.99600
C  -7.41500 23.21300 25.86600
C  -8.34400 22.29500 25.17900
C  -8.06500 22.54600 23.72900
C  -6.93200 23.55600 23.70500
C  -9.24400 21.39300 25.93800
C  -8.66800 21.81100 22.52300
O  -8.31500 22.09700 21.34500
C  -9.80900 20.87900 22.73100
N  -4.71700 25.69800 23.44200
C  -5.33700 25.07000 22.46400
C  -4.66100 25.33700 21.11000
C  -3.98200 26.65700 21.48800
C  -3.85000 26.59200 22.99800
C  -3.59900 24.26400 20.73800
C  -4.77400 27.84300 20.88400
C  -3.96900 28.82400 19.91400
N  -3.91300 26.95400 25.98200
C  -3.02400 27.63500 25.17000
C  -2.17300 28.49800 25.94100
C  -2.56400 28.19500 27.28300
C  -3.57900 27.23700 27.24100
C  -1.05300 29.41700 25.50000
C  -2.28400 28.49900 28.57200
O  -1.51600 29.28700 29.01500
C  -3.36900 27.69500 29.44900
C  -2.67500 26.99600 30.56900
O  -1.90800 26.08600 30.39400
O  -2.74800 27.64000 31.78700
C  -2.06700 27.01000 32.93400
H  -8.23500 23.05600 27.79600
H  -6.58600 23.72200 21.56200
H  -2.24700 27.84600 23.09900
H  -4.75900 24.99700 30.57100
H  -7.66600 24.53200 29.77200
H  -5.99400 22.25200 29.72800
H  -7.50700 22.65100 30.69600
H  -5.89900 23.06700 31.33000
H  -7.42500 26.49200 30.58500
H  -6.00800 27.46200 30.36700
H  -6.93100 26.95000 32.91600
H  -5.28400 27.23800 32.59000
H  -8.89300 21.23200 26.95700
H  -9.35000 20.40200 25.49500
H  -10.19800 21.90700 26.05600
H  -10.62400 21.44800 23.17700
H  -9.42800 20.09500 23.38600
H  -10.23300 20.41300 21.84200
H  -5.44900 25.43900 20.36300
H  -2.97000 26.66700 21.08200
H  -3.43700 23.98000 19.69800
H  -3.83300 23.32100 21.23300
H  -2.61400 24.57400 21.08600
H  -5.15000 28.27600 21.81000
H  -5.60700 27.55800 20.24100
H  -3.09500 28.26400 19.58300
H  -3.44700 29.55700 20.52900
H  -4.63200 29.18900 19.12900
H  -1.48600 29.92700 24.64000
H  -0.14500 28.82300 25.39400
H  -0.87900 30.10200 26.33000
H  -3.97400 28.45500 29.94400
H  -1.04300 26.70000 32.72200
H  -2.58100 26.25000 33.52200
H  -1.94900 27.86000 33.60500

