158

Mg 24.91300 1.46700 29.62300
C  27.22500 1.09500 32.29100
C  22.49800 2.00500 32.01300
C  22.80200 1.72600 27.08700
C  27.47900 0.45600 27.41500
N  24.83100 1.57800 31.85600
C  25.91400 1.46800 32.72600
C  25.50000 1.66300 34.25500
C  23.96800 1.73200 34.10300
C  23.69700 1.73900 32.62600
C  23.13200 0.63400 34.88000
C  26.17700 2.94700 34.82100
C  26.86300 2.82000 36.19000
H  26.60400 3.89600 37.29700
N  22.91300 1.80400 29.55700
C  22.03900 1.93100 30.67100
C  20.71800 2.04500 30.08200
C  20.81700 1.93200 28.62800
C  22.23500 1.79900 28.38300
C  19.48800 2.34800 30.95500
C  19.68300 2.08900 27.54800
O  19.86300 1.88500 26.35900
C  18.33500 2.31800 28.09300
N  25.03000 1.01300 27.53300
C  24.06000 1.30600 26.68300
C  24.58200 1.24800 25.18600
C  26.12100 0.97600 25.31600
C  26.22800 0.79100 26.84500
C  23.75700 0.13200 24.38000
C  26.91900 2.19000 24.91900
C  28.38900 1.98300 24.65000
N  26.87500 0.88700 29.72400
C  27.75500 0.47300 28.77900
C  29.04900 0.22300 29.37600
C  28.85800 0.42200 30.77000
C  27.53100 0.84300 30.94600
C  30.30600 -0.21700 28.60000
C  29.57300 0.47000 32.07400
O  30.73400 0.27600 32.36800
C  28.52000 1.00000 33.12700
C  28.52400 0.31300 34.39500
O  27.87400 -0.73100 34.61600
O  29.29100 0.88500 35.31100
C  29.25200 0.19400 36.66600
H  21.63700 2.11600 32.67600
H  22.14000 1.78000 26.22000
H  28.34800 0.16100 26.82400
H  25.81900 0.78400 34.81400
H  23.51200 2.67700 34.39700
H  22.34000 0.19200 34.27600
H  22.60800 1.04900 35.74100
H  23.84800 -0.15800 35.09600
H  25.57500 3.85200 34.89900
H  26.98100 3.09300 34.10000
H  27.94800 2.81100 36.08700
H  26.58700 1.83100 36.55400
H  19.90100 2.54200 31.94500
H  18.87400 1.45200 30.86600
H  18.99300 3.27200 30.65700
H  18.40600 3.27000 28.61800
H  18.16900 1.44400 28.72300
H  17.59200 2.34000 27.29500
H  24.39700 2.23100 24.75400
H  26.52700 0.05200 24.90600
H  23.41200 0.52800 23.42500
H  22.82900 -0.19700 24.84600
H  24.35400 -0.75100 24.15400
H  26.95700 2.99800 25.65000
H  26.44100 2.51800 23.99600
H  28.90900 2.48100 25.46900
H  28.73900 2.48000 23.74500
H  28.53500 0.90800 24.55000
H  31.17600 -0.41700 29.22600
H  30.53500 0.43300 27.75600
H  30.09100 -1.19200 28.16200
H  28.88400 2.00000 33.36500
H  30.20300 -0.26700 36.93400
H  28.48500 -0.54500 36.89900
H  29.00400 0.83800 37.51000
Mg -6.05100 24.84400 25.50900
C  -4.57200 26.40500 28.15800
C  -7.89100 22.86000 27.67500
C  -7.59100 23.39600 22.80900
C  -3.80200 26.41600 23.33500
N  -6.19400 24.65500 27.63600
C  -5.57000 25.44700 28.57400
C  -6.09500 25.24200 30.01900
C  -6.93000 23.89100 29.80900
C  -7.13700 23.85400 28.26400
C  -6.26100 22.62800 30.43600
C  -7.02900 26.40500 30.43800
C  -7.15500 26.50200 32.01200
H  -6.66700 25.47100 33.00200
N  -7.64100 23.37400 25.27100
C  -8.17600 22.64600 26.33300
C  -9.21500 21.77400 25.74300
C  -9.10500 21.95300 24.34600
C  -8.12600 22.93600 24.08400
C  -10.10800 20.98400 26.58700
C  -10.00700 21.41500 23.28500
O  -10.10800 21.95800 22.18200
C  -10.90200 20.31400 23.49400
N  -5.92100 24.97300 23.32900
C  -6.60400 24.23800 22.45500
C  -6.12000 24.37200 20.99100
C  -5.08300 25.57200 21.20100
C  -4.88400 25.67700 22.69400
C  -5.43100 23.09500 20.50100
C  -5.50100 26.96900 20.66400
C  -4.86000 27.51000 19.29400
N  -4.51600 26.04900 25.68300
C  -3.77800 26.69700 24.69200
C  -2.82400 27.59100 25.29300
C  -3.13300 27.55800 26.66600
C  -4.13600 26.58000 26.85200
C  -1.88800 28.47600 24.54800
C  -2.82400 28.19000 27.94100
O  -2.02900 29.08200 28.22200
C  -3.80600 27.43900 28.98400
C  -2.88200 26.71400 29.93700
O  -1.85700 26.21500 29.60700
O  -3.29100 26.83200 31.23700
C  -2.46200 26.23200 32.34600
H  -8.18300 22.16500 28.46500
H  -7.91200 22.90800 21.88600
H  -3.17600 26.98300 22.64300
H  -5.23600 25.01000 30.64800
H  -7.91400 24.03400 30.25700
H  -5.74700 22.92200 31.35000
H  -5.63900 22.07000 29.73500
H  -7.20600 22.09600 30.55100
H  -8.06000 26.27100 30.10900
H  -6.60400 27.30800 30.00100
H  -8.23400 26.48700 32.16600
H  -6.75100 27.46200 32.33200
H  -9.68400 19.98100 26.54000
H  -11.15800 21.01700 26.29700
H  -10.15800 21.47100 27.56100
H  -10.32500 19.50000 23.93200
H  -11.25000 20.04800 22.49600
H  -11.70500 20.67700 24.13600
H  -6.92800 24.69400 20.33500
H  -4.07200 25.40400 20.83100
H  -5.58200 22.21300 21.12400
H  -4.36000 23.23600 20.35900
H  -5.88500 22.78000 19.56200
H  -5.25500 27.78500 21.34300
H  -6.57200 26.99300 20.46400
H  -5.69000 27.80400 18.65100
H  -4.34200 26.66400 18.84200
H  -4.10100 28.28600 19.38700
H  -1.29500 29.06800 25.24400
H  -2.44100 29.11800 23.86200
H  -1.23000 27.76600 24.04600
H  -4.43100 28.19900 29.45300
H  -2.07900 25.22400 32.19000
H  -3.07200 26.36000 33.24000
H  -1.61700 26.91000 32.46500

