158

Mg -1.97100 17.35800 25.84300
C  -2.45300 15.02200 28.44900
C  -2.51000 19.79500 28.19000
C  -1.95400 19.51800 23.22000
C  -2.49800 14.74300 23.52700
N  -2.53600 17.34300 28.15500
C  -2.45600 16.29100 29.00200
C  -2.52800 16.77000 30.54200
C  -2.69500 18.33100 30.38900
C  -2.51100 18.54400 28.84000
C  -4.02300 18.90800 30.97700
C  -1.35300 16.26800 31.42700
C  -1.07300 16.95600 32.77400
H  -0.92000 16.04300 34.02500
N  -1.99300 19.36400 25.71100
C  -2.20100 20.15200 26.82100
C  -2.29100 21.51400 26.29800
C  -2.04000 21.52200 24.92200
C  -1.93600 20.06000 24.56600
C  -2.56800 22.68300 27.14600
C  -1.89000 22.63200 23.91400
O  -1.73200 22.41100 22.74600
C  -1.83900 24.07500 24.36700
N  -2.03000 17.09900 23.61400
C  -2.00700 18.18600 22.78800
C  -1.99500 17.77800 21.33400
C  -2.25600 16.20100 21.43400
C  -2.32300 15.95700 22.93400
C  -2.86700 18.58100 20.43400
C  -1.22300 15.28200 20.70200
C  -1.93500 14.28300 19.77400
N  -2.23600 15.28100 25.87400
C  -2.43300 14.36100 24.87600
C  -2.59900 13.11800 25.49700
C  -2.47200 13.24100 26.87500
C  -2.43200 14.65200 27.08000
C  -3.11600 11.89200 24.73000
C  -2.61200 12.54500 28.14600
O  -2.91200 11.41600 28.37900
C  -2.49500 13.64300 29.16600
C  -1.23800 13.29900 29.90700
O  -0.12200 13.79100 29.63100
O  -1.48800 12.38000 30.86000
C  -0.46700 12.33500 31.91100
H  -2.40100 20.65600 28.85300
H  -1.77800 20.12200 22.32700
H  -2.66900 14.01900 22.72800
H  -3.46200 16.33900 30.90400
H  -1.88100 18.76300 30.97200
H  -4.91600 18.30000 30.83200
H  -4.33100 19.84100 30.50500
H  -3.82400 19.18800 32.01100
H  -0.45500 16.19200 30.81400
H  -1.51600 15.25400 31.79400
H  -1.88900 17.62600 33.04400
H  -0.10200 17.42900 32.62900
H  -2.96000 22.47800 28.14200
H  -3.35900 23.14600 26.55500
H  -1.67000 23.29300 27.24400
H  -2.81700 24.39300 24.72700
H  -1.62000 24.77400 23.56000
H  -1.11600 24.18000 25.17500
H  -0.99200 17.97000 20.95300
H  -3.29400 15.91100 21.26600
H  -3.66400 19.04100 21.01900
H  -3.29700 17.94700 19.65900
H  -2.24200 19.35400 19.98700
H  -0.59400 14.84300 21.47600
H  -0.49000 15.85200 20.12900
H  -1.24600 13.62900 19.23900
H  -2.55000 14.89900 19.11800
H  -2.67100 13.69900 20.32700
H  -4.19000 11.74900 24.61100
H  -2.79800 11.03300 25.32000
H  -2.53100 11.85900 23.81000
H  -3.33200 13.52700 29.85500
H  0.20500 11.47700 31.92200
H  -0.90000 12.24600 32.90700
H  0.16100 13.21800 32.02700
Mg -11.53800 16.31700 40.53100
C  -8.39300 14.95700 39.91200
C  -10.24200 19.37500 39.62600
C  -14.64100 17.55100 40.19600
C  -12.83300 13.10800 40.81900
N  -9.51100 17.05700 39.80500
C  -8.39900 16.35800 39.68200
C  -7.13300 17.21700 39.40000
C  -7.75700 18.65000 39.57000
C  -9.26900 18.36400 39.74500
C  -7.21600 19.57200 40.69500
C  -6.61400 16.86600 37.93600
C  -5.16500 17.22700 37.61000
H  -4.81000 17.70600 36.21200
N  -12.29000 18.27100 40.18300
C  -11.58300 19.37000 39.74000
C  -12.51000 20.46800 39.54400
C  -13.80800 20.01600 39.95900
C  -13.64200 18.54500 40.11600
C  -12.05300 21.87300 39.26600
C  -15.01200 20.90500 40.01900
O  -14.96200 22.12300 39.75800
C  -16.26400 20.29500 40.62900
N  -13.44300 15.43300 40.38900
C  -14.55600 16.15700 40.23700
C  -15.81900 15.24700 40.16100
C  -15.21200 13.76200 40.28500
C  -13.76400 14.10100 40.52800
C  -16.88700 15.55900 41.30800
C  -15.28900 12.87400 38.95700
C  -16.00200 11.53600 39.08400
N  -10.83700 14.39800 40.61400
C  -11.44300 13.19100 40.80000
C  -10.45800 12.15700 40.71200
C  -9.21500 12.80300 40.39100
C  -9.51300 14.16000 40.32300
C  -10.81800 10.69800 40.89200
C  -7.84700 12.57400 40.13500
O  -7.24300 11.52000 40.08700
C  -7.23100 13.93200 39.80300
C  -6.23900 14.10000 40.92800
O  -6.52700 14.52600 42.01400
O  -4.98000 13.96800 40.40200
C  -3.85600 14.51600 41.20100
H  -9.89500 20.41000 39.63000
H  -15.66300 17.89400 40.01900
H  -13.26700 12.11200 40.92400
H  -6.38400 17.03300 40.17000
H  -7.74500 19.13500 38.59400
H  -6.25300 19.16700 41.00600
H  -7.84800 19.60200 41.58300
H  -7.23400 20.57800 40.27500
H  -7.26800 17.29100 37.17500
H  -6.68100 15.77900 37.91000
H  -4.54800 16.36300 37.85400
H  -4.92600 18.07000 38.25800
H  -12.54700 22.25400 38.37200
H  -11.00000 21.89200 38.98400
H  -12.33400 22.50300 40.11100
H  -16.90600 21.15400 40.82300
H  -16.06100 19.71000 41.52600
H  -16.74400 19.63800 39.90400
H  -16.28500 15.39300 39.18700
H  -15.70200 13.19000 41.07300
H  -17.17800 14.66800 41.86500
H  -17.74600 15.85700 40.70600
H  -16.48100 16.23200 42.06400
H  -14.30100 12.78700 38.50500
H  -15.79100 13.43900 38.17000
H  -15.41600 10.72600 38.65200
H  -17.05200 11.63100 38.80600
H  -16.20800 11.20300 40.10100
H  -9.84700 10.21300 40.79700
H  -11.50500 10.35100 40.12000
H  -11.19500 10.47600 41.89100
H  -6.72600 13.83600 38.84200
H  -3.06500 14.85400 40.53100
H  -3.42300 13.78700 41.88600
H  -4.14600 15.46000 41.66300

