158

Mg 35.46000 2.86800 29.33200
C  33.35200 3.59900 32.07200
C  38.10600 3.25300 31.32500
C  37.34900 2.27700 26.50700
C  32.60200 2.98200 27.21500
N  35.70400 3.53700 31.53800
C  34.73700 3.45500 32.48200
C  35.37800 3.44000 33.88700
C  36.98800 3.53200 33.60500
C  36.91400 3.48100 32.06700
C  37.68600 4.78200 34.08000
C  34.87400 2.25000 34.82600
C  34.36300 2.55200 36.20400
H  34.98800 3.78300 36.84300
N  37.37600 2.80900 28.96700
C  38.31700 2.93600 29.92900
C  39.69100 2.81100 29.34400
C  39.46800 2.58000 27.92800
C  37.99500 2.59500 27.73300
C  41.06100 2.92300 30.03300
C  40.48400 2.32700 26.81400
O  40.18900 2.34200 25.64000
C  41.86400 2.03400 27.17100
N  35.06400 2.64100 27.14900
C  35.97400 2.34300 26.23100
C  35.30400 2.37800 24.78100
C  33.80400 2.26800 25.13000
C  33.79600 2.69300 26.60000
C  35.72400 3.65400 24.00300
C  33.13400 0.90600 24.88000
C  33.15400 -0.07500 26.11200
N  33.41700 3.32600 29.51900
C  32.39800 3.42000 28.62400
C  31.19500 3.78000 29.28500
C  31.49200 3.83400 30.65800
C  32.87000 3.56000 30.70900
C  29.86300 3.97600 28.63900
C  30.95900 4.16200 31.93800
O  29.87700 4.56500 32.17300
C  32.14100 3.92400 32.98800
C  32.31400 5.12700 33.79500
O  32.62900 6.23700 33.32300
O  31.86400 4.88000 35.07800
C  31.56500 6.06700 35.97300
H  39.03600 3.25700 31.89700
H  37.92400 1.95100 25.63800
H  31.69000 2.86200 26.62800
H  35.15600 4.40300 34.34700
H  37.57200 2.71600 34.03100
H  38.53200 4.50900 34.71100
H  36.95200 5.23200 34.74800
H  37.87200 5.44200 33.23300
H  35.65000 1.48900 34.91300
H  34.07200 1.83100 34.21800
H  34.62600 1.66600 36.78200
H  33.29900 2.75900 36.09200
H  41.68600 3.57400 29.42100
H  41.53400 1.94500 30.12300
H  41.00200 3.31400 31.04800
H  42.05300 1.39100 28.03000
H  42.42300 2.96700 27.24500
H  42.27500 1.43800 26.35600
H  35.63600 1.56700 24.13300
H  33.26800 3.01000 24.53800
H  36.55400 4.15100 24.50600
H  34.89200 4.28000 23.68200
H  36.16100 3.29600 23.07100
H  33.69500 0.34900 24.12900
H  32.05600 0.95700 24.72700
H  33.56700 -1.06700 25.92600
H  32.15300 -0.04100 26.54200
H  33.85900 0.30700 26.85000
H  29.58700 3.14300 27.99300
H  29.90200 4.86600 28.01200
H  29.11300 4.17200 29.40600
H  31.85500 3.08200 33.61900
H  30.49100 6.17200 35.81700
H  32.04900 7.03500 35.84500
H  31.63400 5.76000 37.01600
Mg 48.02800 35.09900 27.83900
C  46.30400 33.42700 30.33200
C  48.60500 37.54800 30.08200
C  49.27000 37.01200 25.22200
C  47.59900 32.44700 25.67900
N  47.45400 35.47600 29.90500
C  46.96000 34.55800 30.85200
C  47.11000 35.05000 32.23600
C  47.36200 36.54100 32.03500
C  47.87300 36.54000 30.59200
C  46.09800 37.41100 32.22300
C  48.41200 34.25100 32.78200
C  48.74500 34.44800 34.27600
H  47.67500 35.07900 35.22100
N  48.91100 36.99500 27.67900
C  49.10100 37.82000 28.70900
C  49.75600 39.02200 28.21500
C  49.77000 39.04900 26.79700
C  49.24300 37.64600 26.52000
C  50.37000 40.06500 29.16000
C  50.44400 40.07200 25.81600
O  50.38600 39.93300 24.60800
C  51.18300 41.31100 26.35500
N  48.49100 34.72800 25.77200
C  48.91500 35.65700 24.87400
C  48.97200 35.08400 23.36600
C  48.75800 33.51900 23.64100
C  48.31000 33.53600 25.13300
C  47.97400 35.86100 22.52700
C  49.99300 32.63000 23.41700
C  49.77100 31.18400 23.21100
N  47.16200 33.21300 27.95300
C  46.98500 32.30000 26.99700
C  46.32300 31.20400 27.54300
C  45.84000 31.69800 28.84100
C  46.42300 32.88400 29.02600
C  45.96200 29.92700 26.76600
C  45.11500 31.35500 30.07200
O  44.46000 30.38600 30.38600
C  45.28200 32.50700 31.06400
C  45.61500 31.95700 32.32700
O  46.57500 31.19300 32.55000
O  44.64000 32.29300 33.28200
C  44.93100 31.80700 34.63400
H  48.64400 38.35300 30.81900
H  49.55500 37.57100 24.32800
H  47.27300 31.70900 24.94200
H  46.20600 34.81700 32.80000
H  48.14600 36.84000 32.73000
H  46.28500 37.98000 33.13300
H  45.31300 36.72200 32.53400
H  45.77400 38.09000 31.43400
H  49.29100 34.68100 32.30200
H  48.34400 33.18000 32.58700
H  49.69600 34.97600 34.34100
H  48.90000 33.44400 34.67100
H  50.54900 39.60400 30.13200
H  49.72000 40.92300 29.33100
H  51.39100 40.32200 28.87600
H  50.43500 41.88400 26.90300
H  51.56100 42.04400 25.64300
H  52.04300 40.94700 26.91700
H  49.96300 35.22200 22.93400
H  48.00700 33.03900 23.01300
H  47.30600 35.15000 22.04200
H  48.39000 36.49000 21.74000
H  47.47700 36.44000 23.30600
H  50.64400 32.69600 24.29000
H  50.65100 32.95300 22.61100
H  50.01400 31.16200 22.14800
H  48.77000 30.77900 23.35400
H  50.39900 30.53800 23.82500
H  45.66200 30.27200 25.77600
H  45.19500 29.37500 27.30800
H  46.69000 29.13000 26.61200
H  44.32900 33.03000 31.14900
H  45.98600 31.62800 34.84300
H  44.37100 30.89500 34.84100
H  44.49800 32.52400 35.33100

