158

Mg 35.30300 2.90100 30.12700
C  33.06600 4.12700 32.45300
C  37.89600 3.28500 32.41300
C  37.66100 2.13900 27.72500
C  32.83200 3.16400 27.71800
N  35.41400 3.65700 32.15300
C  34.38200 4.01200 32.98700
C  34.80600 4.29300 34.41900
C  36.41200 4.30000 34.17100
C  36.60400 3.70500 32.81100
C  37.08000 5.77400 34.23500
C  34.39600 3.24400 35.44400
C  33.78800 3.80900 36.76600
H  34.69800 3.77000 37.96100
N  37.47100 2.53500 30.14600
C  38.29100 2.69600 31.20600
C  39.66800 2.28200 30.83800
C  39.58400 1.88000 29.49500
C  38.21100 2.22500 29.05600
C  40.73200 2.29000 31.93000
C  40.68600 1.43400 28.59000
O  40.48800 1.18900 27.43400
C  42.08900 1.23500 29.11700
N  35.25300 2.51500 28.09100
C  36.36600 2.31400 27.26900
C  35.91500 2.40300 25.84600
C  34.34200 2.21500 25.93800
C  34.08000 2.70300 27.35700
C  36.36900 3.74800 25.10100
C  33.94500 0.69500 25.76800
C  32.50800 0.36300 25.67700
N  33.30800 3.50600 30.02700
C  32.44200 3.59600 28.99300
C  31.15800 4.01000 29.44800
C  31.33300 4.06300 30.82200
C  32.68100 3.84400 31.10800
C  29.86100 4.19200 28.77000
C  30.64800 4.41900 32.07400
O  29.48000 4.77200 32.32400
C  31.78400 4.47100 33.15400
C  31.79300 5.80200 33.70900
O  32.10700 6.81300 33.10700
O  31.45200 5.76100 35.05000
C  31.55500 7.04500 35.78800
H  38.61300 3.56000 33.19000
H  38.39100 1.95100 26.93500
H  32.03600 3.17600 26.97000
H  34.57400 5.33000 34.66300
H  37.01300 3.69200 34.84700
H  36.35700 6.56700 34.42600
H  37.51800 5.99100 33.26000
H  37.85100 5.73100 35.00400
H  35.16500 2.60600 35.87900
H  33.73500 2.58100 34.88600
H  32.80400 3.42200 37.02900
H  33.55600 4.86200 36.60400
H  40.24100 2.49000 32.88300
H  41.49400 3.00900 31.62700
H  41.25400 1.33300 31.94700
H  42.59600 2.19700 29.20300
H  42.62400 0.69200 28.33900
H  42.32300 0.61200 29.98000
H  36.30500 1.58800 25.23700
H  33.81000 2.75300 25.15300
H  35.50400 4.38300 24.91000
H  36.75600 3.49900 24.11300
H  37.03800 4.37300 25.69200
H  34.41500 0.22900 26.63400
H  34.36900 0.36200 24.82100
H  32.25000 -0.32700 26.48000
H  32.10800 -0.08000 24.76400
H  31.89900 1.26300 25.76900
H  29.62200 5.24500 28.62000
H  29.16300 3.65300 29.41000
H  30.03300 3.71900 27.80200
H  31.48100 3.75800 33.92000
H  32.17600 7.85500 35.40800
H  32.03900 6.88600 36.75200
H  30.59600 7.51500 36.00600
Mg -13.77000 16.64400 42.14700
C  -10.72700 15.01200 41.34400
C  -12.42100 19.43900 40.59100
C  -16.79500 17.92400 41.96500
C  -15.06200 13.59000 42.90100
N  -11.66200 17.18700 41.17400
C  -10.64100 16.37700 40.97900
C  -9.48200 17.17200 40.38600
C  -9.93600 18.62400 40.51200
C  -11.46600 18.40500 40.73600
C  -9.18400 19.48600 41.60300
C  -9.07900 16.69600 38.94100
C  -7.62200 16.12000 38.76400
H  -6.82400 16.47700 37.46000
N  -14.50300 18.47500 41.50200
C  -13.80800 19.50800 40.90500
C  -14.64600 20.60300 40.64300
C  -15.88900 20.25200 41.14800
C  -15.77400 18.83400 41.59700
C  -14.31200 21.94800 40.03200
C  -17.15100 21.14300 41.24800
O  -17.23600 22.22700 40.71900
C  -18.22300 20.81600 42.29300
N  -15.67100 15.91900 42.43900
C  -16.77700 16.62500 42.40300
C  -17.99600 15.80800 42.63200
C  -17.36700 14.49700 43.17500
C  -15.93200 14.64800 42.82400
C  -19.09300 16.42100 43.54000
C  -17.97000 13.15400 42.70400
C  -18.34700 12.14000 43.75200
N  -13.02500 14.64700 42.27800
C  -13.69300 13.49500 42.54800
C  -12.79700 12.39000 42.51300
C  -11.56600 12.96600 42.00300
C  -11.81500 14.31700 41.89700
C  -12.94100 10.95500 42.88900
C  -10.17100 12.68600 41.74600
O  -9.66200 11.59600 41.85800
C  -9.57500 14.00300 41.15900
C  -8.51900 14.36300 42.13300
O  -8.69300 14.90400 43.22300
O  -7.30700 14.30600 41.57000
C  -6.16700 14.94400 42.28500
H  -12.07500 20.32600 40.05800
H  -17.75100 18.44500 41.89100
H  -15.49500 12.60100 43.06600
H  -8.60400 17.01900 41.01200
H  -9.79300 19.14800 39.56700
H  -8.40300 18.81200 41.95700
H  -9.96300 19.81000 42.29200
H  -8.71100 20.36300 41.16200
H  -9.29200 17.38400 38.12300
H  -9.71000 15.83000 38.74000
H  -7.79300 15.04300 38.77500
H  -7.07400 16.42000 39.65700
H  -14.36600 22.74700 40.77200
H  -15.00800 22.18100 39.22700
H  -13.25700 22.02100 39.76400
H  -18.96100 20.27700 41.69900
H  -18.57000 21.76400 42.70400
H  -17.90500 20.22900 43.15400
H  -18.46900 15.50900 41.69600
H  -17.46100 14.59300 44.25700
H  -19.36700 15.80700 44.39700
H  -19.92100 16.58700 42.85100
H  -18.81700 17.37100 43.99800
H  -17.42200 12.70300 41.87700
H  -18.80000 13.43600 42.05700
H  -18.56500 11.12800 43.41200
H  -19.28500 12.58100 44.09000
H  -17.73300 12.16700 44.65200
H  -11.92600 10.57200 42.98600
H  -13.32700 10.29400 42.11400
H  -13.47800 10.92600 43.83700
H  -9.25700 13.82000 40.13300
H  -5.47900 15.15000 41.46500
H  -5.83200 14.15700 42.96000
H  -6.56000 15.83800 42.76900

