158

Mg 7.46400 2.82400 28.58200
C  8.73900 1.50400 31.34700
C  5.25600 4.71100 30.29000
C  6.32200 4.11500 25.65200
C  9.24700 0.46500 26.76800
N  7.01700 2.99300 30.61100
C  7.81900 2.50100 31.60200
C  7.33100 3.02600 33.00800
C  5.93400 3.75700 32.60900
C  6.04600 3.83500 31.07700
C  4.71400 2.92400 33.01000
C  8.29700 4.03200 33.65600
C  8.07000 4.33600 35.12900
H  9.02600 3.72100 36.14500
N  6.00100 4.22200 28.03000
C  5.21000 4.95500 28.89200
C  4.51600 5.95300 28.12200
C  4.83400 5.76400 26.75500
C  5.80900 4.66400 26.74100
C  3.55700 6.96100 28.71200
C  4.47500 6.60900 25.59400
O  4.90800 6.42400 24.47500
C  3.48100 7.70100 25.79400
N  7.70400 2.32300 26.55600
C  7.18500 3.03500 25.46700
C  7.51600 2.53200 24.10600
C  8.65600 1.55000 24.44800
C  8.56100 1.40500 26.03300
C  6.33200 1.75800 23.34100
C  10.10400 2.10500 24.00400
C  10.52000 3.42200 24.76700
N  8.69400 1.14100 28.89100
C  9.43300 0.35700 28.10700
C  10.19700 -0.57200 28.89900
C  10.01800 -0.08600 30.19400
C  9.06500 0.90800 30.09500
C  10.80500 -1.73400 28.37600
C  10.44100 -0.21900 31.57500
O  11.31600 -0.94700 32.05600
C  9.53800 0.82800 32.37100
C  8.84000 0.03500 33.47500
O  7.72100 -0.48800 33.42400
O  9.63900 -0.08300 34.60700
C  9.03400 -0.74400 35.82400
H  4.66800 5.34400 30.95900
H  6.00600 4.55200 24.70300
H  9.78000 -0.27200 26.16300
H  7.12800 2.18200 33.66800
H  5.99800 4.76500 33.01800
H  4.77700 1.83800 33.07300
H  3.92900 3.17400 32.29600
H  4.20200 3.36000 33.86800
H  8.11500 4.99100 33.17000
H  9.32100 3.67300 33.55200
H  7.07500 3.97000 35.38000
H  8.05600 5.41500 35.28600
H  3.56300 6.96000 29.80200
H  2.53500 6.73000 28.41000
H  3.81300 7.97700 28.41200
H  3.92400 8.50700 26.37800
H  2.49100 7.30100 26.01600
H  3.49400 8.24400 24.84900
H  7.76500 3.35700 23.43900
H  8.56400 0.62200 23.88500
H  5.45100 2.09800 23.88700
H  6.28400 0.67100 23.28900
H  6.33400 2.17500 22.33400
H  10.08500 2.26000 22.92500
H  10.72600 1.23400 24.21000
H  9.72900 3.79800 25.41600
H  10.74400 4.20500 24.04300
H  11.48300 3.25800 25.25100
H  11.70800 -1.49900 27.81200
H  10.10200 -2.15800 27.65900
H  11.04700 -2.41000 29.19600
H  10.17300 1.48400 32.96600
H  8.18100 -1.30200 35.43800
H  8.76000 0.01800 36.55400
H  9.76800 -1.40800 36.28000
Mg 1.38400 41.93300 24.93100
C  2.32900 42.18800 28.37400
C  -1.54000 40.55900 25.97000
C  0.55600 41.41000 21.73800
C  4.60500 42.77200 23.97900
N  0.45900 41.55600 26.95300
C  1.03800 41.66500 28.19800
C  0.04800 41.35400 29.30000
C  -1.17300 40.77400 28.55800
C  -0.77200 40.94500 27.07200
C  -1.49400 39.33200 28.88500
C  -0.25500 42.63100 30.09400
C  -0.47400 42.45000 31.62200
H  -1.53600 41.49500 32.21700
N  -0.26200 41.21100 24.00300
C  -1.32600 40.66300 24.62300
C  -2.32000 40.21300 23.66100
C  -1.81100 40.49600 22.34000
C  -0.45700 41.05800 22.63500
C  -3.79800 39.83600 24.01000
C  -2.46200 40.35400 20.93500
O  -1.95800 40.74900 19.90200
C  -3.73900 39.67200 20.82800
N  2.39100 42.12800 23.10900
C  1.85200 41.79500 21.90500
C  2.95900 41.89200 20.77900
C  4.13700 42.62100 21.53600
C  3.70000 42.50900 22.94900
C  3.30000 40.52500 20.13500
C  4.29400 44.12800 21.08800
C  3.21200 45.10900 21.58800
N  3.15500 42.35800 25.92000
C  4.36200 42.73700 25.39400
C  5.28900 42.90000 26.46600
C  4.52000 42.69000 27.61600
C  3.20600 42.45200 27.26500
C  6.75000 43.17100 26.36900
C  4.68900 42.62800 29.06300
O  5.70900 42.75500 29.78100
C  3.28400 42.27200 29.59200
C  3.43000 41.06200 30.46200
O  3.80200 39.96700 30.07000
O  3.00500 41.33400 31.73000
C  3.04400 40.14000 32.68600
H  -2.53800 40.22700 26.26300
H  0.40100 41.10600 20.70100
H  5.63700 42.98700 23.69300
H  0.52200 40.64400 29.97800
H  -2.07800 41.36500 28.69800
H  -2.48100 39.39600 29.34200
H  -0.80700 38.89100 29.60700
H  -1.62100 38.69600 28.00900
H  -1.16000 43.21500 29.92300
H  0.52000 43.37500 29.91300
H  -0.63500 43.39700 32.13600
H  0.45800 42.05500 32.02700
H  -3.91500 38.86700 24.49400
H  -4.53900 40.00100 23.22700
H  -4.08500 40.61300 24.71800
H  -3.77800 38.86700 21.56200
H  -3.85300 39.06800 19.92700
H  -4.52800 40.42300 20.85900
H  2.56100 42.44800 19.93000
H  5.09200 42.09900 21.47800
H  2.46400 40.23300 19.50000
H  3.41800 39.76700 20.91000
H  4.23000 40.71500 19.59900
H  4.32900 44.29300 20.01100
H  5.28000 44.39400 21.46900
H  3.64200 45.68000 22.41100
H  2.24500 44.69000 21.86400
H  3.10700 45.81300 20.76200
H  6.97200 44.13700 25.91600
H  7.27500 42.45600 25.73600
H  7.30700 43.01100 27.29200
H  2.90900 43.09100 30.20600
H  4.06600 40.22000 33.05800
H  2.82200 39.14500 32.30200
H  2.35000 40.31600 33.50800

