158

Mg -2.55300 17.16100 27.25400
C  -3.07200 14.84600 29.84500
C  -2.95800 19.62000 29.55100
C  -2.71300 19.21400 24.68400
C  -2.65200 14.47000 24.92200
N  -3.10700 17.15500 29.39600
C  -3.07000 16.16500 30.24900
C  -3.21500 16.63700 31.72200
C  -3.26600 18.22100 31.56600
C  -3.12300 18.37800 30.03700
C  -4.58200 18.85100 32.10300
C  -2.12400 16.13100 32.67600
C  -1.79000 17.03400 33.92200
H  -1.40000 16.08900 35.11900
N  -2.62500 19.20000 27.13600
C  -2.71100 20.04200 28.24900
C  -2.53200 21.37800 27.74600
C  -2.38600 21.24500 26.29900
C  -2.55700 19.84100 25.97200
C  -2.45900 22.59500 28.65600
C  -1.96400 22.33500 25.22300
O  -1.79900 22.06100 24.05300
C  -1.82300 23.65600 25.60700
N  -2.75100 16.81600 25.03800
C  -2.78300 17.90600 24.25000
C  -2.91600 17.42300 22.77600
C  -2.56600 15.93100 22.78600
C  -2.66000 15.70000 24.34600
C  -4.29400 17.84000 22.15400
C  -1.23200 15.48700 22.07600
C  0.04600 16.10800 22.62500
N  -2.78300 15.09100 27.26400
C  -2.82000 14.15500 26.30500
C  -2.91200 12.88500 26.82500
C  -3.02200 13.05400 28.22200
C  -2.95100 14.48400 28.44500
C  -3.09900 11.61500 26.08100
C  -3.29300 12.39000 29.45700
O  -3.50400 11.22100 29.69200
C  -3.26500 13.50200 30.57400
C  -1.97900 13.19900 31.27300
O  -0.86600 13.61700 30.96700
O  -2.22500 12.53300 32.39700
C  -1.11700 12.36000 33.36000
H  -3.04700 20.36400 30.34600
H  -2.58900 19.82200 23.78600
H  -2.60200 13.55900 24.32200
H  -4.21500 16.32300 32.01800
H  -2.43100 18.69300 32.08300
H  -4.27100 19.69100 32.72300
H  -5.04000 18.07300 32.71300
H  -5.19900 19.20000 31.27500
H  -1.19200 15.83100 32.19700
H  -2.60200 15.24600 33.09600
H  -2.61500 17.61300 34.33800
H  -0.92100 17.64300 33.67300
H  -1.59700 23.19900 28.37400
H  -2.31000 22.24500 29.67800
H  -3.40400 23.13800 28.63400
H  -1.79500 24.43000 24.84000
H  -0.93900 23.68200 26.24500
H  -2.74200 23.94900 26.11300
H  -2.11500 17.77700 22.12800
H  -3.25800 15.38900 22.14200
H  -4.84600 18.45100 22.86800
H  -4.88100 16.96300 21.88100
H  -4.01300 18.51700 21.34600
H  -1.29700 15.78800 21.03000
H  -1.20400 14.39800 22.04300
H  0.59900 15.20000 22.86500
H  -0.05800 16.63700 23.57300
H  0.51800 16.73200 21.86600
H  -2.54000 10.86100 26.63600
H  -2.74100 11.63100 25.05100
H  -4.13600 11.28600 26.14800
H  -4.08300 13.43700 31.29200
H  -1.08900 11.28200 33.52000
H  -1.43400 12.86400 34.27300
H  -0.17100 12.61600 32.88300
Mg 9.83800 48.16600 25.92100
C  8.22500 48.01200 29.04100
C  12.66100 49.19800 27.54200
C  11.43900 48.33700 22.94500
C  6.91200 47.04900 24.35900
N  10.28500 48.76600 28.02500
C  9.50000 48.52600 29.11100
C  10.21200 48.94800 30.37600
C  11.53100 49.54000 29.82100
C  11.51300 49.13800 28.36800
C  11.58100 51.11000 29.86500
C  10.41000 47.89600 31.52900
C  9.75200 48.38900 32.84200
H  9.48300 47.32500 33.94700
N  11.77100 48.66500 25.31000
C  12.88400 49.02600 26.15100
C  14.10600 49.03900 25.38500
C  13.66900 48.82600 24.03200
C  12.19700 48.61200 24.02500
C  15.52500 49.23900 25.94300
C  14.55200 48.86700 22.85300
O  14.09400 48.84200 21.74100
C  16.07400 48.89600 23.03700
N  9.15500 47.93800 23.88000
C  10.07500 48.02200 22.83200
C  9.30000 47.76800 21.49300
C  8.22000 46.81600 22.03700
C  7.99400 47.34400 23.47300
C  8.86400 49.08000 20.83700
C  8.62200 45.34500 22.20500
C  8.66600 44.56900 20.84900
N  7.94600 47.81900 26.47600
C  6.85900 47.35700 25.76800
C  5.68700 47.13100 26.61600
C  6.15800 47.38100 27.94900
C  7.53900 47.78900 27.78400
C  4.37300 46.59300 26.17400
C  5.88300 47.28900 29.37700
O  4.82100 47.10500 29.97600
C  7.23300 47.62700 30.15600
C  7.53400 46.33300 30.83900
O  8.06100 45.34500 30.37700
O  6.94900 46.34300 32.08600
C  7.05500 45.05400 32.81600
H  13.55600 49.44000 28.11800
H  11.76800 48.15500 21.92000
H  6.06400 46.42100 24.08100
H  9.63500 49.77300 30.79300
H  12.40500 49.06900 30.27100
H  10.63500 51.60900 30.07600
H  11.79800 51.53900 28.88700
H  12.38800 51.40800 30.53500
H  11.46500 47.65200 31.65600
H  9.95900 46.91500 31.38200
H  8.74200 48.78500 32.73400
H  10.38100 49.16900 33.27100
H  16.23700 48.47400 25.63400
H  15.42300 49.06800 27.01400
H  15.84900 50.26600 25.77200
H  16.54800 47.98700 23.40700
H  16.32200 49.84000 23.52200
H  16.40400 49.16100 22.03300
H  9.95300 47.17400 20.85500
H  7.23300 46.92000 21.58600
H  9.44500 49.96700 21.09100
H  7.84300 49.38700 21.06600
H  8.97000 48.91500 19.76500
H  7.95400 44.86100 22.91800
H  9.58900 45.22500 22.69200
H  8.05900 43.66400 20.86500
H  9.70000 44.31600 20.61300
H  8.29900 45.09200 19.96600
H  3.79000 46.52400 27.09200
H  4.50300 45.57800 25.79700
H  3.91800 47.33800 25.52200
H  7.12400 48.35600 30.95800
H  6.51600 45.22200 33.74900
H  8.10700 44.86700 33.03500
H  6.56500 44.17200 32.40400

