158

Mg 3.66800 -2.81200 44.57100
C  5.90900 -0.65600 43.49200
C  1.17300 -1.07500 42.82600
C  1.43300 -5.33500 45.36300
C  6.13100 -4.86500 45.80400
N  3.56000 -1.15400 43.15000
C  4.71100 -0.41900 42.77400
C  4.33700 0.71200 41.89100
C  2.78600 0.75800 41.84400
C  2.43700 -0.61400 42.55700
C  2.19400 1.98600 42.51400
C  5.05500 0.64700 40.50400
C  6.11100 1.74100 40.14200
H  5.95400 2.49300 38.86800
N  1.53100 -3.08900 44.23600
C  0.72100 -2.24800 43.53500
C  -0.63200 -2.82900 43.56300
C  -0.58400 -4.01900 44.31300
C  0.84000 -4.19400 44.72900
C  -1.80400 -2.11000 42.97700
C  -1.81900 -4.84900 44.65200
O  -2.90400 -4.62900 44.14000
C  -1.72000 -6.02400 45.57300
N  3.71100 -4.82000 45.50600
C  2.70700 -5.60000 45.77900
C  3.18900 -6.96800 46.30200
C  4.67100 -6.84800 46.17200
C  4.85100 -5.44000 45.78900
C  2.71000 -7.25100 47.80600
C  5.35700 -7.81200 45.15700
C  6.50800 -8.68400 45.64100
N  5.63500 -2.79600 44.69500
C  6.50000 -3.59500 45.30400
C  7.77300 -2.98700 45.41700
C  7.63200 -1.82900 44.66700
C  6.29800 -1.76200 44.27700
C  9.07800 -3.44600 46.12500
C  8.31300 -0.67100 44.18300
O  9.54700 -0.41700 44.11700
C  7.19500 0.16500 43.39300
C  7.02400 1.53100 43.91800
O  7.01300 2.53800 43.26100
O  6.89800 1.49500 45.29100
C  6.48000 2.71200 46.05800
H  0.33100 -0.55500 42.36500
H  0.80700 -6.18100 45.65300
H  6.97900 -5.51600 46.02700
H  4.62600 1.64800 42.36800
H  2.37500 0.67800 40.83700
H  2.89900 2.75900 42.82100
H  1.60600 1.76900 43.40600
H  1.56200 2.45600 41.76000
H  4.29900 0.73100 39.72300
H  5.36500 -0.39100 40.38900
H  7.07400 1.23600 40.22500
H  6.10500 2.48600 40.93800
H  -2.67100 -2.05800 43.63500
H  -1.92500 -2.78900 42.13300
H  -1.51200 -1.13400 42.58700
H  -1.28000 -5.60100 46.47700
H  -1.08800 -6.82200 45.18400
H  -2.63100 -6.51600 45.91400
H  2.83800 -7.77900 45.66500
H  5.28300 -6.90000 47.07300
H  2.13700 -8.17800 47.83400
H  2.08800 -6.45300 48.21200
H  3.59800 -7.41300 48.41600
H  5.71400 -7.25200 44.29300
H  4.60300 -8.50800 44.78800
H  6.33600 -9.75000 45.49900
H  6.69300 -8.49200 46.69800
H  7.33700 -8.27800 45.06100
H  9.88200 -3.56900 45.40000
H  8.87900 -4.36600 46.67400
H  9.38900 -2.71900 46.87500
H  7.56400 0.26800 42.37200
H  5.51900 2.58500 46.55800
H  6.52900 3.57500 45.39400
H  7.20300 2.82300 46.86600
Mg 10.24100 47.13000 26.05200
C  7.74900 47.31200 28.21900
C  12.50700 48.20100 28.37600
C  12.66800 46.91500 23.57300
C  7.86000 46.62100 23.37900
N  10.03200 47.77000 28.03300
C  8.94200 47.71000 28.76100
C  9.30400 47.89700 30.23200
C  10.75900 48.48600 30.21500
C  11.13000 48.19100 28.76900
C  10.85800 49.98800 30.52800
C  9.07300 46.77700 31.21900
C  9.73500 47.02900 32.53700
H  9.07100 46.38100 33.77800
N  12.25600 47.59200 25.91000
C  13.01200 47.92500 27.01300
C  14.39900 48.02900 26.66100
C  14.50300 47.61200 25.27500
C  13.06900 47.36500 24.81200
C  15.51800 48.57100 27.59600
C  15.77400 47.40800 24.42300
O  15.69600 47.03200 23.28400
C  17.14200 47.77600 24.99600
N  10.26500 46.93000 23.80400
C  11.38400 46.80500 23.03700
C  11.13000 46.38200 21.55000
C  9.62900 46.38500 21.50400
C  9.19400 46.65300 22.98300
C  11.81500 47.30500 20.56000
C  9.03200 45.05100 20.84900
C  7.67400 45.20500 20.17500
N  8.20300 46.84700 25.83200
C  7.37000 46.78600 24.68000
C  5.99500 46.62400 25.15000
C  6.09200 46.85600 26.56700
C  7.45200 47.00400 26.84400
C  4.72400 46.39100 24.34200
C  5.31300 46.90300 27.83400
O  4.13700 46.78900 28.04500
C  6.41900 47.17400 28.95500
C  6.27800 46.01200 29.77700
O  6.86800 45.01500 29.63100
O  5.37900 46.23100 30.74600
C  5.07800 45.23100 31.71700
H  13.20000 48.46100 29.17900
H  13.42000 46.78400 22.79200
H  7.11900 46.52800 22.58200
H  8.70700 48.76600 30.51000
H  11.47100 47.83000 30.71700
H  11.43300 50.41900 29.70800
H  11.52400 50.13200 31.38000
H  9.88300 50.47000 30.59300
H  9.36100 45.81600 30.79300
H  7.99100 46.75400 31.34900
H  9.91000 48.09600 32.67400
H  10.72000 46.56400 32.52000
H  15.10300 48.90200 28.54800
H  16.01600 49.47600 27.24600
H  16.31600 47.83100 27.65500
H  17.58500 47.06100 25.68900
H  17.20600 48.76700 25.44500
H  17.84700 47.74700 24.16400
H  11.45800 45.37300 21.30100
H  9.37000 47.30500 20.97900
H  11.51900 48.32700 20.79600
H  11.35800 47.14200 19.58400
H  12.87400 47.04900 20.51600
H  8.94600 44.34100 21.67200
H  9.81500 44.70600 20.17400
H  7.34400 46.23300 20.02000
H  6.90800 44.60400 20.66400
H  7.85400 44.82200 19.17100
H  4.96200 45.78000 23.47000
H  4.34100 47.33700 23.95900
H  3.97200 45.91700 24.97200
H  6.31100 48.10200 29.51700
H  4.53600 44.34500 31.38500
H  4.39000 45.55800 32.49700
H  5.95400 44.99400 32.32000

