158

Mg -1.68100 17.35600 26.86300
C  -2.34500 15.38100 29.63200
C  -2.36600 20.05800 28.76500
C  -1.46100 19.31700 24.08600
C  -1.65000 14.48000 24.89800
N  -2.14300 17.72300 29.00400
C  -2.27700 16.74700 30.02300
C  -2.56100 17.42700 31.42700
C  -2.79900 18.89000 31.04800
C  -2.41100 18.86900 29.48800
C  -4.29800 19.49300 31.29600
C  -1.41000 17.25900 32.46600
C  -1.84600 16.78600 33.88300
H  -0.87000 16.80300 35.06300
N  -1.75400 19.42700 26.50300
C  -2.04100 20.34300 27.43700
C  -2.01500 21.62300 26.87300
C  -1.64600 21.50900 25.47000
C  -1.52900 20.06300 25.29300
C  -2.11000 22.88400 27.74100
C  -1.35400 22.58700 24.43500
O  -1.05200 22.24700 23.27000
C  -1.74900 23.98600 24.65400
N  -1.45600 16.96900 24.83000
C  -1.37900 17.96900 23.86600
C  -1.12100 17.32300 22.53700
C  -0.98700 15.81000 22.86700
C  -1.47300 15.71700 24.27300
C  -2.21600 17.55000 21.48500
C  0.48100 15.25500 22.63700
C  1.61800 15.66100 23.61900
N  -1.93500 15.33900 27.15000
C  -1.87400 14.30200 26.26400
C  -2.11300 13.07200 26.90500
C  -2.21000 13.41700 28.22700
C  -2.18600 14.82400 28.33500
C  -2.22400 11.68500 26.35300
C  -2.49600 12.90700 29.59500
O  -2.72000 11.76800 29.96600
C  -2.66100 14.15600 30.49500
C  -1.65300 13.78600 31.64000
O  -0.48200 13.99400 31.53900
O  -2.32100 13.25300 32.74200
C  -1.51300 12.95900 33.95800
H  -2.62000 20.94100 29.35500
H  -1.60800 19.93700 23.19900
H  -1.74200 13.60600 24.25000
H  -3.47000 17.04500 31.89200
H  -2.17600 19.55200 31.64900
H  -5.01500 18.77700 31.69700
H  -4.72700 19.96800 30.41400
H  -4.12100 20.27500 32.03500
H  -0.87700 18.20200 32.58500
H  -0.65400 16.65900 31.96000
H  -2.17400 15.75400 33.75700
H  -2.68000 17.42300 34.17600
H  -3.12700 23.27500 27.76400
H  -1.49800 23.71300 27.38600
H  -1.73200 22.82400 28.76100
H  -1.79800 24.63900 23.78300
H  -1.07000 24.41100 25.39300
H  -2.72400 24.00700 25.14100
H  -0.13600 17.66600 22.22000
H  -1.73700 15.23800 22.32000
H  -1.79700 17.47600 20.48100
H  -2.52900 18.59200 21.55500
H  -3.03800 16.87400 21.71700
H  0.75100 15.42100 21.59400
H  0.36800 14.17600 22.73800
H  1.27000 16.37600 24.36400
H  2.26100 16.30700 23.02100
H  2.19500 14.78700 23.92100
H  -1.76200 11.65200 25.36600
H  -3.31200 11.64100 26.30600
H  -1.83500 10.86600 26.95900
H  -3.63200 14.22400 30.98500
H  -1.30700 13.87100 34.51900
H  -0.49000 12.62800 33.78000
H  -1.91000 12.14900 34.57000
Mg -12.28400 38.14600 41.49400
C  -9.89200 35.86500 41.03100
C  -10.32600 40.49500 39.84900
C  -14.99100 40.17900 41.09000
C  -14.52200 35.59700 42.57700
N  -10.35500 38.06100 40.48400
C  -9.60700 37.00100 40.33000
C  -8.36000 37.32400 39.54300
C  -8.47600 38.85500 39.26300
C  -9.82600 39.18300 39.85200
C  -7.36400 39.72300 39.87900
C  -8.09600 36.34200 38.42400
C  -6.75100 35.71800 38.39900
H  -5.86700 36.33400 37.19600
N  -12.53500 40.11800 40.75600
C  -11.59500 40.94900 40.29800
C  -12.11700 42.26100 40.19300
C  -13.46900 42.21400 40.43200
C  -13.71400 40.79000 40.85100
C  -11.33200 43.47700 39.66100
C  -14.47600 43.42100 40.35400
O  -14.16000 44.47400 39.74600
C  -15.83800 43.34100 40.97800
N  -14.55900 37.88300 41.64800
C  -15.40200 38.91500 41.54500
C  -16.90300 38.45000 41.57400
C  -16.74600 36.99600 42.06100
C  -15.17700 36.80000 42.16000
C  -18.00400 39.31600 42.28200
C  -17.31200 35.86900 41.11000
C  -18.04000 34.71600 41.86800
N  -12.31300 36.10800 41.73100
C  -13.16800 35.24500 42.39800
C  -12.48900 34.03800 42.74000
C  -11.17300 34.18300 42.21400
C  -11.14300 35.48800 41.54900
C  -13.04000 32.84200 43.44500
C  -9.95000 33.56100 41.96500
O  -9.54000 32.45800 42.38300
C  -9.05100 34.62800 41.18800
C  -7.75200 34.81500 41.85400
O  -6.82400 34.03200 41.85300
O  -7.72000 36.08100 42.45900
C  -6.42400 36.48300 43.06900
H  -9.70900 41.17600 39.26000
H  -15.85300 40.82200 40.89900
H  -15.19400 34.88000 43.05400
H  -7.55600 37.27600 40.27700
H  -8.45900 39.12300 38.20700
H  -7.62600 40.28300 40.77600
H  -6.87100 40.34300 39.13100
H  -6.53900 39.05000 40.11300
H  -8.44400 36.78900 37.49300
H  -8.87900 35.59000 38.52000
H  -6.81100 34.65300 38.17200
H  -6.17300 35.87500 39.31000
H  -11.37500 44.28400 40.39300
H  -11.61900 43.80700 38.66300
H  -10.27700 43.26800 39.48500
H  -15.91800 42.93500 41.98600
H  -16.48400 42.84600 40.25200
H  -16.16200 44.38100 41.00100
H  -17.13800 38.35400 40.51400
H  -17.23200 36.99400 43.03600
H  -17.49200 40.01600 42.94100
H  -18.61600 38.70100 42.94200
H  -18.60200 39.84500 41.53900
H  -16.48400 35.37200 40.60500
H  -18.02100 36.20900 40.35500
H  -19.04800 34.71700 41.45500
H  -18.13600 34.84400 42.94600
H  -17.60600 33.74900 41.61400
H  -13.80000 32.45600 42.76600
H  -13.57200 33.12000 44.35500
H  -12.27500 32.09000 43.63800
H  -8.76700 34.00500 40.33900
H  -6.42300 37.55300 42.86000
H  -5.52200 36.08300 42.60700
H  -6.37700 36.36100 44.15100

