158

Mg 23.81700 -5.43500 46.49600
C  26.09700 -3.42800 44.79200
C  21.32500 -4.58700 44.35100
C  22.14400 -8.18900 47.42600
C  26.69900 -7.12300 47.85600
N  23.78800 -4.16100 44.84500
C  24.76000 -3.33600 44.36400
C  24.22100 -2.44400 43.26200
C  22.62200 -2.80800 43.23500
C  22.59300 -3.89500 44.27800
C  21.71900 -1.56100 43.50700
C  25.01000 -2.69300 41.83600
C  25.48600 -1.49200 41.06100
H  25.44400 -1.61600 39.55000
N  21.95000 -6.17400 46.11600
C  21.04500 -5.65900 45.21800
C  19.79600 -6.38100 45.29800
C  20.02900 -7.44700 46.17500
C  21.44000 -7.30400 46.64400
C  18.53700 -6.07200 44.52200
C  18.93600 -8.42400 46.64300
O  17.89700 -8.48000 46.06900
C  19.24500 -9.45600 47.75300
N  24.40400 -7.39200 47.62000
C  23.38600 -8.27100 47.93600
C  23.99300 -9.46200 48.71100
C  25.54600 -9.03900 48.93500
C  25.57000 -7.81200 48.06200
C  23.21800 -9.90800 49.97000
C  26.56300 -10.23300 48.70100
C  27.10800 -10.48500 47.38600
N  25.91400 -5.19600 46.57900
C  26.90600 -5.89400 47.19700
C  28.17400 -5.27400 46.92100
C  27.88000 -4.25400 46.06600
C  26.48900 -4.25100 45.81600
C  29.47300 -5.82200 47.38000
C  28.51700 -3.30300 45.18900
O  29.70500 -3.01000 45.04500
C  27.32500 -2.69300 44.35200
C  27.16500 -1.21300 44.68200
O  26.78900 -0.79300 45.75200
O  27.56800 -0.42700 43.61100
C  27.77100 0.98500 43.85700
H  20.58100 -4.36800 43.58300
H  21.70500 -9.12400 47.78100
H  27.59100 -7.59900 48.26700
H  24.38200 -1.43100 43.63100
H  22.43300 -3.12600 42.21000
H  21.95000 -1.20900 44.51200
H  20.69400 -1.91700 43.40100
H  22.09900 -0.84400 42.78000
H  24.34600 -3.12400 41.08700
H  25.85600 -3.37000 41.95500
H  26.50300 -1.45100 41.45200
H  24.87200 -0.71200 41.51100
H  18.57400 -5.12200 43.98900
H  17.66700 -6.07900 45.17900
H  18.29000 -6.78900 43.74000
H  18.28600 -9.91800 47.98700
H  19.54700 -8.97700 48.68500
H  19.99400 -10.20900 47.50900
H  23.86500 -10.33000 48.06400
H  25.59900 -8.69500 49.96800
H  23.84400 -10.06300 50.84900
H  22.66600 -10.79700 49.66600
H  22.49900 -9.09200 50.04800
H  26.06400 -11.17700 48.92000
H  27.43000 -10.14800 49.35500
H  28.18200 -10.65800 47.31100
H  26.85600 -9.77500 46.59900
H  26.72100 -11.46500 47.10600
H  29.68000 -6.73100 46.81600
H  29.45400 -5.94500 48.46300
H  30.35900 -5.22900 47.15100
H  27.54800 -2.90800 43.30600
H  27.28400 1.47600 43.01400
H  28.81000 1.31200 43.89000
H  27.27600 1.32600 44.76600
Mg 43.86000 3.91200 47.53700
C  41.99300 6.78500 47.09700
C  41.02700 2.05300 47.02200
C  45.95300 1.27900 47.30800
C  46.75300 6.08400 47.49800
N  41.73200 4.36000 47.26200
C  41.20400 5.60700 47.02200
C  39.69300 5.57500 46.66300
C  39.37200 4.10200 47.07600
C  40.75400 3.46400 47.18800
C  38.73500 4.13200 48.47500
C  39.44000 6.01600 45.24600
C  38.30500 6.98800 44.94200
H  37.45800 6.61900 43.68200
N  43.54100 1.96600 47.35400
C  42.32200 1.40600 47.14800
C  42.54100 0.00200 46.86600
C  43.95100 -0.28200 46.89700
C  44.55600 1.02600 47.20600
C  41.46300 -0.96100 46.64600
C  44.56500 -1.63600 46.57100
O  43.86100 -2.58700 46.21300
C  46.12400 -1.88700 46.56100
N  46.08600 3.76400 47.11700
C  46.65300 2.49900 47.32200
C  48.14300 2.58700 47.58800
C  48.42600 4.07200 47.62700
C  47.00100 4.70700 47.40800
C  48.57300 1.80800 48.91200
C  49.39400 4.55900 46.51000
C  50.34100 5.69700 46.85600
N  44.35900 6.05000 47.43100
C  45.53200 6.74600 47.54300
C  45.28700 8.17400 47.49600
C  43.88000 8.26000 47.32300
C  43.34500 6.94700 47.29700
C  46.28100 9.25700 47.51600
C  42.76900 9.16200 47.24100
O  42.67000 10.35100 47.19500
C  41.52100 8.26600 46.97200
C  40.61200 8.65500 48.05700
O  40.67900 8.32600 49.28200
O  39.60700 9.45100 47.52800
C  38.70200 10.03600 48.53000
H  40.16000 1.42700 46.79900
H  46.56200 0.38600 47.46400
H  47.68100 6.64100 47.64700
H  39.18000 6.27100 47.32600
H  38.79000 3.70600 46.24300
H  39.42900 4.42400 49.26200
H  38.17900 3.22700 48.72300
H  37.97700 4.90200 48.61500
H  39.23200 5.09500 44.70100
H  40.36300 6.43100 44.84200
H  38.72900 7.98500 44.81500
H  37.64100 7.07800 45.80200
H  40.57400 -0.68300 47.21200
H  41.64400 -1.98200 46.98200
H  41.13100 -1.00100 45.60800
H  46.57900 -1.88500 47.55100
H  46.67500 -1.23000 45.88700
H  46.31000 -2.90000 46.20300
H  48.72000 2.20200 46.74700
H  48.82200 4.42200 48.58100
H  47.75600 1.91700 49.62600
H  49.46600 2.21900 49.38200
H  48.64400 0.76200 48.61500
H  48.92000 4.97900 45.62400
H  49.99300 3.72500 46.14300
H  50.07800 6.13600 47.81900
H  50.26700 6.46100 46.08200
H  51.36500 5.32700 46.80700
H  47.11000 8.98900 46.86100
H  46.54000 9.50900 48.54500
H  45.63900 10.03300 47.09800
H  41.18000 8.49200 45.96200
H  39.08300 11.04700 48.67500
H  38.49000 9.47900 49.44300
H  37.73100 10.25500 48.08700

