158

Mg 1.14200 7.74900 26.76400
C  1.65200 9.81700 29.67700
C  1.40000 5.02900 28.85200
C  1.42500 5.77700 24.10100
C  1.16400 10.55600 24.78700
N  1.45400 7.50200 29.00100
C  1.49600 8.48200 30.03900
C  1.38400 7.83700 31.45300
C  1.57400 6.35200 31.08800
C  1.50300 6.27100 29.55800
C  2.81700 5.61500 31.67100
C  0.03600 8.23100 32.18800
C  0.14600 8.41700 33.69600
H  1.34600 7.80100 34.52700
N  1.18300 5.70700 26.50800
C  1.30400 4.76000 27.47100
C  1.43200 3.42300 26.85100
C  1.32100 3.62300 25.46300
C  1.25900 5.04400 25.25600
C  1.72200 2.09900 27.56900
C  1.20000 2.53500 24.36700
O  0.98900 2.88800 23.21800
C  1.14500 1.05000 24.59500
N  1.09800 8.12600 24.69600
C  1.26300 7.12800 23.81900
C  1.39600 7.72800 22.40300
C  0.84100 9.23600 22.51900
C  1.06300 9.37600 24.05700
C  2.72400 7.48900 21.64800
C  -0.69400 9.37100 22.30000
C  -1.14700 10.49200 21.31800
N  1.41700 9.78700 27.08800
C  1.40900 10.85000 26.14400
C  1.68300 12.09100 26.86200
C  1.74100 11.72000 28.20900
C  1.57000 10.31100 28.34600
C  1.86600 13.46700 26.26100
C  2.08900 12.25300 29.53500
O  2.55600 13.36600 29.83900
C  1.87000 11.03400 30.55300
C  3.00200 11.00700 31.47500
O  3.96300 10.22700 31.31400
O  2.83500 11.89300 32.48000
C  3.73900 11.62400 33.63200
H  1.51700 4.18200 29.53200
H  1.53000 5.21700 23.17000
H  1.15500 11.52000 24.27400
H  2.21300 8.32500 31.96500
H  0.72700 5.84000 31.54500
H  2.34700 4.82700 32.26000
H  3.35300 6.39700 32.20900
H  3.36600 5.13600 30.86100
H  -0.59400 7.34900 32.07100
H  -0.37600 9.15100 31.77600
H  -0.72700 8.16700 34.29900
H  0.25300 9.48800 33.86600
H  0.76200 1.72100 27.92100
H  2.18800 2.29800 28.53400
H  2.41100 1.47200 27.00500
H  2.15200 0.67800 24.78400
H  0.79600 0.46700 23.74300
H  0.54200 0.88900 25.48800
H  0.69600 7.23700 21.72800
H  1.43700 9.92200 21.91700
H  3.16700 8.30000 21.07100
H  2.60000 6.64100 20.97300
H  3.46000 7.04600 22.31900
H  -1.25500 9.58200 23.21000
H  -1.11500 8.45300 21.88900
H  -2.06100 10.22600 20.78600
H  -0.39300 10.74500 20.57300
H  -1.37600 11.40000 21.87500
H  1.63100 13.33800 25.20400
H  2.87300 13.86900 26.37600
H  1.15200 14.13200 26.74600
H  0.86800 11.14900 30.96800
H  3.35200 12.40000 34.29300
H  4.74300 11.86600 33.28200
H  3.73400 10.57400 33.92200
Mg 17.23100 52.32700 26.27800
C  18.99200 50.95700 29.11000
C  14.97800 53.60700 28.53300
C  15.60800 53.59700 23.70200
C  19.43400 50.62200 24.22300
N  17.03800 52.20000 28.57800
C  17.98500 51.77000 29.48300
C  17.51800 52.26700 30.87500
C  16.04500 52.81100 30.70900
C  15.98100 52.84900 29.18700
C  15.06800 51.82400 31.29900
C  18.38400 53.42000 31.47500
C  18.40700 53.39600 33.03100
H  17.34800 52.59100 33.78900
N  15.47500 53.46300 26.17800
C  14.70800 53.89300 27.15100
C  13.65200 54.74900 26.67400
C  13.80300 54.77700 25.21400
C  15.00800 53.99600 24.96100
C  12.61500 55.53500 27.50100
C  12.96000 55.43700 24.15500
O  13.33700 55.48700 22.95800
C  11.61400 56.08800 24.53800
N  17.48600 52.08100 24.25200
C  16.69100 52.79400 23.39000
C  17.11900 52.53100 21.96300
C  18.38800 51.70000 22.17000
C  18.49800 51.51200 23.63400
C  16.04300 51.80900 21.11800
C  19.58600 52.35500 21.56700
C  20.14200 53.60000 22.32400
N  18.84100 51.02700 26.49200
C  19.64000 50.46500 25.59600
C  20.60300 49.61300 26.18600
C  20.46300 49.86600 27.60200
C  19.35700 50.65700 27.72900
C  21.59400 48.80200 25.48100
C  21.00300 49.58400 28.91700
O  22.00800 48.91600 29.18600
C  20.13300 50.34300 29.94400
C  19.68500 49.38900 30.93900
O  18.93500 48.43100 30.61600
O  20.11100 49.68100 32.23300
C  19.81700 48.67400 33.28800
H  14.23500 53.97700 29.24300
H  15.04700 53.88800 22.81100
H  20.04600 50.08100 23.49800
H  17.60600 51.34900 31.45700
H  15.70700 53.72200 31.20300
H  14.76300 51.08200 30.56100
H  14.23500 52.40500 31.69700
H  15.44600 51.21600 32.12100
H  18.00700 54.33200 31.01100
H  19.41600 53.20600 31.19700
H  18.36200 54.44200 33.33600
H  19.36900 52.95100 33.28300
H  12.60300 56.58800 27.22200
H  13.11600 55.48100 28.46800
H  11.62300 55.09200 27.60100
H  11.17700 55.43700 25.29500
H  10.82800 56.14400 23.78400
H  11.74200 57.12300 24.85700
H  17.45600 53.48800 21.56400
H  18.17000 50.78500 21.61800
H  16.56100 51.33300 20.28600
H  15.33200 52.54000 20.73300
H  15.59800 50.98600 21.67600
H  19.41400 52.50500 20.50100
H  20.42300 51.66500 21.67400
H  20.19500 54.34600 21.53200
H  21.10300 53.52200 22.83400
H  19.31600 53.85000 22.98900
H  22.41900 49.41800 25.12300
H  21.11800 48.10700 24.79000
H  22.20300 48.30900 26.23900
H  20.84400 51.05900 30.35700
H  20.46800 47.80000 33.31400
H  18.78000 48.34200 33.23100
H  19.80800 49.03400 34.31600

