158

Mg -0.17000 7.57800 26.29400
C  0.67100 9.60700 28.93300
C  -0.33000 4.96100 28.44600
C  -0.60100 5.48800 23.58900
C  0.76500 10.09800 24.07200
N  0.22300 7.33000 28.51200
C  0.41700 8.33500 29.39200
C  0.31600 7.85300 30.83300
C  0.27500 6.25000 30.67700
C  0.09400 6.11000 29.13200
C  1.45700 5.38500 31.30200
C  -1.00900 8.38700 31.55200
C  -1.06000 8.37500 33.07500
H  0.09200 7.81600 33.86200
N  -0.43500 5.52600 26.07900
C  -0.51300 4.62400 27.10000
C  -0.89800 3.34300 26.65300
C  -0.98800 3.44200 25.24600
C  -0.70000 4.88600 24.87500
C  -1.04100 2.19800 27.56800
C  -1.29400 2.32400 24.23600
O  -1.23400 2.44600 22.98300
C  -1.45000 0.93900 24.72900
N  -0.08900 7.78600 24.12700
C  -0.29600 6.81400 23.24000
C  -0.22200 7.35600 21.79000
C  0.11400 8.85000 21.98800
C  0.31700 8.89100 23.44600
C  0.90800 6.67300 20.85600
C  -0.90900 9.90200 21.54600
C  -2.31300 10.04500 22.17600
N  0.51400 9.52100 26.38300
C  0.88900 10.40000 25.40800
C  1.12700 11.72600 26.05200
C  1.16500 11.39200 27.44300
C  0.79700 10.10600 27.57700
C  1.36000 13.10200 25.42500
C  1.32400 12.01300 28.80300
O  1.69900 13.19600 29.04200
C  1.04700 10.83500 29.79400
C  2.06300 10.65200 30.78500
O  3.19300 10.23000 30.55300
O  1.56600 11.00600 31.99400
C  2.56900 11.21800 33.02800
H  -0.50100 4.15100 29.15800
H  -0.80500 4.76500 22.79700
H  0.93800 10.89700 23.34800
H  1.21000 8.19500 31.35400
H  -0.62500 5.71800 30.98600
H  1.84900 4.68900 30.56100
H  0.94700 4.75200 32.02800
H  2.25000 6.04200 31.66000
H  -1.84400 7.80400 31.16400
H  -1.10700 9.45400 31.35000
H  -1.91500 7.87400 33.52900
H  -1.16900 9.42100 33.36100
H  -0.11200 1.62900 27.58000
H  -1.93000 1.64600 27.26200
H  -1.20500 2.44900 28.61600
H  -2.43300 0.99000 25.19700
H  -0.68400 0.78300 25.48800
H  -1.38600 0.24700 23.88900
H  -1.17400 7.20900 21.28000
H  1.06000 9.12800 21.52400
H  1.73500 7.36600 20.69900
H  0.42800 6.47100 19.89900
H  1.32100 5.77500 21.31500
H  -1.19800 9.43900 20.60200
H  -0.50600 10.90800 21.43000
H  -2.36700 11.00900 22.68200
H  -2.36200 9.36500 23.02700
H  -3.07700 9.84200 21.42600
H  2.42200 13.34600 25.46200
H  0.74400 13.80700 25.98300
H  0.99600 13.03000 24.40000
H  0.10300 11.22300 30.17600
H  3.29200 11.92000 32.61400
H  3.17300 10.35600 33.31300
H  2.26500 11.72400 33.94400
Mg 51.15200 44.78900 42.27000
C  47.92100 45.17800 40.86100
C  51.01400 41.37800 41.21900
C  54.31800 44.57000 42.80500
C  51.40300 48.35900 42.47500
N  49.57100 43.44500 41.16600
C  48.36300 43.85200 40.67500
C  47.60300 42.68800 40.03400
C  48.61200 41.43900 40.19300
C  49.80600 42.10600 40.94100
C  48.07800 40.08000 40.92600
C  47.29000 42.93000 38.50700
C  45.81400 42.77000 38.10700
H  45.55000 41.92200 36.81200
N  52.53400 43.17700 42.10800
C  52.26400 41.86600 41.63200
C  53.56900 41.18700 41.62300
C  54.57000 42.02500 42.18800
C  53.81800 43.32500 42.45500
C  53.56900 39.80800 41.02900
C  56.02800 41.72700 42.28500
O  56.43200 40.61100 42.01000
C  56.96100 42.71200 42.95500
N  52.59900 46.32400 42.65000
C  53.91000 45.89400 42.75700
C  54.81000 47.14900 43.15000
C  53.88200 48.33900 42.80200
C  52.55000 47.65300 42.65500
C  55.41900 47.21000 44.59400
C  54.34600 49.11500 41.48100
C  54.73400 50.56800 41.53100
N  49.97500 46.41800 41.90700
C  50.17500 47.76800 42.10700
C  48.95700 48.45500 41.69200
C  48.07100 47.47800 41.17300
C  48.71200 46.25000 41.35700
C  48.75800 49.83800 41.64000
C  46.76200 47.30800 40.66300
O  45.91600 48.14800 40.39800
C  46.53500 45.80600 40.40900
C  45.29100 45.29500 41.17000
O  44.58300 44.35200 40.88900
O  45.05300 46.00500 42.27000
C  43.87200 45.64200 43.09600
H  50.81900 40.37800 40.82700
H  55.39500 44.68900 42.94500
H  51.56100 49.43300 42.35500
H  46.68100 42.56900 40.60400
H  49.01300 41.07800 39.24600
H  48.56500 40.05900 41.90100
H  48.29100 39.16700 40.37000
H  47.04400 40.18800 41.25400
H  48.00500 42.46100 37.83100
H  47.46900 43.97000 38.23500
H  45.49000 43.76900 37.81500
H  45.19600 42.32600 38.88800
H  54.51200 39.78500 40.48300
H  52.77100 39.61100 40.31300
H  53.62600 39.03500 41.79500
H  56.52400 42.97900 43.91800
H  57.02600 43.57100 42.28700
H  58.01500 42.43800 42.96700
H  55.66400 47.08200 42.47600
H  53.86800 49.00500 43.66500
H  54.98300 46.45700 45.25000
H  55.27100 48.19400 45.04000
H  56.49500 47.07200 44.48900
H  53.54500 49.11000 40.74200
H  55.20900 48.69400 40.96500
H  54.03500 51.10700 42.17000
H  54.57700 51.07900 40.58100
H  55.74100 50.75500 41.90300
H  49.26300 50.29800 42.49000
H  47.67700 49.97300 41.66300
H  49.17500 50.27800 40.73400
H  46.39000 45.66200 39.33900
H  44.03000 44.77500 43.73800
H  42.94300 45.58500 42.53000
H  43.80600 46.55900 43.68100

