158

Mg 29.91800 58.17600 41.21600
C  26.97200 56.63900 39.89700
C  31.73000 55.45600 39.80300
C  32.62500 59.91400 41.69500
C  27.94400 61.01800 42.01300
N  29.42600 56.20600 40.04000
C  28.13600 55.90300 39.63200
C  28.16700 54.55400 38.78700
C  29.62200 54.01100 39.17300
C  30.35500 55.33900 39.70400
C  29.55800 52.87200 40.26500
C  28.04500 54.85000 37.28100
C  27.35200 53.82100 36.36800
H  27.92500 53.57200 34.95300
N  31.88300 57.66200 40.98400
C  32.43500 56.56300 40.33300
C  33.89100 56.77900 40.31700
C  34.17600 58.03800 40.84300
C  32.85800 58.56300 41.23500
C  34.89100 55.66100 39.98400
C  35.61700 58.54200 41.14600
O  36.61300 57.88400 40.94700
C  35.87300 59.92700 41.75100
N  30.13400 60.23100 41.71200
C  31.41300 60.63500 41.90700
C  31.56800 62.11800 42.22800
C  30.02900 62.46300 42.32600
C  29.30400 61.14900 42.10100
C  32.45800 62.46300 43.47700
C  29.57700 63.64700 41.43400
C  29.10000 64.90300 42.22000
N  27.83400 58.73500 41.06900
C  27.25600 59.85200 41.57400
C  25.79600 59.70700 41.39300
C  25.66800 58.53700 40.63700
C  26.95400 57.91600 40.56100
C  24.76500 60.70800 41.92500
C  24.67700 57.59500 40.16000
O  23.46100 57.72600 40.20200
C  25.50000 56.37100 39.48500
C  24.95300 55.12000 40.13800
O  25.32500 54.70400 41.24900
O  24.09100 54.37700 39.33400
C  23.50600 53.21300 40.00700
H  32.34000 54.57600 39.59000
H  33.53800 60.50100 41.81800
H  27.45600 61.95900 42.27300
H  27.32000 53.92700 39.06500
H  30.15700 53.64600 38.29600
H  28.52700 52.85000 40.61500
H  30.25500 53.12900 41.06300
H  29.83600 51.88100 39.90500
H  29.07700 55.05800 36.99900
H  27.53300 55.81200 37.24900
H  26.36800 54.18000 36.06700
H  27.13500 52.89300 36.89800
H  35.75100 55.92100 39.36700
H  34.41600 54.86700 39.40700
H  35.18100 55.27200 40.95900
H  36.95300 60.05900 41.68900
H  35.45000 59.95200 42.75500
H  35.42400 60.62400 41.04300
H  32.00500 62.56700 41.33600
H  29.84500 62.54500 43.39700
H  32.57500 61.59500 44.12600
H  31.88400 63.22700 44.00300
H  33.38700 62.84200 43.05200
H  28.85300 63.27600 40.70900
H  30.31900 64.16200 40.82400
H  29.37000 65.87500 41.80600
H  29.39700 64.83200 43.26600
H  28.01100 64.86500 42.24300
H  24.74400 61.57200 41.26200
H  25.14500 61.04200 42.89100
H  23.80400 60.25800 42.17500
H  25.44500 56.31500 38.39800
H  24.26300 52.56300 40.44600
H  22.88000 52.59100 39.36700
H  22.95700 53.63600 40.84800
Mg -12.05000 38.90100 41.68200
C  -9.75900 36.50000 40.89900
C  -10.18000 41.20500 39.85200
C  -14.55900 41.19300 41.83700
C  -14.16500 36.46200 43.04300
N  -10.23300 38.83600 40.49100
C  -9.43400 37.76900 40.37000
C  -8.17900 38.04500 39.55000
C  -8.32200 39.55900 39.16100
C  -9.58100 39.91400 39.96300
C  -7.07400 40.50800 39.43600
C  -8.02300 37.15600 38.19700
C  -6.79300 36.23900 38.15300
H  -5.72400 36.49900 37.01900
N  -12.32300 40.96400 41.00500
C  -11.35900 41.69800 40.40400
C  -11.83700 43.03600 40.24500
C  -13.12900 43.10300 40.74100
C  -13.38900 41.76000 41.23700
C  -11.07000 44.07500 39.47500
C  -14.03000 44.36200 40.81600
O  -13.65200 45.35100 40.22300
C  -15.42600 44.37700 41.48500
N  -14.12200 38.74900 42.04500
C  -14.91200 39.83600 42.12300
C  -16.35000 39.48300 42.56100
C  -16.23300 37.95100 42.91100
C  -14.73400 37.69500 42.71200
C  -16.81200 40.31300 43.83100
C  -17.07900 36.93200 42.02800
C  -18.34400 37.52000 41.25100
N  -11.94500 36.86200 42.03100
C  -12.83500 36.03900 42.68200
C  -12.13600 34.76000 42.99600
C  -10.91000 34.89900 42.24200
C  -10.95500 36.17800 41.68500
C  -12.61800 33.58100 43.79700
C  -9.73000 34.23300 41.94600
O  -9.35900 33.10400 42.27400
C  -8.88600 35.24200 41.09300
C  -7.54100 35.39800 41.69400
O  -6.53800 34.67400 41.37500
O  -7.62300 36.46700 42.56500
C  -6.38100 36.92600 43.20200
H  -9.55400 41.79500 39.17900
H  -15.31100 41.95800 42.03800
H  -14.72500 35.71200 43.60600
H  -7.30800 37.96800 40.20100
H  -8.48600 39.68100 38.09100
H  -6.75000 41.04100 38.54200
H  -6.22500 39.93800 39.81500
H  -7.35600 41.29400 40.13600
H  -7.93100 37.76800 37.30100
H  -8.84400 36.45000 38.07000
H  -7.06600 35.18400 38.18100
H  -6.28600 36.35100 39.11100
H  -11.80000 44.67900 38.93500
H  -10.24600 43.78800 38.82200
H  -10.69900 44.77700 40.22200
H  -15.43700 43.87500 42.45300
H  -16.09100 43.92000 40.75200
H  -15.79300 45.38700 41.66600
H  -17.10800 39.71400 41.81300
H  -16.47700 37.64300 43.92800
H  -17.17000 39.61000 44.58400
H  -17.72700 40.80100 43.49500
H  -16.04400 40.92400 44.30300
H  -17.38700 36.15600 42.72900
H  -16.36700 36.44900 41.36000
H  -18.84300 38.35400 41.74400
H  -19.04000 36.69000 41.13000
H  -17.99200 37.76000 40.24800
H  -11.74600 33.13900 44.27800
H  -13.17000 32.92700 43.12200
H  -13.14600 34.08200 44.60800
H  -8.65000 34.75600 40.14600
H  -5.68000 36.11500 43.39800
H  -6.72500 37.47900 44.07600
H  -5.77900 37.55200 42.54200

