158

Mg 8.60400 3.56100 27.71600
C  10.15400 2.12600 30.57500
C  7.12000 5.78300 29.71200
C  7.05000 4.70900 24.99700
C  9.88200 0.89300 25.87700
N  8.62300 3.83700 29.89800
C  9.29400 3.12700 30.83600
C  9.04600 3.72100 32.29100
C  8.08600 4.91800 31.91700
C  7.91600 4.87500 30.43800
C  6.69900 4.83000 32.65100
C  10.30300 4.23700 32.97900
C  10.08400 4.99100 34.33800
H  10.76200 4.38600 35.61800
N  7.38600 5.00600 27.36900
C  6.91300 5.87200 28.34000
C  6.22000 6.94300 27.65300
C  6.11900 6.54600 26.31600
C  6.89900 5.35700 26.22400
C  5.60300 8.16800 28.34000
C  5.36300 7.25800 25.12300
O  5.54700 7.08300 23.91300
C  4.44900 8.45000 25.52300
N  8.37100 2.82300 25.68200
C  7.78000 3.54000 24.72300
C  7.87800 2.89200 23.36500
C  8.76600 1.68400 23.62300
C  9.07000 1.78700 25.14800
C  6.51200 2.58100 22.60900
C  10.00100 1.74700 22.67100
C  10.00000 0.57400 21.62900
N  9.85300 1.85700 28.05100
C  10.34400 0.91500 27.19000
C  11.15300 -0.01300 27.90600
C  11.14400 0.49600 29.19900
C  10.34600 1.61500 29.26400
C  11.91900 -1.10100 27.37700
C  11.62400 0.20100 30.58400
O  12.36300 -0.64900 30.95200
C  10.92400 1.24200 31.51200
C  10.09500 0.69500 32.54700
O  9.17300 -0.13000 32.42300
O  10.51900 1.22800 33.76600
C  10.11100 0.37700 34.95600
H  6.68800 6.49300 30.42000
H  6.58600 5.05600 24.07100
H  10.22500 0.08800 25.22500
H  8.48100 3.07100 32.95900
H  8.46200 5.88900 32.23900
H  6.52800 5.78600 33.14600
H  6.80100 4.14000 33.48900
H  5.92600 4.64600 31.90500
H  10.86000 4.85100 32.27100
H  10.89800 3.35300 33.20700
H  9.00600 5.02900 34.49800
H  10.32000 6.05000 34.23700
H  4.53600 8.28900 28.15000
H  6.15800 8.95100 27.82300
H  5.77700 8.18900 29.41500
H  3.78400 8.74000 24.70900
H  5.15200 9.17500 25.93300
H  3.78400 7.99800 26.25900
H  8.29100 3.65500 22.70500
H  8.30700 0.71700 23.41600
H  5.65400 2.84600 23.22800
H  6.34200 1.50500 22.57700
H  6.39900 3.05000 21.63200
H  10.90900 1.68600 23.27000
H  10.01800 2.69300 22.13000
H  9.31200 -0.23800 21.86400
H  11.02900 0.21600 21.58800
H  9.62000 0.85000 20.64600
H  12.69100 -1.43500 28.07000
H  12.23300 -0.96600 26.34200
H  11.18200 -1.89800 27.47300
H  11.75800 1.71200 32.03300
H  10.68300 -0.55100 34.95300
H  9.06000 0.09300 34.91500
H  10.19400 0.80100 35.95700
Mg -5.17300 24.72800 26.70200
C  -3.59600 26.61500 29.19700
C  -6.25300 22.66700 29.36000
C  -6.62400 22.79600 24.60100
C  -3.79900 26.70900 24.33900
N  -4.94200 24.68300 29.07200
C  -4.37500 25.62900 29.85900
C  -4.64100 25.42800 31.34000
C  -5.28900 24.03600 31.38000
C  -5.58000 23.81100 29.83400
C  -4.47800 22.74200 31.96800
C  -5.45000 26.52600 31.92700
C  -4.96500 27.04100 33.30500
H  -5.87500 26.56800 34.48900
N  -6.17300 22.87900 26.94300
C  -6.59900 22.25900 28.07300
C  -7.26600 21.01800 27.71500
C  -7.44400 20.94400 26.33400
C  -6.80200 22.30100 25.89700
C  -7.75600 20.04700 28.77500
C  -8.16000 19.95900 25.47100
O  -8.25100 19.99700 24.23200
C  -8.55100 18.66000 26.17500
N  -5.16300 24.73200 24.67700
C  -5.89300 23.80200 24.02200
C  -5.92900 24.09400 22.50200
C  -4.94700 25.32700 22.42500
C  -4.61200 25.62300 23.87400
C  -5.60000 22.81500 21.60300
C  -5.53700 26.44800 21.48100
C  -4.64300 27.16100 20.44400
N  -4.01500 26.41300 26.67800
C  -3.52400 27.06500 25.62600
C  -2.64600 28.12000 26.15000
C  -2.64800 27.94400 27.52100
C  -3.51200 26.91900 27.85100
C  -2.15400 29.18900 25.25900
C  -2.14400 28.53100 28.75300
O  -1.48100 29.52100 28.97700
C  -2.73200 27.67400 29.90800
C  -1.68900 27.15200 30.78400
O  -0.73100 26.39500 30.47900
O  -1.79800 27.85000 32.00500
C  -0.73500 27.70000 32.96500
H  -6.57800 22.00000 30.16100
H  -7.06400 22.04000 23.94700
H  -3.30800 27.34000 23.59500
H  -3.74000 25.37700 31.95000
H  -6.18900 24.06800 31.99500
H  -3.65600 23.16400 32.54700
H  -4.05400 22.16500 31.14600
H  -5.08000 22.21200 32.70600
H  -6.46700 26.19800 32.14000
H  -5.20200 27.44700 31.40000
H  -4.87200 28.12600 33.27700
H  -4.00100 26.64300 33.62200
H  -8.81800 19.81700 28.68800
H  -7.38500 20.18600 29.79000
H  -7.23100 19.12400 28.52900
H  -7.68100 18.17100 26.61400
H  -8.84600 17.98800 25.36900
H  -9.38500 18.68600 26.87600
H  -6.92100 24.45500 22.22900
H  -3.97600 25.09700 21.98600
H  -4.76000 23.02300 20.94000
H  -6.39500 22.33500 21.03300
H  -5.08300 22.14700 22.29300
H  -6.18500 27.20400 21.92400
H  -6.21600 25.86400 20.85900
H  -4.86800 26.91800 19.40600
H  -3.61700 26.90400 20.70900
H  -4.78000 28.23500 20.57200
H  -1.57700 29.88400 25.86900
H  -3.00100 29.69500 24.79700
H  -1.50000 28.77500 24.49100
H  -3.41400 28.32700 30.45200
H  -0.42100 28.65900 33.37500
H  0.15000 27.11500 32.71500
H  -1.17300 27.10000 33.76300

