158

Mg -1.61900 17.67900 25.59400
C  -2.19900 15.65000 28.20500
C  -2.73600 20.43500 27.52400
C  -1.27100 19.72000 22.93200
C  -1.13500 14.96300 23.59800
N  -2.24400 18.02100 27.61500
C  -2.48100 17.02500 28.49100
C  -2.90500 17.60300 29.89400
C  -3.61500 18.97500 29.45000
C  -2.81400 19.15500 28.10900
C  -5.17700 19.00300 29.15800
C  -1.77500 17.80300 30.88300
C  -2.08100 17.75100 32.38200
H  -1.10700 17.18500 33.35300
N  -1.84600 19.85300 25.27300
C  -2.35100 20.79900 26.22400
C  -2.48300 22.10500 25.58300
C  -1.98100 21.91800 24.23100
C  -1.67700 20.46700 24.10000
C  -3.07800 23.38200 26.27000
C  -1.68900 22.89700 23.13100
O  -1.17000 22.67000 22.04200
C  -2.10600 24.31200 23.30300
N  -1.32300 17.41100 23.53300
C  -1.23100 18.40800 22.65400
C  -1.00000 17.85100 21.17900
C  -0.88100 16.32100 21.46200
C  -1.02900 16.22700 22.94500
C  -2.10000 18.21500 20.14100
C  0.42500 15.75900 21.00900
C  1.66300 16.23100 21.75900
N  -1.63900 15.65800 25.77800
C  -1.38600 14.65600 24.91800
C  -1.62800 13.37300 25.56000
C  -1.88700 13.72300 26.89700
C  -1.82500 15.11000 26.96300
C  -1.84400 11.99400 24.96700
C  -2.32200 13.24800 28.17000
O  -2.57500 12.14600 28.56900
C  -2.52800 14.50000 29.02600
C  -1.70500 14.43400 30.22600
O  -0.46900 14.48900 30.26500
O  -2.55400 14.17300 31.28200
C  -2.00500 13.38600 32.39900
H  -3.30400 21.19200 28.06800
H  -1.14700 20.42200 22.10500
H  -0.91300 14.17400 22.87700
H  -3.66400 16.93300 30.29800
H  -3.35900 19.80100 30.11400
H  -5.69300 19.69900 29.82000
H  -5.49400 17.98800 29.39700
H  -5.53400 19.36100 28.19200
H  -1.42100 18.80900 30.65800
H  -1.00900 17.05500 30.67700
H  -3.07000 17.34000 32.58600
H  -2.07400 18.76100 32.79200
H  -2.24100 24.05300 26.45800
H  -3.59300 23.20600 27.21400
H  -3.82300 23.86400 25.63700
H  -3.18100 24.29800 23.11900
H  -1.63900 24.97700 22.57700
H  -1.95100 24.74800 24.29000
H  -0.06500 18.25700 20.79400
H  -1.65300 15.78800 20.90600
H  -3.01900 18.39700 20.69900
H  -2.45500 17.38100 19.53600
H  -1.86900 19.06300 19.49600
H  0.52000 16.10000 19.97800
H  0.39200 14.67100 21.06200
H  2.12900 15.31300 22.11700
H  1.36000 16.83600 22.61300
H  2.29200 16.64700 20.97200
H  -2.15600 12.15400 23.93500
H  -2.61200 11.48000 25.54500
H  -0.92400 11.41300 25.02400
H  -3.59600 14.55700 29.23600
H  -1.10900 12.80600 32.17900
H  -2.67800 12.54700 32.57700
H  -1.95100 13.97500 33.31400
Mg 53.76800 23.87300 44.26600
C  50.78800 25.52700 43.44000
C  52.34800 21.05100 43.01100
C  56.76300 22.46600 44.23400
C  55.16800 26.97800 45.17800
N  51.84300 23.50300 43.23800
C  50.73800 24.25800 42.98100
C  49.61300 23.48000 42.33900
C  50.01500 21.94500 42.72900
C  51.57800 22.16000 43.03900
C  49.21800 21.17200 43.87600
C  49.50600 23.83400 40.82000
C  48.05700 24.01700 40.22000
H  47.83800 23.23900 38.88000
N  54.47300 21.99000 43.64900
C  53.71800 20.95400 43.26500
C  54.57000 19.74300 43.04800
C  55.88400 20.10200 43.50800
C  55.80800 21.55500 43.77900
C  54.12700 18.39500 42.35500
C  57.10400 19.25800 43.50600
O  56.98500 18.07700 43.19400
C  58.43500 19.72200 44.13800
N  55.67300 24.68900 44.42000
C  56.80500 23.83600 44.37500
C  58.13900 24.70400 44.42800
C  57.56800 26.02000 45.07400
C  56.07600 25.92100 44.90400
C  59.33800 24.15900 45.19100
C  58.11200 27.42200 44.66800
C  59.10200 28.03000 45.66100
N  53.19800 25.87900 44.32200
C  53.82000 26.98100 44.85700
C  52.73600 27.92300 45.12900
C  51.58200 27.44700 44.53100
C  51.91400 26.21000 44.01400
C  53.02400 29.21300 45.79300
C  50.23000 27.73200 44.35000
O  49.62200 28.73900 44.67000
C  49.64300 26.52100 43.44300
C  49.21100 27.05000 42.12200
O  50.00800 27.43200 41.28700
O  47.86600 27.21000 42.04000
C  47.25700 27.84900 40.84700
H  51.82900 20.14700 42.68500
H  57.78000 22.07000 44.21400
H  55.53200 27.77300 45.83200
H  48.74800 23.89600 42.85500
H  49.91300 21.34100 41.82700
H  48.60000 21.89900 44.40300
H  49.93900 20.74100 44.57100
H  48.60300 20.34800 43.51400
H  49.97700 23.03000 40.25600
H  50.12600 24.70700 40.61400
H  47.85700 25.08500 40.12600
H  47.27000 23.72300 40.91600
H  54.20800 18.50400 41.27400
H  53.11600 18.29200 42.75000
H  54.63000 17.46900 42.63400
H  58.93500 20.35900 43.40800
H  59.00600 18.82700 44.38800
H  58.19600 20.20600 45.08400
H  58.40700 24.86000 43.38300
H  57.63100 26.01300 46.16200
H  59.60300 24.89500 45.95000
H  60.11800 23.92800 44.46600
H  59.12900 23.22700 45.71800
H  57.30000 28.06300 44.32400
H  58.56600 27.29600 43.68500
H  59.99300 28.27200 45.08200
H  59.27500 27.35900 46.50200
H  58.55200 28.90600 46.00500
H  54.07900 29.28800 46.05600
H  52.50800 29.24300 46.75300
H  52.81400 29.96300 45.03100
H  48.78200 26.13900 43.99100
H  46.23100 27.50400 40.97400
H  47.62800 27.39400 39.92800
H  47.27900 28.92300 41.02700

