158

Mg 17.16900 52.85500 25.75200
C  18.95500 51.37100 28.52600
C  14.72400 53.70100 27.97800
C  15.37900 53.95600 23.17900
C  19.56800 51.51600 23.61000
N  16.85600 52.47500 27.95300
C  17.81400 52.10100 28.89500
C  17.30800 52.41600 30.29900
C  15.84800 52.89300 30.01200
C  15.75100 52.98000 28.54000
C  14.76800 51.94300 30.66600
C  18.19800 53.59500 31.02100
C  18.03600 53.87600 32.55800
H  17.12100 53.09300 33.42400
N  15.31900 53.80600 25.64800
C  14.44000 54.02500 26.67400
C  13.22400 54.66200 26.08200
C  13.39800 54.79100 24.68000
C  14.73800 54.13500 24.45000
C  12.00700 55.01900 26.84700
C  12.48100 55.34000 23.60500
O  12.81500 55.37200 22.41000
C  11.21600 55.92600 23.97200
N  17.37900 52.51000 23.67500
C  16.52000 53.23100 22.86100
C  17.02600 53.06100 21.41200
C  18.43700 52.27400 21.53700
C  18.42700 51.99000 22.98800
C  16.03100 52.30700 20.52000
C  19.63000 52.99300 20.92800
C  20.42700 52.36600 19.78100
N  18.91000 51.63800 25.91100
C  19.82500 51.32100 24.98900
C  20.98100 50.58600 25.59000
C  20.70600 50.64400 27.03300
C  19.40600 51.20600 27.13400
C  22.10200 50.03300 24.79800
C  21.09700 50.28200 28.41100
O  22.12000 49.73500 28.76500
C  20.03500 50.77000 29.35500
C  19.56100 49.51500 30.11700
O  19.25000 48.45200 29.52500
O  19.45300 49.74800 31.45900
C  18.83800 48.58600 32.20700
H  13.98500 54.08300 28.68600
H  14.73000 54.31000 22.37500
H  20.35600 51.22900 22.91000
H  17.42800 51.53400 30.92900
H  15.83100 53.81300 30.59600
H  15.16300 51.04400 31.13800
H  14.04500 51.76700 29.87000
H  14.27500 52.52700 31.44300
H  18.03600 54.53000 30.48300
H  19.25000 53.38400 30.83000
H  17.81700 54.93500 32.69600
H  18.98800 53.70200 33.05900
H  11.67200 56.02900 26.61100
H  12.27200 55.09200 27.90100
H  11.15200 54.34500 26.78300
H  11.42500 56.76700 24.63300
H  10.59500 55.16800 24.45100
H  10.78100 56.24600 23.02500
H  17.26800 54.09000 21.14400
H  18.38400 51.33100 20.99200
H  15.49900 52.92800 19.79900
H  15.27000 51.78200 21.09700
H  16.52000 51.61900 19.83000
H  20.35500 53.16200 21.72400
H  19.44500 54.02700 20.63600
H  20.49300 53.10200 18.97900
H  19.94200 51.45600 19.42900
H  21.42700 52.09900 20.12400
H  21.82200 50.02400 23.74500
H  22.18600 48.98100 25.07100
H  23.06500 50.54400 24.79800
H  20.51500 51.47400 30.03400
H  18.94300 48.88500 33.25000
H  19.34400 47.63800 32.02500
H  17.77100 48.47100 32.01600
Mg -4.75400 25.45100 26.33600
C  -3.48700 26.96900 29.23000
C  -6.68500 23.45300 28.26600
C  -5.48300 23.82200 23.59600
C  -2.34900 27.47700 24.58400
N  -4.95800 25.29300 28.51900
C  -4.40900 25.99400 29.47500
C  -5.01700 25.61600 30.86500
C  -5.73700 24.31900 30.48700
C  -5.80600 24.33900 28.95900
C  -5.03600 23.00300 30.98900
C  -5.84700 26.81700 31.46500
C  -5.63300 27.00100 32.98900
H  -5.35700 25.65400 33.71600
N  -6.06100 23.89100 25.95800
C  -6.82700 23.25800 26.83300
C  -7.87000 22.37800 26.13900
C  -7.43900 22.36000 24.71700
C  -6.31100 23.38700 24.67400
C  -9.00600 21.57600 26.82700
C  -7.97900 21.64700 23.54600
O  -7.42500 21.70200 22.45600
C  -9.21000 20.70800 23.72900
N  -4.22500 25.81100 24.39700
C  -4.56600 24.91400 23.43300
C  -3.90700 25.19400 22.04500
C  -2.96100 26.37800 22.39100
C  -3.20300 26.64000 23.86700
C  -3.08700 24.01800 21.49300
C  -3.19400 27.68400 21.56100
C  -1.87500 28.36100 21.05000
N  -3.22900 26.92400 26.75100
C  -2.41500 27.69100 25.94300
C  -1.68000 28.66600 26.75500
C  -2.06500 28.39800 28.09600
C  -2.96500 27.34200 28.02000
C  -0.61000 29.64100 26.35100
C  -1.85800 28.81200 29.45600
O  -1.11900 29.67500 29.96500
C  -2.67100 27.74800 30.30700
C  -1.80900 26.97900 31.16100
O  -0.99000 26.19900 30.75300
O  -2.12100 27.19500 32.40800
C  -1.26100 26.52300 33.36500
H  -7.44100 22.92900 28.85500
H  -5.71100 23.24400 22.69800
H  -1.54900 28.01700 24.07400
H  -4.11800 25.38200 31.43600
H  -6.73000 24.16700 30.90900
H  -4.21700 23.13500 31.69600
H  -4.60500 22.48800 30.13000
H  -5.81900 22.34500 31.36400
H  -6.88300 26.51700 31.31000
H  -5.74100 27.77000 30.94800
H  -6.54000 27.35000 33.48300
H  -4.79900 27.69300 33.10700
H  -9.87700 22.07600 26.40200
H  -9.07900 21.65700 27.91200
H  -9.11900 20.53400 26.52900
H  -9.90700 21.37100 24.24200
H  -8.88600 19.97000 24.46300
H  -9.42500 20.09400 22.85400
H  -4.64600 25.42700 21.27800
H  -1.92100 26.13300 22.17500
H  -2.01400 24.09000 21.66500
H  -3.25300 23.85000 20.42900
H  -3.39600 23.10200 21.99800
H  -3.81800 28.32800 22.18000
H  -3.71800 27.41900 20.64300
H  -1.90000 29.43900 21.20700
H  -1.94700 28.21600 19.97200
H  -0.94200 27.90600 21.38000
H  -0.93700 30.68000 26.33100
H  -0.27400 29.43000 25.33600
H  0.16200 29.57000 27.11700
H  -3.39500 28.37100 30.83200
H  -0.28800 26.99500 33.49600
H  -0.95900 25.51000 33.09900
H  -1.79800 26.42000 34.30800

