158

Mg 1.80400 8.20300 26.29200
C  2.36400 10.31800 28.91700
C  2.92200 5.42100 28.41000
C  1.64600 6.15000 23.60700
C  1.63600 10.94800 24.19700
N  2.54400 7.92800 28.36600
C  2.48500 8.91600 29.33000
C  2.65000 8.33200 30.73900
C  3.04100 6.89600 30.51600
C  2.91900 6.75600 29.00000
C  4.35600 6.41700 31.14900
C  1.42600 8.62300 31.66600
C  1.62700 8.68800 33.20000
H  2.86400 7.90600 33.84600
N  2.19100 6.11500 26.00400
C  2.57800 5.15800 27.01900
C  2.63200 3.87800 26.37900
C  2.22200 3.94800 25.01600
C  1.93800 5.40100 24.82300
C  3.15200 2.63900 27.10300
C  2.02000 2.91000 23.99200
O  1.70100 3.14000 22.81500
C  2.17900 1.41800 24.32400
N  1.67100 8.53900 24.22700
C  1.64400 7.54600 23.32500
C  1.66900 8.05600 21.85200
C  1.39800 9.58600 22.12800
C  1.61500 9.72500 23.61500
C  2.98200 7.74600 21.00600
C  -0.00300 10.13700 21.56100
C  0.09400 11.24500 20.55200
N  1.86200 10.18700 26.49300
C  1.86900 11.19600 25.55300
C  1.97400 12.47000 26.14700
C  2.11100 12.18100 27.54800
C  2.16900 10.78900 27.62900
C  2.08900 13.79900 25.52700
C  2.40700 12.71200 28.85300
O  2.58400 13.84800 29.25700
C  2.31300 11.53300 29.77900
C  3.34500 11.60100 30.81900
O  4.57600 11.48700 30.55900
O  2.82000 11.57400 32.09600
C  3.93200 11.47400 33.12500
H  3.15200 4.61200 29.10700
H  1.82500 5.61700 22.67100
H  1.51400 11.71600 23.43000
H  3.46700 8.81300 31.27800
H  2.18600 6.37100 30.94100
H  4.95500 6.03500 30.32200
H  4.18000 5.57100 31.81300
H  4.89400 7.20800 31.67200
H  0.61900 7.92600 31.43700
H  0.90000 9.50100 31.29100
H  0.75600 8.10200 33.49400
H  1.53800 9.67700 33.64900
H  2.29300 2.09500 27.49600
H  3.69500 3.11400 27.92000
H  3.74700 1.97700 26.47500
H  1.52500 1.18000 25.16300
H  3.24000 1.18600 24.41000
H  1.94700 0.82700 23.43800
H  0.87200 7.55400 21.30400
H  2.27600 10.14000 21.79500
H  2.84400 7.29900 20.02100
H  3.61000 7.14600 21.66500
H  3.47200 8.70900 20.86100
H  -0.52900 10.57000 22.41200
H  -0.65600 9.34700 21.18900
H  -0.59500 10.99500 19.74500
H  1.11100 11.51700 20.26800
H  -0.38600 12.13600 20.95600
H  1.99800 13.64200 24.45300
H  3.02000 14.32000 25.74700
H  1.22100 14.34900 25.89300
H  1.35300 11.47400 30.29100
H  4.48100 10.54600 32.96700
H  3.49200 11.47200 34.12200
H  4.58200 12.34900 33.16400
Mg 7.34300 57.67900 41.58600
C  6.44400 54.29200 41.51100
C  10.42900 56.70100 40.20300
C  8.04300 60.86200 41.04200
C  4.18400 58.46800 42.57500
N  8.37600 55.65000 40.86600
C  7.77100 54.42600 41.03500
C  8.69600 53.35900 40.54000
C  10.08000 54.08300 40.42500
C  9.67500 55.55800 40.51300
C  11.10000 53.69500 41.44500
C  8.28700 52.64700 39.19700
C  8.53200 51.14100 39.03800
H  8.74200 50.49600 37.68400
N  8.97900 58.67100 40.70900
C  10.11300 58.08900 40.24400
C  11.00300 59.08700 39.75400
C  10.44300 60.36900 39.92800
C  9.09900 59.97700 40.61200
C  12.38000 58.74500 39.26500
C  11.04000 61.70200 39.49500
O  12.20200 61.85000 39.18500
C  10.10500 62.82500 39.60400
N  6.18500 59.44300 41.71000
C  6.78300 60.63800 41.52300
C  5.82600 61.79800 42.09300
C  4.63700 60.97200 42.66000
C  5.01000 59.53900 42.30900
C  6.46200 62.79400 43.16500
C  3.28200 61.49500 42.17000
C  2.17400 61.84000 43.22900
N  5.59500 56.64900 42.00600
C  4.39900 57.06700 42.44300
C  3.57700 55.91900 42.85000
C  4.33600 54.80900 42.37900
C  5.53900 55.30100 41.99800
C  2.22800 55.93800 43.40800
C  4.32700 53.35300 42.31600
O  3.58800 52.43400 42.61900
C  5.69300 53.01500 41.63400
C  5.22000 52.24500 40.39200
O  4.79500 52.70800 39.35700
O  5.44000 50.89900 40.67200
C  4.97100 49.90300 39.64600
H  11.39000 56.37700 39.79900
H  8.25200 61.93100 40.95600
H  3.18400 58.77700 42.88500
H  8.90300 52.58000 41.27400
H  10.56700 53.96500 39.45700
H  11.12500 52.71000 41.91000
H  11.09500 54.44700 42.23400
H  12.11600 53.77700 41.05900
H  8.84900 53.14100 38.40400
H  7.24400 52.82100 38.93400
H  7.62500 50.67000 39.41600
H  9.36900 50.83000 39.66200
H  12.51200 57.81900 38.70500
H  13.06000 58.90300 40.10200
H  12.77300 59.51500 38.60100
H  9.80400 62.98200 40.64000
H  9.19900 62.43300 39.14200
H  10.48500 63.75700 39.18700
H  5.45000 62.35900 41.23700
H  4.60900 60.94700 43.74900
H  6.33000 63.80600 42.78100
H  7.52600 62.61000 43.31100
H  5.94900 62.85300 44.12500
H  2.74100 60.73300 41.61000
H  3.37900 62.42600 41.61000
H  1.37800 62.39100 42.72700
H  2.42300 62.46300 44.08900
H  1.74800 60.93700 43.66600
H  1.45900 56.43300 42.81500
H  2.25600 56.49000 44.34800
H  1.94400 54.89500 43.55200
H  6.22300 52.30600 42.27000
H  5.83200 49.26800 39.43800
H  4.74300 50.35700 38.68100
H  4.08500 49.41400 40.05000

