158

Mg 47.34600 25.95000 28.95100
C  48.80000 28.00400 31.53500
C  46.33500 23.77700 31.35900
C  46.78200 23.60900 26.60900
C  48.87900 28.00300 26.59500
N  47.57800 25.89900 31.24200
C  48.10800 26.90500 32.04700
C  47.89300 26.54000 33.49300
C  47.00500 25.28200 33.36100
C  46.98300 24.90400 31.91800
C  47.32300 23.97200 34.16400
C  47.19300 27.71400 34.31100
C  46.28200 27.38600 35.52300
H  46.85900 27.59900 36.94500
N  46.49900 24.01900 28.94600
C  46.18900 23.28000 30.02900
C  45.55800 21.99200 29.63500
C  45.58500 22.05000 28.19900
C  46.33100 23.26600 27.83300
C  44.85400 21.02300 30.55900
C  44.94700 21.00600 27.12700
O  45.04400 21.08000 25.90700
C  44.29900 19.72000 27.65600
N  47.92600 25.78400 26.94600
C  47.47400 24.76400 26.18300
C  47.79300 25.05000 24.70200
C  47.81800 26.59700 24.68700
C  48.37300 26.79500 26.14900
C  49.08100 24.33600 24.19900
C  46.40600 27.17200 24.56000
C  46.22400 28.05800 23.26700
N  48.55900 27.69400 28.99200
C  49.08900 28.41100 27.95300
C  49.78500 29.56600 28.46900
C  49.65800 29.46000 29.86000
C  48.91900 28.30300 30.12700
C  50.49400 30.50400 27.63000
C  50.06400 30.08100 31.14800
O  50.78300 31.07200 31.34600
C  49.40200 29.15300 32.28900
C  50.44900 28.75000 33.18800
O  51.36500 28.03000 32.87600
O  50.17400 29.23000 34.43500
C  50.92600 28.51200 35.47500
H  45.78400 23.14700 32.06100
H  46.56700 22.86200 25.84200
H  49.00400 28.70800 25.77000
H  48.81500 26.19200 33.96000
H  45.95900 25.53400 33.53100
H  48.02100 24.21800 34.96500
H  47.94500 23.25600 33.62900
H  46.46600 23.41000 34.53700
H  46.73800 28.46200 33.66100
H  48.01400 28.25700 34.78000
H  45.87700 26.37800 35.62100
H  45.37200 27.96300 35.36000
H  43.79600 20.96100 30.30400
H  44.80400 21.39700 31.58100
H  45.12800 19.96900 30.49900
H  45.06300 19.00600 27.96200
H  43.65300 19.25800 26.90900
H  43.74100 20.05400 28.53000
H  47.01900 24.74700 23.99700
H  48.52700 27.02200 23.97600
H  49.44700 23.69000 24.99700
H  49.75000 25.06900 23.74900
H  48.90800 23.68000 23.34600
H  46.30400 27.79600 25.44800
H  45.68900 26.37000 24.73700
H  45.14100 28.14400 23.17800
H  46.59900 27.55200 22.37700
H  46.59600 29.07500 23.39000
H  49.95700 31.45200 27.60300
H  50.71000 30.09700 26.64200
H  51.46100 30.79800 28.03900
H  48.56300 29.58100 32.83900
H  51.27500 27.54100 35.12400
H  50.26500 28.36900 36.33000
H  51.67200 29.21800 35.84200
Mg -13.15600 16.04800 41.70400
C  -10.23000 14.34400 41.07400
C  -11.74400 18.84800 40.16900
C  -16.10400 17.70800 41.96000
C  -14.77700 13.05300 42.47300
N  -11.13600 16.52000 40.82800
C  -10.12000 15.68600 40.64000
C  -8.97900 16.27100 39.85400
C  -9.44600 17.76700 39.86700
C  -10.89200 17.74700 40.35700
C  -8.61400 18.77400 40.67400
C  -8.63200 15.57100 38.46700
C  -7.11000 15.23800 38.16700
H  -6.48200 15.90100 36.91600
N  -13.82300 17.99100 41.21800
C  -13.12400 18.95100 40.52600
C  -13.98200 20.04400 40.28500
C  -15.19700 19.89800 40.92000
C  -15.12300 18.54200 41.42900
C  -13.48300 21.34100 39.57200
C  -16.29400 20.92700 40.95300
O  -16.10200 21.99600 40.42900
C  -17.58100 20.71700 41.73000
N  -15.18100 15.46700 42.05300
C  -16.17000 16.35700 42.34400
C  -17.41700 15.68700 42.92300
C  -16.88100 14.22300 43.23800
C  -15.48100 14.22900 42.60900
C  -18.24500 16.45300 43.99900
C  -17.88100 13.05300 42.86300
C  -18.43500 12.18400 43.99100
N  -12.65800 14.05900 41.84100
C  -13.40100 12.93600 42.08900
C  -12.55900 11.77000 42.02200
C  -11.23400 12.27100 41.67500
C  -11.39500 13.64100 41.49400
C  -12.96600 10.28800 41.99900
C  -9.85100 11.91500 41.46200
O  -9.29100 10.81700 41.57300
C  -9.14000 13.22000 40.92800
C  -7.92900 13.47600 41.66800
O  -7.84900 14.03200 42.71300
O  -6.81700 12.89500 41.12500
C  -5.59600 13.04400 41.97600
H  -11.22600 19.71000 39.74400
H  -17.04300 18.24900 42.09000
H  -15.26200 12.18600 42.92700
H  -8.06800 16.17100 40.44400
H  -9.62700 18.11100 38.84900
H  -9.25800 19.36500 41.32400
H  -8.05700 19.40100 39.97800
H  -7.89400 18.17900 41.23500
H  -8.92500 16.08900 37.55400
H  -9.23700 14.66400 38.47700
H  -7.18300 14.15000 38.15500
H  -6.59000 15.49600 39.09000
H  -13.54700 22.18000 40.26500
H  -14.02900 21.36200 38.62900
H  -12.47000 21.28200 39.17400
H  -18.16500 21.61600 41.53100
H  -17.37500 20.39600 42.75100
H  -18.02200 19.90200 41.15500
H  -18.05900 15.65300 42.04300
H  -16.68100 14.14300 44.30700
H  -17.71600 17.39600 44.14000
H  -18.21000 16.01200 44.99600
H  -19.29100 16.57800 43.72100
H  -17.34700 12.43600 42.14000
H  -18.80500 13.48600 42.48000
H  -19.46600 11.86100 43.84500
H  -18.27000 12.50500 45.02000
H  -17.80300 11.29700 43.95400
H  -12.19700 9.68800 42.48600
H  -13.07700 9.97900 40.96000
H  -13.93900 10.07700 42.44100
H  -8.75500 13.10900 39.91400
H  -5.29300 14.08900 41.90600
H  -4.76100 12.40500 41.69000
H  -5.77300 12.85700 43.03500

