158

Mg -1.58800 18.21200 27.76100
C  -2.03500 15.94300 30.35100
C  -2.39900 20.75200 29.74400
C  -1.32500 20.20700 24.91200
C  -1.32600 15.41400 25.63500
N  -2.03000 18.27100 29.81000
C  -2.13800 17.28400 30.76500
C  -2.56200 17.88500 32.17800
C  -2.89300 19.34800 31.86700
C  -2.49100 19.47600 30.38800
C  -4.42300 19.68500 31.99800
C  -1.42900 17.75200 33.25700
C  -1.83300 17.31900 34.61500
H  -0.69000 17.09100 35.67000
N  -1.85000 20.25900 27.39200
C  -2.13500 21.10400 28.36600
C  -2.04500 22.49100 27.83700
C  -1.74500 22.37400 26.45700
C  -1.63600 20.86800 26.19000
C  -2.36100 23.79600 28.58600
C  -1.53000 23.42100 25.42200
O  -1.33800 23.08800 24.25300
C  -1.40900 24.87100 25.78300
N  -1.20400 17.89300 25.64400
C  -1.10200 18.87600 24.68100
C  -0.69000 18.25800 23.28800
C  -0.61700 16.70900 23.58000
C  -1.11300 16.65900 25.05400
C  -1.73100 18.59300 22.18300
C  0.72900 16.09100 23.38700
C  1.96600 16.78100 24.12000
N  -1.65800 16.10800 27.92400
C  -1.58500 15.10000 26.96000
C  -1.84500 13.83400 27.61200
C  -1.97200 14.12300 28.89600
C  -1.85800 15.44800 29.02900
C  -1.86000 12.49800 26.85300
C  -2.17500 13.56100 30.26200
O  -2.21400 12.40800 30.65400
C  -2.18400 14.68100 31.23300
C  -1.04300 14.42700 32.10900
O  0.13400 14.72500 31.89800
O  -1.53100 13.66000 33.09500
C  -0.45300 13.18000 33.95800
H  -2.61400 21.62100 30.36900
H  -1.16600 20.74300 23.97400
H  -1.34400 14.60200 24.90600
H  -3.44700 17.36400 32.54300
H  -2.35400 20.03900 32.51600
H  -4.57600 20.42200 32.78600
H  -4.98600 18.79300 32.27400
H  -4.87700 20.14300 31.11900
H  -0.88000 18.68500 33.38800
H  -0.70000 17.03500 32.87900
H  -2.57700 16.52700 34.53000
H  -2.31000 18.20700 35.02900
H  -1.51600 24.46800 28.73300
H  -2.58200 23.46200 29.59900
H  -3.29500 24.24900 28.25200
H  -0.43900 24.95800 26.27200
H  -2.23800 25.23900 26.38900
H  -1.44100 25.34100 24.80000
H  0.32200 18.48400 22.95200
H  -1.29100 16.23600 22.86500
H  -2.53500 19.14300 22.67300
H  -2.03700 17.62500 21.78700
H  -1.40600 19.30100 21.42000
H  0.85600 16.18800 22.30900
H  0.59700 15.01500 23.49400
H  1.62100 17.19900 25.06600
H  2.29300 17.62400 23.51100
H  2.78600 16.08200 24.28600
H  -0.99200 12.39800 26.20100
H  -2.79200 12.46300 26.28900
H  -1.79500 11.65800 27.54400
H  -3.17200 14.54900 31.67300
H  0.31700 12.74200 33.32400
H  -0.86800 12.39600 34.59300
H  0.05200 13.84500 34.65900
Mg -10.25100 39.87000 39.45200
C  -9.26000 36.48800 38.54600
C  -7.13000 40.89300 38.23600
C  -11.49300 43.02400 39.17400
C  -13.42400 38.66900 39.92000
N  -8.41500 38.76600 38.46700
C  -8.26200 37.43600 38.22800
C  -6.90500 37.21200 37.55000
C  -6.10800 38.54200 37.79000
C  -7.24300 39.44000 38.28500
C  -4.79600 38.49600 38.65600
C  -7.02600 36.68900 36.11300
C  -7.42200 37.74200 35.01100
H  -8.53000 37.61400 34.02900
N  -9.38800 41.73900 38.88700
C  -8.08700 41.85500 38.48900
C  -7.93600 43.32100 38.29500
C  -9.08700 44.01200 38.79600
C  -10.09300 42.94800 38.97000
C  -6.69100 43.93400 37.74200
C  -9.32500 45.52900 38.91800
O  -8.42500 46.33700 38.67000
C  -10.69800 46.18100 39.30400
N  -12.16000 40.67500 39.37000
C  -12.47200 42.03800 39.41700
C  -13.95100 42.38300 39.73500
C  -14.41300 40.92900 40.09700
C  -13.32200 40.01200 39.71200
C  -14.22900 43.49000 40.79400
C  -15.80600 40.56400 39.39700
C  -15.83700 39.96900 37.98000
N  -11.14500 37.92400 39.51100
C  -12.43900 37.66300 39.76400
C  -12.63100 36.27400 39.83700
C  -11.40100 35.72500 39.34400
C  -10.51700 36.82700 39.13500
C  -13.85400 35.59400 40.34300
C  -10.74800 34.52400 38.97300
O  -11.01100 33.34300 38.98900
C  -9.33700 35.00900 38.45200
C  -8.28900 34.28100 39.17700
O  -8.09100 34.34100 40.35700
O  -7.50700 33.59900 38.26300
C  -6.29800 33.01300 38.70800
H  -6.12300 41.19600 37.94100
H  -11.90100 44.03400 39.24800
H  -14.40100 38.25700 40.18200
H  -6.39900 36.50400 38.20600
H  -5.80200 39.02900 36.86400
H  -4.67300 37.47700 39.02100
H  -4.82700 39.11400 39.55400
H  -3.91100 38.73300 38.06600
H  -7.63900 35.78800 36.08200
H  -6.03900 36.33600 35.81200
H  -6.54700 37.67000 34.36500
H  -7.47500 38.72800 35.47200
H  -5.91100 43.95600 38.50400
H  -6.88000 44.96400 37.44200
H  -6.35000 43.27300 36.94500
H  -11.08900 45.60300 40.14100
H  -11.33900 45.92900 38.45900
H  -10.60200 47.26200 39.40800
H  -14.49400 42.66900 38.83500
H  -14.63500 41.00100 41.16200
H  -13.18300 43.64600 41.05900
H  -14.89000 43.26000 41.63000
H  -14.69400 44.29600 40.22600
H  -16.32900 41.51900 39.35400
H  -16.29700 39.93300 40.13800
H  -15.92700 38.88200 37.96900
H  -14.86500 40.11600 37.51000
H  -16.59700 40.45900 37.37200
H  -13.72000 34.56300 40.67000
H  -14.58700 35.64500 39.53800
H  -14.21400 36.21900 41.16000
H  -9.25100 34.70900 37.40800
H  -6.48100 32.00400 39.07600
H  -5.72600 33.60000 39.42700
H  -5.68900 33.12700 37.81200

