158

Mg 56.49800 22.87800 45.21000
C  54.80100 25.70300 44.33800
C  53.85900 20.99200 43.88400
C  58.52200 20.15100 45.15400
C  59.28700 24.84200 45.89000
N  54.58000 23.33800 43.98400
C  54.06900 24.58900 43.85000
C  52.68800 24.47600 43.09100
C  52.31000 23.02200 43.38500
C  53.65400 22.38400 43.71500
C  51.20800 22.98000 44.47100
C  52.87400 24.78200 41.53300
C  51.68000 25.53700 40.88700
H  50.91900 24.80800 39.84400
N  56.15900 20.88000 44.76300
C  55.04200 20.29200 44.28900
C  55.18000 18.82500 44.19200
C  56.46600 18.56600 44.64000
C  57.10900 19.88700 44.93900
C  54.16000 17.83700 43.53600
C  57.08200 17.17300 44.74500
O  56.43900 16.13600 44.55500
C  58.39400 17.04300 45.40100
N  58.65700 22.54600 45.39000
C  59.22700 21.26000 45.45300
C  60.76100 21.36500 45.59700
C  60.94000 22.89700 45.84600
C  59.56600 23.49500 45.68800
C  61.33500 20.37500 46.66100
C  62.03400 23.57000 45.08600
C  63.27400 24.11600 45.82800
N  56.92800 24.87700 45.40400
C  58.11500 25.57900 45.64200
C  57.84600 26.98100 45.69300
C  56.52900 27.06000 45.19100
C  56.05100 25.74000 44.94200
C  58.81500 27.99800 46.26500
C  55.53700 27.99600 44.81100
O  55.54100 29.17000 44.80800
C  54.39900 27.14300 44.27100
C  53.99600 27.72000 42.92000
O  54.74800 27.74300 41.97400
O  52.71800 28.19200 43.13100
C  52.03200 28.93000 42.05200
H  53.00900 20.42800 43.49500
H  59.20600 19.30400 45.05700
H  60.18600 25.41200 46.13600
H  51.98500 25.16300 43.56300
H  51.90400 22.58200 42.47400
H  51.42700 22.01600 44.93000
H  50.15100 22.93600 44.21000
H  51.34800 23.78000 45.19800
H  52.99000 23.81800 41.03700
H  53.80700 25.33600 41.43200
H  52.00800 26.52100 40.55100
H  50.98200 25.83300 41.67000
H  53.24300 18.31800 43.19400
H  53.92700 17.10300 44.30600
H  54.71600 17.30600 42.76300
H  58.55500 17.75200 46.21300
H  59.22600 17.04200 44.69700
H  58.49500 16.05600 45.85300
H  61.27400 21.08400 44.67800
H  61.09500 23.08800 46.90800
H  62.15400 20.89000 47.16300
H  61.73300 19.47300 46.19600
H  60.62800 20.07500 47.43500
H  61.71400 24.33100 44.37400
H  62.45000 22.79100 44.44800
H  63.16000 23.94900 46.89900
H  63.64800 25.12600 45.65900
H  64.08200 23.48900 45.45300
H  58.45300 28.97700 45.95300
H  59.88800 27.89800 46.10200
H  58.73100 28.06200 47.35000
H  53.61100 27.34700 44.99600
H  52.51100 28.80200 41.08100
H  51.98700 30.00100 42.25000
H  51.04000 28.50100 41.91300
Mg 47.66800 24.66800 28.19200
C  48.54500 27.25000 30.63900
C  47.12200 22.55700 30.79200
C  47.12600 22.31400 25.89500
C  48.55500 26.96500 25.71300
N  48.02100 24.90800 30.50100
C  48.21200 26.02900 31.28300
C  47.80200 25.77600 32.76400
C  47.69600 24.21300 32.82700
C  47.50800 23.86000 31.32200
C  48.97000 23.54000 33.39900
C  46.49200 26.50500 33.16900
C  46.53900 27.29800 34.53300
H  47.17200 26.65200 35.71500
N  46.97200 22.78100 28.30800
C  46.83100 22.07700 29.49800
C  46.39600 20.73900 29.11500
C  46.36600 20.67300 27.74800
C  46.81800 21.93700 27.27500
C  45.98100 19.65000 30.19700
C  45.91400 19.48400 26.82900
O  45.66900 19.53000 25.67700
C  45.98300 18.13100 27.55900
N  47.84600 24.59800 26.09900
C  47.59200 23.47600 25.34200
C  47.64300 23.76500 23.81100
C  48.26200 25.24200 23.76700
C  48.16300 25.66500 25.27600
C  48.38100 22.70600 22.99800
C  47.57000 26.36300 22.80000
C  48.58700 27.26300 22.11500
N  48.42300 26.64700 28.13600
C  48.66300 27.43000 26.97900
C  49.13100 28.74200 27.42100
C  49.10100 28.68500 28.84000
C  48.66000 27.43300 29.21600
C  49.59600 29.89600 26.53000
C  49.33400 29.49200 30.04700
O  49.76200 30.65400 30.16600
C  48.87200 28.65400 31.30500
C  49.88500 28.46200 32.33000
O  50.95800 27.91400 32.21100
O  49.41600 29.12400 33.43200
C  49.92400 28.78200 34.80000
H  46.96100 21.86600 31.62200
H  46.90400 21.65600 25.05200
H  48.64000 27.75100 24.95900
H  48.59900 26.16500 33.39800
H  46.85900 23.92300 33.46200
H  49.23800 24.18400 34.23600
H  49.79800 23.53600 32.69000
H  48.85000 22.51800 33.76000
H  45.63800 25.83000 33.21300
H  46.17100 27.29200 32.48700
H  45.47800 27.32200 34.78300
H  46.95100 28.29400 34.37100
H  46.62400 18.77000 30.20500
H  44.99600 19.21300 30.02600
H  45.99400 20.04900 31.21100
H  45.86400 17.38400 26.77400
H  45.16500 18.02100 28.27100
H  46.98500 18.11100 27.98700
H  46.59700 23.94100 23.55900
H  49.32300 25.09700 23.56300
H  47.60600 22.28300 22.35800
H  48.89000 21.97900 23.63100
H  49.04200 23.19000 22.28000
H  46.95700 27.07100 23.35700
H  46.88900 26.04100 22.01200
H  48.63100 28.30700 22.42600
H  48.48800 27.20800 21.03100
H  49.58000 26.88100 22.35000
H  49.78300 30.67000 27.27400
H  48.81100 30.21800 25.84500
H  50.56100 29.70900 26.05900
H  48.02900 29.13800 31.79900
H  50.53300 27.87900 34.82900
H  49.12500 28.77700 35.54100
H  50.65600 29.51400 35.14200

