158

Mg 41.22000 8.13300 29.71400
C  43.19600 9.62900 32.32000
C  39.05500 7.02400 32.11100
C  39.69600 6.46000 27.22900
C  43.88200 8.81500 27.57700
N  41.12800 8.36800 31.92000
C  42.00200 9.01300 32.78900
C  41.45700 9.06200 34.20500
C  40.26800 8.00900 34.14900
C  40.15400 7.73600 32.61700
C  40.48600 6.70300 34.96000
C  41.13700 10.51900 34.59200
C  40.44400 10.59200 35.94000
H  40.81400 11.52000 37.03400
N  39.55800 7.01400 29.64500
C  38.71200 6.65900 30.77500
C  37.55600 5.86100 30.29800
C  37.61700 5.90600 28.87200
C  39.00900 6.46500 28.52300
C  36.54600 5.19200 31.26300
C  36.69100 5.53200 27.78500
O  36.87600 5.58700 26.57000
C  35.35300 5.08300 28.16700
N  41.64700 7.84200 27.65000
C  40.93500 6.98500 26.84200
C  41.52400 6.86700 25.43500
C  42.86900 7.64400 25.54600
C  42.85000 8.11400 27.04000
C  41.61300 5.34900 24.94100
C  43.21000 8.69600 24.45800
C  42.53700 8.79400 23.09200
N  43.11600 9.07500 29.83800
C  44.01900 9.31700 28.87400
C  45.06300 10.12100 29.38800
C  44.73800 10.33200 30.69500
C  43.59800 9.61700 30.96900
C  46.21000 10.58800 28.60300
C  45.13700 11.03100 31.88500
O  46.06500 11.84900 32.02300
C  44.23500 10.51100 32.98100
C  44.95300 9.74800 34.02800
O  45.17000 8.52600 34.07500
O  45.14800 10.62500 35.03900
C  45.22900 10.10400 36.38800
H  38.35200 6.61300 32.83900
H  39.27100 5.80100 26.46900
H  44.74900 9.07300 26.96600
H  42.22500 8.73400 34.90500
H  39.34100 8.40000 34.56900
H  40.67700 5.83200 34.33400
H  39.65200 6.64800 35.66000
H  41.36700 6.85700 35.58200
H  40.66300 11.00700 33.74000
H  42.01500 11.14900 34.73300
H  40.34400 9.57100 36.30900
H  39.44600 10.90800 35.63500
H  36.09500 4.32300 30.78300
H  35.74700 5.88100 31.53600
H  37.01300 4.84200 32.18400
H  34.69300 5.02200 27.30100
H  34.93700 5.84400 28.82700
H  35.40800 4.10100 28.63800
H  40.77700 7.52600 24.99400
H  43.69000 6.93400 25.45100
H  42.58600 5.10000 24.51800
H  40.85900 5.11300 24.19000
H  41.44600 4.74300 25.83200
H  44.28800 8.85100 24.48400
H  42.85100 9.61800 24.91600
H  43.38400 8.93400 22.42000
H  41.92400 9.67100 22.88800
H  42.03200 7.84500 22.90900
H  46.05400 10.90800 27.57300
H  47.03300 9.87700 28.52400
H  46.50000 11.45200 29.20000
H  43.76200 11.41800 33.35700
H  44.25600 10.33900 36.81900
H  46.08500 10.59700 36.84900
H  45.29200 9.01700 36.42000
Mg 26.43300 51.37300 25.99800
C  24.00500 52.56800 28.26500
C  28.56300 50.67000 28.43300
C  28.63800 51.08700 23.61900
C  24.14700 52.83800 23.40000
N  26.36600 51.69900 28.09000
C  25.27200 52.03000 28.85800
C  25.38700 51.60300 30.33100
C  26.83600 50.96600 30.34000
C  27.35400 51.19400 28.89400
C  27.71600 51.59800 31.50300
C  24.25800 50.60700 30.74000
C  23.40100 51.02900 31.86500
H  23.36600 50.19500 33.13400
N  28.34300 50.74200 26.07800
C  29.10500 50.52600 27.15700
C  30.44400 50.16600 26.74600
C  30.47400 50.34000 25.32300
C  29.10500 50.76700 24.92500
C  31.53100 49.76800 27.69500
C  31.65900 50.22900 24.39700
O  31.60200 50.74000 23.26700
C  32.95900 49.70300 24.93800
N  26.30700 51.74000 23.81100
C  27.38800 51.42800 23.11900
C  27.14600 51.43300 21.59800
C  25.65000 51.88600 21.52600
C  25.38400 52.20400 22.94200
C  28.13600 52.40300 20.74200
C  24.67200 50.83200 20.95700
C  24.09100 51.18300 19.61200
N  24.48700 52.42000 25.82500
C  23.71500 52.93000 24.72600
C  22.43300 53.39200 25.21700
C  22.48100 53.27800 26.59300
C  23.78600 52.76200 26.90500
C  21.34900 53.97900 24.35600
C  21.77500 53.56700 27.78100
O  20.71000 54.03600 28.04700
C  22.75700 53.07600 28.88600
C  22.97600 54.16000 29.87100
O  23.70600 55.13200 29.74100
O  22.03200 54.10500 30.92900
C  22.32600 55.05300 32.01100
H  29.19700 50.25900 29.22100
H  29.33900 50.97600 22.78900
H  23.42100 53.15300 22.64800
H  25.44500 52.47900 30.97600
H  26.76500 49.89200 30.51500
H  27.21600 51.69100 32.46700
H  27.92200 52.65800 31.36000
H  28.62100 51.00900 31.65200
H  24.67700 49.64400 31.03100
H  23.65600 50.55100 29.83300
H  22.36300 50.99300 31.53300
H  23.67100 52.02400 32.21900
H  32.35800 50.47600 27.63100
H  31.87800 48.74400 27.56100
H  31.13200 49.86300 28.70400
H  32.84000 48.70900 25.36800
H  33.38000 50.40700 25.65600
H  33.48800 49.71000 23.98500
H  27.22500 50.43300 21.17000
H  25.55800 52.80400 20.94600
H  28.71600 52.98500 21.45800
H  27.71100 53.15100 20.07300
H  28.83500 51.76700 20.19700
H  23.89100 50.74600 21.71200
H  25.26400 49.92900 20.80900
H  24.47200 52.13000 19.23100
H  23.00200 51.16200 19.55900
H  24.36700 50.44300 18.86100
H  20.84700 53.37800 23.59700
H  21.68800 54.86300 23.81600
H  20.54000 54.21400 25.04800
H  22.23800 52.28700 29.43000
H  22.46500 54.42600 32.89100
H  21.48800 55.68400 32.30700
H  23.14000 55.76600 31.87900

