158

Mg 16.76500 -2.34100 28.97800
C  15.60300 -0.20600 31.53200
C  19.06100 -3.67600 31.10800
C  17.98800 -4.10900 26.41300
C  14.61700 -0.63900 26.77300
N  17.13600 -2.01400 31.12200
C  16.57100 -1.08800 31.98700
C  17.13700 -1.32500 33.36600
C  18.40100 -2.12400 33.15300
C  18.16100 -2.69800 31.69800
C  19.78000 -1.40500 33.31200
C  15.99300 -2.05200 34.17400
C  15.63000 -1.45500 35.48900
H  16.69900 -0.52600 36.17800
N  18.19700 -3.83700 28.83200
C  19.03700 -4.27000 29.82700
C  19.80100 -5.40600 29.37400
C  19.54000 -5.52900 27.91000
C  18.52300 -4.45500 27.62200
C  20.66900 -6.23100 30.22600
C  20.02300 -6.56000 26.83000
O  19.79000 -6.59700 25.59400
C  20.93400 -7.70800 27.29200
N  16.41600 -2.32200 26.85700
C  16.97100 -3.22200 26.02900
C  16.44100 -3.00200 24.62000
C  15.32700 -1.97700 24.75400
C  15.44100 -1.60800 26.24200
C  17.55000 -2.65400 23.53600
C  13.87000 -2.53500 24.48200
C  13.33700 -2.04200 23.11600
N  15.48800 -0.76100 29.10200
C  14.61500 -0.17200 28.15000
C  13.76700 0.87200 28.72400
C  14.07000 0.80400 30.07700
C  15.10300 -0.18200 30.23600
C  12.86600 1.78000 27.93200
C  13.83500 1.48600 31.38200
O  13.01400 2.36300 31.64400
C  14.81700 0.77400 32.39100
C  15.58500 1.88500 32.99000
O  16.67300 2.28400 32.60500
O  14.93800 2.34500 34.07500
C  15.58900 3.44600 34.88900
H  19.78000 -4.09700 31.81400
H  18.38000 -4.61700 25.52800
H  13.80800 -0.19700 26.18700
H  17.33800 -0.30900 33.70700
H  18.52700 -2.99600 33.79400
H  20.46900 -1.91900 33.98200
H  19.52100 -0.41400 33.68500
H  20.31100 -1.16700 32.39000
H  16.38600 -3.05500 34.34100
H  15.05600 -2.11200 33.62000
H  15.56500 -2.14400 36.33100
H  14.80400 -0.75000 35.39600
H  21.72800 -6.01800 30.07800
H  20.38600 -7.26300 30.01700
H  20.37900 -6.06100 31.26300
H  21.89100 -7.31400 27.63300
H  21.06900 -8.33400 26.41100
H  20.45400 -8.35700 28.02500
H  16.14600 -3.93100 24.13200
H  15.57400 -1.03800 24.25800
H  17.72100 -1.57800 23.54400
H  17.40900 -2.78000 22.46300
H  18.49700 -3.06400 23.88700
H  13.17300 -2.32600 25.29300
H  13.87400 -3.62000 24.38200
H  12.29000 -1.75100 23.20200
H  13.42900 -2.85900 22.40000
H  13.85000 -1.16200 22.73000
H  12.84200 2.73100 28.46500
H  11.92800 1.22600 27.93400
H  13.24300 1.85000 26.91200
H  14.14700 0.30300 33.11000
H  15.92600 3.07900 35.85800
H  14.89500 4.28500 34.94000
H  16.43000 3.92600 34.38900
Mg 6.40300 55.59200 39.95200
C  5.58600 52.11500 39.62300
C  9.65400 54.80900 39.15300
C  6.95100 58.85500 39.84300
C  2.92600 56.15900 40.73600
N  7.43000 53.63900 39.18900
C  6.97400 52.35900 39.32300
C  8.14400 51.37300 39.19400
C  9.48200 52.24200 39.26600
C  8.79800 53.64300 39.24000
C  10.50900 52.05400 40.41400
C  8.05000 50.46800 37.90000
C  7.41100 51.29800 36.70600
H  7.12000 50.56000 35.35700
N  8.11900 56.65600 39.45100
C  9.35300 56.19800 39.24900
C  10.26100 57.29000 39.07800
C  9.54900 58.52700 39.25100
C  8.12700 58.04200 39.45800
C  11.76600 57.13800 38.99100
C  10.13900 59.91600 39.23900
O  11.38400 59.93300 39.39800
C  9.34500 61.15700 39.04900
N  4.99500 57.33800 39.92200
C  5.65100 58.50400 40.17400
C  4.60800 59.56800 40.67300
C  3.31000 58.67100 40.95800
C  3.77100 57.28300 40.52500
C  4.98000 60.42000 41.82100
C  2.04000 59.03300 40.22100
C  0.76200 59.11400 41.02200
N  4.59700 54.44700 40.15100
C  3.28600 54.79200 40.55500
C  2.54100 53.60100 40.71200
C  3.40100 52.57300 40.39300
C  4.60500 53.10600 39.99500
C  1.06900 53.43700 41.06000
C  3.47500 51.08600 40.28300
O  2.65700 50.22700 40.55600
C  4.91100 50.81200 39.89500
C  4.93500 49.84000 38.72900
O  4.71400 50.04100 37.51100
O  5.34400 48.63200 39.22900
C  5.49600 47.41600 38.38800
H  10.71100 54.60200 38.97100
H  7.16100 59.92700 39.86400
H  1.96000 56.29800 41.22600
H  8.02100 50.75400 40.08200
H  10.12300 52.23700 38.38500
H  10.11500 51.26900 41.06000
H  10.62400 52.88000 41.11600
H  11.48200 51.75100 40.02900
H  7.60100 49.50800 38.15500
H  9.07700 50.20700 37.64500
H  8.15700 52.05500 36.46600
H  6.46200 51.75600 36.98700
H  12.07900 56.10800 38.81800
H  12.23500 57.37300 39.94600
H  12.25500 57.69700 38.19300
H  10.02000 62.00000 38.90400
H  8.78800 61.40300 39.95300
H  8.79300 61.15500 38.10900
H  4.47900 60.24800 39.83000
H  3.24600 58.55100 42.03900
H  4.03900 60.73500 42.27200
H  5.41400 61.35800 41.47600
H  5.61200 59.95400 42.57800
H  1.92000 58.45000 39.30800
H  2.23900 60.05200 39.89000
H  0.11900 59.92800 40.68500
H  1.00900 59.18400 42.08200
H  0.06900 58.29600 40.82700
H  0.78300 52.45500 41.43900
H  0.62300 53.65900 40.09100
H  0.76000 54.22100 41.75200
H  5.41400 50.31200 40.72300
H  4.99100 47.58100 37.43600
H  4.96600 46.59800 38.87700
H  6.54200 47.13500 38.26900

