158

Mg 1.34300 -0.74900 43.87100
C  4.76300 -0.18800 43.23400
C  0.65100 2.13900 42.25100
C  -1.70700 -1.74100 43.57700
C  2.37200 -4.04900 44.88800
N  2.65400 0.71400 42.91000
C  4.02800 0.81500 42.78700
C  4.39600 2.12500 42.02600
C  3.07400 2.85100 41.81900
C  1.99900 1.84500 42.38900
C  2.95100 4.14000 42.68700
C  5.35300 2.00800 40.77700
C  5.09000 0.88500 39.74900
H  5.41700 1.26400 38.31200
N  -0.33000 0.12500 43.19100
C  -0.42700 1.28500 42.56600
C  -1.79900 1.63800 42.39800
C  -2.55200 0.52500 42.87500
C  -1.48500 -0.42900 43.21000
C  -2.34400 2.91300 41.78800
C  -4.04100 0.46500 43.09100
O  -4.72700 1.46800 43.04400
C  -4.94000 -0.72900 43.61800
N  0.55200 -2.65200 43.88100
C  -0.79200 -2.68100 43.92500
C  -1.24600 -4.08800 44.34800
C  -0.03900 -4.70300 45.07500
C  1.00600 -3.78300 44.52100
C  -2.59600 -4.19900 45.23100
C  0.14500 -6.24700 44.92100
C  0.37200 -7.05600 46.21200
N  3.19100 -1.86900 44.24300
C  3.42000 -3.10200 44.72500
C  4.81700 -3.28400 44.99800
C  5.36000 -2.13500 44.40000
C  4.34500 -1.32400 43.89100
C  5.55700 -4.45600 45.61300
C  6.63300 -1.53900 44.07500
O  7.79500 -1.90100 44.29300
C  6.28100 -0.28000 43.25800
C  7.03400 0.89300 43.88500
O  6.57100 1.50300 44.82600
O  8.27800 1.05100 43.41800
C  9.19100 1.85900 44.26000
H  0.35300 3.09300 41.80900
H  -2.77600 -1.95300 43.64500
H  2.64300 -4.93900 45.46100
H  5.03500 2.57000 42.78900
H  3.05800 2.98700 40.73800
H  2.16500 4.03000 43.43400
H  2.63900 4.98100 42.06900
H  3.90900 4.39900 43.13800
H  6.36700 1.84200 41.14000
H  5.31200 3.02500 40.38900
H  4.09000 0.45800 39.83200
H  5.63500 -0.01200 40.04300
H  -3.36900 2.73300 41.46400
H  -1.70800 3.24000 40.96500
H  -2.63800 3.70600 42.47500
H  -4.80700 -1.57100 42.93800
H  -5.98800 -0.44600 43.51600
H  -4.55400 -0.87800 44.62600
H  -1.47500 -4.66100 43.45000
H  -0.14000 -4.31700 46.08900
H  -2.53500 -3.32700 45.88300
H  -2.38200 -5.07300 45.84500
H  -3.59700 -4.22700 44.80100
H  1.06800 -6.49100 44.39400
H  -0.65800 -6.73300 44.36600
H  0.41000 -6.39600 47.07900
H  1.20300 -7.76000 46.25500
H  -0.52600 -7.66000 46.34100
H  5.32400 -5.31800 44.98800
H  5.04800 -4.59600 46.56700
H  6.63500 -4.30200 45.63800
H  6.68400 -0.35500 42.24800
H  9.86800 2.49600 43.69000
H  9.71800 1.09900 44.83600
H  8.74200 2.60400 44.91700
Mg 9.14600 2.62300 27.65100
C  10.58700 1.17600 30.68900
C  7.19200 4.47900 29.67200
C  7.93900 3.95500 24.83400
C  10.63800 0.06700 25.83700
N  8.94900 2.79300 29.85200
C  9.76100 2.29500 30.87100
C  9.44600 2.92600 32.17700
C  8.17500 3.74700 31.92700
C  7.98000 3.63000 30.38400
C  6.88200 3.24000 32.63900
C  10.75400 3.72900 32.63000
C  10.95300 3.90300 34.12900
H  9.84100 3.45800 35.09800
N  7.81800 4.11900 27.35100
C  7.09600 4.77000 28.23600
C  6.39100 5.87700 27.57900
C  6.50300 5.67100 26.15800
C  7.47900 4.52700 26.03500
C  5.56900 6.89500 28.32400
C  5.92900 6.44100 24.99400
O  6.34200 6.34700 23.85400
C  4.91200 7.43500 25.36000
N  9.25400 2.11300 25.61500
C  8.67700 2.80300 24.63800
C  9.01000 2.26000 23.22000
C  9.93500 1.02600 23.57100
C  10.05300 1.09500 25.15100
C  7.83700 1.87300 22.28300
C  11.38900 0.87700 22.92200
C  11.57800 1.42100 21.54300
N  10.27500 0.89800 28.13100
C  10.78000 -0.04500 27.26300
C  11.58000 -0.98400 28.03700
C  11.56200 -0.55800 29.37500
C  10.73500 0.59700 29.38900
C  12.36600 -2.06000 27.44100
C  12.14700 -0.76300 30.72800
O  12.85000 -1.62000 31.11600
C  11.63800 0.39900 31.60500
C  11.10900 -0.14300 32.90300
O  10.05000 -0.77200 33.04900
O  12.04000 0.04300 33.88700
C  11.74400 -0.48600 35.21500
H  6.73400 5.21600 30.33600
H  7.61800 4.44100 23.91000
H  11.03500 -0.76500 25.25300
H  9.18700 2.09400 32.83100
H  8.29400 4.78600 32.23300
H  6.56300 4.02500 33.32400
H  7.00700 2.38100 33.29900
H  6.17800 2.90400 31.87800
H  10.71400 4.72500 32.19000
H  11.67400 3.26500 32.27400
H  10.99400 4.98200 34.27800
H  11.93100 3.55300 34.45900
H  5.57900 7.88000 27.85800
H  5.87000 6.99300 29.36700
H  4.52600 6.61600 28.46900
H  5.27100 8.40500 25.70200
H  4.19100 7.19400 26.14100
H  4.29700 7.47700 24.46100
H  9.63200 3.03100 22.76500
H  9.49200 0.04000 23.43400
H  6.96000 1.72200 22.91100
H  8.00600 1.02200 21.62300
H  7.68100 2.67300 21.55800
H  11.51800 -0.20100 23.01300
H  12.01400 1.35500 23.67700
H  12.55400 1.90400 21.53100
H  10.82500 2.15000 21.24400
H  11.65000 0.56200 20.87500
H  12.45100 -1.98900 26.35700
H  11.89600 -2.94500 27.87000
H  13.37300 -1.95300 27.84400
H  12.51600 1.03000 31.74800
H  10.88000 -1.14900 35.26700
H  11.48600 0.24400 35.98300
H  12.65700 -1.02400 35.46800

