158

Mg 16.88000 -2.29400 27.37000
C  15.64800 -0.13700 29.90300
C  19.08400 -3.49300 29.51300
C  18.13200 -4.11500 24.84200
C  14.71400 -0.59800 25.11700
N  17.31500 -1.86900 29.50600
C  16.67500 -0.97200 30.34800
C  17.23300 -1.20100 31.77700
C  18.53400 -2.05800 31.52300
C  18.33700 -2.46900 30.04000
C  19.88000 -1.43600 31.84600
C  16.17400 -1.93200 32.68700
C  16.17900 -1.71400 34.20000
H  17.37200 -0.88400 34.69700
N  18.35200 -3.61200 27.20900
C  19.15400 -4.03700 28.24600
C  20.11400 -5.02800 27.80300
C  19.75700 -5.28300 26.46500
C  18.67300 -4.34800 26.09900
C  21.20700 -5.69800 28.69000
C  20.35500 -6.31100 25.46600
O  20.02300 -6.53600 24.32100
C  21.54000 -7.12700 25.92200
N  16.47800 -2.28000 25.23000
C  17.12900 -3.14400 24.44000
C  16.53900 -3.05200 23.07000
C  15.25800 -2.12300 23.17400
C  15.43100 -1.68300 24.60000
C  17.59400 -2.50400 22.10200
C  13.91300 -2.79300 22.96400
C  13.51000 -2.81500 21.45500
N  15.39200 -0.70700 27.47800
C  14.67000 -0.09100 26.46200
C  13.84600 1.01200 27.03800
C  14.18600 0.94700 28.41300
C  15.13000 -0.08300 28.62500
C  12.77200 1.90200 26.39900
C  13.87400 1.50200 29.71700
O  13.09100 2.43100 29.95200
C  14.90100 0.93000 30.68500
C  15.71900 1.91800 31.45400
O  16.67300 2.56000 30.90500
O  15.32200 2.00700 32.76800
C  16.14100 2.97800 33.56300
H  19.85500 -3.89500 30.17400
H  18.28800 -4.77800 23.98900
H  14.02700 -0.11400 24.42000
H  17.50200 -0.20800 32.13900
H  18.43200 -2.91500 32.18800
H  20.34300 -2.12700 32.55000
H  19.83600 -0.41100 32.21500
H  20.55200 -1.52900 30.99300
H  16.12700 -2.98200 32.39600
H  15.18000 -1.58700 32.39900
H  16.35800 -2.68200 34.66800
H  15.28900 -1.26100 34.63600
H  22.14300 -5.94900 28.19100
H  20.78200 -6.64400 29.02600
H  21.40900 -4.94900 29.45600
H  22.38600 -6.47100 26.12700
H  21.85000 -7.80400 25.12600
H  21.30800 -7.82300 26.72900
H  16.18300 -3.99600 22.65600
H  15.30700 -1.25600 22.51600
H  18.55700 -2.21000 22.51900
H  17.32700 -1.59600 21.56200
H  17.84200 -3.29800 21.39700
H  13.06700 -2.31500 23.45700
H  14.04100 -3.82200 23.30100
H  14.16200 -2.18000 20.85400
H  12.50600 -2.40700 21.57100
H  13.41900 -3.84300 21.10400
H  12.09700 1.31700 25.77400
H  13.15900 2.63600 25.69200
H  12.26100 2.44900 27.19100
H  14.35900 0.51500 31.53400
H  15.92700 4.00200 33.25900
H  17.21400 2.80000 33.48800
H  15.87800 2.86200 34.61500
Mg -4.91600 25.24900 25.30500
C  -3.62400 26.46300 28.29300
C  -6.99100 23.16700 27.27000
C  -5.91100 23.70400 22.49800
C  -2.61700 27.20400 23.58400
N  -5.34800 24.97100 27.52600
C  -4.63500 25.57800 28.56500
C  -5.17000 25.10000 29.94200
C  -5.99800 23.86400 29.48600
C  -6.15200 24.00100 27.97500
C  -5.47200 22.42500 29.82600
C  -5.97600 26.21000 30.68000
C  -5.61900 26.50500 32.16800
H  -4.78900 25.36500 32.97600
N  -6.38600 23.72700 24.87100
C  -7.19300 23.04600 25.83900
C  -8.15600 22.23900 25.15500
C  -7.80600 22.39200 23.73200
C  -6.64300 23.28400 23.65800
C  -9.14400 21.29800 25.83500
C  -8.49800 21.64700 22.53700
O  -8.07000 21.81100 21.41300
C  -9.63000 20.63100 22.69000
N  -4.40500 25.48100 23.37000
C  -4.88800 24.67900 22.33400
C  -4.27000 25.12300 21.02500
C  -3.45700 26.39100 21.38500
C  -3.47100 26.29500 22.90700
C  -3.47100 24.09700 20.21400
C  -4.05100 27.70300 20.91200
C  -3.62700 28.09400 19.51400
N  -3.41600 26.57900 25.83100
C  -2.55600 27.38700 24.99700
C  -1.82000 28.31900 25.76000
C  -2.17200 27.92500 27.09300
C  -3.14300 26.88500 27.06800
C  -0.86100 29.35600 25.33100
C  -1.87200 28.14300 28.50300
O  -1.09100 28.89100 29.05600
C  -2.84300 27.26200 29.36400
C  -2.00300 26.41500 30.23500
O  -1.29400 25.50900 29.80600
O  -1.92100 26.84500 31.51400
C  -0.87100 26.26500 32.25500
H  -7.60500 22.44700 27.81500
H  -6.26400 23.32100 21.53800
H  -1.88300 27.79300 23.03100
H  -4.41600 24.72500 30.63400
H  -7.00200 23.92000 29.90600
H  -5.62800 21.80200 28.94600
H  -5.94300 21.87100 30.63800
H  -4.40200 22.47900 30.02700
H  -7.03000 25.93700 30.72900
H  -5.84900 27.16400 30.16700
H  -6.57400 26.56300 32.69000
H  -5.11100 27.46900 32.21200
H  -8.90500 20.26500 25.58100
H  -10.13200 21.54800 25.44900
H  -9.28500 21.40500 26.91100
H  -9.18000 19.72700 23.10100
H  -10.03800 20.45300 21.69400
H  -10.46100 21.02500 23.27500
H  -5.07700 25.41700 20.35400
H  -2.38800 26.30600 21.18900
H  -4.09300 24.04900 19.32000
H  -3.50600 23.08000 20.60400
H  -2.42200 24.34300 20.05100
H  -3.79600 28.49700 21.61300
H  -5.13900 27.76400 20.92500
H  -4.26600 27.77900 18.68900
H  -2.71200 27.64900 19.12500
H  -3.62100 29.17900 19.40700
H  -0.62900 29.26200 24.27000
H  -0.00400 29.19200 25.98400
H  -1.26300 30.35000 25.52700
H  -3.45500 27.88400 30.01800
H  0.03500 26.41400 31.66700
H  -1.05500 25.20100 32.40300
H  -0.77100 26.78400 33.20800

