158

Mg 2.02200 -1.44000 44.03700
C  5.36900 -1.04100 43.28900
C  1.36800 1.52700 42.26700
C  -1.33700 -2.06600 44.08800
C  2.64200 -4.63100 45.10500
N  3.19300 -0.07200 42.72800
C  4.56300 -0.03800 42.64200
C  5.12000 1.18200 41.76700
C  3.80100 1.98700 41.54700
C  2.72600 1.09600 42.26500
C  3.97400 3.36900 42.21000
C  5.69400 0.54400 40.51200
C  6.79700 1.32800 39.86700
H  6.51000 2.08100 38.56800
N  0.18500 -0.39600 43.31600
C  0.20000 0.88100 42.74400
C  -1.20400 1.42800 42.67500
C  -2.05300 0.32600 43.11800
C  -1.09500 -0.78400 43.59100
C  -1.55400 2.85300 42.16800
C  -3.60700 0.30000 43.00200
O  -4.23600 1.15900 42.39800
C  -4.34400 -0.75800 43.57100
N  0.84100 -3.10800 44.50000
C  -0.55100 -3.18500 44.43600
C  -1.13900 -4.57200 44.80500
C  0.22000 -5.34800 44.99200
C  1.35400 -4.28600 44.86700
C  -2.18000 -4.48300 45.99000
C  0.44800 -6.64300 44.08900
C  0.39400 -8.02000 44.79100
N  3.69600 -2.58000 44.37500
C  3.79300 -3.90300 44.76100
C  5.22000 -4.22500 44.84600
C  5.87400 -3.09900 44.32100
C  4.88800 -2.16500 43.96000
C  5.71000 -5.51100 45.33900
C  7.12500 -2.46900 44.01500
O  8.27700 -2.88800 44.18200
C  6.91600 -1.12600 43.34400
C  7.66700 0.01400 43.91800
O  8.62900 0.45400 43.33000
O  7.00400 0.70300 44.97800
C  7.41400 2.12100 45.27900
H  1.09900 2.54600 41.98100
H  -2.39400 -2.27200 43.90700
H  2.91500 -5.59800 45.53200
H  5.94400 1.62900 42.32300
H  3.43900 2.04800 40.52100
H  4.72100 3.33900 43.00400
H  3.08300 3.74400 42.71300
H  4.28100 4.11900 41.48000
H  4.87500 0.46100 39.79800
H  5.92500 -0.52000 40.56400
H  7.55500 0.63100 39.51000
H  7.24900 2.05800 40.53800
H  -1.66400 2.82000 41.08400
H  -0.82900 3.54700 42.59300
H  -2.53100 3.08200 42.59200
H  -5.39700 -0.52100 43.72200
H  -3.94600 -0.97200 44.56300
H  -4.17200 -1.61300 42.91600
H  -1.74800 -4.79100 43.92800
H  0.18900 -5.73300 46.01100
H  -1.76400 -5.00400 46.85200
H  -3.10800 -4.98100 45.70700
H  -2.31200 -3.42300 46.20200
H  1.41800 -6.50800 43.61100
H  -0.42900 -6.59500 43.44400
H  0.28500 -8.05200 45.87500
H  1.27900 -8.60400 44.54000
H  -0.54700 -8.47800 44.48400
H  5.29200 -6.26200 44.66900
H  5.43200 -5.70900 46.37500
H  6.79600 -5.54800 45.25700
H  7.25300 -1.26200 42.31600
H  7.83000 2.26100 46.27600
H  6.51300 2.71900 45.14100
H  8.19100 2.56000 44.65300
Mg 0.38400 44.37500 24.24500
C  2.34700 43.87100 27.24300
C  -2.44700 43.89500 26.28300
C  -1.31000 44.21800 21.54700
C  3.44900 44.13700 22.46900
N  0.02300 43.57700 26.40900
C  0.95900 43.72100 27.47000
C  0.21300 43.66100 28.83100
C  -1.25800 43.34000 28.41300
C  -1.26100 43.62500 26.91700
C  -1.75800 41.92900 28.81900
C  0.34000 44.97100 29.64000
C  0.76000 44.90100 31.12700
H  0.43100 43.55400 31.81300
N  -1.65800 44.28100 23.94100
C  -2.61500 44.22900 24.91900
C  -3.87300 44.39500 24.19300
C  -3.57000 44.54400 22.78200
C  -2.16200 44.35500 22.68300
C  -5.18900 44.34800 25.02900
C  -4.52200 44.70500 21.64000
O  -4.20200 44.54800 20.44800
C  -5.97300 45.03100 21.93200
N  1.07200 44.18300 22.32500
C  0.15700 44.14500 21.35000
C  0.72400 43.82500 19.93200
C  2.17400 44.37900 20.23400
C  2.24000 44.22800 21.75400
C  0.61000 42.27000 19.68300
C  2.49700 45.83800 19.73000
C  3.80500 45.97300 19.00300
N  2.48800 44.13300 24.73200
C  3.61300 44.08400 23.92600
C  4.79200 44.04100 24.72100
C  4.38100 43.99800 25.99800
C  2.95000 44.01700 25.97700
C  6.17200 43.97400 24.27900
C  4.79100 43.90300 27.36500
O  5.93000 43.74200 27.80500
C  3.53500 43.94500 28.25200
C  3.56100 42.77700 29.22000
O  3.11900 41.64900 29.01100
O  4.21600 43.21100 30.37700
C  4.52600 42.26800 31.43000
H  -3.36300 43.84900 26.87700
H  -1.83700 44.32300 20.59700
H  4.35500 44.10400 21.86100
H  0.71100 42.81600 29.30800
H  -2.03800 43.93700 28.88400
H  -0.92400 41.46100 29.34300
H  -2.00300 41.32300 27.94700
H  -2.49700 42.10800 29.60100
H  -0.54900 45.59700 29.56600
H  1.07200 45.57000 29.09700
H  0.17500 45.67000 31.63200
H  1.82400 45.13500 31.15900
H  -6.09100 44.69200 24.52300
H  -5.18100 44.98900 25.91100
H  -5.37100 43.34200 25.40800
H  -6.48700 44.13100 22.26900
H  -6.41600 45.45100 21.02900
H  -5.94800 45.79000 22.71400
H  0.15700 44.43300 19.22700
H  2.84400 43.62100 19.82700
H  0.56000 41.82000 20.67400
H  1.48100 41.79500 19.23200
H  -0.26400 42.07800 19.05900
H  2.46300 46.54700 20.55700
H  1.66900 46.03200 19.04800
H  4.37300 45.07000 19.22600
H  4.18200 46.89200 19.45400
H  3.67900 46.05000 17.92400
H  6.48600 43.05800 23.77700
H  6.82100 44.07600 25.14900
H  6.35200 44.82400 23.62100
H  3.48800 44.84400 28.86700
H  4.14700 41.26900 31.21500
H  4.01900 42.68300 32.30200
H  5.61400 42.28400 31.49300

