158

Mg 1.81300 -2.68800 44.68700
C  4.90600 -1.21900 43.79800
C  0.23800 -0.16500 42.97700
C  -0.98800 -4.48900 45.05800
C  3.77000 -5.56200 45.79100
N  2.58500 -0.98800 43.50200
C  3.82300 -0.48400 43.33900
C  3.87500 0.84600 42.50600
C  2.40800 1.29600 42.69900
C  1.64800 -0.03700 43.00800
C  2.19300 2.39800 43.81900
C  4.42400 0.78600 41.05000
C  5.77400 1.59600 40.83000
H  6.91400 0.76100 40.33200
N  -0.04800 -2.39300 44.03000
C  -0.51900 -1.30600 43.40300
C  -1.89200 -1.40300 43.13600
C  -2.32600 -2.62200 43.74800
C  -1.10300 -3.21800 44.33800
C  -2.70300 -0.55400 42.27300
C  -3.70900 -3.18600 43.75900
O  -4.60900 -2.53000 43.28900
C  -4.06100 -4.55800 44.35100
N  1.44900 -4.80700 45.24900
C  0.10400 -5.20000 45.43100
C  0.07300 -6.61300 45.99200
C  1.57600 -6.90400 46.33800
C  2.36200 -5.73700 45.76500
C  -0.83400 -6.85400 47.30100
C  2.06400 -8.22200 45.65400
C  3.13200 -9.06700 46.40400
N  3.82800 -3.29200 44.93800
C  4.48500 -4.44600 45.42300
C  5.84900 -4.19800 45.51600
C  6.07600 -2.94800 44.83400
C  4.82800 -2.45800 44.52800
C  6.81000 -5.10400 46.21200
C  7.10900 -2.00500 44.37700
O  8.33500 -1.96900 44.46900
C  6.35700 -0.75700 43.76100
C  6.64100 0.51900 44.60400
O  6.14800 0.88400 45.62900
O  7.50300 1.21600 43.90500
C  8.08100 2.44600 44.49300
H  -0.19300 0.66400 42.41300
H  -1.85700 -5.14500 45.14600
H  4.33900 -6.36600 46.26100
H  4.40900 1.50300 43.19300
H  2.07600 1.64700 41.72200
H  2.44700 3.36500 43.38300
H  2.85900 2.23400 44.66500
H  1.21100 2.39700 44.29200
H  3.80000 1.24300 40.28100
H  4.49500 -0.26700 40.77900
H  6.09200 2.01000 41.78600
H  5.68900 2.41800 40.11900
H  -2.09600 0.15800 41.71600
H  -3.40100 0.03200 42.87200
H  -3.29600 -1.15300 41.58200
H  -3.49800 -5.24300 43.71700
H  -5.13800 -4.57600 44.18200
H  -3.85900 -4.63200 45.42000
H  -0.28700 -7.25700 45.19000
H  1.68200 -6.97900 47.42000
H  -0.92400 -7.90700 47.56800
H  -1.82400 -6.40900 47.20500
H  -0.41400 -6.30900 48.14700
H  2.45300 -7.98400 44.66400
H  1.19800 -8.87800 45.56400
H  3.69300 -9.55000 45.60300
H  2.76900 -9.88500 47.02600
H  3.72500 -8.51700 47.13500
H  7.08100 -5.85000 45.46500
H  6.41900 -5.59900 47.10000
H  7.66400 -4.44300 46.35700
H  6.70700 -0.75600 42.72800
H  8.07200 3.20600 43.71200
H  9.12100 2.20700 44.71800
H  7.63400 2.76600 45.43500
Mg 16.84500 -2.29500 27.44100
C  15.70400 -0.16200 30.05000
C  18.76200 -3.82300 29.55000
C  18.20600 -3.67200 24.81400
C  14.90100 -0.23700 25.29300
N  17.40100 -1.82900 29.53400
C  16.72700 -1.09600 30.45200
C  17.14500 -1.43000 31.90100
C  18.41000 -2.33100 31.63300
C  18.19400 -2.74800 30.15700
C  19.80800 -1.59500 31.83200
C  16.00400 -2.05300 32.71300
C  15.65300 -1.18700 33.85100
H  16.82400 -0.48200 34.59000
N  18.18100 -3.64800 27.23300
C  18.88300 -4.22500 28.22200
C  19.58100 -5.43400 27.69500
C  19.50600 -5.39500 26.28200
C  18.59800 -4.19700 26.03200
C  20.19000 -6.49700 28.67500
C  20.17400 -6.20900 25.30000
O  19.95200 -6.05600 24.07300
C  20.96400 -7.30400 25.72500
N  16.66400 -1.98600 25.38900
C  17.34800 -2.63600 24.47100
C  17.04300 -2.23000 22.96000
C  15.91300 -1.19200 23.23600
C  15.76200 -1.20500 24.74100
C  18.33300 -1.66000 22.34800
C  14.63900 -1.40700 22.44700
C  14.73900 -1.07800 20.95200
N  15.43600 -0.65800 27.61100
C  14.71200 0.01400 26.67700
C  13.91400 1.07100 27.34500
C  14.28400 1.01000 28.61900
C  15.17100 0.00100 28.77300
C  13.05100 2.05100 26.73000
C  14.04300 1.64500 29.88500
O  13.33900 2.56800 30.26200
C  14.84500 0.74400 30.95600
C  15.61200 1.64900 31.81200
O  16.67900 2.14600 31.57900
O  14.76700 2.02100 32.82900
C  15.21600 3.15600 33.63900
H  19.41100 -4.42100 30.19300
H  18.55800 -4.10400 23.87500
H  14.25400 0.38800 24.67400
H  17.54700 -0.46800 32.22100
H  18.24900 -3.22700 32.23300
H  20.33800 -2.16500 32.59500
H  19.68000 -0.54400 32.09400
H  20.32000 -1.74000 30.88100
H  16.29200 -3.03100 33.09700
H  15.09300 -2.10600 32.11600
H  15.20500 -1.80600 34.62800
H  14.95000 -0.39300 33.60100
H  19.66700 -7.42600 28.44700
H  20.02200 -6.29500 29.73200
H  21.26300 -6.54400 28.48600
H  20.45400 -8.01100 26.38000
H  21.87700 -6.91700 26.17700
H  21.30900 -7.77300 24.80400
H  16.63000 -3.00200 22.31100
H  16.24000 -0.18200 22.98700
H  19.09400 -1.50900 23.11300
H  18.13600 -0.80500 21.70000
H  18.68400 -2.31100 21.54700
H  13.85300 -0.84100 22.94800
H  14.27400 -2.43100 22.53100
H  15.60500 -0.43900 20.78300
H  13.92900 -0.43000 20.61800
H  14.72400 -1.97900 20.33900
H  12.63000 1.53000 25.87000
H  13.65700 2.86500 26.33200
H  12.26300 2.28000 27.44700
H  14.13600 0.14800 31.53100
H  16.26700 3.29400 33.89400
H  14.68000 2.92700 34.56000
H  14.72400 4.03800 33.22900

