158

Mg 8.80700 3.39800 27.87800
C  10.21800 1.72200 30.68400
C  7.02400 5.43000 29.82600
C  7.42700 4.70100 25.07300
C  10.04800 0.64200 25.94800
N  8.56500 3.50000 29.95100
C  9.36300 2.80600 30.96100
C  9.08200 3.44200 32.36800
C  7.81300 4.35700 32.05200
C  7.80400 4.47700 30.53500
C  6.48500 3.71500 32.48000
C  10.34600 4.25700 32.84700
C  11.20600 3.59200 33.99400
H  11.27000 4.31800 35.34600
N  7.40900 4.90100 27.47100
C  6.81100 5.63700 28.45000
C  6.09100 6.76000 27.84100
C  6.25400 6.58800 26.44000
C  7.03900 5.31700 26.25200
C  5.25600 7.73000 28.64800
C  5.58400 7.43500 25.25900
O  5.85600 7.26600 24.04900
C  4.77800 8.60800 25.66700
N  8.53700 2.65100 25.82600
C  8.02400 3.47800 24.82600
C  8.37200 2.88600 23.44000
C  9.25000 1.61800 23.74500
C  9.30400 1.58000 25.24600
C  7.02100 2.51900 22.66200
C  10.76400 1.74400 23.27100
C  11.60000 0.39500 22.94000
N  9.93500 1.59400 28.18200
C  10.29600 0.63100 27.32300
C  11.18800 -0.34800 27.90500
C  11.18000 -0.01200 29.27600
C  10.37000 1.18300 29.37100
C  11.90100 -1.46600 27.21500
C  11.63300 -0.25800 30.60100
O  12.47400 -1.08700 30.96100
C  10.94000 0.78500 31.62500
C  10.05400 0.03500 32.62400
O  8.95800 -0.41400 32.35900
O  10.71800 -0.07200 33.79800
C  9.97000 -0.51400 35.01700
H  6.66100 6.12600 30.58500
H  7.06500 5.14300 24.14300
H  10.52400 -0.14800 25.36300
H  8.84800 2.58500 33.00000
H  7.91300 5.27400 32.63300
H  5.86200 3.36200 31.65800
H  5.94900 4.50800 33.00000
H  6.70900 2.94800 33.22100
H  10.08600 5.24500 33.22600
H  10.96600 4.43300 31.96800
H  12.26700 3.55700 33.74800
H  10.85500 2.57200 34.14800
H  5.73700 8.70400 28.73700
H  5.14400 7.50900 29.71000
H  4.22500 7.77900 28.29800
H  3.85200 8.47900 26.22700
H  4.69100 9.23900 24.78300
H  5.47900 9.17700 26.27900
H  8.93100 3.57300 22.80300
H  8.84400 0.65300 23.44100
H  6.15100 2.75700 23.27300
H  6.90400 1.43900 22.57200
H  6.98000 2.82100 21.61600
H  11.30500 2.33000 24.01300
H  10.75600 2.32000 22.34600
H  10.89700 -0.43100 23.04800
H  12.29400 0.23300 23.76500
H  12.07800 0.42100 21.96100
H  12.77500 -0.96800 26.79500
H  11.27900 -1.93700 26.45400
H  12.17600 -2.09000 28.06600
H  11.64200 1.37200 32.21800
H  9.86400 0.29000 35.74400
H  10.51400 -1.38400 35.38600
H  8.99500 -0.88600 34.70300
Mg 49.38500 44.60100 43.18300
C  46.09600 45.42900 42.30000
C  48.99700 41.53400 41.53300
C  52.74400 44.20200 43.20200
C  49.78000 47.92800 44.11600
N  47.75000 43.65400 41.95900
C  46.51400 44.18300 41.73000
C  45.62300 43.20200 40.98800
C  46.36000 41.87900 41.32400
C  47.80800 42.34600 41.64700
C  45.62300 40.95100 42.45400
C  45.40700 43.50600 39.49200
C  43.95800 43.60200 38.88400
H  43.74800 44.39800 37.61000
N  50.65600 43.08900 42.52800
C  50.31400 41.87800 41.90600
C  51.47100 40.96900 41.74600
C  52.61700 41.76400 42.20200
C  52.03600 43.09000 42.66100
C  51.47900 39.46000 41.28700
C  54.03800 41.30300 42.12600
O  54.45700 40.22600 41.66200
C  55.13800 42.22000 42.69600
N  51.05500 45.96500 43.45500
C  52.32900 45.45200 43.57500
C  53.34700 46.54000 43.94800
C  52.41000 47.75600 44.33600
C  50.96200 47.17100 43.97500
C  54.38900 46.24100 45.06000
C  52.77800 49.17300 43.71200
C  53.02600 50.26500 44.63600
N  48.10900 46.31100 43.28200
C  48.43500 47.57500 43.79900
C  47.23000 48.41500 43.91500
C  46.31500 47.63600 43.27800
C  46.83500 46.35500 42.95200
C  47.07800 49.84800 44.30500
C  44.97500 47.65400 42.69400
O  44.07800 48.47700 42.61900
C  44.77300 46.17100 42.12900
C  43.60700 45.41300 42.62600
O  42.80000 44.89000 41.91000
O  43.34500 45.61000 43.92300
C  42.05400 45.12200 44.43500
H  48.86700 40.49800 41.21300
H  53.81400 44.18900 43.42100
H  50.02900 48.93400 44.46200
H  44.63000 43.09400 41.42300
H  46.26700 41.31100 40.39900
H  44.92600 41.61500 42.96600
H  46.40200 40.73200 43.18400
H  45.34100 39.97300 42.06300
H  45.97700 42.73000 38.98200
H  45.98100 44.37500 39.17000
H  43.17400 43.90100 39.57900
H  43.67700 42.56000 38.73100
H  51.88000 39.35900 40.27800
H  50.47100 39.04500 41.29700
H  52.04100 38.80900 41.95700
H  55.22000 43.10500 42.06600
H  56.13000 41.77300 42.63800
H  54.93400 42.50000 43.73000
H  53.96900 46.81900 43.09800
H  52.48500 47.94700 45.40600
H  54.16800 46.87800 45.91600
H  55.40100 46.37400 44.67800
H  54.13000 45.27300 45.48800
H  51.96600 49.51700 43.07100
H  53.66800 48.98400 43.11100
H  52.52800 50.25300 45.60600
H  52.64500 51.17800 44.17900
H  54.05400 50.55600 44.85400
H  47.93600 50.37400 43.88700
H  47.16800 49.85100 45.39100
H  46.17900 50.34900 43.94700
H  44.63700 46.23600 41.04900
H  41.19600 45.51200 43.88800
H  41.96000 45.50500 45.45100
H  41.96900 44.03700 44.49400

