158

Mg 1.33400 -1.56000 43.81300
C  4.58800 -0.75300 42.97600
C  0.17300 1.20600 42.21800
C  -1.91500 -2.78300 44.15600
C  2.50600 -4.60800 45.07000
N  2.32800 -0.08800 42.43000
C  3.70700 0.18700 42.45300
C  4.07600 1.52600 41.86900
C  2.62600 2.25300 41.89600
C  1.58300 1.07200 42.22300
C  2.32800 3.45600 42.81200
C  4.65800 1.23100 40.42700
C  6.00300 1.85200 40.16400
H  6.07900 2.58300 38.80700
N  -0.66600 -0.81000 43.34800
C  -0.85800 0.34900 42.65300
C  -2.30600 0.42700 42.45200
C  -2.97600 -0.60200 43.23500
C  -1.86700 -1.46800 43.62800
C  -2.94200 1.44100 41.62100
C  -4.41700 -0.77600 43.38000
O  -5.22100 0.08600 42.94200
C  -4.97500 -2.04500 44.02400
N  0.43700 -3.48200 44.38600
C  -0.90700 -3.69200 44.46000
C  -1.12200 -5.12500 44.96300
C  0.24600 -5.63900 45.33400
C  1.15200 -4.51400 44.91500
C  -2.16600 -5.18500 46.20000
C  0.66400 -7.07900 44.80700
C  1.16100 -8.15700 45.68500
N  3.18000 -2.51300 44.00300
C  3.44500 -3.68600 44.61900
C  4.90700 -3.84000 44.71100
C  5.42200 -2.71800 44.12300
C  4.30300 -1.91900 43.65400
C  5.70200 -4.88600 45.41300
C  6.59000 -1.95100 43.74800
O  7.72400 -2.30200 43.85100
C  6.12700 -0.73500 42.95000
C  6.72500 0.40900 43.59600
O  6.21000 1.01200 44.55900
O  7.89700 0.78600 42.91200
C  8.49400 2.08700 43.17000
H  -0.24700 2.17800 41.95100
H  -2.87700 -3.29900 44.12900
H  2.89100 -5.56100 45.44000
H  4.68100 2.14000 42.53600
H  2.33400 2.66200 40.92800
H  1.82000 4.31900 42.38000
H  3.36000 3.71600 43.04600
H  1.78900 3.11500 43.69600
H  3.96700 1.48300 39.62300
H  4.82300 0.16200 40.29400
H  6.80500 1.11700 40.09800
H  6.15900 2.62200 40.91900
H  -3.72200 1.05300 40.96600
H  -2.35600 1.89500 40.82200
H  -3.33800 2.22200 42.26900
H  -6.05600 -1.92000 44.08400
H  -4.59700 -2.39200 44.98600
H  -4.83200 -2.85300 43.30600
H  -1.56000 -5.70100 44.14800
H  0.36500 -5.64100 46.41800
H  -3.10600 -5.64400 45.89400
H  -2.39000 -4.13200 46.37600
H  -1.69500 -5.67400 47.05300
H  1.44100 -7.00400 44.04600
H  -0.17500 -7.49500 44.25000
H  0.31100 -8.78100 45.96100
H  1.65500 -7.71300 46.55000
H  1.94300 -8.72800 45.18400
H  6.68600 -5.01000 44.96100
H  5.06500 -5.77100 45.42700
H  5.90400 -4.46500 46.39800
H  6.44500 -0.85200 41.91400
H  9.20600 1.99100 43.99000
H  7.76800 2.76800 43.61300
H  8.90900 2.58800 42.29500
Mg 0.86500 8.38700 26.59000
C  1.38200 10.17200 29.41900
C  0.99000 5.37800 28.16100
C  0.89900 6.71100 23.50600
C  1.68600 11.34600 24.84800
N  1.32100 7.86500 28.51600
C  1.20100 8.75500 29.56600
C  0.92800 8.05700 30.85300
C  1.40200 6.62800 30.54300
C  1.23800 6.57800 28.95800
C  2.82200 6.16200 30.83400
C  -0.46600 8.31000 31.39900
C  -0.65600 8.01700 32.89600
H  0.48900 7.39200 33.66000
N  0.59500 6.42500 25.92200
C  0.76300 5.27600 26.68300
C  0.53300 4.08300 25.92200
C  0.49600 4.45500 24.60900
C  0.63100 5.91500 24.61400
C  0.50900 2.66700 26.51600
C  0.24800 3.62300 23.41200
O  0.04800 4.08500 22.28500
C  0.05500 2.10700 23.59600
N  1.23900 8.90500 24.45500
C  1.30500 8.02400 23.44800
C  1.69100 8.74700 22.20300
C  1.80100 10.26700 22.52300
C  1.56000 10.24000 24.05100
C  2.95200 8.14200 21.58900
C  0.79700 11.22100 21.78400
C  -0.75900 11.01900 22.06300
N  1.25600 10.41200 26.99600
C  1.64400 11.48600 26.23300
C  1.87300 12.68000 26.99500
C  1.80500 12.13500 28.31400
C  1.49000 10.81000 28.26300
C  2.16000 14.07800 26.54600
C  1.96400 12.47600 29.76100
O  2.33700 13.49900 30.30400
C  1.55200 11.18900 30.46600
C  2.69900 10.94800 31.45700
O  3.81800 10.55400 31.22200
O  2.27600 11.46200 32.61800
C  3.21800 11.72400 33.68400
H  1.11500 4.39600 28.62100
H  1.10500 6.31800 22.50800
H  1.87200 12.30200 24.35300
H  1.66800 8.38200 31.58400
H  0.67500 5.95200 30.99300
H  3.27600 5.92200 29.87300
H  2.91100 5.34900 31.55400
H  3.29400 7.05900 31.23600
H  -1.22800 7.71700 30.89400
H  -0.75400 9.36000 31.33700
H  -1.54100 7.40000 33.05200
H  -0.86400 8.95500 33.41200
H  0.64700 2.72300 27.59500
H  1.36000 2.11500 26.11700
H  -0.39300 2.15000 26.18700
H  -0.83700 1.93500 24.19800
H  0.94500 1.69400 24.07000
H  0.00300 1.66400 22.60100
H  0.77300 8.60900 21.63100
H  2.81800 10.65400 22.44900
H  3.64100 7.80600 22.36300
H  3.45500 8.89900 20.98800
H  2.66300 7.25000 21.03200
H  0.99700 11.12100 20.71700
H  1.17900 12.18500 22.12100
H  -1.40300 10.88200 21.19500
H  -0.90000 12.02900 22.45000
H  -0.95300 10.34600 22.89800
H  1.27400 14.56500 26.13900
H  2.90900 14.06200 25.75500
H  2.55700 14.61400 27.40800
H  0.59000 11.34800 30.95300
H  4.03400 11.00600 33.77800
H  2.74400 11.62900 34.66000
H  3.54400 12.76400 33.67900

