158

Mg 47.11300 16.58300 28.05500
C  44.88200 16.52700 30.68900
C  49.36200 18.41200 30.14600
C  48.78600 17.48900 25.28700
C  44.63100 15.18100 26.04800
N  47.04200 17.40000 30.14300
C  46.07100 17.18200 31.03900
C  46.44100 17.74400 32.38500
C  47.79300 18.57900 32.10200
C  48.14000 18.00100 30.75200
C  47.74200 20.14900 32.12300
C  46.63100 16.67300 33.45600
C  46.18000 16.90800 34.97900
H  45.79300 18.36500 35.38900
N  48.93200 17.60300 27.76800
C  49.64700 18.26300 28.71800
C  50.74400 18.90600 28.07700
C  50.62800 18.71400 26.65800
C  49.41700 17.89500 26.50400
C  51.89000 19.64800 28.87000
C  51.61400 19.08200 25.57600
O  51.39800 18.90100 24.38900
C  52.83900 19.93200 25.91600
N  46.83200 16.25700 26.03900
C  47.66800 16.70100 25.07000
C  47.17600 16.29800 23.64700
C  45.84000 15.50500 23.96200
C  45.85100 15.48300 25.47200
C  46.95400 17.59300 22.73100
C  45.65100 14.06300 23.37700
C  44.83300 13.98700 22.07900
N  45.15200 15.83600 28.30500
C  44.25200 15.31200 27.36200
C  42.93500 15.06300 27.95900
C  43.10300 15.48900 29.31100
C  44.50800 15.92100 29.45200
C  41.71400 14.38700 27.29700
C  42.46400 15.62000 30.54500
O  41.32600 15.35800 30.97000
C  43.61900 16.21000 31.45900
C  42.97500 17.49700 31.94400
O  42.65300 18.48900 31.31600
O  42.78800 17.40100 33.33100
C  42.11400 18.52700 34.00300
H  49.95700 19.14400 30.69600
H  49.34300 17.72800 24.37900
H  43.82700 14.87400 25.37700
H  45.72900 18.46600 32.78500
H  48.59900 18.32700 32.79100
H  46.84200 20.46200 32.65200
H  48.00100 20.58200 31.15700
H  48.54000 20.49600 32.77900
H  47.68700 16.44800 33.60200
H  46.14200 15.72800 33.22000
H  47.01300 16.67000 35.63900
H  45.37000 16.24000 35.27300
H  52.91500 19.51600 28.52400
H  51.92500 19.32100 29.90900
H  51.76700 20.72800 28.78000
H  53.59700 19.37500 26.46600
H  52.50100 20.74300 26.56200
H  53.05700 20.40400 24.95800
H  47.93100 15.58600 23.31300
H  44.94800 16.06000 23.67200
H  45.91300 17.76400 22.45800
H  47.49500 17.44000 21.79700
H  47.24500 18.51300 23.23900
H  45.21500 13.42800 24.14900
H  46.59500 13.54400 23.21600
H  43.91300 13.41100 22.18400
H  45.45200 13.57100 21.28400
H  44.53400 14.96200 21.69600
H  41.06400 15.11600 26.81400
H  41.26700 13.79900 28.09900
H  42.13200 13.64400 26.61800
H  44.00600 15.57400 32.25500
H  42.83500 19.34400 34.03500
H  42.06400 18.22100 35.04800
H  41.10300 18.80500 33.70400
Mg -1.94100 34.28600 25.78000
C  -3.65000 32.58700 28.30100
C  -0.70200 36.36800 28.11300
C  -0.36400 35.62300 23.33700
C  -3.52700 32.01300 23.41700
N  -2.29600 34.56400 28.00200
C  -2.90000 33.64100 28.84600
C  -2.83700 34.04800 30.24000
C  -2.00900 35.36100 30.09900
C  -1.53200 35.41400 28.67500
C  -2.77700 36.68900 30.46400
C  -2.26400 32.91600 31.18300
C  -1.49300 33.26500 32.48700
H  -1.79900 32.37500 33.67800
N  -0.72000 35.85400 25.71300
C  -0.25800 36.58900 26.76400
C  0.68000 37.61400 26.24400
C  0.81600 37.35700 24.86300
C  -0.16400 36.28000 24.59400
C  1.38500 38.63900 27.08700
C  1.75000 37.99900 23.75000
O  1.77200 37.72700 22.56100
C  2.65200 39.06700 24.06400
N  -2.04900 33.89400 23.62500
C  -1.20400 34.59700 22.81000
C  -0.98300 33.90200 21.43300
C  -1.86600 32.69500 21.59500
C  -2.51900 32.89800 22.95200
C  -1.24100 34.81600 20.23300
C  -1.16600 31.29600 21.39900
C  0.06700 31.14000 22.30100
N  -3.38200 32.79600 25.75200
C  -3.90600 31.91900 24.72800
C  -4.84500 30.97400 25.35800
C  -4.76800 31.24900 26.73100
C  -3.84600 32.34900 26.92200
C  -5.66400 29.96200 24.71100
C  -5.35800 30.77900 27.97100
O  -6.17100 29.89200 28.18700
C  -4.62500 31.65900 29.05300
C  -5.60600 32.36700 29.86700
O  -6.34000 33.17000 29.44400
O  -5.63200 31.84600 31.11400
C  -6.29500 32.56700 32.18300
H  -0.17400 37.08700 28.74200
H  0.38100 35.93300 22.60100
H  -3.88000 31.14500 22.85700
H  -3.80900 34.36300 30.61900
H  -1.21400 35.33900 30.84500
H  -2.47900 37.01700 31.46000
H  -3.84200 36.47300 30.54200
H  -2.71900 37.41500 29.65300
H  -1.42800 32.40000 30.71100
H  -3.11700 32.29000 31.44500
H  -1.82700 34.27700 32.71600
H  -0.40900 33.18600 32.40800
H  1.26000 39.59600 26.57800
H  2.41000 38.29300 27.21600
H  1.01100 38.64100 28.11000
H  2.17700 39.81200 24.70300
H  3.09100 39.37400 23.11500
H  3.31200 38.50200 24.72200
H  0.04600 33.56400 21.30700
H  -2.64200 32.76000 20.83200
H  -0.31600 35.04500 19.70500
H  -1.63900 35.73900 20.65400
H  -1.95100 34.47700 19.47900
H  -0.80500 31.08700 20.39200
H  -1.92800 30.54800 21.61800
H  -0.07900 31.74200 23.19800
H  1.03400 31.37600 21.85600
H  0.12000 30.10900 22.65100
H  -5.34600 28.97300 25.03900
H  -5.55600 30.09700 23.63500
H  -6.68700 30.22300 24.98000
H  -4.20700 30.83800 29.63500
H  -5.68400 33.44000 32.41200
H  -6.25500 32.00000 33.11300
H  -7.34400 32.78600 31.98000

