158

Mg 44.62600 5.16500 47.74800
C  42.68800 8.16500 47.15600
C  41.81300 3.33600 47.53300
C  46.59000 2.43000 47.85600
C  47.49300 7.23900 47.97700
N  42.53800 5.72700 47.32100
C  41.94600 6.93800 47.03100
C  40.49700 6.80100 46.66400
C  40.23600 5.45300 47.39000
C  41.60900 4.73900 47.36500
C  39.57600 5.53900 48.76800
C  40.31700 6.69400 45.12300
C  40.10200 8.04200 44.39700
H  39.08500 7.92800 43.21200
N  44.28800 3.12200 47.61900
C  43.03800 2.59700 47.55800
C  43.13100 1.09800 47.69700
C  44.50900 0.85300 47.71500
C  45.18400 2.18100 47.76700
C  41.98900 0.03100 47.53600
C  45.03400 -0.56000 47.75000
O  44.36200 -1.60700 47.70500
C  46.53700 -0.87700 47.80300
N  46.72400 4.91500 47.66600
C  47.22800 3.63700 47.86500
C  48.76300 3.65900 48.20800
C  49.05000 5.22200 48.24900
C  47.67100 5.82700 47.94500
C  49.26600 2.93600 49.39100
C  50.13900 5.64200 47.32300
C  51.04400 6.71900 47.97100
N  45.03100 7.29200 47.48600
C  46.23900 7.95400 47.76000
C  46.00700 9.35900 47.79800
C  44.56100 9.50300 47.69000
C  44.07800 8.19300 47.38100
C  47.09700 10.38500 48.03500
C  43.46600 10.46400 47.74300
O  43.37900 11.61600 48.15100
C  42.21900 9.58900 47.20600
C  41.17200 9.70900 48.30300
O  41.07000 9.15000 49.36700
O  40.20600 10.58500 47.85700
C  39.02800 10.76100 48.71200
H  40.85400 2.81900 47.59700
H  47.22300 1.57800 48.11700
H  48.40000 7.81600 48.16900
H  39.87800 7.63500 46.99600
H  39.59600 4.83000 46.76500
H  40.18400 5.04800 49.52700
H  38.64400 4.97300 48.77300
H  39.43700 6.56500 49.11000
H  39.65100 5.89400 44.79800
H  41.32000 6.43200 44.78600
H  41.06800 8.35200 43.99900
H  39.76700 8.79100 45.11300
H  41.99900 -0.70600 46.73400
H  41.08900 0.63100 47.40000
H  41.80800 -0.48900 48.47700
H  46.56600 -1.96500 47.87100
H  47.10700 -0.29600 48.52700
H  46.93900 -0.62800 46.82100
H  49.39600 3.25700 47.41700
H  49.20500 5.55300 49.27600
H  49.82600 2.04700 49.10100
H  48.43200 2.65400 50.03300
H  49.92400 3.52600 50.03000
H  49.76100 6.03700 46.38000
H  50.81800 4.82500 47.07700
H  52.08500 6.54400 47.70000
H  51.03500 6.73000 49.06100
H  50.82700 7.69800 47.54300
H  47.72600 9.93300 48.80200
H  46.62700 11.31600 48.35300
H  47.70400 10.59300 47.15400
H  41.93500 9.94500 46.21600
H  39.06600 11.73400 49.20200
H  38.84400 9.97900 49.44800
H  38.10800 10.70200 48.13000
Mg 35.30300 2.90100 30.12700
C  33.06600 4.12700 32.45300
C  37.89600 3.28500 32.41300
C  37.66100 2.13900 27.72500
C  32.83200 3.16400 27.71800
N  35.41400 3.65700 32.15300
C  34.38200 4.01200 32.98700
C  34.80600 4.29300 34.41900
C  36.41200 4.30000 34.17100
C  36.60400 3.70500 32.81100
C  37.08000 5.77400 34.23500
C  34.39600 3.24400 35.44400
C  33.78800 3.80900 36.76600
H  34.69800 3.77000 37.96100
N  37.47100 2.53500 30.14600
C  38.29100 2.69600 31.20600
C  39.66800 2.28200 30.83800
C  39.58400 1.88000 29.49500
C  38.21100 2.22500 29.05600
C  40.73200 2.29000 31.93000
C  40.68600 1.43400 28.59000
O  40.48800 1.18900 27.43400
C  42.08900 1.23500 29.11700
N  35.25300 2.51500 28.09100
C  36.36600 2.31400 27.26900
C  35.91500 2.40300 25.84600
C  34.34200 2.21500 25.93800
C  34.08000 2.70300 27.35700
C  36.36900 3.74800 25.10100
C  33.94500 0.69500 25.76800
C  32.50800 0.36300 25.67700
N  33.30800 3.50600 30.02700
C  32.44200 3.59600 28.99300
C  31.15800 4.01000 29.44800
C  31.33300 4.06300 30.82200
C  32.68100 3.84400 31.10800
C  29.86100 4.19200 28.77000
C  30.64800 4.41900 32.07400
O  29.48000 4.77200 32.32400
C  31.78400 4.47100 33.15400
C  31.79300 5.80200 33.70900
O  32.10700 6.81300 33.10700
O  31.45200 5.76100 35.05000
C  31.55500 7.04500 35.78800
H  38.61300 3.56000 33.19000
H  38.39100 1.95100 26.93500
H  32.03600 3.17600 26.97000
H  34.57400 5.33000 34.66300
H  37.01300 3.69200 34.84700
H  36.35700 6.56700 34.42600
H  37.51800 5.99100 33.26000
H  37.85100 5.73100 35.00400
H  35.16500 2.60600 35.87900
H  33.73500 2.58100 34.88600
H  32.80400 3.42200 37.02900
H  33.55600 4.86200 36.60400
H  40.24100 2.49000 32.88300
H  41.49400 3.00900 31.62700
H  41.25400 1.33300 31.94700
H  42.59600 2.19700 29.20300
H  42.62400 0.69200 28.33900
H  42.32300 0.61200 29.98000
H  36.30500 1.58800 25.23700
H  33.81000 2.75300 25.15300
H  35.50400 4.38300 24.91000
H  36.75600 3.49900 24.11300
H  37.03800 4.37300 25.69200
H  34.41500 0.22900 26.63400
H  34.36900 0.36200 24.82100
H  32.25000 -0.32700 26.48000
H  32.10800 -0.08000 24.76400
H  31.89900 1.26300 25.76900
H  29.62200 5.24500 28.62000
H  29.16300 3.65300 29.41000
H  30.03300 3.71900 27.80200
H  31.48100 3.75800 33.92000
H  32.17600 7.85500 35.40800
H  32.03900 6.88600 36.75200
H  30.59600 7.51500 36.00600

