158

Mg 41.73400 7.45400 30.19800
C  43.41600 8.78500 32.78800
C  39.42500 6.06400 32.34500
C  40.31400 5.70900 27.58600
C  44.70100 7.66500 28.32000
N  41.48700 7.34000 32.32000
C  42.21300 8.13000 33.20600
C  41.62100 8.04400 34.62700
C  40.42300 7.04200 34.50700
C  40.46300 6.77700 32.95500
C  40.59400 5.73000 35.28400
C  41.16500 9.43400 35.09800
C  40.77200 9.49900 36.54300
H  41.52000 10.53900 37.45700
N  40.05900 6.22800 30.00700
C  39.25500 5.77500 31.01800
C  38.17800 4.96300 30.44200
C  38.39800 4.86100 29.04000
C  39.65300 5.65100 28.83700
C  37.27300 4.18300 31.26500
C  37.49500 4.20900 27.98600
O  37.73900 4.21800 26.80400
C  36.17100 3.59900 28.47400
N  42.45000 6.71900 28.26300
C  41.65400 6.14100 27.36400
C  42.26700 6.05100 25.94800
C  43.60000 6.76900 26.14900
C  43.60900 7.03100 27.70400
C  42.27900 4.56000 25.47900
C  43.78600 7.99700 25.30800
C  42.81100 9.19500 25.53100
N  43.57500 8.23200 30.41500
C  44.62000 8.28400 29.54900
C  45.65200 9.13400 30.18900
C  45.18300 9.46800 31.44900
C  43.99100 8.79100 31.55100
C  46.94600 9.62700 29.67500
C  45.52900 10.06500 32.75100
O  46.52300 10.72100 33.05900
C  44.26200 9.63500 33.61600
C  44.74900 9.02100 34.79300
O  45.23200 7.91500 34.84600
O  44.82600 10.02200 35.75700
C  45.71000 9.83300 36.91500
H  38.61900 5.75600 33.01400
H  39.88900 5.13200 26.76200
H  45.61200 7.83800 27.74300
H  42.41800 7.72400 35.30000
H  39.62000 7.64200 34.93500
H  40.99300 5.00700 34.57200
H  39.57900 5.44200 35.55600
H  41.31500 5.82900 36.09500
H  40.32500 9.71400 34.46200
H  41.98600 10.11100 34.86200
H  40.87600 8.56400 37.09400
H  39.69500 9.64600 36.62400
H  37.47900 4.17700 32.33500
H  37.15300 3.13700 30.98100
H  36.32700 4.71000 31.14200
H  35.69300 4.21900 29.23300
H  36.42600 2.63300 28.90800
H  35.56800 3.49100 27.57300
H  41.50900 6.56300 25.35500
H  44.38400 6.13500 25.73500
H  41.32200 4.19800 25.10400
H  42.49100 3.92700 26.34100
H  43.05300 4.39300 24.73000
H  43.86400 7.59400 24.29800
H  44.77900 8.36800 25.56300
H  42.14800 9.22000 26.39500
H  42.06500 9.26200 24.74000
H  43.52300 10.00900 25.66700
H  46.95200 9.75600 28.59200
H  47.67600 8.91000 30.04900
H  47.17900 10.62200 30.05300
H  43.72800 10.57200 33.77300
H  45.17600 9.87000 37.86400
H  46.31600 10.73100 37.04400
H  46.37500 8.97200 36.84300
Mg 41.29000 40.92500 26.10000
C  40.59500 43.28800 28.67100
C  42.45900 38.83000 28.48600
C  42.11900 38.80300 23.66100
C  40.38800 43.36200 23.76400
N  41.36700 41.06100 28.32900
C  41.09000 42.09200 29.19300
C  41.22700 41.70600 30.66600
C  41.97200 40.29900 30.57600
C  41.97500 40.02800 29.03300
C  43.44900 40.28800 31.15100
C  39.85600 41.72700 31.44600
C  39.63100 42.86500 32.39800
H  39.59400 42.24900 33.77000
N  42.08400 39.11700 26.03900
C  42.48800 38.35300 27.13100
C  42.98400 37.03100 26.70000
C  43.13600 37.11000 25.27100
C  42.42900 38.37900 24.86300
C  43.54200 35.97900 27.67500
C  43.60700 36.12900 24.21300
O  43.69100 36.34900 23.02300
C  44.03500 34.85000 24.68400
N  41.27300 41.08500 24.02700
C  41.51600 39.98100 23.24300
C  41.19800 40.32600 21.69400
C  40.38300 41.62100 21.88500
C  40.73200 42.06800 23.31200
C  42.47100 40.51700 20.87100
C  38.82100 41.38300 21.66700
C  38.10200 40.56000 22.81800
N  40.60900 42.91900 26.19400
C  40.28800 43.70300 25.12800
C  39.95700 45.04500 25.64000
C  40.02900 44.84500 27.01200
C  40.45700 43.56700 27.33200
C  39.63200 46.25500 24.76200
C  39.81600 45.59200 28.29200
O  39.45700 46.72300 28.45800
C  40.20500 44.54800 29.40700
C  41.32900 45.18600 30.15000
O  42.44700 44.98000 29.84100
O  40.93400 45.89500 31.24200
C  42.03100 46.40300 32.09000
H  42.78200 38.10700 29.23900
H  42.09700 38.12200 22.80800
H  40.09800 44.10400 23.01800
H  41.92200 42.46900 31.01500
H  41.45600 39.52700 31.14600
H  43.72600 41.24000 31.60600
H  44.09200 40.02000 30.31200
H  43.54500 39.47700 31.87200
H  39.80200 40.77500 31.97300
H  38.99900 41.78700 30.77400
H  38.75800 43.46800 32.15000
H  40.40200 43.63500 32.40100
H  44.60100 36.23100 27.73000
H  43.44400 34.95600 27.31300
H  43.14500 36.17400 28.67100
H  44.69900 35.00100 25.53500
H  44.60100 34.32800 23.91300
H  43.10900 34.30000 24.84900
H  40.48600 39.62600 21.25800
H  40.67300 42.41700 21.19900
H  43.32700 40.16500 21.44700
H  42.55200 41.54800 20.52700
H  42.40400 39.85300 20.00900
H  38.60600 40.82300 20.75700
H  38.33400 42.35700 21.72300
H  38.26100 41.03600 23.78600
H  38.42100 39.52000 22.74900
H  37.02000 40.49400 22.70000
H  38.82500 46.83600 25.20700
H  39.27100 45.75500 23.86300
H  40.45800 46.90000 24.46400
H  39.40300 44.33500 30.11300
H  42.72200 46.90100 31.41000
H  42.57900 45.66600 32.67500
H  41.62600 47.19600 32.71900

