158

Mg 47.83700 15.99200 27.97100
C  45.54800 16.00800 30.76200
C  49.87800 18.17400 29.93300
C  49.92100 16.34200 25.37700
C  45.43600 14.60400 26.04900
N  47.67000 17.01300 30.12500
C  46.76600 16.65800 31.11900
C  47.19100 17.20500 32.49300
C  48.38900 18.15100 32.05000
C  48.76800 17.69300 30.66100
C  48.06900 19.74500 32.11300
C  47.59000 16.05500 33.35300
C  47.54200 16.53500 34.84300
H  48.85100 16.21600 35.70600
N  49.70800 16.97900 27.69800
C  50.36200 17.81700 28.60300
C  51.56400 18.31900 28.01800
C  51.63700 17.70700 26.72400
C  50.45700 16.92000 26.53500
C  52.47200 19.25600 28.69300
C  52.76100 17.86700 25.70200
O  52.83400 17.28200 24.65900
C  53.83700 18.97900 25.92000
N  47.69100 15.56000 25.99900
C  48.70600 15.75900 25.12400
C  48.36000 15.20400 23.69300
C  46.99200 14.59200 23.97700
C  46.63300 14.91200 25.42500
C  48.34500 16.20100 22.52300
C  46.91300 13.07600 23.70500
C  47.16600 12.65100 22.29000
N  45.89300 15.36200 28.26700
C  45.10100 14.74900 27.38100
C  43.91900 14.40500 28.06800
C  44.01900 14.88600 29.39900
C  45.26000 15.52500 29.41800
C  42.77600 13.60000 27.48300
C  43.32100 14.93500 30.72100
O  42.24600 14.58100 31.14400
C  44.38400 15.63200 31.66400
C  43.63400 16.80600 32.28700
O  43.48800 17.84600 31.76300
O  43.08700 16.44100 33.50400
C  42.08200 17.42700 34.05000
H  50.60700 18.69000 30.56100
H  50.50200 16.34000 24.45200
H  44.72400 14.12600 25.37200
H  46.45900 17.89300 32.91600
H  49.27000 17.94300 32.65700
H  48.78600 20.27800 32.73700
H  47.14400 20.00500 32.62800
H  48.10300 20.28700 31.16800
H  48.61300 15.84200 33.04200
H  46.98300 15.16000 33.21600
H  46.77200 15.95200 35.34900
H  47.19400 17.56500 34.92500
H  52.60900 20.21700 28.19700
H  53.46600 18.80800 28.70900
H  52.37000 19.37200 29.77200
H  54.56700 18.72500 26.68900
H  53.33900 19.87100 26.30200
H  54.25900 19.05000 24.91800
H  49.05100 14.39800 23.44400
H  46.19300 15.06200 23.40400
H  48.30600 17.14200 23.07100
H  47.45000 16.00500 21.93400
H  49.20800 16.07000 21.87000
H  45.89700 12.74800 23.92300
H  47.53000 12.52100 24.41200
H  47.25100 13.52800 21.64900
H  46.40700 12.00400 21.85100
H  48.08000 12.07000 22.16700
H  43.17600 13.01800 26.65300
H  41.98500 14.29800 27.21000
H  42.33300 12.85000 28.13900
H  44.62700 14.89400 32.42800
H  41.51800 17.96900 33.29100
H  42.60400 18.12100 34.70900
H  41.43500 16.80100 34.66400
Mg 28.99600 58.92000 41.74700
C  26.13700 57.41200 40.37200
C  30.82000 56.45200 40.19400
C  31.71700 60.90200 41.90500
C  26.86200 61.73800 42.60900
N  28.49700 57.09700 40.55100
C  27.27100 56.73200 40.07900
C  27.31500 55.42600 39.26600
C  28.80500 54.98600 39.44200
C  29.48200 56.19800 40.18100
C  29.08700 53.61800 40.14300
C  26.86200 55.66800 37.78700
C  26.25500 54.44300 37.14700
H  25.67900 54.65400 35.69900
N  31.02400 58.63700 41.24500
C  31.52900 57.56700 40.66000
C  33.00200 57.68200 40.68400
C  33.31400 59.00100 41.13400
C  32.00200 59.57500 41.50900
C  33.98500 56.68000 40.12800
C  34.76800 59.75600 40.97800
O  35.77500 59.11600 40.58400
C  35.00000 61.17400 41.33200
N  29.24400 60.91800 42.35300
C  30.48900 61.49000 42.27100
C  30.42100 62.97500 42.59700
C  28.90400 63.30300 42.75900
C  28.27000 61.93000 42.57000
C  31.31500 63.49800 43.69400
C  28.34400 64.39900 41.73500
C  27.14400 65.23000 42.28100
N  26.90800 59.38200 41.76000
C  26.20600 60.55800 42.16400
C  24.74700 60.33600 41.87000
C  24.68800 59.11700 41.23500
C  26.03200 58.60700 41.12300
C  23.70000 61.33100 42.04400
C  23.78300 58.17500 40.66300
O  22.58500 58.27700 40.71900
C  24.71300 57.05700 39.87100
C  24.22600 55.79300 40.30200
O  24.28700 55.41700 41.46800
O  23.70700 55.06300 39.26300
C  23.20400 53.75100 39.59400
H  31.42300 55.72200 39.65000
H  32.53100 61.62600 41.97100
H  26.19300 62.53000 42.95400
H  26.65000 54.76600 39.82400
H  29.33500 54.89300 38.49400
H  28.58300 53.53000 41.10600
H  30.16400 53.52200 40.27800
H  28.85500 52.74900 39.52700
H  27.78100 55.76700 37.20900
H  26.27100 56.56000 37.58300
H  25.45500 54.00600 37.74500
H  27.04200 53.68900 37.18500
H  34.40700 56.42600 41.10000
H  34.73500 56.98500 39.39800
H  33.46600 55.84500 39.65800
H  34.24200 61.84500 40.92900
H  35.94500 61.57300 40.96100
H  35.14200 61.16800 42.41300
H  30.72400 63.42800 41.65300
H  28.62400 63.47100 43.79900
H  31.78900 62.60700 44.10600
H  30.76100 64.12200 44.39600
H  32.06600 64.14000 43.23400
H  27.85700 63.96300 40.86300
H  29.10400 65.13500 41.47300
H  26.31600 65.16100 41.57400
H  27.39900 66.28400 42.17000
H  26.93200 65.13300 43.34600
H  23.82400 62.13000 41.31300
H  23.68500 61.71300 43.06500
H  22.74300 60.83800 41.87700
H  24.61300 57.18800 38.79400
H  22.81900 53.30500 38.67700
H  22.52100 53.67200 40.44000
H  24.01900 53.04800 39.76500

