158

Mg 47.46600 26.07000 28.17800
C  48.59000 27.93800 30.89900
C  46.51800 23.63400 30.42100
C  46.74500 24.10100 25.57100
C  48.81700 28.55200 26.08000
N  47.43300 25.92600 30.40000
C  47.88300 26.84300 31.28200
C  47.67400 26.34800 32.74800
C  47.27800 24.90600 32.57500
C  47.11600 24.76800 31.02500
C  48.33500 23.88400 33.11500
C  46.58800 27.15000 33.50800
C  47.03800 27.70400 34.88900
H  46.05500 27.76200 36.08700
N  46.70700 24.15600 28.00800
C  46.35100 23.32700 29.01100
C  45.90900 22.08800 28.46500
C  45.84300 22.30300 27.06800
C  46.43800 23.57200 26.79600
C  45.62000 20.84600 29.31000
C  45.37500 21.38100 25.98000
O  45.57200 21.52300 24.78400
C  44.49100 20.26100 26.34300
N  47.92500 26.18300 26.17200
C  47.39700 25.28400 25.26500
C  47.52500 25.83200 23.83200
C  47.98400 27.33500 24.06100
C  48.21700 27.39200 25.58400
C  48.41200 24.89500 22.96400
C  47.04300 28.55100 23.55600
C  47.57000 29.68800 22.66100
N  48.50200 27.86600 28.39600
C  49.03800 28.70100 27.45600
C  49.77000 29.75600 28.05900
C  49.57300 29.49600 29.43000
C  48.84200 28.31700 29.59700
C  50.54600 30.87100 27.37500
C  49.85600 30.06800 30.73700
O  50.33900 31.17900 31.05200
C  49.18800 29.18400 31.79200
C  50.31500 28.77800 32.73900
O  51.17600 27.98600 32.49400
O  50.15000 29.41700 33.92800
C  51.29400 29.29500 34.87200
H  46.20400 22.93100 31.19500
H  46.32600 23.75700 24.62300
H  49.24400 29.32700 25.44000
H  48.59800 26.34200 33.32700
H  46.39400 24.63600 33.15300
H  47.84500 23.27200 33.87200
H  49.26600 24.37200 33.40500
H  48.57800 23.20600 32.29700
H  45.61900 26.66300 33.61500
H  46.28800 27.95500 32.83700
H  47.45100 28.70900 34.80600
H  47.82400 27.02200 35.21200
H  46.31000 20.09600 28.92600
H  44.59700 20.56200 29.06300
H  45.65600 20.88900 30.39900
H  44.22500 19.64000 25.48700
H  43.61600 20.63900 26.87200
H  45.10000 19.68400 27.04000
H  46.51300 25.94000 23.44000
H  49.00200 27.41600 23.68200
H  48.70700 24.11400 23.66500
H  49.32600 25.41400 22.67600
H  47.90700 24.56700 22.05600
H  46.60700 28.91400 24.48600
H  46.14900 28.18200 23.05300
H  48.57300 29.56300 22.25400
H  47.52500 30.52800 23.35400
H  46.95200 29.78600 21.76800
H  50.55500 31.77200 27.98800
H  50.01900 31.17500 26.47000
H  51.52300 30.46200 27.12000
H  48.30600 29.53000 32.33200
H  51.19900 28.36100 35.42700
H  51.30300 30.07800 35.63000
H  52.25600 29.17500 34.37500
Mg 0.41800 43.39600 25.54000
C  1.75200 43.20600 28.87900
C  -2.58500 42.46200 26.87100
C  -0.69800 43.04500 22.50200
C  3.71800 43.51900 24.36300
N  -0.37000 43.03900 27.64500
C  0.34200 43.01400 28.80200
C  -0.53500 42.88700 30.04600
C  -1.91900 42.37300 29.42300
C  -1.59200 42.49500 27.87600
C  -2.33800 40.95200 29.79000
C  -0.61200 44.23900 30.83400
C  0.02800 44.29700 32.27200
H  -0.85500 44.34000 33.49500
N  -1.45500 42.96700 24.80900
C  -2.59300 42.62300 25.46100
C  -3.73200 42.72000 24.45800
C  -3.18900 42.94700 23.15400
C  -1.70400 42.99500 23.43000
C  -5.19500 42.62400 24.87100
C  -3.84100 42.90300 21.77400
O  -3.24700 43.05100 20.73000
C  -5.22400 42.45200 21.67000
N  1.34400 43.24100 23.74100
C  0.64300 43.20700 22.55600
C  1.60800 43.22700 21.36800
C  2.92200 43.61300 21.94800
C  2.67200 43.43000 23.46600
C  1.51200 41.91500 20.55100
C  3.29400 45.01900 21.60200
C  3.70300 45.39500 20.14000
N  2.41300 43.47200 26.41700
C  3.68500 43.48900 25.78400
C  4.73500 43.69500 26.82200
C  3.96300 43.60000 28.06800
C  2.58000 43.42200 27.74800
C  6.24500 43.75900 26.74400
C  4.16200 43.30500 29.44600
O  5.20400 43.20000 30.12300
C  2.70400 43.20100 30.06700
C  2.66300 41.92200 30.76500
O  2.42000 40.83300 30.26700
O  3.13600 42.24200 32.03600
C  3.21100 41.01800 32.97500
H  -3.59500 42.30600 27.25600
H  -1.04700 42.96900 21.47000
H  4.72400 43.68800 23.97300
H  -0.13200 42.06300 30.63500
H  -2.73200 42.97600 29.82800
H  -1.88000 40.64700 30.73000
H  -1.93600 40.25700 29.05300
H  -3.42700 40.89300 29.80800
H  -1.63800 44.60500 30.86500
H  -0.08400 44.95400 30.20500
H  0.56100 45.24800 32.27800
H  0.87100 43.62500 32.43300
H  -5.88600 43.19100 24.24700
H  -5.21500 43.02600 25.88400
H  -5.48600 41.57700 24.95700
H  -5.46300 42.20400 20.63500
H  -5.81900 43.27700 22.06100
H  -5.26100 41.50100 22.20100
H  1.23500 44.05400 20.76400
H  3.73700 42.98800 21.58200
H  1.42500 41.11700 21.28900
H  2.46100 41.68200 20.06700
H  0.84200 41.98100 19.69300
H  4.15500 45.25000 22.22900
H  2.52200 45.69700 21.96600
H  3.23800 44.66100 19.48200
H  4.77200 45.54700 19.99300
H  3.24400 46.35800 19.91500
H  6.65300 43.35000 25.82000
H  6.64400 43.18400 27.58000
H  6.53500 44.81000 26.75600
H  2.53000 43.97800 30.81100
H  3.39900 40.06200 32.48700
H  2.22400 40.94400 33.42900
H  3.90300 40.95800 33.81500

