158

Mg 1.78200 -2.20300 45.27200
C  5.15100 -1.22900 44.90000
C  0.78700 0.68100 43.73900
C  -1.21100 -3.68100 44.90100
C  3.05900 -5.34900 46.63800
N  2.87900 -0.50300 44.25600
C  4.25400 -0.22700 44.32900
C  4.64200 1.02500 43.52800
C  3.20000 1.73600 43.51200
C  2.19600 0.60300 43.87800
C  3.09900 2.85000 44.59100
C  5.15000 0.47700 42.10800
C  6.37200 1.13200 41.54700
H  6.10300 1.98200 40.30200
N  -0.01500 -1.49600 44.59500
C  -0.23400 -0.28400 44.03700
C  -1.66400 -0.24700 43.66000
C  -2.25400 -1.50200 43.78500
C  -1.12700 -2.32500 44.42800
C  -2.28000 1.05300 42.99700
C  -3.71200 -1.92400 43.42400
O  -4.55500 -1.10400 43.04500
C  -4.14200 -3.39300 43.35300
N  1.03000 -4.19900 45.76400
C  -0.28700 -4.49600 45.56200
C  -0.56900 -5.94400 45.73500
C  0.68000 -6.47100 46.41400
C  1.70700 -5.29200 46.25600
C  -1.87400 -6.19500 46.61800
C  1.15200 -7.86000 45.79900
C  1.90100 -8.83900 46.69100
N  3.67000 -3.06700 45.84900
C  4.03100 -4.33300 46.40600
C  5.50600 -4.43000 46.55600
C  5.94100 -3.24700 46.00400
C  4.79900 -2.46900 45.51600
C  6.26700 -5.57600 47.15600
C  7.11500 -2.44900 45.74600
O  8.28700 -2.69500 46.04400
C  6.64500 -1.14100 45.01300
C  7.01000 0.02300 45.82900
O  6.95000 0.11100 47.05200
O  7.49000 1.02800 45.02400
C  7.91300 2.27700 45.56400
H  0.50400 1.60600 43.23300
H  -2.23500 -4.05100 44.81000
H  3.32400 -6.30300 47.09900
H  5.30200 1.70200 44.06900
H  3.01500 2.29500 42.59500
H  3.03600 3.79400 44.05000
H  4.01700 3.01300 45.15500
H  2.21700 2.68800 45.21000
H  4.29400 0.56900 41.43900
H  5.41000 -0.56600 42.29100
H  7.01300 0.30100 41.25100
H  6.84500 1.78000 42.28400
H  -3.01800 0.86000 42.21800
H  -1.44300 1.62300 42.59400
H  -2.87000 1.52900 43.78100
H  -4.39000 -3.66600 44.37900
H  -3.39600 -3.99500 42.83400
H  -5.03500 -3.46100 42.73300
H  -0.53800 -6.51300 44.80600
H  0.60700 -6.53300 47.49900
H  -2.73100 -6.20000 45.94600
H  -2.06200 -5.44200 47.38300
H  -1.79500 -7.13500 47.16400
H  1.84200 -7.65100 44.98100
H  0.36400 -8.41200 45.28800
H  1.47600 -8.96200 47.68700
H  2.97900 -8.68000 46.73500
H  1.94100 -9.79000 46.16100
H  5.63200 -5.92600 47.97000
H  7.24900 -5.23300 47.48400
H  6.40700 -6.29400 46.34800
H  7.27200 -1.17400 44.12200
H  8.81100 2.56400 45.01700
H  8.18500 2.27000 46.61900
H  7.13300 3.00500 45.34100
Mg 44.55500 4.26900 45.69700
C  42.74800 7.16600 45.72600
C  41.63100 2.48900 45.47100
C  46.46200 1.60200 45.31800
C  47.53500 6.34600 45.10000
N  42.34300 4.76200 45.46200
C  41.90300 6.02400 45.52600
C  40.37300 6.09400 45.37800
C  39.98800 4.50100 45.30700
C  41.35900 3.82400 45.45000
C  38.80800 4.08400 46.28500
C  39.82000 6.82500 44.14100
C  40.81200 7.31300 43.04000
H  40.32400 7.19800 41.59400
N  44.14200 2.32100 45.53100
C  42.90300 1.77600 45.43200
C  43.01600 0.36300 45.30900
C  44.41100 0.06700 45.20100
C  45.09500 1.32800 45.33100
C  41.83000 -0.59500 45.12600
C  44.97100 -1.30700 44.88400
O  44.28500 -2.31400 44.78300
C  46.45400 -1.56300 44.72800
N  46.66200 4.01500 45.39800
C  47.18500 2.78400 45.27000
C  48.70600 2.70700 45.22400
C  49.06700 4.21700 44.95900
C  47.68000 4.91400 45.16100
C  49.37300 2.24200 46.60100
C  49.65100 4.59100 43.62100
C  51.19800 4.39800 43.52900
N  45.09800 6.30200 45.53700
C  46.29800 7.01200 45.46200
C  46.06500 8.50600 45.60300
C  44.67000 8.55900 45.75200
C  44.12400 7.26600 45.62000
C  47.10300 9.59700 45.73800
C  43.60700 9.41500 46.02900
O  43.62300 10.62300 46.18000
C  42.32800 8.61700 45.89300
C  41.45300 8.85400 47.10300
O  41.48400 8.31400 48.13700
O  40.52100 9.73400 46.72700
C  39.38800 9.90100 47.64600
H  40.71600 1.90000 45.38600
H  47.17900 0.77900 45.27700
H  48.45800 6.89800 44.90900
H  39.89500 6.61200 46.21000
H  39.69300 4.22000 44.29600
H  37.89700 3.82800 45.74500
H  38.53700 4.88800 46.97000
H  38.97400 3.15700 46.83400
H  39.21900 7.64900 44.52600
H  39.13000 6.14900 43.63600
H  41.82700 6.91800 43.10200
H  40.77400 8.38800 43.21600
H  41.98500 -1.34200 45.90400
H  41.82200 -1.08700 44.15300
H  40.90800 -0.08500 45.40400
H  46.57800 -2.60400 44.43300
H  47.01900 -1.34500 45.63400
H  46.84800 -0.96200 43.90800
H  49.05900 2.01500 44.45900
H  49.74000 4.69500 45.67100
H  48.47400 2.16000 47.21200
H  50.03100 2.91300 47.15300
H  49.76700 1.22600 46.61600
H  49.31200 5.49300 43.11000
H  49.28800 3.83500 42.92400
H  51.38200 3.61100 42.79600
H  51.76800 4.21200 44.43900
H  51.73500 5.19400 43.01300
H  46.53000 10.49200 45.98300
H  47.59800 9.82600 44.79400
H  47.84200 9.37900 46.51000
H  41.76800 9.03800 45.05800
H  38.50400 9.39700 47.25600
H  39.20200 10.96200 47.81300
H  39.47400 9.45000 48.63500

