158

Mg 25.81600 -0.66200 29.10100
C  27.67900 -0.89100 31.86500
C  22.78800 -0.43500 31.05100
C  23.81500 -0.55500 26.28400
C  28.50500 -1.36600 27.08500
N  25.31200 -0.69900 31.18600
C  26.30600 -0.77100 32.17000
C  25.71600 -0.63500 33.54200
C  24.19200 -0.78600 33.21000
C  24.06700 -0.69500 31.71900
C  23.45900 -2.02800 33.82200
C  26.14700 0.69800 34.28600
C  26.77700 0.58800 35.68200
H  26.41100 1.68300 36.63300
N  23.68600 -0.42500 28.75200
C  22.65000 -0.19000 29.67900
C  21.43200 0.08700 28.95600
C  21.76000 0.10400 27.54700
C  23.12500 -0.34400 27.47500
C  20.08400 0.32300 29.59200
C  20.94800 0.52200 26.41900
O  21.33600 0.40500 25.26300
C  19.56200 1.00400 26.64000
N  26.13000 -0.83500 26.91700
C  25.19200 -0.84900 25.98800
C  25.79800 -0.99400 24.60200
C  27.26600 -1.41000 24.84900
C  27.32300 -1.21100 26.37900
C  24.91700 -1.83600 23.62900
C  28.28700 -0.60400 23.98200
C  28.46300 0.82900 24.45300
N  27.73900 -1.10700 29.43100
C  28.77200 -1.23200 28.48000
C  29.99400 -1.49300 29.18100
C  29.66300 -1.24900 30.56500
C  28.27100 -0.99500 30.63900
C  31.35400 -1.78000 28.53900
C  30.14100 -1.21700 31.89500
O  31.23500 -1.27800 32.33800
C  28.87200 -0.85500 32.90700
C  28.66600 -1.93200 33.94100
O  28.22700 -3.05600 33.75600
O  29.19300 -1.51800 35.14000
C  29.02300 -2.45300 36.32100
H  21.91500 -0.26200 31.68500
H  23.36300 -0.58900 25.29100
H  29.33200 -1.71200 26.46100
H  26.11000 -1.38400 34.22900
H  23.63900 0.08600 33.56000
H  23.15900 -2.65400 32.98200
H  22.53400 -1.69100 34.29000
H  24.12400 -2.65800 34.41200
H  25.36400 1.45500 34.33400
H  26.91100 1.27500 33.76500
H  27.85700 0.51300 35.55900
H  26.50500 -0.36300 36.14000
H  19.64300 1.24900 29.22300
H  20.02800 0.33500 30.68100
H  19.43600 -0.47700 29.23400
H  19.00500 1.33600 25.76300
H  19.69400 1.87500 27.28300
H  19.02700 0.22700 27.18600
H  25.76500 0.02500 24.21600
H  27.28700 -2.47200 24.60700
H  24.14000 -2.41300 24.13000
H  25.51900 -2.59600 23.13100
H  24.42500 -1.23900 22.86100
H  27.93700 -0.54100 22.95100
H  29.12700 -1.27500 23.80300
H  29.12900 0.99600 25.29900
H  27.54300 1.33500 24.74600
H  28.86500 1.25900 23.53600
H  32.13700 -1.17300 28.99400
H  31.19800 -1.46500 27.50800
H  31.58100 -2.84400 28.60300
H  28.87700 0.14800 33.33400
H  29.33400 -3.48100 36.13300
H  27.98600 -2.42800 36.65500
H  29.72100 -2.16300 37.10600
Mg -4.29600 24.69100 26.59200
C  -3.21000 26.77500 29.13900
C  -5.65200 22.59800 28.91300
C  -5.51000 22.80100 24.15200
C  -3.17200 27.03200 24.26300
N  -4.40900 24.75800 28.81100
C  -3.93300 25.66700 29.66600
C  -4.37400 25.25200 31.12500
C  -4.87200 23.78400 31.08300
C  -5.08100 23.69500 29.52300
C  -3.77300 22.76800 31.54800
C  -5.52100 26.22600 31.64100
C  -5.57400 26.58800 33.10500
H  -4.95200 25.54000 34.00700
N  -5.35600 22.89700 26.58000
C  -5.78200 22.19900 27.57400
C  -6.49600 20.95800 27.14300
C  -6.46700 21.01600 25.70800
C  -5.78300 22.27100 25.42900
C  -7.18000 20.03000 28.14000
C  -6.97600 20.02100 24.66900
O  -6.79200 20.06200 23.43400
C  -7.84600 18.88100 25.24600
N  -4.19200 24.89200 24.46300
C  -4.73400 23.90700 23.72200
C  -4.71400 24.25400 22.19400
C  -4.10700 25.72000 22.16200
C  -3.88600 25.94600 23.66000
C  -3.98800 23.21900 21.32500
C  -5.02800 26.78700 21.63000
C  -4.92700 26.95000 20.09500
N  -3.38400 26.51200 26.61500
C  -2.94200 27.36900 25.59500
C  -2.20700 28.47600 26.13600
C  -2.25000 28.28400 27.56000
C  -3.01900 27.12100 27.79000
C  -1.47400 29.44500 25.41300
C  -1.81000 28.73200 28.86600
O  -1.06400 29.65300 29.16200
C  -2.49600 27.81300 29.91800
C  -1.40200 27.42700 30.82000
O  -0.61700 26.50500 30.60900
O  -1.60600 27.90000 32.08800
C  -0.84100 27.24300 33.14300
H  -5.90100 21.87700 29.69400
H  -5.99100 22.28700 23.31700
H  -2.81200 27.83900 23.62200
H  -3.53600 25.37400 31.81100
H  -5.83400 23.59800 31.56100
H  -3.74400 21.95100 30.82600
H  -4.06000 22.30000 32.48900
H  -2.74500 23.12800 31.49600
H  -6.54500 25.92900 31.41300
H  -5.46700 27.14000 31.04900
H  -6.57700 26.63200 33.52900
H  -5.05100 27.54200 33.16400
H  -6.83500 20.11100 29.17100
H  -6.98400 18.99100 27.87500
H  -8.23600 20.27600 28.02700
H  -8.13300 18.29500 24.37300
H  -8.76600 19.38200 25.54900
H  -7.42100 18.27300 26.04500
H  -5.75000 24.33600 21.86500
H  -3.19400 25.63500 21.57300
H  -4.73100 22.73700 20.68900
H  -3.40700 22.57800 21.98800
H  -3.25000 23.66900 20.66100
H  -4.82200 27.71700 22.16000
H  -6.05800 26.55400 21.90000
H  -4.29100 26.18800 19.64500
H  -4.51400 27.92500 19.83500
H  -5.90100 26.87700 19.61300
H  -1.02700 29.10400 24.48000
H  -0.70600 29.87900 26.05300
H  -2.05900 30.32800 25.15200
H  -3.22500 28.30300 30.56400
H  0.19800 27.56700 33.19600
H  -0.86600 26.15400 33.18900
H  -1.34600 27.55300 34.05700

