158

Mg 35.82900 0.79000 29.40900
C  33.55200 2.03400 31.97100
C  38.20500 0.65600 31.88100
C  38.06300 -0.09100 27.05900
C  33.51400 1.70900 26.98900
N  35.80600 0.98500 31.75800
C  34.82600 1.61300 32.50500
C  35.28300 1.70100 33.96900
C  36.84200 1.60600 33.84400
C  36.96500 1.08500 32.39700
C  37.52700 2.97100 34.11200
C  34.57400 0.68500 34.84900
C  34.38600 1.01200 36.36800
H  35.16400 2.21600 36.98300
N  37.80600 0.22300 29.48400
C  38.53900 0.17000 30.60200
C  39.82100 -0.38000 30.29500
C  39.85600 -0.54500 28.84700
C  38.50600 -0.18000 28.40400
C  40.89200 -0.63900 31.36600
C  40.95200 -1.15800 27.94800
O  40.87800 -1.25800 26.68900
C  42.20100 -1.73300 28.67000
N  35.92500 1.07200 27.35300
C  36.84900 0.53500 26.59100
C  36.50400 0.60100 25.01400
C  34.97200 1.00000 25.06700
C  34.81500 1.33600 26.56400
C  37.44400 1.58000 24.14200
C  34.03200 -0.22300 24.72400
C  32.81800 0.14700 23.87300
N  34.00900 1.63100 29.41000
C  33.18700 2.03700 28.37600
C  31.91100 2.55800 28.84800
C  32.08700 2.62600 30.23500
C  33.35300 2.11400 30.55200
C  30.66800 2.89600 28.16300
C  31.37600 2.90200 31.43000
O  30.21300 3.29000 31.55300
C  32.36100 2.66600 32.67500
C  32.60100 4.07600 33.21800
O  33.45600 4.82900 32.82000
O  31.62400 4.44100 34.11900
C  31.72700 5.62700 34.80900
H  38.83900 0.51400 32.75900
H  38.73100 -0.50100 26.29900
H  32.75700 1.96200 26.24400
H  35.07300 2.74300 34.21200
H  37.26500 0.83900 34.49300
H  38.15600 3.30000 33.28500
H  38.19200 2.77000 34.95200
H  36.94800 3.81900 34.47800
H  35.16300 -0.20600 34.63100
H  33.60100 0.44300 34.42100
H  34.59300 0.06200 36.86000
H  33.35100 1.35200 36.37300
H  41.72000 -0.01700 31.02500
H  41.35300 -1.62600 31.40800
H  40.80300 -0.40400 32.42600
H  42.78000 -0.86800 28.99200
H  42.74800 -2.41100 28.01400
H  41.81900 -2.21900 29.56800
H  36.67000 -0.41500 24.65800
H  34.80000 1.87200 24.43600
H  37.14000 2.60500 23.92800
H  37.58900 1.18100 23.13900
H  38.44700 1.76100 24.52900
H  33.66800 -0.53500 25.70300
H  34.59800 -0.98700 24.19100
H  33.02100 0.99500 23.21900
H  32.03000 0.49700 24.54000
H  32.48300 -0.68500 23.25300
H  29.90600 2.12600 28.03700
H  30.77300 3.41500 27.21100
H  30.17000 3.66700 28.75100
H  31.87500 1.97600 33.36400
H  31.07700 5.54000 35.67900
H  31.30900 6.48200 34.27800
H  32.71800 5.98700 35.08400
Mg 47.66700 15.45200 28.37200
C  45.51300 15.45300 31.10500
C  49.69200 17.58500 30.04300
C  49.53500 15.54000 25.64500
C  45.16900 13.62400 26.55700
N  47.51400 16.43200 30.24100
C  46.63800 16.16000 31.29900
C  47.21000 16.60100 32.67200
C  48.27100 17.65400 32.16200
C  48.51800 17.19900 30.71200
C  47.83800 19.21300 32.15100
C  47.73900 15.46000 33.55900
C  47.53800 15.71200 35.01300
H  48.72800 15.45600 35.97300
N  49.34300 16.46100 27.92200
C  50.03100 17.25900 28.76200
C  51.29600 17.68300 28.05600
C  51.19500 17.05800 26.73900
C  49.96900 16.30600 26.70500
C  52.40100 18.48700 28.77600
C  52.24500 17.16100 25.61400
O  52.27700 16.51700 24.60400
C  53.37500 18.22300 25.57500
N  47.36100 14.69600 26.39300
C  48.39100 14.75700 25.51300
C  48.03100 13.98800 24.20900
C  46.72200 13.25200 24.56900
C  46.35700 13.90500 25.92200
C  47.96100 14.90000 22.90200
C  46.82700 11.70000 24.54300
C  47.09400 11.09300 23.14100
N  45.74700 14.71000 28.72800
C  44.88400 14.03100 27.87800
C  43.68000 13.73200 28.62800
C  43.93400 14.20000 29.91600
C  45.18600 14.77500 29.93900
C  42.51800 12.86100 28.25500
C  43.37000 14.19300 31.24900
O  42.30600 13.74600 31.65100
C  44.51900 15.00800 32.12200
C  43.73200 16.15200 32.63600
O  43.07200 16.93600 31.94700
O  43.89000 16.14700 34.04500
C  42.91400 16.89100 34.76400
H  50.47300 18.11200 30.59600
H  50.28400 15.46700 24.85300
H  44.40500 13.05100 26.02800
H  46.39900 17.08100 33.22000
H  49.22900 17.60400 32.68100
H  48.73700 19.71100 32.51400
H  46.93000 19.28800 32.74900
H  47.46800 19.54300 31.18000
H  48.82900 15.48800 33.54900
H  47.38300 14.44100 33.40600
H  46.82400 15.06000 35.51600
H  47.32400 16.76700 35.18400
H  53.33400 18.42900 28.21500
H  52.54900 18.25200 29.83000
H  52.00100 19.50000 28.81800
H  54.12100 17.95300 26.32200
H  52.80200 19.13600 25.73600
H  53.96300 18.15000 24.65900
H  48.73000 13.18300 23.97800
H  45.96900 13.54700 23.83800
H  48.22200 14.31100 22.02300
H  48.71000 15.68900 22.97700
H  46.93300 15.25000 22.81400
H  45.81500 11.41100 24.82500
H  47.59500 11.27400 25.18800
H  47.61600 11.82600 22.52600
H  46.24100 10.72100 22.57400
H  47.75300 10.27900 23.44200
H  42.68600 11.78800 28.34300
H  42.14500 13.15200 27.27300
H  41.75200 13.14100 28.97900
H  44.95600 14.40800 32.92100
H  43.29800 17.07900 35.76600
H  42.09100 16.18900 34.89400
H  42.65600 17.87700 34.37900

