158

Mg 47.80200 25.18800 28.33400
C  48.56200 27.39200 30.89300
C  46.59200 22.88400 30.88500
C  47.21300 22.91500 26.05700
C  49.34000 27.22900 25.97700
N  47.48400 25.16900 30.62400
C  47.82100 26.26500 31.38700
C  47.25200 26.11600 32.84700
C  46.78600 24.57600 32.90100
C  46.96900 24.12700 31.41800
C  47.51900 23.65100 33.93800
C  46.07600 27.08200 33.13500
C  46.20800 27.96100 34.41200
H  45.01300 27.80500 35.34400
N  46.77200 23.34100 28.41500
C  46.50300 22.52900 29.55400
C  46.10800 21.26900 29.02200
C  46.15500 21.27000 27.58500
C  46.73900 22.57100 27.30500
C  45.84100 20.09200 29.94000
C  45.71400 20.19000 26.56000
O  45.83200 20.31700 25.33000
C  45.03100 18.97500 27.07300
N  48.24100 25.06400 26.30300
C  47.88300 24.01500 25.55200
C  47.99000 24.29800 24.07300
C  48.70700 25.67900 24.04600
C  48.82500 25.99200 25.56900
C  48.78900 23.29300 23.22300
C  48.00200 26.70400 23.26200
C  48.78000 27.43000 22.16100
N  48.79900 26.96900 28.43600
C  49.38900 27.69800 27.37100
C  49.85500 28.91000 27.95900
C  49.50500 28.87200 29.31500
C  48.90500 27.65800 29.55900
C  50.45100 30.08500 27.18400
C  49.49300 29.58400 30.54800
O  49.90100 30.71700 30.79100
C  48.80200 28.70500 31.56000
C  49.58900 28.72000 32.86400
O  50.72600 28.29400 33.01900
O  48.88400 29.34000 33.82400
C  49.59500 29.74300 35.03400
H  46.17300 22.27100 31.68500
H  47.10300 22.26900 25.18300
H  49.84500 27.73400 25.15100
H  48.10000 26.30300 33.50600
H  45.73200 24.47600 33.16200
H  48.04900 24.30500 34.63100
H  48.34100 23.09300 33.48900
H  46.80200 23.04200 34.49000
H  45.13400 26.53500 33.17900
H  46.02800 27.87000 32.38400
H  46.13900 29.02800 34.20200
H  47.05800 27.69500 35.04100
H  46.43100 19.23300 29.61900
H  44.84300 19.67600 29.80000
H  46.12500 20.28300 30.97500
H  44.06500 19.23100 27.50800
H  45.60100 18.33900 27.74900
H  44.83100 18.27200 26.26400
H  46.98700 24.28000 23.64700
H  49.69900 25.47900 23.64200
H  48.04600 22.81600 22.58400
H  49.16100 22.50800 23.88100
H  49.66200 23.64300 22.67200
H  47.75100 27.52600 23.93300
H  47.09300 26.28100 22.83400
H  48.37900 28.44000 22.06900
H  48.45000 26.97000 21.23000
H  49.84500 27.34700 22.37700
H  49.78800 30.47800 26.41400
H  51.33200 29.70500 26.66700
H  50.70700 30.87100 27.89400
H  47.79900 29.09400 31.73200
H  49.67900 28.90300 35.72400
H  48.99700 30.48800 35.55800
H  50.58700 30.10200 34.76000
Mg 36.93900 49.14600 24.69600
C  36.70200 47.45400 27.74400
C  35.21000 51.84900 25.97500
C  36.61500 50.36300 21.50600
C  38.03600 46.13000 23.24700
N  35.91000 49.54200 26.61800
C  36.14500 48.78200 27.75200
C  35.56400 49.53000 28.97600
C  35.27000 50.98800 28.42300
C  35.41400 50.80000 26.91100
C  33.94500 51.61600 28.82600
C  36.58100 49.60700 30.18500
C  36.08900 49.08500 31.54500
H  36.02800 50.20100 32.61400
N  36.11400 50.91400 23.86800
C  35.58500 51.91500 24.60300
C  35.23900 53.02500 23.65100
C  35.69000 52.66500 22.34300
C  36.17300 51.29200 22.51100
C  34.60100 54.30800 24.15200
C  35.68400 53.45200 21.07400
O  36.29100 53.03800 20.15500
C  34.88400 54.79400 20.89500
N  37.30600 48.36000 22.68200
C  37.05600 49.05300 21.52500
C  37.19400 48.13400 20.37300
C  38.13500 47.00500 20.99200
C  37.74700 47.14900 22.40700
C  35.91400 47.60400 19.66100
C  39.67300 47.25900 20.56500
C  40.40400 46.06500 20.16600
N  37.35700 47.21900 25.31000
C  37.81600 46.13000 24.59300
C  37.95700 44.97300 25.47600
C  37.56600 45.44000 26.74400
C  37.17100 46.79000 26.58300
C  38.39800 43.58900 25.10700
C  37.34100 45.11800 28.14800
O  37.57100 44.08300 28.78000
C  36.84600 46.43200 28.79700
C  35.51200 46.12400 29.40600
O  34.42500 45.91500 28.89800
O  35.72300 46.01600 30.72500
C  34.68900 45.39200 31.48000
H  34.87600 52.76700 26.46400
H  36.49200 50.66600 20.46400
H  38.53100 45.21800 22.90800
H  34.63800 49.07700 29.33100
H  36.10800 51.66600 28.58200
H  34.14700 52.68400 28.90200
H  33.51600 51.31200 29.78100
H  33.24100 51.36400 28.03300
H  37.03300 50.59200 30.29800
H  37.45500 49.00300 29.94000
H  36.69200 48.25700 31.91800
H  35.02700 48.86200 31.43900
H  33.86000 54.67900 23.44500
H  35.33200 55.07400 24.41100
H  34.06600 53.96400 25.03700
H  35.46700 55.49200 21.49500
H  33.85000 54.61200 21.18800
H  35.04200 55.19700 19.89500
H  37.68400 48.70700 19.58600
H  37.91900 45.95900 20.77600
H  35.81100 46.52300 19.75600
H  36.00400 47.88000 18.61000
H  35.04600 48.04700 20.14900
H  40.23900 47.66600 21.40300
H  39.57500 47.92600 19.70800
H  39.90700 45.19700 20.59900
H  41.46400 46.06700 20.42200
H  40.50300 45.94600 19.08700
H  39.29100 43.56500 24.48200
H  37.66000 43.02000 24.54200
H  38.59600 43.06400 26.04200
H  37.58200 46.72500 29.54500
H  34.55700 44.42600 30.99300
H  33.88000 46.12300 31.48300
H  35.03900 45.15400 32.48500

