158

Mg -2.73800 17.68800 26.99700
C  -3.23200 15.50700 29.58700
C  -3.35500 20.25200 29.20700
C  -2.25700 19.85100 24.51700
C  -2.39700 15.00600 24.78800
N  -3.08400 17.86800 29.15900
C  -3.25700 16.78600 30.01000
C  -3.63900 17.30300 31.44500
C  -4.05100 18.77000 31.23800
C  -3.48700 18.98800 29.79000
C  -5.57600 19.06800 31.39600
C  -2.67300 16.92700 32.52800
C  -2.35700 17.79000 33.69500
H  -1.89600 17.19700 34.94000
N  -2.69300 19.77600 26.94500
C  -2.97600 20.70000 27.91700
C  -2.57600 22.05000 27.43000
C  -2.19200 21.91000 26.07400
C  -2.37600 20.46100 25.76900
C  -2.58100 23.26700 28.36000
C  -1.64300 22.95000 25.15300
O  -1.39600 22.77000 23.96000
C  -1.48200 24.29200 25.65100
N  -2.61200 17.46700 24.86800
C  -2.23900 18.53000 24.13400
C  -1.97300 18.17000 22.66400
C  -1.89000 16.62100 22.83600
C  -2.37800 16.32800 24.22600
C  -3.11900 18.64100 21.66000
C  -0.44800 16.06800 22.64000
C  0.54200 16.27400 23.80000
N  -2.98700 15.68700 27.03100
C  -2.79400 14.70900 26.09500
C  -3.01600 13.42800 26.69300
C  -3.18700 13.70600 28.00500
C  -3.11200 15.06700 28.19800
C  -3.11100 12.08700 26.03100
C  -3.46100 13.03400 29.25500
O  -3.66500 11.87600 29.50900
C  -3.46800 14.18000 30.35900
C  -2.35300 13.85800 31.31500
O  -1.23900 14.30200 31.15300
O  -2.88400 13.16100 32.39200
C  -2.00900 13.09700 33.55100
H  -3.51000 21.09000 29.89000
H  -2.02900 20.55200 23.71100
H  -2.35700 14.11400 24.16000
H  -4.45100 16.63200 31.72400
H  -3.45700 19.41900 31.88100
H  -5.79000 19.39400 32.41400
H  -6.03500 18.09100 31.24700
H  -5.96600 19.70600 30.60400
H  -1.66500 16.80900 32.12900
H  -3.10800 16.07200 33.04400
H  -3.25800 18.38800 33.83300
H  -1.59200 18.53100 33.46700
H  -3.21300 24.09800 28.04600
H  -1.57900 23.68700 28.26400
H  -2.91900 23.00100 29.36100
H  -0.68800 24.18400 26.39000
H  -2.42900 24.64400 26.06000
H  -1.03000 24.92800 24.89000
H  -0.99100 18.62200 22.52100
H  -2.45700 16.16000 22.02800
H  -2.80900 19.49200 21.05400
H  -3.97100 19.05500 22.20000
H  -3.54000 17.83000 21.06600
H  0.01300 16.72100 21.89900
H  -0.44400 15.05500 22.23800
H  0.07800 16.29200 24.78600
H  0.87100 17.29200 23.59300
H  1.30300 15.51100 23.63400
H  -2.40700 12.04400 25.19900
H  -4.06800 11.91700 25.53900
H  -3.06300 11.24500 26.72100
H  -4.35000 14.16200 30.99900
H  -1.03200 12.68500 33.29700
H  -2.49000 12.38500 34.22200
H  -1.73100 14.08500 33.91800
Mg 16.57900 -0.75500 27.83000
C  15.77400 1.30900 30.51000
C  18.68800 -2.55700 29.94200
C  17.99500 -2.34200 24.99200
C  15.28700 1.65000 25.61300
N  17.00600 -0.73700 29.98900
C  16.51900 0.15200 30.87100
C  16.89600 -0.17900 32.36200
C  17.81700 -1.47800 32.12400
C  17.98200 -1.53400 30.56100
C  19.24400 -1.39900 32.79100
C  15.72900 -0.49100 33.36900
C  15.67700 0.19700 34.71600
H  17.00600 0.55200 35.50500
N  18.06600 -2.31200 27.52000
C  18.70400 -2.98600 28.56000
C  19.59400 -3.93000 27.90700
C  19.34100 -3.95500 26.49200
C  18.38600 -2.85400 26.23500
C  20.51800 -4.80600 28.66300
C  19.95900 -4.83300 25.42800
O  19.73800 -4.72300 24.21700
C  21.00500 -5.83100 25.76600
N  16.68600 -0.37100 25.58700
C  17.29000 -1.19700 24.69200
C  17.16200 -0.56700 23.22700
C  16.13900 0.55700 23.55600
C  16.00300 0.62100 25.03100
C  18.50700 0.06500 22.68200
C  14.69500 0.35900 22.87500
C  14.19700 1.59500 21.97300
N  15.63000 1.06700 27.98600
C  15.18600 1.92300 27.01200
C  14.35200 2.89200 27.68600
C  14.63600 2.74500 29.06600
C  15.41500 1.59000 29.14700
C  13.58100 3.98000 27.08800
C  14.40300 3.37500 30.35900
O  13.73400 4.37200 30.64300
C  15.17400 2.40000 31.40200
C  16.09100 3.12600 32.26800
O  17.23000 3.39800 32.01100
O  15.58400 3.55200 33.49700
C  16.48300 4.41900 34.28600
H  19.18000 -3.32200 30.54600
H  18.33700 -2.76400 24.04500
H  14.70300 2.41100 25.09000
H  17.62300 0.57200 32.67000
H  17.31600 -2.35000 32.54400
H  20.06400 -1.28700 32.08200
H  19.29700 -2.28300 33.42500
H  19.31200 -0.50800 33.41500
H  15.72800 -1.55100 33.62200
H  14.74700 -0.36800 32.91100
H  14.99300 -0.35400 35.36200
H  15.12900 1.12400 34.55000
H  21.49400 -4.95400 28.20000
H  20.06100 -5.78800 28.78400
H  20.60800 -4.34700 29.64700
H  20.47200 -6.63200 26.27900
H  21.75700 -5.24000 26.28700
H  21.41700 -6.29000 24.86700
H  16.71400 -1.30800 22.56500
H  16.64500 1.45800 23.21100
H  19.21500 0.08500 23.51000
H  18.51300 1.07300 22.26800
H  18.93500 -0.64400 21.97300
H  13.91200 0.23100 23.62300
H  14.63100 -0.52600 22.24200
H  13.31200 2.06100 22.40700
H  13.87000 1.40100 20.95200
H  14.99000 2.33800 21.89700
H  14.21800 4.49400 26.36900
H  13.39600 4.74200 27.84600
H  12.73400 3.49900 26.59900
H  14.30300 2.04700 31.95400
H  16.47600 5.31500 33.66600
H  17.44300 3.94400 34.48600
H  15.99600 4.62800 35.23900

