158

Mg 47.22000 16.66200 28.51900
C  45.17900 16.57700 31.37200
C  49.44600 18.65300 30.41300
C  48.74300 17.67500 25.62200
C  44.66200 15.31300 26.82200
N  47.25300 17.45100 30.70100
C  46.35700 17.23800 31.69300
C  46.91800 17.56500 33.02500
C  48.13300 18.51400 32.61600
C  48.33400 18.18100 31.13400
C  47.78500 19.99400 32.83800
C  47.38900 16.26800 33.78000
C  47.13900 16.16500 35.29900
H  46.70300 17.41700 36.02100
N  48.97200 17.77700 28.10400
C  49.71700 18.47100 29.01400
C  50.87000 19.12200 28.31000
C  50.66900 18.90100 26.94800
C  49.44000 18.08500 26.80800
C  51.85400 20.05100 29.07500
C  51.49100 19.52000 25.81400
O  51.17600 19.36400 24.64000
C  52.78600 20.36800 25.99200
N  46.79600 16.57600 26.49800
C  47.52200 17.00900 25.48100
C  46.79000 16.87900 24.10600
C  45.77400 15.82400 24.53200
C  45.72900 15.80200 26.06800
C  46.15200 18.16900 23.52100
C  46.02200 14.31900 23.96100
C  45.03600 13.76100 22.97100
N  45.34900 15.95400 28.98700
C  44.42800 15.41500 28.18000
C  43.29100 14.95300 28.91100
C  43.56500 15.41900 30.15400
C  44.75700 16.09500 30.17000
C  42.18900 14.17700 28.32500
C  42.99600 15.45200 31.51500
O  41.92800 15.05000 31.95000
C  44.13200 16.12900 32.39300
C  43.47000 17.27800 33.06700
O  43.31300 18.41400 32.60200
O  42.99800 16.92800 34.33400
C  42.38900 17.93800 35.17700
H  50.08400 19.25600 31.06300
H  49.30700 18.00100 24.74500
H  43.86600 14.75100 26.32800
H  46.15600 18.15400 33.53500
H  49.13800 18.37100 33.01400
H  47.83000 20.67500 31.98700
H  48.41400 20.32400 33.66500
H  46.74900 20.07200 33.16700
H  48.47100 16.16200 33.69900
H  46.95800 15.42300 33.24200
H  48.02900 15.71800 35.74400
H  46.37600 15.39500 35.41200
H  52.86700 19.80600 28.75600
H  51.92100 20.06000 30.16300
H  51.83400 21.04900 28.63700
H  53.27100 20.64200 25.05500
H  53.33400 19.61900 26.56400
H  52.68000 21.28700 26.56800
H  47.54300 16.49900 23.41500
H  44.80600 16.19700 24.19800
H  45.08800 18.29300 23.72200
H  46.30500 18.13700 22.44300
H  46.59600 19.06600 23.95200
H  46.07900 13.72300 24.87200
H  47.05200 14.36800 23.60600
H  44.76600 12.71400 23.10400
H  45.43900 13.72400 21.95900
H  44.15000 14.38700 22.87000
H  42.64700 13.39800 27.71500
H  41.60100 14.83100 27.68200
H  41.58300 13.81600 29.15700
H  44.34900 15.32000 33.09100
H  42.51700 17.65900 36.22300
H  41.34300 18.04300 34.89000
H  42.87300 18.90700 35.05900
Mg 7.62200 53.61700 41.60900
C  7.15000 50.01700 41.25400
C  10.70000 53.31500 40.45300
C  7.44000 56.87000 41.31500
C  3.88300 53.61500 42.07100
N  8.72000 51.86900 41.11100
C  8.40700 50.55000 40.84900
C  9.43500 49.83700 39.93700
C  10.66800 50.69200 40.23000
C  9.99400 52.08400 40.62700
C  11.49700 50.13400 41.46000
C  8.95700 49.79000 38.41200
C  9.45800 48.53800 37.66100
H  8.61700 47.88800 36.63700
N  8.92500 54.90500 41.00300
C  10.19900 54.62200 40.63500
C  10.90300 55.81400 40.38900
C  9.98300 56.81900 40.58100
C  8.69800 56.25800 40.99100
C  12.36600 55.91700 40.01200
C  10.35000 58.30300 40.55200
O  11.44900 58.59000 40.03400
C  9.51200 59.49000 40.96600
N  5.88300 54.96100 41.54100
C  6.14000 56.29200 41.54200
C  4.76500 57.11300 41.61800
C  3.70200 56.07800 41.74400
C  4.51400 54.81400 41.77200
C  4.60700 58.32700 42.61900
C  2.56800 56.11600 40.56700
C  2.77600 55.21400 39.37800
N  5.90800 52.22600 41.87000
C  4.51900 52.38500 42.06700
C  3.86800 51.10000 42.16800
C  4.93600 50.16700 41.94000
C  6.09700 50.90000 41.66700
C  2.45600 50.83800 42.40800
C  5.26200 48.78100 42.00800
O  4.52100 47.81200 42.32600
C  6.73300 48.59900 41.49600
C  6.82700 47.77200 40.25800
O  6.24400 47.94600 39.23300
O  7.61700 46.66400 40.48400
C  7.39300 45.54600 39.51400
H  11.72700 53.30600 40.08200
H  7.33400 57.95700 41.31600
H  2.80000 53.71100 42.17900
H  9.52000 48.81900 40.31800
H  11.27700 50.80300 39.33300
H  12.50300 50.52800 41.31900
H  11.53800 49.04700 41.38600
H  11.08100 50.58200 42.36200
H  9.42100 50.67900 37.98500
H  7.90100 49.84100 38.14800
H  9.71700 47.79600 38.41600
H  10.37000 48.84300 37.14800
H  12.77900 54.91800 39.86800
H  12.93700 56.34700 40.83400
H  12.49500 56.30000 38.99900
H  9.20900 59.39000 42.00800
H  8.62100 59.62900 40.35300
H  10.11700 60.38300 40.80800
H  4.76900 57.48600 40.59400
H  3.33000 56.33000 42.73700
H  5.32000 58.35000 43.44300
H  3.63400 58.37600 43.10800
H  4.79400 59.24500 42.06300
H  2.44700 57.13400 40.19600
H  1.64700 55.85000 41.08600
H  3.77400 54.77800 39.40100
H  2.79500 55.89000 38.52300
H  2.03400 54.44700 39.15600
H  1.89700 51.09300 41.50800
H  2.13400 51.56700 43.15200
H  2.17900 49.88000 42.84800
H  7.35700 48.09900 42.23700
H  8.25600 45.52300 38.84800
H  6.54600 45.54700 38.82800
H  7.42300 44.54200 39.93700

