158

Mg 2.46300 -1.52500 43.85200
C  5.77700 -1.18500 42.68700
C  1.61200 1.20800 41.97000
C  -0.67600 -2.45200 44.21500
C  3.53100 -4.65400 45.25000
N  3.58500 -0.16900 42.45800
C  4.89300 -0.21500 42.12200
C  5.26600 0.94300 41.19700
C  4.06400 1.90200 41.39000
C  2.97500 0.97600 42.02400
C  4.25200 3.23000 42.22700
C  5.56300 0.52000 39.74300
C  6.61000 1.41200 39.01700
H  6.17200 2.05500 37.65800
N  0.66800 -0.66200 43.30900
C  0.56600 0.43900 42.47700
C  -0.87900 0.67200 42.28300
C  -1.58500 -0.28200 43.10800
C  -0.51000 -1.16500 43.61400
C  -1.40900 1.84300 41.44200
C  -3.05900 -0.38500 43.33600
O  -3.81000 0.38700 42.79700
C  -3.74800 -1.51000 44.13000
N  1.55600 -3.31700 44.55000
C  0.22400 -3.40100 44.62300
C  -0.18800 -4.77900 45.13500
C  1.15200 -5.42500 45.64300
C  2.18400 -4.42700 45.04100
C  -1.53600 -4.79400 45.98400
C  1.46400 -6.90500 45.22300
C  1.48100 -8.04000 46.24100
N  4.30000 -2.69600 44.05600
C  4.56600 -3.89900 44.68200
C  6.00700 -4.23700 44.65000
C  6.53300 -3.15200 43.84100
C  5.43800 -2.32800 43.49200
C  6.59000 -5.42700 45.25600
C  7.71700 -2.64400 43.21200
O  8.88700 -3.07700 43.23700
C  7.28500 -1.27100 42.57400
C  7.97400 -0.18100 43.25000
O  7.87000 0.08000 44.40300
O  8.77300 0.54000 42.41000
C  9.14500 1.83400 42.88900
H  1.26600 2.17100 41.58900
H  -1.67700 -2.86800 44.35000
H  3.82400 -5.67900 45.48800
H  6.10600 1.50800 41.60200
H  3.65200 2.29800 40.46200
H  5.24200 3.15200 42.67700
H  3.56300 3.40500 43.05300
H  4.21700 4.07800 41.54300
H  4.67600 0.56500 39.11100
H  6.08800 -0.43500 39.75800
H  7.55400 0.86800 39.05200
H  6.82000 2.28300 39.63700
H  -2.40400 2.06500 41.82800
H  -1.43600 1.52000 40.40100
H  -0.75200 2.70400 41.56200
H  -4.81600 -1.29600 44.18300
H  -3.36600 -1.59900 45.14700
H  -3.66800 -2.44400 43.57500
H  -0.37100 -5.09300 44.10700
H  1.23400 -5.32500 46.72500
H  -2.39200 -5.01800 45.34700
H  -1.64000 -3.79800 46.41400
H  -1.49100 -5.54900 46.76900
H  2.29900 -6.91300 44.52300
H  0.62200 -7.07500 44.55100
H  2.23100 -8.78200 45.96800
H  0.55100 -8.59600 46.11500
H  1.45600 -7.78900 47.30100
H  6.75800 -6.11900 44.43100
H  6.03800 -5.87300 46.08300
H  7.57400 -5.30100 45.70700
H  7.70600 -1.24300 41.56900
H  9.48600 1.75700 43.92100
H  8.27600 2.49100 42.92600
H  10.02200 2.21400 42.36400
Mg -9.94600 17.25300 42.49200
C  -6.51400 17.39600 42.59800
C  -9.89300 20.66700 41.60200
C  -13.18100 17.12000 41.71100
C  -9.69500 13.87800 42.56100
N  -8.43000 18.84800 42.05600
C  -7.09000 18.63700 42.32400
C  -6.29400 19.92900 42.29600
C  -7.43100 20.95000 41.95600
C  -8.68600 20.13900 41.92100
C  -7.55000 22.21800 42.80200
C  -5.03400 19.92300 41.26600
C  -4.55700 21.32100 40.87700
H  -4.40000 21.65500 39.41300
N  -11.32800 18.66200 41.77200
C  -11.12200 19.99800 41.58700
C  -12.31900 20.61500 41.14200
C  -13.36900 19.71900 41.29800
C  -12.68600 18.45800 41.60600
C  -12.38100 22.14100 40.81100
C  -14.90000 20.05400 41.16900
O  -15.27300 21.21100 40.93500
C  -15.87200 18.98100 41.47400
N  -11.22100 15.67400 41.92300
C  -12.56900 15.88900 41.91700
C  -13.38200 14.53900 42.07200
C  -12.24800 13.55200 42.32600
C  -10.96900 14.41300 42.24400
C  -14.50300 14.61400 43.16000
C  -12.26300 12.17700 41.54100
C  -12.14500 10.95500 42.46800
N  -8.55500 15.89500 42.62000
C  -8.51500 14.51800 42.71400
C  -7.19600 13.98400 42.89300
C  -6.45100 15.15300 42.96700
C  -7.27700 16.23000 42.70200
C  -6.79200 12.55900 43.04900
C  -5.10500 15.51300 43.11600
O  -4.12300 14.86700 43.43000
C  -5.05900 17.04200 42.90400
C  -4.67200 17.54000 44.22500
O  -5.46100 17.81400 45.14400
O  -3.30100 17.52800 44.40400
C  -2.99400 17.83800 45.79600
H  -9.82100 21.72700 41.35000
H  -14.26800 17.02700 41.74200
H  -9.71300 12.83400 42.88200
H  -5.89500 19.99900 43.30800
H  -7.33200 21.22800 40.90700
H  -6.90400 22.33300 43.67200
H  -8.54100 22.32800 43.24100
H  -7.26200 23.02400 42.12700
H  -5.24000 19.19700 40.47900
H  -4.17200 19.61800 41.85900
H  -3.52700 21.42300 41.21700
H  -5.00200 22.07800 41.52200
H  -11.97400 22.58300 41.72100
H  -13.39800 22.46100 40.58400
H  -11.83600 22.38200 39.89900
H  -15.79100 18.08600 40.85700
H  -16.82800 19.44600 41.23500
H  -15.75500 18.56700 42.47500
H  -13.80600 14.40200 41.07800
H  -12.29400 13.26900 43.37800
H  -14.49500 13.61400 43.59400
H  -15.40200 14.70700 42.55000
H  -14.48400 15.37400 43.94100
H  -11.33200 12.17200 40.97500
H  -13.16300 12.10300 40.93100
H  -13.10600 10.46700 42.62500
H  -11.68800 11.29000 43.40000
H  -11.43500 10.25700 42.02500
H  -6.03400 12.16900 42.37000
H  -7.57300 11.82300 42.85900
H  -6.42300 12.39500 44.06200
H  -4.36100 17.23200 42.08800
H  -3.42300 17.03100 46.39000
H  -3.54700 18.73900 46.06200
H  -1.91600 17.84200 45.95600

