158

Mg -0.05000 7.56300 26.76900
C  0.55500 9.76300 29.40500
C  0.48900 4.91000 29.09400
C  0.00500 5.35400 24.25400
C  0.24400 10.18600 24.53000
N  0.51000 7.37600 28.95400
C  0.54900 8.42400 29.81500
C  0.49000 8.00500 31.25800
C  0.92400 6.48100 31.09000
C  0.62800 6.19800 29.62100
C  2.40200 6.14600 31.49700
C  -1.01200 8.22500 31.89000
C  -1.17800 8.09500 33.43700
H  0.04900 7.89300 34.42300
N  0.10100 5.40300 26.68500
C  0.30100 4.52800 27.73500
C  0.25600 3.16100 27.27900
C  0.16300 3.24400 25.82800
C  0.11000 4.69600 25.52500
C  0.40900 1.93200 28.18400
C  0.05700 2.12400 24.80600
O  -0.06800 2.29500 23.59900
C  0.33000 0.68700 25.19700
N  0.19600 7.70400 24.72900
C  -0.06000 6.66600 23.92300
C  -0.35800 7.06500 22.38900
C  -0.19100 8.58100 22.54700
C  0.08700 8.87200 24.03600
C  0.66900 6.43100 21.36800
C  -1.31300 9.42400 21.86700
C  -2.58700 9.63500 22.64800
N  0.23700 9.61800 26.85500
C  0.36400 10.56700 25.93600
C  0.39300 11.87000 26.58400
C  0.49300 11.60700 27.96300
C  0.39800 10.21600 28.08100
C  0.49300 13.22700 25.82400
C  0.60300 12.19900 29.26100
O  0.95400 13.34800 29.47500
C  0.62800 11.01400 30.30500
C  1.85500 11.15100 31.16300
O  2.94000 10.81800 30.80200
O  1.46200 11.68300 32.39600
C  2.52800 11.96300 33.36700
H  0.59600 4.15200 29.87300
H  -0.08300 4.66700 23.40900
H  0.24200 11.05500 23.86800
H  1.13000 8.60600 31.90400
H  0.21500 5.88000 31.66100
H  2.93600 7.03600 31.83100
H  2.84800 5.62000 30.65300
H  2.23200 5.51400 32.36900
H  -1.58300 7.39000 31.48400
H  -1.44900 9.14400 31.50000
H  -1.77700 7.23200 33.72600
H  -1.70500 9.00600 33.72300
H  -0.42100 1.30600 27.85500
H  0.21000 2.23000 29.21400
H  1.39500 1.47100 28.12600
H  -0.46000 0.00500 25.51200
H  1.04000 0.82800 26.01200
H  0.68000 0.10400 24.34500
H  -1.38400 6.77300 22.16600
H  0.63100 8.86100 21.88700
H  1.15200 7.14600 20.70200
H  0.18900 5.72600 20.68900
H  1.37000 5.78500 21.89700
H  -1.61100 9.12800 20.86200
H  -0.78000 10.37500 21.87200
H  -2.60300 10.62600 23.10000
H  -2.67100 8.89300 23.44200
H  -3.48600 9.57900 22.03400
H  0.66100 13.08400 24.75600
H  1.33900 13.70600 26.31600
H  -0.40900 13.78500 26.07300
H  -0.11200 10.97600 31.10400
H  2.82100 13.01200 33.40500
H  3.45200 11.38400 33.37200
H  1.99000 11.78400 34.29800
Mg 54.39800 23.89800 44.27900
C  51.68100 26.16500 43.69700
C  52.37200 21.29000 43.34800
C  57.09800 21.94000 43.98600
C  56.43600 26.70500 44.98400
N  52.29800 23.77700 43.51700
C  51.34200 24.78000 43.41300
C  49.99300 24.14300 43.00300
C  50.23000 22.63800 43.31900
C  51.74900 22.50300 43.33900
C  49.59500 22.13800 44.70000
C  49.77900 24.35600 41.44600
C  50.99500 24.30500 40.50900
H  50.78600 24.62700 39.02300
N  54.65500 21.84500 43.76500
C  53.68600 20.93700 43.51600
C  54.26400 19.64800 43.36200
C  55.67900 19.77300 43.47200
C  55.91900 21.20800 43.84400
C  53.63900 18.35300 42.92500
C  56.68000 18.71000 43.21800
O  56.36700 17.66800 42.62500
C  58.13600 18.83500 43.67200
N  56.59600 24.33000 44.13600
C  57.47700 23.27800 44.17700
C  58.95300 23.95100 44.39100
C  58.62900 25.44700 44.64400
C  57.09600 25.46700 44.70700
C  59.61900 23.24600 45.69400
C  59.21300 26.41000 43.53600
C  58.62500 26.27400 42.10800
N  54.20200 25.98100 44.44800
C  55.04200 26.97700 44.81700
C  54.31000 28.16900 45.02700
C  52.98500 27.89400 44.57500
C  52.97000 26.57600 44.14600
C  54.87700 29.46600 45.48500
C  51.72000 28.52400 44.44700
O  51.35800 29.62400 44.76800
C  50.80800 27.40600 43.82700
C  50.35700 27.92700 42.48900
O  50.91200 27.76800 41.46700
O  49.35700 28.78500 42.65900
C  48.82700 29.33500 41.38000
H  51.62000 20.52000 43.16600
H  58.05500 21.42400 43.88600
H  57.03500 27.53900 45.35600
H  49.24900 24.55000 43.68800
H  49.75200 21.94600 42.62600
H  50.35300 21.53200 45.19600
H  48.68800 21.54200 44.59700
H  49.52300 22.92500 45.45100
H  49.44300 25.39000 41.37300
H  49.03500 23.63000 41.11700
H  51.29400 23.29300 40.78500
H  51.81200 24.95600 40.82200
H  54.07600 17.94600 42.01200
H  52.58500 18.44200 42.66100
H  53.71700 17.65500 43.75900
H  58.52200 17.82100 43.77700
H  58.20600 19.36100 44.62400
H  58.68400 19.39500 42.91400
H  59.64400 23.69700 43.58700
H  59.16100 25.70500 45.56000
H  58.90700 22.51600 46.08100
H  59.84800 23.90500 46.53100
H  60.61200 22.85500 45.47300
H  60.30000 26.37500 43.61100
H  59.16400 27.45500 43.84300
H  57.87000 27.02600 41.87800
H  58.34500 25.23200 41.95500
H  59.45700 26.51400 41.44600
H  55.89400 29.69800 45.16800
H  54.75800 29.30700 46.55700
H  54.17700 30.25600 45.21300
H  49.89400 27.15000 44.36400
H  47.87800 29.85400 41.51500
H  48.65400 28.43900 40.78500
H  49.37400 30.15000 40.90500

