158

Mg 26.70600 50.15100 26.42300
C  24.44900 51.35300 28.91600
C  28.74600 49.23900 29.03000
C  28.88500 49.10200 24.09300
C  24.81900 51.81100 23.96900
N  26.53500 50.23600 28.73600
C  25.41900 50.57000 29.49100
C  25.76700 50.42700 31.03200
C  27.21600 49.76100 31.03400
C  27.58000 49.79400 29.48500
C  28.25400 50.43200 31.99600
C  24.69200 49.59000 31.87800
C  24.21800 50.26700 33.17000
H  23.82000 49.38800 34.34900
N  28.52100 49.24000 26.59200
C  29.21000 48.94500 27.77100
C  30.47400 48.31200 27.45600
C  30.57200 48.25900 25.98000
C  29.25400 48.86200 25.47900
C  31.52400 47.98200 28.43900
C  31.63900 47.88100 25.07600
O  31.53200 48.19800 23.88900
C  32.87900 47.18400 25.68900
N  26.80200 50.38000 24.36000
C  27.78600 49.81200 23.63800
C  27.64400 50.05500 22.12100
C  26.26300 50.88500 22.07900
C  25.93400 50.97200 23.57300
C  28.80700 50.84600 21.51100
C  25.12400 50.11700 21.36600
C  24.27400 50.91000 20.28700
N  25.06300 51.38200 26.42000
C  24.36000 51.95200 25.33400
C  23.15700 52.63500 25.80900
C  23.10800 52.35700 27.22900
C  24.27600 51.64300 27.50000
C  22.00100 53.19200 24.97300
C  22.32100 52.48300 28.39300
O  21.19100 52.93000 28.50500
C  23.14300 51.88400 29.56400
C  23.47700 52.85100 30.65500
O  24.40800 53.66300 30.48900
O  22.55700 52.88900 31.69000
C  22.72200 53.98200 32.70200
H  29.38700 48.87200 29.83400
H  29.50300 48.75600 23.26200
H  24.21800 52.11400 23.10800
H  25.77900 51.45600 31.39000
H  27.13800 48.70700 31.30100
H  28.36400 49.75900 32.84700
H  27.85400 51.39200 32.32300
H  29.18800 50.55100 31.44600
H  25.21700 48.65800 32.08500
H  23.87200 49.51100 31.16400
H  23.44300 51.03200 33.11100
H  24.97000 50.92800 33.60100
H  32.27800 48.74300 28.23900
H  31.74700 46.93400 28.23900
H  31.26100 48.02400 29.49600
H  33.71700 47.13500 24.99400
H  32.67200 46.25300 26.21800
H  33.27000 47.84700 26.46000
H  27.60400 49.07900 21.63700
H  26.29900 51.86400 21.60200
H  28.49700 51.73700 20.96300
H  29.45900 50.29400 20.83400
H  29.38900 51.17400 22.37200
H  24.47700 49.70600 22.14000
H  25.65900 49.29100 20.89800
H  24.19600 50.12500 19.53500
H  24.65400 51.74700 19.70100
H  23.28300 51.19800 20.63800
H  21.18300 53.52300 25.61200
H  21.46500 52.50800 24.31500
H  22.33300 53.99700 24.31700
H  22.47000 51.11500 29.94400
H  21.89900 54.68200 32.55900
H  23.59600 54.60000 32.49900
H  22.66300 53.51800 33.68700
Mg -0.21600 42.91900 25.96400
C  1.91300 42.95800 28.69400
C  -2.92400 42.51400 28.11500
C  -2.19000 42.66700 23.27100
C  2.57800 43.09300 23.92000
N  -0.38700 42.89600 28.11100
C  0.55600 42.90800 29.09900
C  0.01700 42.96900 30.49200
C  -1.55300 42.70300 30.22900
C  -1.60800 42.56900 28.68600
C  -2.18000 41.38500 30.79400
C  0.36500 44.39900 31.14800
C  0.90700 44.35800 32.54700
H  0.64400 43.15400 33.41500
N  -2.24300 42.57000 25.72200
C  -3.20100 42.46700 26.73000
C  -4.52300 42.46900 26.08600
C  -4.22400 42.26600 24.72000
C  -2.84200 42.44400 24.53100
C  -5.79000 42.43600 26.90600
C  -5.24800 41.85200 23.71400
O  -4.91100 41.70700 22.58300
C  -6.71400 41.62100 24.15300
N  0.17000 42.84500 23.94800
C  -0.79600 42.67800 23.01700
C  -0.24200 42.73600 21.53500
C  1.27200 43.00000 21.79600
C  1.36500 42.89500 23.26800
C  -0.50600 41.53200 20.57700
C  1.74600 44.42900 21.33500
C  3.06300 44.47800 20.65300
N  1.87000 42.92500 26.17300
C  2.85800 43.04600 25.28200
C  4.15600 43.00900 25.93300
C  3.83500 43.05400 27.25300
C  2.40600 43.01700 27.36200
C  5.53900 42.96900 25.20900
C  4.44300 43.17400 28.51000
O  5.60200 43.34400 28.82500
C  3.20300 43.02100 29.50600
C  3.33300 41.77800 30.37000
O  3.09600 40.56900 30.09800
O  4.00200 42.13100 31.54200
C  4.41900 40.99500 32.32700
H  -3.74100 42.46100 28.83800
H  -2.81700 42.82600 22.39100
H  3.49900 43.03600 23.33600
H  0.44600 42.09900 30.99000
H  -2.18200 43.52000 30.58200
H  -2.60800 40.78400 29.99200
H  -2.97500 41.62600 31.49900
H  -1.55900 40.81100 31.48100
H  -0.44900 45.12200 31.09300
H  1.11100 44.78300 30.45300
H  0.39800 45.15200 33.09400
H  1.99500 44.39800 32.60300
H  -6.60400 43.12400 26.67700
H  -5.47500 42.49600 27.94800
H  -6.13600 41.41200 26.76600
H  -6.84300 40.69300 24.71000
H  -7.17600 41.60300 23.16600
H  -7.25400 42.41100 24.67400
H  -0.71100 43.62600 21.11400
H  1.87500 42.22700 21.32000
H  -0.87000 40.62200 21.05400
H  0.44800 41.22700 20.14600
H  -1.09200 41.78300 19.69300
H  1.75100 45.10400 22.19100
H  1.03400 44.85800 20.63000
H  3.82000 43.71400 20.82900
H  3.55600 45.43700 20.81200
H  2.72200 44.51300 19.61800
H  6.12100 42.08000 25.45000
H  6.01000 43.92300 25.44800
H  5.40800 42.93500 24.12700
H  3.27600 43.81000 30.25400
H  4.68500 41.33400 33.32800
H  5.38400 40.66800 31.94000
H  3.75400 40.14800 32.49300

