158

Mg 41.17900 8.64700 29.65700
C  43.04500 9.49300 32.40300
C  38.85700 7.31000 31.71100
C  39.60200 7.47500 26.98800
C  44.03900 9.08900 27.56300
N  41.02300 8.26900 31.86300
C  41.81800 8.92600 32.78700
C  41.16400 8.81400 34.21500
C  40.07200 7.70000 33.99300
C  39.98400 7.75500 32.41500
C  40.54700 6.29000 34.58200
C  40.63900 10.22600 34.69700
C  40.43700 10.47200 36.23300
H  41.48000 11.22000 37.04200
N  39.32800 7.64400 29.33300
C  38.50100 7.21400 30.34600
C  37.20500 6.84100 29.74000
C  37.37200 6.93600 28.30500
C  38.76500 7.35400 28.10400
C  35.98500 6.46600 30.56100
C  36.43300 6.61900 27.03100
O  36.87400 6.57200 25.87400
C  35.05600 6.42600 27.25800
N  41.91100 8.00700 27.72000
C  40.93400 7.69400 26.80700
C  41.47600 7.52000 25.35900
C  42.86900 8.18500 25.49600
C  42.94800 8.44400 27.00200
C  41.44200 6.03000 24.85000
C  43.03900 9.54200 24.67500
C  41.91100 10.59300 24.72100
N  43.24700 9.16500 29.84500
C  44.30100 9.33800 28.93700
C  45.36200 9.94000 29.76500
C  44.92100 10.09400 31.06200
C  43.64500 9.53800 31.06800
C  46.61300 10.50200 29.21200
C  45.26300 10.60200 32.37800
O  46.17600 11.29100 32.77700
C  44.10200 10.14700 33.30900
C  44.62500 9.22100 34.33000
O  44.50300 8.01000 34.30200
O  45.42100 9.96400 35.19600
C  46.29300 9.14700 36.15700
H  38.12400 7.05400 32.48000
H  39.08500 7.35900 26.03300
H  44.88900 9.37100 26.93700
H  41.96500 8.43900 34.85300
H  39.09200 7.95200 34.39900
H  41.61300 6.37800 34.78900
H  40.33700 5.53400 33.82500
H  39.87600 5.88500 35.34000
H  39.73100 10.40300 34.12100
H  41.43600 10.86700 34.32000
H  40.22900 9.51700 36.71700
H  39.51000 11.03500 36.33700
H  35.95300 5.37800 30.62100
H  35.03000 6.76000 30.12400
H  36.01300 6.81300 31.59400
H  34.64100 6.09300 26.30700
H  34.58100 7.33900 27.61900
H  34.85600 5.56700 27.89800
H  40.89700 8.07700 24.62200
H  43.67400 7.47700 25.29600
H  40.43400 5.67700 24.63500
H  41.93500 5.33800 25.53400
H  42.06800 6.01000 23.95800
H  43.34000 9.13200 23.71100
H  43.90800 10.06300 25.07700
H  41.63200 10.84700 23.69900
H  42.37300 11.48200 25.15000
H  41.03700 10.29300 25.29900
H  46.42100 11.23800 28.43100
H  47.05400 9.61900 28.75000
H  47.04800 11.04100 30.05300
H  43.71200 11.05000 33.77900
H  46.78600 8.38800 35.55000
H  45.65000 8.67100 36.89700
H  46.92600 9.83500 36.71800
Mg 34.49600 47.59300 24.69200
C  35.09500 46.21200 27.86700
C  32.87000 50.32700 26.09900
C  33.62900 48.58400 21.65600
C  36.22800 44.94100 23.25400
N  34.07400 48.29300 26.77500
C  34.36300 47.51000 27.86900
C  33.91200 48.27800 29.17000
C  33.18800 49.57100 28.55400
C  33.36700 49.42500 27.07100
C  31.70200 49.85700 29.06600
C  35.00500 48.38000 30.24500
C  34.76400 47.68500 31.58200
H  33.40000 47.57100 32.24500
N  33.47700 49.30500 23.99800
C  32.88300 50.29400 24.72500
C  32.29800 51.27500 23.79200
C  32.33300 50.69900 22.55100
C  33.14100 49.43400 22.69700
C  31.72200 52.69700 24.28500
C  31.83500 51.25500 21.23500
O  31.84200 50.66200 20.17300
C  31.09400 52.60900 21.21400
N  34.90500 46.86100 22.72700
C  34.50500 47.50900 21.66000
C  35.13000 46.90500 20.36800
C  36.08600 45.84600 20.96500
C  35.76600 45.89800 22.38600
C  34.19200 46.37400 19.22100
C  37.55200 45.96000 20.55900
C  38.45600 44.68600 20.62700
N  35.39500 45.97000 25.36500
C  36.03300 44.91200 24.63300
C  36.39400 43.85000 25.59500
C  36.05400 44.25900 26.89000
C  35.49100 45.58700 26.65900
C  37.09600 42.55100 25.21700
C  36.05700 43.88600 28.29500
O  36.48200 42.88200 28.87800
C  35.36500 45.11700 29.02900
C  34.06400 44.71700 29.77200
O  32.92500 44.59800 29.27200
O  34.32100 44.47400 31.12000
C  33.21000 43.77300 31.80300
H  32.50700 51.26300 26.52900
H  33.37100 48.94500 20.65900
H  36.76800 44.05900 22.90500
H  33.09800 47.68800 29.59100
H  33.67600 50.46000 28.95300
H  31.05100 49.91900 28.19400
H  31.65400 50.84400 29.52600
H  31.41000 49.06200 29.75300
H  35.06400 49.45200 30.42900
H  35.95800 48.03300 29.84500
H  35.27000 48.31500 32.31400
H  35.19400 46.68500 31.63500
H  32.23900 53.48900 23.74200
H  31.96400 52.79300 25.34300
H  30.66200 52.81100 24.05800
H  31.80200 53.33800 21.61100
H  30.15600 52.72800 21.75700
H  30.76300 52.84100 20.20200
H  35.74500 47.68500 19.91900
H  35.76000 44.82300 20.77600
H  33.18000 46.52400 19.59600
H  34.31300 45.30000 19.08100
H  34.27600 46.85000 18.24400
H  37.97600 46.66100 21.27700
H  37.58100 46.46200 19.59200
H  39.24900 44.83900 21.35900
H  38.87200 44.58000 19.62500
H  37.87000 43.82000 20.93300
H  37.94700 42.71400 24.55600
H  36.47200 41.81200 24.71300
H  37.54900 42.16100 26.12900
H  35.96300 45.44200 29.88000
H  33.68500 43.42600 32.72000
H  32.78500 42.95900 31.21600
H  32.39700 44.46600 32.02000

