158

Mg 7.66100 53.42900 41.10100
C  7.07700 49.97400 40.66100
C  10.75600 52.94700 40.00400
C  7.83600 56.75800 40.52000
C  4.20400 53.83600 41.86100
N  8.72100 51.62500 40.31300
C  8.40700 50.29600 40.27900
C  9.61500 49.39000 40.07000
C  10.76400 50.43800 40.16300
C  10.07300 51.80800 40.11300
C  11.78500 50.33100 41.33300
C  9.68400 48.30200 38.96100
C  9.77700 48.84200 37.55000
H  8.48300 48.62400 36.77100
N  9.17500 54.73400 40.43200
C  10.36200 54.27400 40.11000
C  11.27400 55.39900 39.93600
C  10.46100 56.60300 40.07400
C  9.10000 56.08100 40.41800
C  12.72800 55.26200 39.68400
C  10.99000 57.97600 39.84700
O  12.13600 58.23400 39.47200
C  10.04300 59.13000 39.86400
N  6.13100 55.04400 41.00500
C  6.52200 56.33700 40.89400
C  5.36100 57.27600 41.14200
C  4.21200 56.35300 41.71800
C  4.85700 54.99100 41.43900
C  5.76500 58.56500 42.02900
C  2.84900 56.59300 41.00800
C  1.74500 56.88300 42.06000
N  5.95200 52.17900 41.22400
C  4.64000 52.47700 41.64700
C  3.90100 51.24400 41.79700
C  4.83600 50.24400 41.43500
C  6.04200 50.84700 41.07600
C  2.51000 51.04000 42.26200
C  4.98800 48.74700 41.26300
O  4.21400 47.77200 41.42000
C  6.38600 48.58500 40.76200
C  6.23800 47.85100 39.54300
O  5.76600 48.42300 38.54800
O  6.68100 46.54500 39.57300
C  6.53100 45.79300 38.30600
H  11.76800 52.80700 39.61800
H  7.88500 57.82500 40.29300
H  3.12600 53.90500 42.01800
H  9.49400 48.75800 40.94900
H  11.36700 50.35200 39.25900
H  12.54400 49.85900 40.70900
H  11.48400 49.55200 42.03300
H  12.23200 51.22300 41.77100
H  8.80300 47.67200 39.07900
H  10.53500 47.63300 39.09300
H  10.69600 48.45600 37.10700
H  9.93500 49.91900 37.49300
H  12.98000 54.94000 38.67400
H  13.01300 54.45900 40.36500
H  13.31500 56.13700 39.96500
H  10.53500 60.06900 39.60900
H  9.64500 59.13400 40.87900
H  9.18500 58.80900 39.27400
H  5.04500 57.59700 40.15000
H  4.16500 56.40500 42.80600
H  6.60100 58.32800 42.68700
H  4.98000 58.74900 42.76200
H  5.97900 59.45500 41.43800
H  2.55800 55.64100 40.56400
H  2.91100 57.33100 40.20800
H  1.63000 57.93000 42.34300
H  1.89700 56.46200 43.05400
H  0.81200 56.45900 41.68700
H  2.38500 50.01500 42.61100
H  1.88900 51.27200 41.39700
H  2.12700 51.56000 43.14000
H  6.91800 47.94000 41.46100
H  5.95200 46.30900 37.54000
H  6.04800 44.86300 38.60500
H  7.49900 45.38500 38.01400
Mg -11.03600 17.14000 42.07500
C  -7.58000 18.05000 41.99200
C  -11.87200 20.38100 41.89100
C  -14.24100 16.06400 42.04100
C  -9.97300 13.79100 42.04500
N  -9.80900 18.99200 41.82200
C  -8.46800 19.17600 41.88900
C  -8.06900 20.64400 41.98800
C  -9.42800 21.30000 42.30600
C  -10.42100 20.16600 42.06600
C  -9.53300 21.86700 43.80200
C  -7.37200 21.14300 40.70300
C  -5.83600 21.45400 40.82600
H  -4.98800 20.81200 39.72200
N  -12.82000 18.05500 41.80400
C  -12.99300 19.43000 41.74600
C  -14.39600 19.73000 41.47900
C  -15.15000 18.48500 41.52700
C  -14.09500 17.45900 41.85200
C  -14.94800 21.11500 41.35200
C  -16.62600 18.33000 41.27400
O  -17.39700 19.26600 40.91800
C  -17.22900 17.03600 41.22200
N  -11.98300 15.21100 42.07500
C  -13.29500 15.05700 42.25300
C  -13.72800 13.57800 42.40700
C  -12.28800 12.89200 42.41800
C  -11.36500 13.98900 42.06300
C  -14.68600 13.20900 43.59800
C  -12.16800 11.63700 41.56900
C  -12.13100 10.35000 42.29500
N  -9.19500 16.08600 42.02500
C  -8.94000 14.73900 41.98600
C  -7.51400 14.44000 42.08800
C  -6.99800 15.74400 42.03500
C  -8.01500 16.73700 41.99600
C  -6.67800 13.18300 42.02500
C  -5.76200 16.43600 42.06800
O  -4.65000 15.96000 42.07600
C  -6.09000 17.93000 42.13400
C  -5.57700 18.46400 43.40000
O  -5.95400 18.20200 44.50600
O  -4.36000 19.14400 43.12100
C  -3.45900 19.54300 44.25500
H  -12.10200 21.43600 42.04900
H  -15.30800 15.83100 42.06800
H  -9.62600 12.77400 42.23800
H  -7.33700 20.77000 42.78600
H  -9.74300 22.14100 41.68800
H  -10.27500 21.29400 44.35800
H  -9.80800 22.92000 43.75000
H  -8.55600 21.88000 44.28600
H  -7.94300 21.97200 40.28400
H  -7.45600 20.36600 39.94200
H  -5.46700 21.17800 41.81300
H  -5.64700 22.52800 40.81500
H  -15.28500 21.43000 40.36400
H  -14.28400 21.83800 41.82700
H  -15.90000 21.14500 41.88100
H  -18.21500 17.10600 40.76200
H  -17.35000 16.59800 42.21300
H  -16.68100 16.51600 40.43500
H  -14.29200 13.34700 41.50300
H  -11.95900 12.65300 43.43000
H  -15.66000 13.11100 43.12000
H  -14.69200 14.11500 44.20300
H  -14.39700 12.26200 44.05500
H  -11.38800 11.73700 40.81400
H  -13.06300 11.66800 40.94800
H  -11.48400 9.60600 41.83000
H  -13.10000 9.85900 42.19600
H  -11.79100 10.31800 43.33000
H  -6.15800 12.91700 42.94500
H  -5.98800 13.18600 41.18000
H  -7.33600 12.35900 41.74900
H  -5.63300 18.47000 41.30400
H  -3.01000 20.50700 44.01200
H  -2.57500 18.90600 44.26800
H  -3.93100 19.52600 45.23800

