158

Mg 2.55500 -0.98000 44.59400
C  5.81600 -0.49700 43.58900
C  1.60100 1.45200 42.35500
C  -0.72400 -1.97100 44.88100
C  3.54400 -3.97300 46.27900
N  3.58200 0.39700 43.13700
C  4.94500 0.45800 42.98900
C  5.29000 1.52200 41.96000
C  3.98700 2.37300 41.78700
C  2.97400 1.38800 42.46800
C  4.21400 3.77300 42.40200
C  5.98000 0.93800 40.69400
C  7.29800 1.56500 40.24000
H  7.25900 2.34900 38.94400
N  0.67300 -0.14300 43.95000
C  0.52100 0.72700 42.98400
C  -0.88200 1.04500 42.74800
C  -1.55500 0.02200 43.49500
C  -0.57800 -0.77500 44.20900
C  -1.44500 2.22900 41.85900
C  -3.04600 -0.20900 43.44500
O  -3.76700 0.52500 42.83500
C  -3.72600 -1.23400 44.28400
N  1.57700 -2.73700 45.40400
C  0.13400 -2.90000 45.39500
C  -0.23700 -4.14500 46.11200
C  1.15500 -4.84300 46.52100
C  2.15700 -3.79100 46.09700
C  -1.25600 -4.08100 47.28600
C  1.47800 -6.17000 45.78800
C  2.30600 -7.11800 46.54500
N  4.28300 -2.03500 44.90200
C  4.54900 -3.23400 45.63900
C  6.01700 -3.40000 45.65100
C  6.52200 -2.27000 44.91100
C  5.44400 -1.51600 44.50800
C  6.83100 -4.50300 46.20600
C  7.75700 -1.66600 44.35500
O  8.94100 -1.98800 44.46500
C  7.36900 -0.42700 43.48000
C  7.81400 0.82300 44.11200
O  7.39900 1.19500 45.14200
O  8.76000 1.49000 43.42100
C  9.26800 2.65900 44.12700
H  1.33900 2.21600 41.62100
H  -1.73100 -2.39200 44.90300
H  3.94400 -4.66400 47.02300
H  6.04900 2.14500 42.43200
H  3.59800 2.52900 40.78100
H  3.32300 4.40100 42.41300
H  5.11500 4.28500 42.06600
H  4.50100 3.71800 43.45200
H  5.33500 1.01300 39.81900
H  6.02500 -0.11100 40.98600
H  7.99300 0.72500 40.25700
H  7.56300 2.22900 41.06300
H  -2.20400 1.92000 41.14100
H  -0.62400 2.68500 41.30500
H  -1.86700 3.00600 42.49700
H  -4.79100 -1.01800 44.37300
H  -3.26100 -1.20300 45.27000
H  -3.54300 -2.19500 43.80300
H  -0.70900 -4.86500 45.44400
H  1.26000 -4.94400 47.60100
H  -2.11600 -4.68600 47.00000
H  -1.56000 -3.04000 47.39200
H  -0.80400 -4.25300 48.26300
H  1.95800 -5.82100 44.87300
H  0.60400 -6.68900 45.39400
H  1.82000 -8.07100 46.75500
H  2.60700 -6.66100 47.48700
H  3.20900 -7.14400 45.93500
H  6.45400 -4.82500 47.17700
H  7.85100 -4.21800 46.46100
H  6.84800 -5.34800 45.51700
H  7.67800 -0.51900 42.43900
H  10.32400 2.38600 44.13500
H  9.02700 2.90300 45.16100
H  9.25200 3.57400 43.53400
Mg -6.59900 25.08300 25.11800
C  -5.08100 26.50600 27.96700
C  -8.29000 22.99200 27.24500
C  -7.54400 23.24900 22.42400
C  -5.03300 27.40100 23.22700
N  -6.51900 24.70100 27.30200
C  -5.93500 25.47900 28.30700
C  -6.46200 25.02600 29.74600
C  -7.15000 23.69700 29.38300
C  -7.34200 23.75500 27.88000
C  -6.36500 22.45300 29.90400
C  -7.62400 26.11200 30.23200
C  -7.37200 26.70600 31.68500
H  -6.85800 25.67600 32.73400
N  -7.72900 23.33200 24.86900
C  -8.46800 22.75400 25.88000
C  -9.33400 21.73100 25.30400
C  -9.03400 21.69700 23.85400
C  -8.04900 22.77600 23.59600
C  -10.17800 20.88000 26.20400
C  -9.67700 20.89700 22.76100
O  -9.45400 21.15300 21.59000
C  -10.74100 19.90000 23.05500
N  -6.54400 25.38900 23.09700
C  -6.94000 24.49200 22.17400
C  -6.38500 24.93400 20.85000
C  -6.04700 26.39000 21.07100
C  -5.81600 26.44400 22.55100
C  -5.24000 24.04600 20.37800
C  -7.09100 27.45700 20.49600
C  -6.46700 28.31500 19.40100
N  -5.33100 26.71800 25.41900
C  -4.75500 27.56200 24.58700
C  -3.94300 28.56900 25.33800
C  -4.06800 28.12800 26.71600
C  -4.93500 26.99100 26.66900
C  -3.20400 29.74300 24.84700
C  -3.66800 28.51100 28.05700
O  -2.89700 29.33000 28.50200
C  -4.34800 27.34100 28.96900
C  -3.31000 26.62800 29.63800
O  -2.42400 25.94000 29.21100
O  -3.21100 27.10200 30.93200
C  -2.29700 26.54700 31.97300
H  -8.97400 22.45800 27.90800
H  -7.89300 22.78100 21.50100
H  -4.58000 28.09600 22.51700
H  -5.66600 24.92000 30.48300
H  -8.11300 23.56600 29.87600
H  -5.41000 22.70100 30.36700
H  -6.16500 21.78000 29.07100
H  -7.02900 21.90600 30.57300
H  -8.60900 25.64700 30.28500
H  -7.69200 26.96400 29.55500
H  -8.27100 27.07600 32.17700
H  -6.81700 27.64200 31.62200
H  -10.95700 20.36800 25.63800
H  -10.67100 21.43800 27.00000
H  -9.42500 20.24400 26.66800
H  -10.38300 19.16200 23.77300
H  -11.12000 19.47500 22.12700
H  -11.56800 20.52500 23.39200
H  -6.94700 24.84100 19.92100
H  -5.07200 26.57200 20.61800
H  -4.53300 24.69000 19.85400
H  -5.58600 23.40600 19.56700
H  -4.63900 23.51100 21.11300
H  -7.34400 28.14200 21.30500
H  -8.03700 27.01900 20.17900
H  -6.82900 28.05700 18.40600
H  -5.37800 28.34000 19.35600
H  -6.71400 29.37500 19.46000
H  -3.64600 29.98500 23.88000
H  -2.14500 29.48700 24.84900
H  -3.29100 30.59000 25.52700
H  -4.89600 27.76800 29.80900
H  -1.31000 26.48200 31.51400
H  -2.72500 25.60600 32.32000
H  -2.20600 27.27400 32.78000

