158

Mg 35.40900 48.68400 24.67300
C  35.12800 47.04000 27.85600
C  34.07800 51.50400 26.05800
C  35.10300 49.79500 21.56000
C  36.70600 45.65400 23.46600
N  34.68600 49.19200 26.77300
C  34.72600 48.37600 27.87800
C  34.41700 49.14000 29.10200
C  34.04700 50.64000 28.53000
C  34.23900 50.44500 26.97800
C  32.63900 51.08500 28.75600
C  35.61200 49.09100 30.06400
C  35.27700 49.34200 31.59700
H  33.82600 49.64400 32.18600
N  34.70100 50.43100 23.96900
C  34.24900 51.52000 24.65700
C  33.81200 52.53200 23.75700
C  34.00800 52.00500 22.41400
C  34.65400 50.68500 22.61600
C  33.25200 53.79600 24.29300
C  33.45300 52.62900 21.14800
O  33.58400 52.10800 20.01300
C  32.55900 53.80800 21.14000
N  35.78100 47.76100 22.80800
C  35.63300 48.49900 21.66200
C  36.40000 47.84200 20.51700
C  37.17800 46.62900 21.13400
C  36.55900 46.64700 22.52500
C  35.43600 47.51000 19.36600
C  38.71500 46.81200 21.25700
C  39.51100 45.50800 21.12000
N  35.90200 46.73200 25.40700
C  36.38200 45.61900 24.80000
C  36.51400 44.51300 25.69500
C  35.96400 44.97400 26.84600
C  35.71100 46.38300 26.69100
C  36.92000 43.13300 25.30500
C  35.62700 44.63200 28.21300
O  35.71900 43.59500 28.89500
C  35.13700 45.91800 28.94300
C  33.86300 45.78600 29.82000
O  32.74100 46.23600 29.65500
O  34.25100 45.12400 30.98000
C  33.22000 44.86100 32.00100
H  33.60400 52.35700 26.54800
H  35.18800 50.26000 20.57600
H  37.25900 44.90000 22.90300
H  33.50200 48.87100 29.63000
H  34.80200 51.36100 28.84400
H  31.99800 50.23700 28.99900
H  32.16100 51.58600 27.91500
H  32.63900 51.62700 29.70200
H  36.25000 49.93100 29.78900
H  36.21600 48.18500 30.00400
H  35.94000 50.14300 31.92400
H  35.61900 48.51000 32.21200
H  33.28600 54.71200 23.70500
H  33.37500 54.03500 25.35000
H  32.23100 53.41500 24.25300
H  31.78500 53.64100 21.89000
H  32.07200 53.89800 20.16900
H  33.20500 54.66000 21.35200
H  37.07500 48.66300 20.27600
H  36.87000 45.70300 20.64800
H  34.75300 46.71600 19.66600
H  36.08400 47.25200 18.52800
H  34.81900 48.37700 19.13000
H  38.96500 47.11600 22.27400
H  39.12600 47.61000 20.63900
H  40.08200 45.38100 22.04000
H  40.08800 45.47800 20.19500
H  38.89200 44.61300 21.06600
H  36.85800 42.48400 26.17900
H  37.92200 43.14700 24.87600
H  36.28200 42.72600 24.52100
H  35.85900 46.18500 29.71400
H  32.72700 43.97300 31.60600
H  32.46600 45.64500 32.06500
H  33.60300 44.68400 33.00600
Mg 26.69500 50.86400 25.92200
C  24.65000 51.94200 28.66200
C  28.92100 49.60200 28.19600
C  28.74700 50.14300 23.43300
C  24.65100 52.67200 23.77600
N  26.67800 50.75200 28.20300
C  25.80500 51.24600 29.11500
C  26.22700 50.91500 30.51300
C  27.66100 50.27800 30.28300
C  27.83200 50.27800 28.78400
C  28.76600 51.10400 31.03100
C  25.23100 50.05300 31.25100
C  24.53900 50.83700 32.48400
H  24.55100 50.12200 33.85200
N  28.54800 49.93700 25.82200
C  29.22300 49.40300 26.85500
C  30.36100 48.64000 26.37200
C  30.39700 48.89300 24.99800
C  29.21900 49.69000 24.65400
C  31.22900 47.77700 27.24700
C  31.32500 48.31200 24.01300
O  31.21100 48.56400 22.85900
C  32.41400 47.35100 24.42400
N  26.70800 51.33400 23.88800
C  27.63200 50.91000 23.05200
C  27.25000 51.20400 21.62100
C  25.78500 51.84700 21.74500
C  25.71500 51.94300 23.20600
C  28.24600 52.14200 20.81400
C  24.58800 51.07800 21.12600
C  23.99300 51.60600 19.84500
N  24.88900 51.95000 26.08400
C  24.25400 52.69900 25.16300
C  23.14100 53.46100 25.79000
C  23.23500 53.13200 27.19200
C  24.24600 52.10500 27.25600
C  22.16700 54.41200 25.05300
C  22.65500 53.43900 28.48800
O  21.70900 54.10800 28.79600
C  23.56900 52.65600 29.48900
C  24.06600 53.70800 30.47300
O  25.07800 54.29800 30.29800
O  23.30300 53.79300 31.60400
C  23.85400 54.62900 32.75000
H  29.54700 49.09600 28.93300
H  29.44500 49.95700 22.61500
H  24.00400 53.23300 23.09900
H  26.32700 51.84700 31.07000
H  27.72200 49.31300 30.78500
H  28.36600 52.07400 31.32600
H  29.61300 51.34500 30.38900
H  29.18300 50.53000 31.85900
H  25.59000 49.05700 31.51000
H  24.42400 49.87500 30.54100
H  23.50000 50.98400 32.19000
H  24.97600 51.81800 32.66900
H  31.32800 46.76500 26.85500
H  30.92000 47.57400 28.27300
H  32.24000 48.18600 27.23400
H  32.92000 47.76900 25.29500
H  33.11300 47.06700 23.63800
H  32.07800 46.36800 24.75200
H  27.13300 50.26200 21.08500
H  25.87300 52.84400 21.31300
H  29.17200 52.16200 21.38800
H  27.89100 53.17100 20.76900
H  28.40300 51.67400 19.84200
H  23.78700 51.03000 21.86400
H  24.77700 50.01500 20.98300
H  22.96700 51.90100 20.06300
H  24.08500 50.94500 18.98300
H  24.46600 52.47900 19.39500
H  22.67500 54.76900 24.15700
H  21.82600 55.14000 25.78900
H  21.31300 53.86800 24.65000
H  23.01000 52.00100 30.15800
H  22.97100 54.68300 33.38700
H  24.07600 55.64500 32.42500
H  24.62500 54.06500 33.27600

