158

Mg 25.28000 2.04600 29.73300
C  27.02600 1.63900 32.74200
C  22.44900 1.60200 31.66900
C  23.51200 2.10300 26.87900
C  28.19800 1.64500 27.92400
N  24.82400 1.78700 31.98600
C  25.65200 1.75900 32.98800
C  25.01000 1.90200 34.38600
C  23.47200 1.81800 34.00800
C  23.54800 1.67100 32.45100
C  22.69600 0.56500 34.53100
C  25.44500 3.25100 35.15600
C  26.45200 3.05200 36.34800
H  26.32100 4.20600 37.37800
N  23.28600 2.00200 29.32800
C  22.28200 1.74400 30.25400
C  20.96500 1.75400 29.52600
C  21.26600 1.90700 28.14200
C  22.77500 2.03000 28.09600
C  19.65700 1.29800 30.21700
C  20.31900 1.75700 26.87200
O  20.67400 1.64200 25.71300
C  18.89300 1.77300 27.09900
N  25.78200 1.79200 27.66600
C  24.90500 2.00400 26.72000
C  25.56300 2.01200 25.30100
C  27.08500 1.94100 25.62400
C  27.06300 1.74500 27.12000
C  25.04500 0.89100 24.37900
C  27.87800 3.19200 25.17100
C  27.44200 4.61500 25.67900
N  27.23600 1.71500 30.15800
C  28.31400 1.57500 29.32700
C  29.44800 1.28900 30.18900
C  29.04400 1.41800 31.48600
C  27.63900 1.63500 31.45300
C  30.86700 1.00200 29.78700
C  29.46700 1.30900 32.88300
O  30.63000 1.31200 33.32600
C  28.20400 1.58100 33.74600
C  28.21800 0.56300 34.86000
O  27.77800 -0.56500 34.78500
O  28.88400 1.15500 35.93000
C  28.87200 0.29700 37.15300
H  21.54500 1.57600 32.28200
H  22.95700 2.16400 25.94100
H  29.16500 1.64800 27.41600
H  25.23200 1.01600 34.98100
H  23.04300 2.78200 34.28200
H  21.78700 0.91400 35.02200
H  23.31500 0.02200 35.24500
H  22.50400 -0.06000 33.65900
H  24.57600 3.73200 35.60500
H  26.05000 3.74800 34.39900
H  27.47000 3.18500 35.98200
H  26.41200 2.05400 36.78300
H  19.77100 1.39800 31.29600
H  19.46300 0.23800 30.05100
H  18.74900 1.82400 29.92200
H  18.62900 2.43200 27.92600
H  18.45100 0.78200 27.20000
H  18.39800 2.02300 26.16100
H  25.27700 2.96300 24.85100
H  27.50900 1.04500 25.17100
H  25.06200 1.21000 23.33700
H  24.07300 0.64300 24.80600
H  25.69900 0.02800 24.49900
H  27.81300 3.25800 24.08500
H  28.89900 3.07200 25.53400
H  28.31200 5.10900 26.11100
H  26.62400 4.62300 26.40000
H  27.07900 5.23900 24.86200
H  31.44700 1.47400 30.58000
H  31.13100 1.52500 28.86800
H  31.12700 -0.04900 29.91300
H  28.37500 2.50700 34.29600
H  29.04400 -0.77000 37.01100
H  27.92400 0.38600 37.68300
H  29.81100 0.48100 37.67500
Mg -5.82600 25.00700 26.15100
C  -4.41200 26.22300 29.09300
C  -7.98900 23.14900 28.26000
C  -7.19400 23.78800 23.39700
C  -3.68200 27.04500 24.36100
N  -6.22500 24.75700 28.56200
C  -5.49600 25.35000 29.53100
C  -6.07700 24.94600 30.92100
C  -6.91400 23.71300 30.50800
C  -7.07300 23.85500 29.02200
C  -6.35400 22.34500 30.89700
C  -6.90200 26.09500 31.63500
C  -6.58600 26.38300 33.08000
H  -5.83500 25.32800 34.05000
N  -7.29400 23.64700 25.86200
C  -8.11900 22.97900 26.85200
C  -9.13800 22.17500 26.21100
C  -8.86600 22.31600 24.77300
C  -7.75100 23.30200 24.64700
C  -10.21000 21.47700 26.97200
C  -9.52700 21.67100 23.58700
O  -9.23300 21.90500 22.42500
C  -10.56400 20.64300 23.90400
N  -5.46500 25.37000 24.14400
C  -6.15000 24.73400 23.15900
C  -5.62100 25.10600 21.78100
C  -4.65800 26.30800 22.09700
C  -4.56300 26.27600 23.60300
C  -4.85600 24.01600 20.91100
C  -5.06600 27.73800 21.66900
C  -4.14800 28.35500 20.55800
N  -4.26100 26.30100 26.58700
C  -3.53500 27.16500 25.76500
C  -2.61600 28.00600 26.59900
C  -3.00400 27.71000 27.91500
C  -4.00100 26.67600 27.84100
C  -1.57000 29.00900 25.95700
C  -2.70000 27.98600 29.31000
O  -1.77900 28.68700 29.78100
C  -3.53100 27.02200 30.12300
C  -2.69900 26.30900 31.08300
O  -2.07700 25.31000 30.78700
O  -2.68700 26.86300 32.35800
C  -1.79000 26.09000 33.19800
H  -8.65300 22.46200 28.79000
H  -7.64200 23.48200 22.45000
H  -3.00100 27.62200 23.73100
H  -5.20400 24.69100 31.52200
H  -7.88600 23.68200 31.00100
H  -7.03800 21.99500 31.67000
H  -5.34400 22.43000 31.29700
H  -6.40400 21.51800 30.18800
H  -7.98000 25.93400 31.60700
H  -6.74100 26.89700 30.91400
H  -7.55700 26.59100 33.52900
H  -6.01100 27.30900 33.10700
H  -9.83500 20.49700 27.26700
H  -11.12000 21.52600 26.37400
H  -10.50900 22.02500 27.86500
H  -10.79800 20.13700 22.96800
H  -11.45600 21.21700 24.15300
H  -10.42500 19.96900 24.74900
H  -6.51100 25.40700 21.22800
H  -3.68500 26.07500 21.66500
H  -5.65800 23.33200 20.63500
H  -4.29200 23.35100 21.56500
H  -4.46300 24.44600 19.98900
H  -5.23900 28.38900 22.52500
H  -5.93900 27.61600 21.02700
H  -4.63600 28.71800 19.65300
H  -3.43600 27.64300 20.13900
H  -3.58400 29.18700 20.97900
H  -1.04400 29.59700 26.70800
H  -2.06700 29.75000 25.33100
H  -0.76900 28.45500 25.46700
H  -4.25100 27.59300 30.70900
H  -0.74200 26.15000 32.90300
H  -2.13800 25.05800 33.16000
H  -1.93600 26.48200 34.20500

