158

Mg 34.64400 49.36200 25.93900
C  34.44400 47.29500 28.66500
C  33.39600 51.92700 27.61300
C  34.58200 51.06600 23.00900
C  35.67300 46.46500 24.01700
N  33.81500 49.51400 27.86900
C  34.08000 48.63600 28.86500
C  33.87100 49.36900 30.21200
C  33.16200 50.69700 29.81300
C  33.47300 50.73000 28.32200
C  31.69400 50.84000 30.24500
C  35.17000 49.64000 31.08100
C  35.04000 50.26300 32.44700
H  33.61300 50.32100 33.08000
N  34.20400 51.29900 25.42900
C  33.79800 52.21800 26.30600
C  33.74600 53.48700 25.59100
C  34.03000 53.26100 24.24900
C  34.28600 51.82600 24.15000
C  33.21300 54.79300 26.26400
C  34.04600 54.24300 23.04000
O  34.19100 53.87900 21.88300
C  33.94800 55.69700 23.29200
N  34.93000 48.79800 23.77400
C  34.82700 49.74400 22.77500
C  35.23800 49.11500 21.47500
C  35.79900 47.71900 21.87000
C  35.48200 47.63700 23.29500
C  34.03300 49.08900 20.43200
C  37.23700 47.48700 21.41900
C  38.41500 47.78300 22.39200
N  34.92400 47.26900 26.21600
C  35.32900 46.26900 25.36300
C  35.30400 45.00200 26.10500
C  35.09400 45.37900 27.45000
C  34.76200 46.76400 27.42400
C  35.79600 43.76000 25.51400
C  35.06400 44.99800 28.89100
O  35.31400 43.95400 29.38900
C  34.66400 46.25500 29.69200
C  33.43200 45.90800 30.46400
O  32.38400 45.64300 29.90900
O  33.64600 45.87900 31.81900
C  32.63300 45.28600 32.64300
H  33.26500 52.83200 28.20900
H  34.74300 51.69000 22.12800
H  36.16400 45.65700 23.47100
H  33.24000 48.74600 30.84600
H  33.51700 51.53000 30.42000
H  31.40900 50.01900 30.90200
H  31.12400 50.59300 29.34900
H  31.41800 51.64100 30.93100
H  35.78600 50.19900 30.37700
H  35.62200 48.65900 31.22100
H  35.26500 51.31400 32.27200
H  35.72900 49.75200 33.12000
H  33.84700 55.66300 26.09500
H  33.12700 54.57800 27.33000
H  32.22900 55.07900 25.89300
H  33.12600 56.01800 23.93200
H  33.93100 56.12800 22.29100
H  34.86500 56.00900 23.79300
H  36.00600 49.78400 21.08700
H  35.25600 46.91100 21.37900
H  33.95000 49.88300 19.69000
H  33.17200 48.86200 21.06000
H  34.29100 48.20300 19.85100
H  37.39000 48.15600 20.57300
H  37.31800 46.43200 21.15700
H  38.89300 46.85900 22.71800
H  38.16200 48.30900 23.31200
H  39.18500 48.39100 21.91800
H  36.30600 44.08600 24.60800
H  34.89400 43.15100 25.44900
H  36.47000 43.31900 26.24800
H  35.49000 46.55500 30.33700
H  31.71100 45.74700 32.28900
H  32.79400 45.50900 33.69800
H  32.77500 44.20700 32.59900
Mg 7.06600 57.13100 41.37700
C  6.32600 53.80000 41.12600
C  10.23200 56.48200 40.31600
C  7.74900 60.51800 41.09800
C  3.77300 57.83000 42.09800
N  8.06900 55.36900 40.65000
C  7.56900 54.08200 40.60800
C  8.54300 53.11400 39.91300
C  9.89000 53.85100 40.07300
C  9.37700 55.35800 40.39400
C  10.84100 53.24000 41.06400
C  8.11800 52.86100 38.44000
C  8.39600 51.45300 37.78200
H  9.41000 51.14500 36.71800
N  8.78300 58.32100 40.84900
C  10.02000 57.84000 40.55200
C  10.96700 58.96500 40.36200
C  10.23900 60.18900 40.61300
C  8.90100 59.72100 40.85900
C  12.41700 58.83900 40.11000
C  10.80400 61.60600 40.56400
O  12.01200 61.86700 40.36400
C  9.90600 62.89700 40.71700
N  5.90000 58.93700 41.39100
C  6.40900 60.17600 41.38400
C  5.34700 61.24600 41.72000
C  4.07100 60.39300 42.07600
C  4.58600 58.96200 41.81000
C  5.73600 62.28200 42.83000
C  2.85400 60.82600 41.21900
C  1.40100 60.77100 41.85600
N  5.29500 56.04500 41.57700
C  4.02600 56.46200 41.93100
C  3.31100 55.22500 42.33400
C  4.19100 54.16500 42.02100
C  5.28900 54.73800 41.54500
C  1.99900 55.10500 43.11700
C  4.35200 52.72200 41.97100
O  3.73400 51.74200 42.40400
C  5.72800 52.44500 41.24400
C  5.40900 51.76400 39.98800
O  4.69700 52.22000 39.11400
O  6.02400 50.51900 39.87400
C  5.54800 49.73100 38.74500
H  11.26600 56.28800 40.02300
H  7.83400 61.60100 40.98400
H  2.77300 57.99800 42.50100
H  8.50600 52.17200 40.45900
H  10.54300 53.77700 39.20300
H  10.23100 52.78400 41.84400
H  11.43100 53.98700 41.59300
H  11.53700 52.49800 40.67300
H  8.57900 53.65300 37.85100
H  7.03500 52.85100 38.31900
H  7.42900 51.17700 37.36100
H  8.51900 50.63300 38.49100
H  12.58100 59.06400 39.05600
H  12.96100 57.95000 40.43200
H  12.79600 59.63400 40.75300
H  9.44800 62.82900 41.70400
H  9.16100 63.09500 39.94700
H  10.51800 63.79500 40.62900
H  5.29900 61.70400 40.73200
H  3.78800 60.46400 43.12600
H  5.80800 63.31800 42.49900
H  6.70600 61.97400 43.22000
H  4.98500 62.14900 43.60800
H  2.79700 60.21800 40.31600
H  2.89500 61.86100 40.87800
H  0.94100 61.66700 41.44000
H  1.40200 60.77600 42.94600
H  0.83500 59.89600 41.53600
H  1.96000 55.70400 44.02700
H  1.72100 54.08300 43.37800
H  1.20900 55.51300 42.48700
H  6.33100 51.77200 41.85300
H  4.64200 49.19900 39.03600
H  6.22700 48.95600 38.38800
H  5.22400 50.14400 37.79100

