158

Mg 42.10800 41.29000 26.58700
C  41.54800 43.51700 29.12400
C  42.98600 38.99600 29.09500
C  42.35800 38.99100 24.27600
C  41.28200 43.68800 24.25500
N  42.37200 41.35300 28.90100
C  41.91900 42.31700 29.69500
C  42.02300 41.88900 31.12500
C  42.91600 40.59400 31.09900
C  42.73300 40.23500 29.58000
C  44.41300 40.76400 31.47700
C  40.57000 41.70100 31.81900
C  40.20500 42.64000 32.98300
H  39.82100 41.99800 34.28400
N  42.77100 39.32400 26.67800
C  43.07100 38.55300 27.77300
C  43.51900 37.26000 27.34800
C  43.22000 37.22100 25.90000
C  42.73900 38.54600 25.57600
C  44.03700 36.16200 28.29500
C  43.41400 36.07300 24.93400
O  43.30900 36.13900 23.72500
C  43.81700 34.74400 25.32800
N  42.07900 41.34800 24.45500
C  42.00900 40.26700 23.75100
C  41.67300 40.51900 22.35300
C  41.22500 41.98800 22.38900
C  41.50600 42.36700 23.79600
C  42.91600 40.19800 21.35300
C  39.73100 42.30400 21.88400
C  39.60600 43.07500 20.54400
N  41.72100 43.26800 26.60800
C  41.34500 44.16300 25.62500
C  40.74800 45.29600 26.21600
C  40.90100 45.13600 27.54300
C  41.48200 43.92700 27.77000
C  40.32100 46.54900 25.46200
C  40.65300 45.85100 28.77600
O  40.35600 47.00400 29.01600
C  41.11500 44.80400 29.86200
C  42.19300 45.30700 30.79200
O  43.36800 45.28600 30.56900
O  41.64400 45.70000 31.95100
C  42.47900 46.51900 32.80200
H  43.06900 38.21100 29.84900
H  42.41100 38.26400 23.46200
H  40.83900 44.43600 23.59500
H  42.56300 42.72800 31.56400
H  42.53100 39.85900 31.80500
H  44.76200 41.79600 31.42700
H  44.99600 40.15600 30.78600
H  44.43500 40.43700 32.51700
H  40.44200 40.69400 32.21800
H  39.78900 41.80400 31.06600
H  39.31100 43.19300 32.69600
H  40.99400 43.32200 33.29900
H  45.01500 35.78200 28.00000
H  43.36400 35.30600 28.33000
H  44.07100 36.52800 29.32200
H  44.64600 34.73000 26.03500
H  44.02500 33.94300 24.61900
H  42.91700 34.44200 25.86300
H  40.80500 39.92300 22.07100
H  42.00400 42.59000 21.92100
H  43.81500 40.15600 21.96900
H  43.04200 41.05800 20.69600
H  42.89500 39.26900 20.78300
H  39.21300 42.71200 22.75200
H  39.27100 41.36000 21.59400
H  38.93000 43.90300 20.75700
H  39.08400 42.51000 19.77100
H  40.61300 43.37100 20.25300
H  40.74100 46.60700 24.45800
H  40.65600 47.45900 25.96000
H  39.24200 46.57400 25.30800
H  40.32300 44.44000 30.51700
H  42.86900 47.30600 32.15700
H  43.23100 45.94600 33.34400
H  41.76700 47.00200 33.47200
Mg -1.63100 34.88000 27.94500
C  -3.67900 32.93100 29.86700
C  -0.76800 36.65900 30.66600
C  0.08100 36.87800 25.86600
C  -2.79700 33.04500 25.04000
N  -2.39600 35.01200 29.93700
C  -3.05100 33.99300 30.56300
C  -2.99600 34.18000 32.09000
C  -2.28300 35.54400 32.30900
C  -1.81200 35.82100 30.91000
C  -3.13100 36.72200 32.89200
C  -2.20900 32.99500 32.77500
C  -2.90500 32.45400 34.05000
H  -2.19700 32.44500 35.42400
N  -0.48700 36.54400 28.21900
C  -0.23100 37.10000 29.42900
C  0.70600 38.11200 29.25600
C  0.92500 38.22300 27.88800
C  0.15500 37.20200 27.23500
C  1.19900 38.81200 30.52900
C  1.83400 39.23400 27.22900
O  2.04300 39.39700 26.04100
C  2.58400 40.12000 28.17700
N  -1.33300 34.83700 25.77900
C  -0.53500 35.84200 25.20000
C  -0.36600 35.52600 23.69300
C  -1.35900 34.35700 23.35900
C  -1.82300 34.02500 24.79900
C  -0.63900 36.77500 22.76100
C  -0.70700 33.07800 22.74800
C  -1.61000 32.29300 21.76500
N  -2.91100 33.35300 27.48300
C  -3.31100 32.72700 26.31000
C  -4.35800 31.75200 26.61500
C  -4.38200 31.75600 28.01400
C  -3.58000 32.74500 28.49700
C  -5.13900 31.08600 25.61500
C  -5.04300 31.04800 29.11000
O  -5.85000 30.14000 29.05300
C  -4.60300 31.87200 30.34100
C  -5.78000 32.51400 30.96200
O  -6.62300 33.18400 30.43900
O  -5.90400 32.00500 32.25000
C  -6.94900 32.57300 33.15200
H  -0.45700 37.15900 31.58600
H  0.79600 37.46700 25.28800
H  -3.12400 32.52600 24.13600
H  -4.01100 34.32600 32.45900
H  -1.47600 35.43300 33.03400
H  -3.66300 36.18700 33.67900
H  -3.66300 37.16500 32.05000
H  -2.49500 37.43200 33.42100
H  -1.17200 33.25100 32.99600
H  -2.00600 32.17900 32.08100
H  -3.08100 31.41200 33.78100
H  -3.85600 32.96000 34.21700
H  1.86500 38.10600 31.02500
H  0.40100 38.92500 31.26200
H  1.69900 39.78000 30.49300
H  3.13600 39.54700 28.92100
H  1.86000 40.85000 28.53900
H  3.20000 40.82800 27.62200
H  0.66600 35.24000 23.49000
H  -2.22800 34.68500 22.78800
H  -1.48200 36.60600 22.09100
H  0.23400 37.06500 22.17800
H  -0.96000 37.61800 23.37200
H  -0.47600 32.46300 23.61800
H  0.22500 33.35300 22.25500
H  -1.79700 31.35000 22.27900
H  -1.13400 31.94400 20.84900
H  -2.59200 32.71200 21.54800
H  -4.47800 30.51700 24.96100
H  -5.76000 31.83000 25.11700
H  -5.82300 30.37000 26.07100
H  -4.15400 31.31500 31.16400
H  -6.71200 33.42800 33.78600
H  -7.35000 31.75200 33.74600
H  -7.83000 32.90500 32.60100

