158

Mg 40.42400 9.74400 29.61700
C  42.18800 11.06700 32.40600
C  38.21000 8.40100 31.90400
C  38.91700 8.26500 27.01600
C  43.24400 10.38200 27.66600
N  40.25600 9.64200 31.89200
C  40.97500 10.45000 32.80700
C  40.32500 10.55900 34.13600
C  39.24000 9.42400 34.04300
C  39.20000 9.11800 32.48700
C  39.42800 8.19700 34.96100
C  39.84800 11.91400 34.74400
C  39.22000 11.89800 36.16100
H  40.03600 12.44100 37.40400
N  38.68900 8.64800 29.48100
C  37.93400 8.17300 30.53600
C  36.87800 7.29200 30.06000
C  36.99800 7.37500 28.56700
C  38.23600 8.11700 28.26000
C  35.96600 6.46400 30.96000
C  36.12500 6.74300 27.41400
O  36.31000 6.95900 26.17200
C  34.95900 5.88300 27.81800
N  41.10000 9.30100 27.68900
C  40.22100 8.74500 26.78700
C  40.73800 8.97400 25.34000
C  42.22700 9.40200 25.52500
C  42.20900 9.73300 27.01500
C  40.60800 7.74700 24.36600
C  42.73200 10.53200 24.55900
C  42.60700 12.03200 24.96300
N  42.32700 10.63200 29.85400
C  43.36400 10.85300 28.97400
C  44.39800 11.61500 29.59500
C  43.90800 11.83200 30.89200
C  42.73200 11.01100 31.10500
C  45.54900 12.08800 28.87600
C  44.23400 12.47600 32.18000
O  45.19900 13.13200 32.42300
C  43.15000 11.96000 33.16100
C  43.80700 11.37700 34.37300
O  44.51400 10.35500 34.34700
O  43.40500 12.08500 35.44800
C  43.86600 11.60100 36.76300
H  37.49600 8.00400 32.63000
H  38.33900 7.96900 26.13700
H  43.99700 10.69500 26.93900
H  41.14200 10.16100 34.73700
H  38.28600 9.89400 34.28300
H  40.47700 8.16900 35.25500
H  39.31000 7.25200 34.43200
H  38.75100 8.26500 35.81300
H  38.98700 12.24700 34.16600
H  40.58500 12.71600 34.79700
H  38.90800 10.88000 36.39400
H  38.33700 12.53300 36.23500
H  36.33700 6.29600 31.97100
H  35.86500 5.48600 30.49000
H  34.95600 6.87000 31.02400
H  35.37100 5.01800 28.33700
H  34.32700 5.66900 26.95700
H  34.44000 6.45600 28.58700
H  40.30100 9.89200 24.94700
H  42.96300 8.63200 25.29300
H  40.26400 6.81900 24.82300
H  41.51800 7.51500 23.81400
H  39.80400 7.98700 23.66900
H  42.28400 10.37500 23.57800
H  43.78900 10.30900 24.41400
H  41.91200 12.24300 25.77500
H  42.18400 12.57900 24.12100
H  43.61300 12.42500 25.10700
H  45.31600 12.48400 27.88700
H  46.34600 11.35500 28.75100
H  45.82900 12.97500 29.44400
H  42.70200 12.88600 33.52200
H  44.95400 11.59000 36.83500
H  43.35500 10.66100 36.97300
H  43.56000 12.35500 37.48800
Mg 42.46800 41.20900 26.80600
C  41.35100 43.67400 29.06400
C  43.46600 39.41500 29.41300
C  43.26700 38.81900 24.52900
C  41.61900 43.35600 24.17400
N  42.44900 41.55400 28.92500
C  41.91200 42.57800 29.71200
C  42.01100 42.38300 31.20100
C  42.93400 41.10600 31.23100
C  43.05900 40.71400 29.70600
C  44.37700 41.45000 31.77600
C  40.62300 42.24900 31.91500
C  40.45500 42.99900 33.23900
H  39.91200 42.10800 34.46300
N  43.39200 39.46200 26.98000
C  43.67800 38.81500 28.12400
C  44.11900 37.48000 27.79400
C  44.14500 37.32600 26.40300
C  43.55700 38.56800 25.90000
C  44.51400 36.47600 28.86300
C  44.59700 36.16500 25.56000
O  44.36600 36.11100 24.37200
C  45.37600 35.12900 26.22000
N  42.52900 41.19700 24.62200
C  42.82200 40.05500 23.93000
C  42.52900 40.16900 22.44000
C  41.98200 41.70800 22.28800
C  42.03100 42.12000 23.76400
C  43.72300 40.02900 21.46800
C  40.55000 41.77600 21.57800
C  39.35100 41.39700 22.38900
N  41.70100 43.19100 26.63200
C  41.44600 43.90200 25.51800
C  40.94000 45.18200 25.86500
C  40.79400 45.17500 27.25600
C  41.31300 43.91500 27.70300
C  40.46100 46.28300 24.89700
C  40.40300 45.89500 28.45400
O  39.87600 47.01400 28.56500
C  40.72400 44.95600 29.61400
C  41.58500 45.70300 30.53300
O  42.76400 45.87500 30.28600
O  40.80100 46.17500 31.52900
C  41.47700 46.98500 32.54300
H  43.82000 38.76100 30.21200
H  43.41300 38.05500 23.76200
H  41.36400 43.87500 23.24800
H  42.44500 43.23400 31.72600
H  42.63700 40.25200 31.83900
H  44.35100 42.52900 31.92900
H  45.17800 41.14700 31.10200
H  44.56700 40.96100 32.73200
H  40.49300 41.22600 32.26800
H  39.79100 42.62900 31.32200
H  39.66500 43.71700 33.02300
H  41.34700 43.60200 33.41000
H  44.13200 36.75400 29.84500
H  45.59400 36.37000 28.95900
H  44.02300 35.51700 28.69600
H  44.77700 34.48200 26.86000
H  46.17500 35.64100 26.75600
H  45.82800 34.47100 25.47700
H  41.82700 39.35200 22.27100
H  42.62000 42.40300 21.74100
H  43.79000 40.92100 20.84400
H  43.70900 39.12000 20.86600
H  44.64100 39.92800 22.04600
H  40.53100 41.10100 20.72200
H  40.30900 42.79600 21.28100
H  38.79200 40.69800 21.76700
H  38.65500 42.23300 22.46300
H  39.52900 41.06200 23.41100
H  39.79700 47.00600 25.37100
H  39.99200 45.80300 24.03900
H  41.38600 46.77900 24.60100
H  39.83900 44.69200 30.19200
H  42.54300 46.84000 32.71800
H  40.85200 46.81200 33.41800
H  41.54500 48.06200 32.39200

