158

Mg -2.60900 16.74800 27.29800
C  -3.13800 14.49400 30.10100
C  -3.18300 19.35800 29.58800
C  -2.27000 18.81600 24.78800
C  -2.55500 13.96300 25.22800
N  -3.20700 16.78900 29.62400
C  -3.35500 15.81000 30.54700
C  -3.38800 16.44100 31.97100
C  -3.64100 17.97500 31.70800
C  -3.35200 18.06100 30.18900
C  -5.00000 18.50100 32.08100
C  -2.32200 16.13300 33.09700
C  -2.90800 15.83100 34.47100
H  -2.00200 16.06200 35.68800
N  -2.66100 18.87400 27.12600
C  -2.91000 19.70000 28.22100
C  -2.76200 21.09700 27.69600
C  -2.49200 21.01600 26.28600
C  -2.52900 19.51600 26.00700
C  -2.86400 22.34100 28.56100
C  -2.22300 22.13300 25.31500
O  -2.09700 21.98900 24.10100
C  -1.93900 23.46500 25.86300
N  -2.64300 16.37700 25.30600
C  -2.25000 17.41200 24.48800
C  -2.16800 16.96100 23.05600
C  -2.04000 15.41400 23.23700
C  -2.33900 15.19600 24.68100
C  -3.37500 17.41800 22.19900
C  -0.65000 14.84800 22.81100
C  0.63000 15.35000 23.53800
N  -2.78300 14.69900 27.59400
C  -2.81700 13.73200 26.55800
C  -2.91500 12.40000 27.23100
C  -3.02600 12.64300 28.54300
C  -2.99300 14.06600 28.73500
C  -3.01900 11.06000 26.49800
C  -3.30400 12.04200 29.76800
O  -3.49800 10.87600 30.05400
C  -3.26200 13.22400 30.89300
C  -1.99600 12.95900 31.67300
O  -0.85700 13.13300 31.25900
O  -2.34200 12.53800 32.91000
C  -1.27000 12.54500 33.85400
H  -3.38800 20.10600 30.35600
H  -1.95700 19.59000 24.08400
H  -2.46300 13.05800 24.62400
H  -4.35100 16.01300 32.25200
H  -2.91500 18.43300 32.37900
H  -4.95700 19.23600 32.88400
H  -5.72500 17.69600 32.19500
H  -5.20800 19.16700 31.24400
H  -1.69300 16.99600 33.31800
H  -1.57600 15.39400 32.80600
H  -3.25300 14.81000 34.63700
H  -3.84800 16.37500 34.56800
H  -2.84100 22.19800 29.64100
H  -3.65700 23.04100 28.30000
H  -1.92800 22.89600 28.60300
H  -2.86600 23.93300 26.19500
H  -1.56500 24.08700 25.05000
H  -1.17000 23.55300 26.63000
H  -1.21100 17.36400 22.72300
H  -2.79800 14.94800 22.60700
H  -4.12900 17.69300 22.93600
H  -3.84200 16.70500 21.51900
H  -3.21000 18.35900 21.67400
H  -0.57400 14.84600 21.72300
H  -0.55400 13.76600 22.89800
H  0.40900 16.14000 24.25600
H  1.38700 15.83900 22.92500
H  1.06700 14.49900 24.06100
H  -2.49700 11.05100 25.54100
H  -4.01500 10.61800 26.47000
H  -2.46100 10.31300 27.06300
H  -4.16100 13.14300 31.50400
H  -0.53300 13.34700 33.81200
H  -0.71900 11.60400 33.83900
H  -1.70300 12.44800 34.85000
Mg 15.94700 -1.27100 27.49400
C  14.80800 0.58100 30.40700
C  18.08500 -3.02000 29.46200
C  17.15700 -2.61500 24.71100
C  13.91700 1.00400 25.55400
N  16.50200 -1.15400 29.70900
C  15.80900 -0.39500 30.62200
C  16.24400 -0.87700 32.04200
C  17.36000 -1.94700 31.74600
C  17.37900 -2.00200 30.21300
C  18.74000 -1.70300 32.40900
C  15.12400 -1.39900 32.82000
C  15.24700 -1.20100 34.36500
H  16.40600 -0.52800 35.01100
N  17.42100 -2.57700 27.15100
C  18.15800 -3.18500 28.10900
C  18.99500 -4.24000 27.42900
C  18.69300 -4.20900 25.99200
C  17.76700 -3.07200 25.89500
C  19.85400 -5.09800 28.17000
C  19.14800 -5.17100 24.90300
O  18.80600 -4.95700 23.73000
C  19.99700 -6.35200 25.25700
N  15.57000 -0.92500 25.46000
C  16.17800 -1.65300 24.47000
C  15.54800 -1.35300 23.07500
C  14.68600 -0.09300 23.34500
C  14.68100 -0.00000 24.91100
C  16.51300 -1.28000 21.83900
C  13.28200 -0.10200 22.71700
C  13.26600 -0.15100 21.21400
N  14.60500 0.44100 27.85700
C  13.92700 1.26900 26.99700
C  13.17700 2.25700 27.72200
C  13.43400 2.02700 29.08700
C  14.27700 0.94900 29.11500
C  12.46700 3.31500 27.03400
C  13.24900 2.49400 30.46200
O  12.62500 3.49500 30.91600
C  14.13700 1.47400 31.36600
C  15.07800 2.28800 32.28000
O  16.24100 2.58800 32.05900
O  14.36600 2.63600 33.41800
C  14.94500 3.64500 34.36500
H  18.61800 -3.68000 30.15000
H  17.39800 -3.12000 23.77300
H  13.32300 1.64100 24.89600
H  16.61000 -0.00800 32.58800
H  17.04100 -2.84600 32.27400
H  19.08700 -2.51200 33.05200
H  18.54200 -0.85600 33.06500
H  19.45400 -1.33000 31.67400
H  14.88200 -2.38300 32.41800
H  14.19200 -0.85600 32.66200
H  15.14900 -2.17700 34.84100
H  14.37000 -0.63800 34.68300
H  20.67600 -5.63300 27.69400
H  19.32900 -5.93000 28.63900
H  20.28500 -4.54500 29.00500
H  21.04500 -6.08300 25.39400
H  19.95000 -6.99900 24.38100
H  19.58100 -6.90800 26.09700
H  14.84100 -2.16500 22.90700
H  15.19300 0.81500 23.01900
H  17.44900 -1.79400 22.05800
H  16.70700 -0.37800 21.25800
H  15.98500 -1.92000 21.13200
H  12.71600 0.78700 22.99700
H  12.79700 -1.00000 23.09800
H  12.81000 0.70000 20.70800
H  12.74200 -1.05200 20.89700
H  14.27100 -0.21800 20.79700
H  13.12700 3.75200 26.28600
H  12.40400 4.05000 27.83600
H  11.47900 3.03200 26.67100
H  13.31700 0.95500 31.86300
H  14.52100 3.49500 35.35700
H  14.70500 4.66400 34.05900
H  16.00800 3.42600 34.46300

