158

Mg -2.63100 34.97600 26.25800
C  -4.31900 33.03600 28.74400
C  -1.08800 36.72600 28.60700
C  -1.45300 36.81600 23.79600
C  -4.65300 33.19900 23.85500
N  -2.91100 34.99300 28.44100
C  -3.42200 34.04900 29.23200
C  -3.00700 34.30100 30.76700
C  -2.08100 35.48700 30.60800
C  -1.97300 35.73300 29.09400
C  -2.71700 36.81400 31.36300
C  -2.24200 33.07300 31.37900
C  -2.88000 32.52100 32.66000
H  -2.02100 32.42100 33.91700
N  -1.44500 36.65100 26.15600
C  -0.88200 37.17800 27.26400
C  -0.01800 38.28900 26.82600
C  0.07400 38.19200 25.38000
C  -0.97600 37.21400 25.04600
C  0.66000 39.22200 27.78800
C  0.98500 38.94100 24.39100
O  0.86200 38.66700 23.18000
C  2.13900 39.75500 24.83600
N  -3.18800 35.08600 24.10600
C  -2.41000 35.87600 23.35300
C  -2.81000 35.85200 21.85600
C  -3.54000 34.45000 21.81700
C  -3.85200 34.23300 23.32800
C  -3.73000 37.00900 21.36200
C  -2.70500 33.31600 21.12300
C  -1.53200 32.66200 22.00300
N  -4.17300 33.45300 26.21900
C  -4.82000 32.80200 25.19400
C  -5.63900 31.71600 25.64600
C  -5.46200 31.75200 27.06600
C  -4.53000 32.81600 27.35800
C  -6.37300 30.80000 24.79100
C  -5.73700 31.10800 28.30300
O  -6.46200 30.16900 28.56000
C  -5.02600 31.86800 29.45100
C  -6.04200 32.37600 30.39000
O  -6.89000 33.27200 30.27100
O  -5.85600 31.76900 31.61100
C  -6.71800 32.30800 32.69200
H  -0.44900 37.28100 29.29800
H  -0.96100 37.28700 22.94200
H  -5.16300 32.62100 23.08200
H  -3.89900 34.48500 31.36600
H  -1.08600 35.39100 31.04200
H  -2.88700 37.59100 30.61700
H  -1.98600 37.24200 32.05000
H  -3.67000 36.58000 31.83600
H  -1.20900 33.28400 31.65300
H  -2.15200 32.35000 30.56700
H  -3.22300 31.52000 32.39700
H  -3.85600 32.99300 32.77700
H  0.93100 40.18600 27.35700
H  1.59600 38.73300 28.05500
H  0.07700 39.30200 28.70500
H  1.95200 40.81800 24.99300
H  2.89300 39.83500 24.05200
H  2.64300 39.41300 25.74000
H  -1.89100 35.73500 21.28300
H  -4.45100 34.49800 21.22000
H  -4.77300 36.70100 21.42700
H  -3.46700 37.48700 20.41800
H  -3.56500 37.74100 22.15300
H  -2.24300 33.82600 20.27900
H  -3.29600 32.59400 20.56000
H  -1.70000 31.68300 22.45100
H  -1.34600 33.38600 22.79700
H  -0.57900 32.54400 21.48600
H  -6.07400 30.92100 23.75000
H  -7.40300 31.15200 24.84600
H  -6.45200 29.75100 25.07800
H  -4.38800 31.27400 30.10400
H  -6.16900 33.13800 33.13600
H  -6.91500 31.49100 33.38600
H  -7.70600 32.63800 32.37200
Mg -6.44700 25.80700 25.57500
C  -4.45400 27.04600 28.11200
C  -7.65000 23.47500 27.77400
C  -8.03400 24.37200 22.95900
C  -4.80500 28.03100 23.31000
N  -6.14100 25.41300 27.68700
C  -5.30300 26.08500 28.54200
C  -5.56100 25.56000 29.98400
C  -6.26100 24.16300 29.80400
C  -6.74700 24.34000 28.33600
C  -5.36000 22.87300 29.98400
C  -6.41000 26.60600 30.79300
C  -6.28300 26.53500 32.37400
H  -5.67900 25.30400 33.09200
N  -7.77100 24.15000 25.39700
C  -8.10900 23.32800 26.43900
C  -9.03800 22.30700 25.94300
C  -9.17200 22.54700 24.51800
C  -8.25600 23.66400 24.20800
C  -9.78600 21.40300 26.91100
C  -9.98900 21.88000 23.41800
O  -10.03100 22.21500 22.24100
C  -10.96800 20.72900 23.78900
N  -6.32400 26.11600 23.47600
C  -7.20100 25.45200 22.59900
C  -6.85900 25.83000 21.15900
C  -6.20000 27.20500 21.32800
C  -5.72400 27.14300 22.79900
C  -6.00900 24.73700 20.31500
C  -7.28200 28.39700 21.27400
C  -7.50500 29.03300 19.88500
N  -4.91100 27.19800 25.66200
C  -4.36000 28.07500 24.67000
C  -3.37900 28.94200 25.30400
C  -3.40100 28.53800 26.62200
C  -4.32100 27.48400 26.79000
C  -2.62300 30.02100 24.64800
C  -2.78500 28.84600 27.92700
O  -1.86900 29.61800 28.13800
C  -3.52100 27.94100 29.00000
C  -2.56900 27.23800 29.84800
O  -1.74400 26.48900 29.34900
O  -2.74500 27.55400 31.11200
C  -1.89700 26.81800 32.01600
H  -7.82000 22.72500 28.54900
H  -8.46400 23.96500 22.04100
H  -4.63000 28.85000 22.60900
H  -4.66200 25.37400 30.57200
H  -7.00000 24.22200 30.60300
H  -5.22300 22.52100 28.96100
H  -6.04500 22.20200 30.50200
H  -4.40400 23.07000 30.47000
H  -7.40800 26.34000 30.44600
H  -6.23700 27.62300 30.44100
H  -7.31100 26.51700 32.73500
H  -5.94700 27.46300 32.83700
H  -9.21400 21.35500 27.83700
H  -10.04300 20.46600 26.41600
H  -10.76000 21.87500 27.03700
H  -11.64900 20.66100 22.94000
H  -11.46300 21.04100 24.70800
H  -10.45100 19.80800 24.05800
H  -7.75200 25.89000 20.53600
H  -5.46300 27.34600 20.53700
H  -5.11500 25.22500 19.92600
H  -6.46600 24.35200 19.40300
H  -5.84900 23.78500 20.82100
H  -6.86000 29.21300 21.86100
H  -8.27100 28.14200 21.65500
H  -6.88200 29.91300 19.72500
H  -8.55500 29.32600 19.85800
H  -7.41300 28.34200 19.04700
H  -3.29000 30.77200 24.22400
H  -2.24800 29.45800 23.79300
H  -1.81500 30.44300 25.24500
H  -4.12400 28.66500 29.54700
H  -2.33000 25.95600 32.52300
H  -1.81400 27.48900 32.87100
H  -0.86300 26.61900 31.73400

