158

Mg 37.21500 50.49500 24.96400
C  37.57800 48.55000 27.94400
C  35.59000 52.88800 26.78900
C  36.26000 52.14000 22.01500
C  38.21100 47.73700 23.10900
N  36.57100 50.59000 27.09800
C  36.88700 49.79500 28.13400
C  36.64600 50.49200 29.47000
C  35.78300 51.66200 29.07200
C  35.92300 51.74400 27.53100
C  34.36100 51.60300 29.70400
C  37.98700 50.75700 30.14900
C  37.98700 50.25700 31.56100
H  36.75400 50.44400 32.42900
N  36.22300 52.33300 24.46300
C  35.65200 53.16300 25.38100
C  34.95500 54.25200 24.73100
C  35.21400 54.09100 23.33300
C  35.90100 52.82800 23.20900
C  34.16300 55.17900 25.47700
C  34.78900 54.96700 22.14800
O  35.17200 54.70600 21.00300
C  33.82900 56.20800 22.30600
N  37.17500 49.98200 22.87200
C  36.75800 50.80900 21.90500
C  37.03900 50.18200 20.53200
C  37.97800 48.93300 20.87800
C  37.73800 48.84300 22.39100
C  35.71900 49.98400 19.71900
C  39.48900 49.05000 20.54600
C  40.08200 47.87700 19.66300
N  37.96600 48.61800 25.35700
C  38.27800 47.57800 24.55400
C  38.58900 46.39600 25.24000
C  38.46000 46.77200 26.62700
C  37.95700 48.10800 26.69200
C  38.89400 45.11800 24.65200
C  38.44900 46.30100 27.96900
O  38.81300 45.19700 28.38000
C  38.10200 47.43800 28.95000
C  36.98400 46.86600 29.70200
O  35.79700 46.78100 29.35600
O  37.48400 46.48700 30.95200
C  36.54300 45.81300 31.86900
H  35.03600 53.63900 27.35600
H  36.06900 52.50500 21.00400
H  38.75800 47.01200 22.50300
H  36.07300 49.76400 30.04600
H  36.25500 52.51300 29.56300
H  33.70200 51.66100 28.83800
H  34.12700 52.51600 30.25200
H  34.09400 50.76100 30.34300
H  38.28600 51.79200 29.97700
H  38.68600 50.18800 29.53600
H  38.67300 50.90000 32.11300
H  38.21800 49.19100 31.54100
H  34.00600 56.07300 24.87400
H  34.66500 55.48900 26.39400
H  33.21100 54.75800 25.80100
H  33.51600 56.51800 21.30900
H  34.42300 57.05800 22.64200
H  33.00600 56.06600 23.00600
H  37.59700 50.91300 19.94600
H  37.48400 48.07000 20.43300
H  34.87400 49.94100 20.40600
H  35.77100 49.05900 19.14400
H  35.54300 50.79200 19.01000
H  40.10200 49.14300 21.44300
H  39.52700 49.89800 19.86200
H  41.08100 48.11800 19.30000
H  39.44700 47.87100 18.77700
H  40.21200 46.92300 20.17300
H  38.37100 44.27100 25.09400
H  39.95700 44.87700 24.67200
H  38.72800 45.06400 23.57600
H  38.88700 47.83300 29.59400
H  35.96700 45.11400 31.26200
H  36.00400 46.44500 32.57500
H  37.18300 45.12800 32.42500
Mg -11.62200 37.46800 42.38300
C  -9.70800 34.74000 40.93800
C  -9.13800 39.50200 41.15100
C  -13.69800 39.98100 42.88500
C  -14.14700 35.11600 43.19000
N  -9.67400 37.17200 41.16600
C  -9.09400 35.99600 40.70900
C  -7.79300 36.21200 39.98000
C  -7.51700 37.68000 40.49100
C  -8.86200 38.19100 40.97400
C  -6.40200 37.75700 41.59300
C  -8.02600 36.03100 38.40800
C  -7.03900 35.18000 37.63600
H  -5.90200 35.82500 36.81800
N  -11.46100 39.56200 42.11700
C  -10.32500 40.23100 41.62000
C  -10.58100 41.60500 41.60900
C  -11.88500 41.84900 42.17800
C  -12.44200 40.44000 42.36900
C  -9.60800 42.69400 41.22100
C  -12.53000 43.12900 42.49100
O  -11.98900 44.15700 42.12500
C  -13.80900 43.27700 43.26800
N  -13.68400 37.52100 42.75200
C  -14.26600 38.68700 43.07700
C  -15.71700 38.47000 43.41000
C  -15.85600 36.93100 43.51600
C  -14.54000 36.48400 43.08200
C  -16.12300 39.18500 44.74900
C  -17.13100 36.42700 42.82200
C  -17.07900 36.35900 41.31400
N  -11.83100 35.37000 42.24800
C  -12.91000 34.62700 42.65600
C  -12.65900 33.24100 42.34000
C  -11.40300 33.26100 41.66100
C  -10.93800 34.52900 41.66200
C  -13.58500 32.01200 42.44400
C  -10.41600 32.39800 41.05100
O  -10.42100 31.18900 40.86500
C  -9.31500 33.36500 40.42700
C  -8.04800 32.77300 40.86400
O  -7.10800 32.61300 40.09800
O  -8.10000 32.32600 42.18800
C  -6.78800 32.39600 42.91300
H  -8.35300 40.18200 40.81300
H  -14.27200 40.83700 43.24600
H  -14.89300 34.32900 43.31500
H  -7.17100 35.43600 40.42500
H  -7.14500 38.25100 39.64100
H  -5.88800 36.80200 41.69800
H  -6.70300 38.22900 42.52800
H  -5.57100 38.32100 41.16900
H  -7.96000 36.96700 37.85300
H  -8.99900 35.56000 38.26700
H  -7.64800 34.49900 37.04100
H  -6.59300 34.47900 38.34100
H  -9.24600 43.23200 42.09700
H  -10.09600 43.36700 40.51700
H  -8.72600 42.28100 40.73000
H  -14.03600 44.29600 43.58400
H  -13.71900 42.61900 44.13200
H  -14.63200 42.92800 42.64500
H  -16.21700 38.77500 42.49000
H  -15.91800 36.53200 44.52800
H  -16.27800 40.25200 44.58600
H  -15.38000 39.23400 45.54400
H  -16.92800 38.61100 45.20800
H  -18.02200 36.95800 43.15800
H  -17.25000 35.38000 43.10300
H  -17.43000 35.36000 41.05400
H  -16.09500 36.50700 40.86900
H  -17.71900 37.14700 40.91700
H  -13.17400 31.08600 42.04100
H  -14.45000 32.32700 41.86100
H  -13.77400 31.58900 43.43100
H  -9.31600 33.29900 39.33900
H  -6.24800 31.46300 43.07500
H  -7.03100 32.65900 43.94200
H  -6.13400 33.14200 42.46100

