158

Mg 45.22700 5.50300 48.76900
C  42.80600 7.97700 47.91000
C  42.73200 3.19800 47.80100
C  47.58700 3.14500 48.80000
C  47.60800 8.02300 48.73800
N  42.99200 5.55500 47.84800
C  42.20600 6.67700 47.83300
C  40.76200 6.32200 47.50300
C  40.81400 4.80700 47.68700
C  42.23500 4.47400 47.83700
C  39.89700 4.27400 48.81200
C  40.34700 6.77200 46.00000
C  38.85600 6.77400 45.63400
H  38.46700 6.56500 44.17300
N  45.20900 3.48500 48.39600
C  44.06400 2.73400 48.06000
C  44.57200 1.33100 48.03800
C  45.91900 1.26100 48.33700
C  46.26800 2.67000 48.53500
C  43.61300 0.21400 47.66800
C  46.69600 -0.05500 48.22100
O  46.29400 -1.06600 47.67900
C  48.08500 -0.16100 48.82200
N  47.27300 5.61900 48.75100
C  48.07300 4.47500 48.87600
C  49.49600 4.77100 49.04600
C  49.44600 6.37100 49.27100
C  47.99500 6.72900 48.76400
C  50.15800 4.03500 50.21400
C  50.68800 7.09700 48.56700
C  51.00800 8.45200 49.23900
N  45.21700 7.55200 48.40300
C  46.28200 8.43000 48.46600
C  45.82900 9.77400 48.32000
C  44.43700 9.68300 48.10000
C  44.12000 8.32000 48.16700
C  46.69500 10.94400 48.44000
C  43.24700 10.39700 48.01000
O  43.03600 11.60600 48.06100
C  42.08400 9.30500 47.88300
C  41.15300 9.66000 49.06700
O  41.14500 9.17300 50.17300
O  40.10200 10.34100 48.52700
C  38.99800 10.43300 49.36900
H  41.94600 2.44100 47.83500
H  48.32100 2.34100 48.88600
H  48.28600 8.82400 49.03900
H  40.06800 6.82400 48.17700
H  40.33100 4.38500 46.80500
H  40.52900 3.74000 49.52200
H  39.16500 3.60600 48.35800
H  39.46500 5.09500 49.38400
H  41.03600 6.31100 45.29300
H  40.62900 7.80100 45.77800
H  38.36200 7.70300 45.91600
H  38.38000 6.08400 46.33000
H  43.77700 -0.75300 48.14300
H  43.58300 0.07100 46.58800
H  42.59200 0.47400 47.94700
H  48.83400 0.32900 48.20000
H  48.33500 -1.20800 48.99700
H  47.95100 0.42200 49.73300
H  50.07300 4.56400 48.14400
H  49.34600 6.60500 50.33000
H  49.41500 3.35000 50.62200
H  50.56100 4.55700 51.08200
H  50.99400 3.42500 49.87200
H  50.48200 7.33200 47.52300
H  51.53900 6.42500 48.45500
H  52.03800 8.34800 49.58000
H  50.29700 8.69800 50.02800
H  51.08700 9.24000 48.49000
H  47.43300 10.96900 47.63800
H  47.32100 10.91800 49.33200
H  46.18500 11.90500 48.36800
H  41.55200 9.55400 46.96400
H  38.54700 9.45400 49.20400
H  38.38700 11.16200 48.83700
H  39.17500 10.64000 50.42500
Mg 8.91700 48.81600 26.12900
C  7.11600 49.13100 28.93800
C  11.70000 49.98900 27.56600
C  10.58300 48.46200 23.08200
C  5.83100 48.63400 24.18900
N  9.32400 49.49500 28.05600
C  8.50800 49.40800 29.13700
C  9.26900 49.96200 30.42400
C  10.58500 50.57800 29.84700
C  10.51800 50.05700 28.33800
C  10.77900 52.06200 30.01400
C  9.62700 48.81500 31.39300
C  9.01300 48.90700 32.73700
H  8.99000 47.64400 33.49300
N  10.88400 48.99600 25.45200
C  11.92000 49.48800 26.27200
C  13.17200 49.31600 25.50500
C  12.89500 48.78600 24.17000
C  11.37500 48.67800 24.19600
C  14.54000 49.43300 26.16400
C  13.82100 48.23800 23.09800
O  13.36000 47.76200 22.03500
C  15.29700 48.32500 23.26000
N  8.25700 48.62300 23.85000
C  9.16800 48.48200 22.83500
C  8.45100 48.15200 21.46000
C  7.00300 48.60800 21.79800
C  6.94600 48.59600 23.36300
C  8.96400 48.71800 20.10400
C  5.98800 47.52800 21.22400
C  5.27100 47.94800 19.97600
N  6.90300 48.84700 26.44800
C  5.78300 48.62700 25.61100
C  4.55000 48.71000 26.45800
C  5.05400 48.91100 27.77900
C  6.45300 48.96500 27.69700
C  3.21100 48.46600 25.96500
C  4.69100 48.98800 29.12400
O  3.56100 48.89700 29.65000
C  6.00400 49.13100 29.94900
C  6.05200 47.99000 30.92900
O  6.78200 47.00300 30.82100
O  5.13100 48.24300 31.92700
C  4.83900 47.05100 32.72700
H  12.60600 50.37600 28.03700
H  11.08900 48.43300 22.11400
H  4.87700 48.46700 23.68400
H  8.69600 50.63000 31.06500
H  11.48100 50.10400 30.24900
H  10.11800 52.46200 30.78200
H  10.63800 52.62800 29.09300
H  11.78400 52.19100 30.41600
H  10.68500 48.77800 31.65100
H  9.30800 47.86400 30.96600
H  8.05700 49.43000 32.76300
H  9.54400 49.66400 33.31400
H  14.97100 48.43100 26.15500
H  14.33100 49.74000 27.18800
H  15.12200 50.23800 25.71500
H  15.64300 49.35800 23.23000
H  15.79900 47.90900 22.38600
H  15.71200 47.72700 24.07000
H  8.52500 47.06600 21.39700
H  6.80400 49.62300 21.45700
H  9.83100 49.31900 20.37900
H  8.24100 49.44000 19.72400
H  9.21800 47.96900 19.35400
H  5.19500 47.17500 21.88400
H  6.50500 46.59200 21.01100
H  5.39600 49.02200 19.83500
H  4.20800 47.72600 20.06600
H  5.83600 47.48500 19.16800
H  2.49100 48.99500 26.59000
H  2.93600 47.41200 26.00900
H  3.06700 48.76700 24.92700
H  5.95900 50.06100 30.51700
H  3.76600 46.85800 32.74000
H  5.09900 47.35500 33.74000
H  5.40300 46.16000 32.45000

