158

Mg 2.59600 -1.11800 43.93600
C  6.08100 -0.31100 43.78300
C  1.93600 1.85100 42.50100
C  -0.51200 -2.24800 43.46300
C  3.62700 -4.22400 44.98200
N  3.93500 0.46200 43.20300
C  5.22600 0.67100 43.27300
C  5.72500 1.97900 42.66800
C  4.36400 2.76800 42.62200
C  3.31000 1.61500 42.81600
C  4.08600 4.12600 43.45600
C  6.42800 1.78100 41.31600
C  7.74800 2.58900 41.08100
H  8.24800 2.57700 39.64200
N  0.96600 -0.31100 43.10700
C  0.81900 0.93100 42.58100
C  -0.53700 1.25800 42.19500
C  -1.27700 0.04300 42.44900
C  -0.27000 -0.90200 43.04800
C  -0.93300 2.55900 41.50000
C  -2.70700 -0.07500 42.10400
O  -3.29100 0.70900 41.41000
C  -3.43000 -1.33800 42.47900
N  1.73000 -3.04800 44.05700
C  0.41000 -3.26000 43.93300
C  0.05100 -4.79300 44.16200
C  1.36000 -5.29600 44.80400
C  2.31600 -4.14100 44.65600
C  -1.32900 -5.01400 44.90000
C  1.91500 -6.62300 44.25400
C  2.15100 -7.78800 45.23500
N  4.47300 -2.05800 44.33000
C  4.70200 -3.30900 44.85700
C  6.07300 -3.52800 45.12000
C  6.70500 -2.29300 44.66700
C  5.66600 -1.51100 44.24600
C  6.68200 -4.87000 45.62600
C  7.97100 -1.67400 44.52500
O  9.10400 -2.10500 44.72700
C  7.64800 -0.25200 43.93400
C  8.01300 0.77100 45.00300
O  7.76100 0.66500 46.18200
O  8.79500 1.77400 44.41100
C  9.05800 2.86600 45.38300
H  1.77700 2.87100 42.14500
H  -1.54500 -2.58600 43.36100
H  4.03500 -5.15900 45.37100
H  6.40600 2.50600 43.33600
H  4.31600 3.21000 41.62700
H  3.09800 3.96300 43.88800
H  3.97800 5.01800 42.83800
H  4.79800 4.23000 44.27500
H  5.71100 1.99200 40.52300
H  6.60500 0.70700 41.25700
H  8.56000 2.17400 41.67900
H  7.61300 3.64600 41.30800
H  -0.62200 2.47600 40.45900
H  -0.61000 3.51000 41.92400
H  -2.01500 2.59000 41.62500
H  -4.50700 -1.26000 42.32600
H  -3.27400 -1.55900 43.53500
H  -3.14700 -2.17400 41.83900
H  -0.01500 -5.24200 43.17100
H  1.19100 -5.45100 45.87000
H  -2.10300 -4.32400 44.56200
H  -1.08600 -4.90900 45.95700
H  -1.53400 -6.05100 44.63700
H  2.83400 -6.43300 43.70000
H  1.14800 -7.02000 43.58900
H  3.18900 -8.11100 45.15400
H  1.58600 -8.64600 44.87100
H  1.81500 -7.66900 46.26500
H  6.77100 -5.73400 44.96600
H  6.16700 -5.10400 46.55800
H  7.72900 -4.66200 45.84800
H  8.21400 -0.04400 43.02600
H  8.06600 3.27900 45.56300
H  9.84800 3.53400 45.04000
H  9.47300 2.40100 46.27800
Mg 16.76600 -0.79000 27.43300
C  15.79900 1.23600 30.13300
C  19.03600 -2.36500 29.55300
C  18.04000 -2.31300 24.74500
C  14.86700 1.38100 25.35300
N  17.31800 -0.57300 29.60900
C  16.69300 0.23500 30.48800
C  17.28400 0.01500 31.82300
C  18.43600 -1.00200 31.59400
C  18.30900 -1.29100 30.13000
C  19.90900 -0.66000 32.06600
C  16.20200 -0.51700 32.84500
C  16.29000 0.17600 34.26500
H  17.74500 0.48300 34.72000
N  18.22700 -2.27100 27.18800
C  18.95500 -2.88400 28.17700
C  19.80400 -3.82600 27.58500
C  19.56700 -3.89100 26.19900
C  18.55800 -2.84500 25.96700
C  20.82600 -4.67800 28.53000
C  20.17700 -4.72900 25.15900
O  19.85500 -4.59400 23.98700
C  21.14200 -5.88600 25.52700
N  16.58000 -0.44500 25.34300
C  17.17500 -1.18100 24.44900
C  16.80800 -0.77800 22.97200
C  15.79400 0.35900 23.23500
C  15.69200 0.43100 24.73500
C  18.09500 -0.33300 22.21600
C  14.45900 0.21300 22.46500
C  13.45500 -0.66400 23.21900
N  15.44400 0.86200 27.64100
C  14.72500 1.62900 26.71200
C  14.02700 2.63600 27.39100
C  14.35500 2.46400 28.73300
C  15.31900 1.46500 28.80500
C  13.14200 3.73400 26.79400
C  14.09200 2.99900 30.00700
O  13.30900 3.82900 30.48500
C  15.09500 2.22200 31.02300
C  16.03700 3.08300 31.82100
O  17.19400 3.30000 31.53700
O  15.42300 3.51700 32.95100
C  16.27000 4.29800 33.96100
H  19.63200 -2.94600 30.25900
H  18.38900 -2.89300 23.88800
H  14.22900 1.92800 24.65700
H  17.82500 0.89400 32.17300
H  18.23400 -1.93500 32.11900
H  20.14500 -1.49400 32.72500
H  19.82000 0.31900 32.53700
H  20.60600 -0.62300 31.22800
H  16.10100 -1.59100 33.00100
H  15.26900 -0.09900 32.46600
H  15.79900 -0.33000 35.09600
H  15.70500 1.09200 34.17400
H  20.91200 -4.34100 29.56300
H  21.80800 -4.69700 28.05900
H  20.31000 -5.63800 28.54700
H  22.03100 -5.41300 25.94400
H  21.38800 -6.55300 24.70200
H  20.56200 -6.45100 26.25700
H  16.32200 -1.63600 22.50800
H  16.28500 1.25300 22.85100
H  18.30600 -1.03400 21.40900
H  18.99400 -0.21800 22.82200
H  18.06400 0.58000 21.62200
H  14.81200 -0.25600 21.54700
H  14.01300 1.14900 22.13000
H  13.69300 -1.01600 24.22300
H  13.19300 -1.49900 22.57000
H  12.56300 -0.05100 23.34600
H  12.30600 3.17200 26.37800
H  13.72800 4.16600 25.98300
H  12.83100 4.43600 27.56800
H  14.49800 1.71600 31.78200
H  15.67500 5.17400 34.22000
H  17.20400 4.63500 33.51100
H  16.38400 3.76100 34.90300

