158

Mg 40.75300 7.14300 28.90800
C  42.37900 8.43100 31.69900
C  38.43000 5.78100 31.15600
C  39.42900 5.74700 26.25000
C  43.24600 8.47400 26.99800
N  40.45900 7.12200 31.24900
C  41.21200 7.79500 32.10600
C  40.53800 7.91400 33.44700
C  39.37100 6.83100 33.30500
C  39.42300 6.47600 31.81300
C  39.57400 5.58100 34.17000
C  40.01200 9.33400 33.69200
C  39.94600 9.75400 35.16300
H  40.99500 10.69100 35.80800
N  39.17800 5.79300 28.70200
C  38.32800 5.43500 29.74800
C  37.22900 4.65400 29.13700
C  37.52300 4.59400 27.70500
C  38.70500 5.40100 27.47400
C  36.09600 4.10000 29.94300
C  36.71100 4.02100 26.54300
O  37.08000 3.95500 25.37900
C  35.49000 3.34900 26.93000
N  41.48600 6.75300 26.93200
C  40.61400 6.40700 25.98700
C  41.11200 6.57400 24.54600
C  42.11100 7.70600 24.84300
C  42.34100 7.67400 26.33700
C  41.69800 5.30500 23.89200
C  41.87500 9.09900 24.27200
C  40.64900 9.81300 24.79000
N  42.47800 8.15800 29.18300
C  43.42800 8.65000 28.34300
C  44.50300 9.34300 29.07000
C  44.11200 9.27600 30.42000
C  42.84900 8.60000 30.41400
C  45.72200 9.93000 28.48100
C  44.47200 9.68600 31.77100
O  45.35900 10.40400 32.19100
C  43.37000 9.15500 32.61700
C  43.94700 8.17000 33.57300
O  44.37500 7.07800 33.29500
O  43.78700 8.52800 34.90800
C  44.15600 7.58300 35.97100
H  37.65800 5.32800 31.78100
H  39.05500 5.34600 25.30600
H  43.92900 9.01700 26.34100
H  41.25600 7.51100 34.16200
H  38.36500 7.25000 33.29100
H  39.26700 4.71600 33.58300
H  39.05100 5.61700 35.12600
H  40.64300 5.56800 34.38500
H  38.95700 9.40600 33.42800
H  40.59000 10.10300 33.18000
H  39.90800 8.82100 35.72400
H  38.98500 10.25800 35.27500
H  35.23400 4.71300 29.68300
H  36.23200 3.96500 31.01600
H  35.86100 3.05200 29.75400
H  35.76400 2.72700 27.78200
H  35.03800 2.79300 26.10800
H  34.78000 4.12000 27.22800
H  40.19800 6.78800 23.99100
H  43.09600 7.40300 24.48800
H  42.73300 5.31100 23.55100
H  41.15100 5.14600 22.96300
H  41.55800 4.46200 24.56800
H  41.57800 8.84600 23.25400
H  42.79700 9.67200 24.37000
H  40.29600 9.37400 25.72300
H  39.85000 9.83400 24.05000
H  40.97700 10.84500 24.91900
H  46.05900 10.70400 29.17000
H  45.44900 10.48600 27.58400
H  46.54800 9.27000 28.21800
H  42.79600 9.96300 33.07200
H  44.59000 6.70400 35.49400
H  43.40800 7.19800 36.66400
H  44.98500 8.06200 36.49100
Mg -9.51700 17.68900 42.24100
C  -6.16300 17.27100 42.55400
C  -9.11200 20.96800 41.45200
C  -12.85500 17.89300 41.40800
C  -9.85800 14.16400 42.20800
N  -7.81400 18.92300 42.07000
C  -6.52300 18.61200 42.36600
C  -5.59300 19.87100 42.27300
C  -6.64400 20.99600 42.29400
C  -7.95700 20.26800 41.91000
C  -6.73400 21.72400 43.70700
C  -4.70000 19.84400 40.94700
C  -5.03200 18.77000 39.91000
H  -4.62000 19.15300 38.52800
N  -10.78100 19.25000 41.57400
C  -10.39200 20.46100 41.20600
C  -11.55000 21.26600 40.82000
C  -12.68600 20.46600 40.91900
C  -12.12600 19.12100 41.29700
C  -11.41500 22.73500 40.40200
C  -14.11000 20.87000 40.76700
O  -14.42800 22.04100 40.52400
C  -15.38300 19.94700 40.93800
N  -11.10100 16.26200 41.84600
C  -12.39300 16.63100 41.74800
C  -13.35400 15.45900 41.72300
C  -12.36200 14.22500 41.84100
C  -10.95900 14.88200 41.98500
C  -14.36700 15.47600 42.87700
C  -12.33400 13.39100 40.46700
C  -12.83600 11.86900 40.51200
N  -8.28100 16.03400 42.40400
C  -8.55400 14.67000 42.45100
C  -7.30600 13.97600 42.67900
C  -6.33800 14.93300 42.85300
C  -7.01100 16.17000 42.64200
C  -7.09800 12.47000 42.74100
C  -4.94600 15.28400 43.04500
O  -3.96400 14.58000 43.12200
C  -4.79500 16.85000 42.99400
C  -4.43300 17.33100 44.35000
O  -3.43600 17.99300 44.54300
O  -5.41300 16.96900 45.25200
C  -5.08100 17.28600 46.71100
H  -9.08700 22.05900 41.42800
H  -13.86500 17.81900 41.00000
H  -10.00000 13.08400 42.27700
H  -4.81900 19.90600 43.04000
H  -6.58300 21.70400 41.46700
H  -5.91100 21.58700 44.40900
H  -7.68500 21.50100 44.19000
H  -6.60800 22.78000 43.46700
H  -3.68300 19.70800 41.31400
H  -4.90200 20.82000 40.50400
H  -6.08100 18.47300 39.90500
H  -4.51000 17.83800 40.12600
H  -10.75800 22.80200 39.53500
H  -11.12800 23.32800 41.27100
H  -12.34300 23.23800 40.12700
H  -15.45700 19.02300 40.36500
H  -16.21200 20.57300 40.60800
H  -15.50000 19.72700 41.99900
H  -14.02200 15.46200 40.86200
H  -12.70400 13.61500 42.67700
H  -14.52000 14.53200 43.39900
H  -15.31600 15.85600 42.49900
H  -14.00400 16.15000 43.65300
H  -11.31700 13.34700 40.07700
H  -12.89900 13.92900 39.70500
H  -13.13400 11.61300 41.52900
H  -12.00700 11.24300 40.18000
H  -13.71100 11.93600 39.86600
H  -7.37500 12.34700 43.78800
H  -6.08800 12.14200 42.49700
H  -7.72400 11.77700 42.17900
H  -4.05500 17.12700 42.24300
H  -5.96400 17.80000 47.09200
H  -4.26100 17.99600 46.81900
H  -4.91200 16.33600 47.21700

