158

Mg 36.06000 48.41300 25.96800
C  35.89500 46.63000 29.07300
C  35.37900 51.25100 27.56800
C  35.79200 49.87800 23.00800
C  36.74000 45.40200 24.44200
N  35.71200 48.87600 28.11700
C  35.75300 48.09200 29.20000
C  35.55700 48.85400 30.54200
C  35.27300 50.32800 30.00500
C  35.40900 50.18100 28.46500
C  33.83300 50.76800 30.57400
C  36.83900 48.75900 31.46200
C  36.58600 48.08100 32.81400
H  35.51200 48.67900 33.84800
N  35.69700 50.28000 25.35700
C  35.47700 51.33800 26.19600
C  35.24300 52.50900 25.46400
C  35.18400 52.11000 24.08700
C  35.53400 50.67000 24.09800
C  35.06900 53.95100 26.17500
C  34.88900 52.91800 22.86800
O  34.84100 52.47000 21.73900
C  34.73100 54.33000 23.06800
N  36.15200 47.72700 24.03800
C  36.01800 48.51800 22.94200
C  36.42600 47.80900 21.66700
C  36.96200 46.44700 22.18000
C  36.63300 46.54200 23.63800
C  35.23700 47.74400 20.67100
C  38.49100 46.23900 22.00400
C  38.80800 45.06600 21.09600
N  36.39100 46.43200 26.57000
C  36.66100 45.28100 25.83300
C  36.78400 44.16600 26.71900
C  36.47100 44.68500 27.99000
C  36.17300 46.00100 27.82400
C  37.17700 42.76800 26.38300
C  36.48700 44.27400 29.38800
O  36.77100 43.27400 29.96000
C  35.99400 45.59400 30.16200
C  34.65900 45.29400 30.69000
O  33.75900 44.78300 30.01100
O  34.68000 45.38100 32.09300
C  33.52900 44.78700 32.81100
H  35.07700 52.16600 28.08200
H  35.68900 50.31900 22.01400
H  37.06500 44.46300 23.98800
H  34.81100 48.29300 31.10500
H  36.07800 50.97800 30.34900
H  33.87100 51.81100 30.89200
H  33.43900 50.10400 31.34300
H  33.13200 50.68800 29.74300
H  37.22300 49.76100 31.65400
H  37.53400 48.13300 30.90200
H  37.54500 48.03900 33.33100
H  36.44900 47.00500 32.70800
H  35.42600 54.84000 25.65500
H  35.54500 53.95600 27.15500
H  34.03100 54.25700 26.31400
H  34.67200 54.78900 22.08100
H  35.61200 54.72300 23.57500
H  33.79600 54.52600 23.59300
H  37.25200 48.30900 21.16200
H  36.30700 45.67500 21.77600
H  34.32200 47.74300 21.26400
H  35.30600 46.83800 20.06900
H  35.25800 48.54300 19.93000
H  38.86000 45.97900 22.99600
H  39.02100 47.14700 21.71500
H  38.02400 44.31500 20.99400
H  39.67600 44.60400 21.56700
H  39.17600 45.34300 20.10800
H  36.91900 42.31600 25.42500
H  36.84500 42.15100 27.21900
H  38.26600 42.73000 26.40300
H  36.65500 45.85100 30.98900
H  33.15300 43.94600 32.22900
H  32.69300 45.47700 32.93400
H  33.84100 44.39600 33.77900
Mg 26.83400 49.91600 26.48000
C  24.68300 51.28200 28.84700
C  28.93100 49.14500 29.07200
C  29.16100 48.88000 24.24800
C  24.73100 51.08400 23.98700
N  26.78700 50.22600 28.80100
C  25.72000 50.64800 29.49800
C  25.90500 50.48700 31.02500
C  27.42900 49.95000 31.07900
C  27.73000 49.75900 29.49100
C  28.44500 50.92700 31.72500
C  24.95200 49.57200 31.66100
C  24.97500 49.15000 33.18700
H  25.80700 49.80400 34.28700
N  28.79400 49.17200 26.64400
C  29.42000 48.86300 27.77700
C  30.67400 48.27500 27.48400
C  30.79400 48.12400 26.04900
C  29.54700 48.69900 25.53200
C  31.74700 47.94400 28.55400
C  31.80000 47.42200 25.21100
O  31.63000 47.24500 24.02200
C  33.09200 46.88000 25.80700
N  26.95700 50.04500 24.46300
C  27.97700 49.48700 23.72200
C  27.76500 49.68200 22.16300
C  26.26400 50.14100 22.14900
C  25.95800 50.48900 23.62500
C  28.82100 50.50500 21.43200
C  25.33800 49.11200 21.47300
C  25.17300 47.73300 22.12000
N  25.00500 50.82400 26.37300
C  24.30900 51.37000 25.27200
C  23.15000 52.11200 25.71200
C  23.23000 52.06000 27.11400
C  24.39000 51.32100 27.47900
C  22.13500 52.78400 24.87800
C  22.65600 52.51300 28.36700
O  21.73700 53.32300 28.54500
C  23.47400 51.88200 29.54300
C  23.71800 52.84000 30.64400
O  24.42900 53.84200 30.59100
O  23.14200 52.44400 31.78800
C  23.39900 53.11300 33.06700
H  29.60100 48.78000 29.85300
H  29.82000 48.61400 23.41800
H  24.05200 51.45900 23.21800
H  25.71900 51.41500 31.56500
H  27.43100 48.97900 31.57400
H  27.99000 51.86500 32.04300
H  29.32300 51.07400 31.09700
H  28.79500 50.48300 32.65700
H  24.95200 48.68700 31.02500
H  23.95400 49.99900 31.56400
H  25.24700 48.10200 33.31400
H  23.93200 49.23800 33.49200
H  31.69600 48.63200 29.39700
H  32.81800 47.92500 28.35100
H  31.62700 46.93200 28.94100
H  33.72500 47.72800 26.07000
H  33.62700 46.25500 25.09300
H  33.02300 46.41500 26.79100
H  27.70900 48.72700 21.64000
H  26.13500 51.11200 21.67100
H  29.49700 50.91000 22.18400
H  28.33200 51.38100 21.00500
H  29.31900 49.88800 20.68400
H  25.58400 49.00100 20.41700
H  24.34500 49.56000 21.49500
H  24.15700 47.34300 22.05000
H  25.40800 47.68500 23.18300
H  25.72900 47.01200 21.52100
H  21.14900 52.88700 25.32900
H  21.99200 52.10100 24.04100
H  22.41100 53.81300 24.64600
H  22.89700 51.03900 29.92400
H  23.76000 54.12400 32.87900
H  24.11800 52.58000 33.69000
H  22.47400 53.30000 33.61100

