158

Mg 47.77400 25.76300 28.06700
C  48.53800 28.07200 30.65600
C  46.29800 23.69800 30.54600
C  47.20400 23.50300 25.63200
C  49.33500 27.87000 25.77200
N  47.52500 25.94000 30.33300
C  47.79600 26.97400 31.11500
C  47.37100 26.69900 32.49200
C  46.66300 25.27800 32.52300
C  46.82300 24.94100 31.04300
C  47.30300 24.23600 33.48300
C  46.42400 27.81800 33.02100
C  45.71200 27.45400 34.34200
H  45.53300 28.46000 35.45500
N  46.84400 23.92700 28.07800
C  46.29900 23.24800 29.16600
C  45.84500 21.89800 28.71000
C  46.09500 21.89400 27.31200
C  46.78100 23.18300 26.93900
C  45.26200 20.84200 29.62100
C  45.84700 20.71900 26.24700
O  46.22800 20.78900 25.06800
C  44.96000 19.58800 26.59000
N  48.16900 25.70200 25.95100
C  47.80100 24.63100 25.22400
C  48.10800 24.92800 23.71400
C  48.67600 26.41100 23.74100
C  48.84400 26.68300 25.24900
C  49.18200 23.85800 23.20800
C  47.65800 27.41300 23.08300
C  48.03900 27.56900 21.52900
N  48.72600 27.51100 28.16900
C  49.32100 28.27300 27.13000
C  49.88900 29.53000 27.69900
C  49.59800 29.45900 29.09200
C  48.95600 28.21200 29.27500
C  50.71400 30.49000 26.93900
C  49.81300 30.13400 30.31900
O  50.49200 31.11100 30.57700
C  49.05800 29.27600 31.41900
C  49.87300 28.96000 32.63200
O  50.75500 28.10200 32.67400
O  49.42900 29.73200 33.74500
C  50.13500 29.41000 34.93000
H  45.84300 22.98600 31.23700
H  47.03700 22.79600 24.81700
H  49.67600 28.65200 25.09000
H  48.30000 26.80700 33.05200
H  45.59000 25.41300 32.66400
H  48.13300 24.58700 34.09700
H  47.64400 23.46000 32.79800
H  46.50500 23.76700 34.05800
H  45.72900 28.18900 32.26800
H  47.04100 28.66900 33.30900
H  46.19800 26.53900 34.67900
H  44.70300 27.16300 34.05100
H  45.27600 19.81300 29.26200
H  44.17800 20.93300 29.70200
H  45.65300 20.84400 30.63900
H  45.56900 18.84100 27.09900
H  44.62700 19.10400 25.67200
H  44.19700 20.02900 27.23300
H  47.20900 24.75700 23.12300
H  49.72900 26.47500 23.46700
H  50.16800 24.24000 22.94500
H  48.75600 23.34200 22.34800
H  49.36000 23.13700 24.00600
H  47.73900 28.35400 23.62700
H  46.64500 27.03300 23.21800
H  47.40300 26.94300 20.90300
H  49.03600 27.20000 21.28900
H  48.03700 28.58600 21.13500
H  51.61900 29.92400 26.71400
H  50.94100 31.22000 27.71600
H  50.40700 30.78600 25.93600
H  48.15800 29.77300 31.77900
H  51.12200 29.82700 34.72600
H  50.34400 28.38500 35.23400
H  49.79000 30.00000 35.77900
Mg -12.30200 15.86400 42.07300
C  -9.17500 14.27000 41.65600
C  -11.21700 18.47200 40.07900
C  -15.34800 17.08800 42.10600
C  -13.35300 12.91200 43.76200
N  -10.37500 16.32200 41.00300
C  -9.23100 15.58200 40.98300
C  -8.10400 16.29700 40.26400
C  -8.86800 17.54400 39.62400
C  -10.25300 17.46500 40.28600
C  -8.09000 18.90900 39.95900
C  -7.28500 15.46000 39.20600
C  -5.79300 15.55800 39.34600
H  -4.95600 14.80200 38.38000
N  -13.14600 17.62700 41.34000
C  -12.51000 18.57400 40.57000
C  -13.41100 19.68600 40.33400
C  -14.70500 19.27200 40.81700
C  -14.45400 17.94800 41.45800
C  -12.91100 20.99000 39.66900
C  -15.94400 20.06500 40.68100
O  -15.91000 21.11400 40.02300
C  -17.18500 19.66500 41.16000
N  -14.19400 14.96800 42.66400
C  -15.25600 15.80500 42.70700
C  -16.42800 14.99900 43.27900
C  -15.74800 13.82400 44.01800
C  -14.34500 13.89200 43.47300
C  -17.39600 15.88400 44.08300
C  -16.55700 12.51500 43.74100
C  -17.11400 11.89800 45.07400
N  -11.51200 13.93200 42.60400
C  -12.07000 12.85600 43.24800
C  -11.03100 11.83500 43.49300
C  -9.90800 12.35900 42.97200
C  -10.23300 13.60000 42.31400
C  -11.30100 10.59700 44.30800
C  -8.50300 12.07900 42.64400
O  -7.75700 11.10200 42.94200
C  -7.98900 13.30100 41.75600
C  -6.93000 13.94400 42.48100
O  -7.13800 14.88200 43.26300
O  -5.73900 13.38200 42.10900
C  -4.53900 14.06100 42.62500
H  -10.92600 19.22600 39.34500
H  -16.38200 17.41700 42.22200
H  -13.66400 12.06500 44.37700
H  -7.51500 16.73100 41.07200
H  -9.00400 17.58800 38.54400
H  -8.51500 19.40900 40.82900
H  -8.13200 19.48500 39.03400
H  -7.03600 18.66700 40.09400
H  -7.62200 15.81400 38.23200
H  -7.66800 14.44000 39.15700
H  -5.53300 15.15100 40.32300
H  -5.48700 16.59000 39.51600
H  -11.84500 21.13600 39.84000
H  -13.37500 21.84400 40.16300
H  -13.19700 20.98400 38.61700
H  -17.50400 18.74100 40.67800
H  -17.84500 20.50300 40.93500
H  -17.11300 19.53200 42.23900
H  -16.99000 14.62400 42.42400
H  -15.71900 14.05700 45.08300
H  -17.59600 15.41200 45.04500
H  -18.28900 16.08400 43.49100
H  -17.05100 16.89000 44.32300
H  -15.81900 11.82400 43.33300
H  -17.36100 12.70700 43.03100
H  -18.16700 11.73700 44.84100
H  -17.01000 12.50000 45.97600
H  -16.67800 10.91800 45.26700
H  -11.80800 10.85900 45.23700
H  -10.34100 10.16600 44.59300
H  -11.94100 9.93000 43.73000
H  -7.50200 12.98900 40.83200
H  -3.74600 13.93200 41.88700
H  -4.22500 13.55900 43.54000
H  -4.49100 15.13600 42.79200

