158

Mg 48.07500 25.15700 29.18700
C  49.00400 27.47000 31.66100
C  46.90200 23.02800 31.68100
C  47.03200 23.14600 26.81300
C  49.32700 27.38500 26.87400
N  47.99200 25.33700 31.43400
C  48.40900 26.29300 32.25100
C  47.97800 26.10700 33.73800
C  47.51600 24.56000 33.72900
C  47.48600 24.29600 32.19500
C  48.57000 23.60300 34.38600
C  46.83900 27.13200 34.08800
C  47.03800 27.99200 35.30500
H  46.22300 27.83100 36.50100
N  47.21400 23.26500 29.20500
C  46.73600 22.58200 30.33000
C  46.17300 21.34400 29.94000
C  46.08200 21.35500 28.53500
C  46.81800 22.58300 28.08400
C  45.81200 20.14500 30.84300
C  45.47100 20.40200 27.55100
O  45.57000 20.57500 26.35200
C  44.77800 19.17900 27.95100
N  48.35300 25.15400 27.12300
C  47.65300 24.27800 26.33200
C  47.73800 24.72800 24.81300
C  48.29500 26.14900 24.93400
C  48.73100 26.23800 26.40300
C  48.68000 23.83900 23.95800
C  47.16300 27.24100 24.58100
C  47.55300 28.31800 23.48600
N  49.03500 27.00900 29.26400
C  49.51900 27.73800 28.20900
C  50.06900 28.99300 28.64200
C  50.00000 28.92600 30.10300
C  49.34000 27.70100 30.38400
C  50.73200 30.04400 27.78000
C  50.27400 29.58500 31.32700
O  50.95000 30.60600 31.53700
C  49.54200 28.59200 32.39700
C  50.64500 28.21600 33.30200
O  51.44600 27.27300 33.16800
O  50.70100 29.11600 34.39800
C  51.59500 28.76400 35.51600
H  46.34100 22.41900 32.39200
H  46.32600 22.69700 26.11000
H  49.52200 28.02000 26.00700
H  48.92600 26.14500 34.27300
H  46.49600 24.44200 34.09500
H  48.75500 22.81200 33.65900
H  48.01400 23.23000 35.24600
H  49.52200 24.08600 34.60600
H  45.97900 26.48300 34.25500
H  46.64900 27.61700 33.13100
H  47.07200 29.02100 34.94800
H  48.07400 27.79300 35.58200
H  46.19800 20.29600 31.85200
H  46.19900 19.22800 30.39900
H  44.73600 20.06600 31.00000
H  44.10300 19.56800 28.71300
H  45.41900 18.36700 28.29700
H  44.14400 18.78100 27.15900
H  46.79000 24.69500 24.27500
H  49.18800 26.31500 24.33200
H  48.47900 24.01800 22.90100
H  48.53200 22.79900 24.24900
H  49.70900 24.16000 24.12300
H  46.77800 27.66700 25.50700
H  46.24100 26.78500 24.22100
H  48.52100 28.12900 23.02200
H  47.63800 29.27700 23.99500
H  46.81600 28.42300 22.68900
H  50.08200 30.19300 26.91800
H  51.74200 29.85500 27.41600
H  50.65300 31.00200 28.29300
H  48.69300 28.95800 32.97500
H  51.00700 28.19700 36.23700
H  51.90000 29.77000 35.80400
H  52.41800 28.13800 35.17200
Mg 28.53800 57.40100 41.76600
C  25.87000 55.39900 40.50700
C  30.69600 55.40500 40.08600
C  30.77500 59.71100 42.19000
C  25.96400 59.68200 42.69200
N  28.33100 55.64600 40.53300
C  27.19800 54.96100 40.15400
C  27.50500 53.85200 39.20900
C  29.00300 53.57000 39.45900
C  29.41300 54.95500 40.14500
C  29.43800 52.52400 40.40400
C  27.10300 54.26100 37.72000
C  26.46300 53.25300 36.81300
H  26.91500 53.22300 35.36600
N  30.56700 57.47100 41.32200
C  31.25000 56.55400 40.57400
C  32.69700 56.94100 40.54400
C  32.73900 58.21900 41.17400
C  31.36900 58.52600 41.64500
C  33.73900 56.03200 39.90500
C  34.03200 58.98600 41.36800
O  35.02900 58.56800 40.86400
C  34.05500 60.19500 42.20400
N  28.36100 59.39100 42.28700
C  29.46000 60.12400 42.50300
C  29.16000 61.52900 42.87000
C  27.61400 61.54300 43.00200
C  27.26700 60.08300 42.72600
C  29.80000 62.02700 44.19700
C  26.86200 62.55900 42.13300
C  25.72700 63.33700 42.74800
N  26.34400 57.45600 41.84100
C  25.50000 58.41400 42.27500
C  24.11500 57.96800 42.15600
C  24.21800 56.73900 41.46200
C  25.58500 56.54300 41.28100
C  22.81400 58.60000 42.72400
C  23.48000 55.69600 40.84900
O  22.28800 55.52300 40.70500
C  24.51600 54.74800 40.13800
C  24.37400 53.42500 40.74200
O  24.75500 53.07800 41.83400
O  23.75000 52.53500 39.85700
C  23.62000 51.08600 40.22800
H  31.41500 54.86100 39.47000
H  31.48400 60.54100 42.23400
H  25.14700 60.34200 42.99300
H  27.02300 52.92100 39.50800
H  29.56300 53.35700 38.54900
H  29.83800 52.88000 41.35300
H  30.14400 51.85100 39.91700
H  28.64700 51.81100 40.63500
H  28.04800 54.44700 37.20900
H  26.54200 55.19500 37.67800
H  25.37700 53.28200 36.90100
H  26.53400 52.29700 37.33100
H  33.74800 56.03500 38.81500
H  33.57000 54.97600 40.11600
H  34.72300 56.17300 40.35100
H  33.76500 60.99700 41.52500
H  35.00000 60.58900 42.57700
H  33.40100 59.93300 43.03500
H  29.47300 62.08200 41.98500
H  27.41400 61.70300 44.06100
H  30.68700 62.57300 43.87800
H  30.10600 61.21000 44.85100
H  29.23800 62.78000 44.74900
H  26.60300 62.15900 41.15200
H  27.65100 63.26600 41.87700
H  26.08000 64.36700 42.78900
H  25.41200 63.06800 43.75600
H  24.87700 63.40100 42.06800
H  22.67800 58.33500 43.77200
H  21.92800 58.24800 42.19500
H  22.76100 59.68300 42.61500
H  24.45000 54.78200 39.05100
H  24.39400 50.59200 40.81600
H  23.57200 50.50700 39.30600
H  22.70900 51.11100 40.82800

