158

Mg -11.54100 16.91500 42.22100
C  -8.29900 17.87000 41.86300
C  -12.59300 20.23200 41.73500
C  -14.86500 16.00500 42.54800
C  -10.39500 13.62900 42.43800
N  -10.56600 18.81100 41.68300
C  -9.20000 18.98000 41.73100
C  -8.70700 20.39600 41.58400
C  -10.13900 21.16300 41.71600
C  -11.19600 20.04600 41.76500
C  -10.24200 22.18600 42.94000
C  -8.02200 20.64600 40.21100
C  -6.75200 21.37400 40.26000
H  -5.62500 21.06400 39.26300
N  -13.48000 17.93700 41.93500
C  -13.68300 19.29500 41.76900
C  -15.08300 19.59500 41.84900
C  -15.75100 18.40000 42.08300
C  -14.73200 17.38100 42.23500
C  -15.55600 21.05000 41.70700
C  -17.25500 18.37200 42.21800
O  -17.95400 19.35700 42.08600
C  -18.00400 16.97500 42.40200
N  -12.46100 15.04400 42.09000
C  -13.81300 14.96400 42.52300
C  -14.10100 13.52500 42.90500
C  -12.76000 12.73200 42.46100
C  -11.78000 13.87100 42.39600
C  -14.48200 13.38000 44.39600
C  -12.80300 11.99800 41.14400
C  -13.70300 10.76000 41.06400
N  -9.72200 15.87200 42.17900
C  -9.37000 14.54700 42.27500
C  -7.93000 14.45400 42.40200
C  -7.44400 15.73800 42.15800
C  -8.57300 16.55700 42.08900
C  -7.21800 13.18200 42.78700
C  -6.27900 16.51500 42.06700
O  -5.13300 16.08400 42.14200
C  -6.76400 18.01300 41.87900
C  -6.33700 18.81500 43.13400
O  -6.82600 18.58300 44.18200
O  -5.29900 19.58600 42.90600
C  -4.65300 20.20600 44.04200
H  -12.88400 21.25200 41.47600
H  -15.85300 15.66900 42.86900
H  -10.10300 12.61400 42.71600
H  -8.24700 20.65600 42.53800
H  -10.23600 21.84500 40.87200
H  -10.12300 23.19800 42.55200
H  -9.55000 21.98700 43.75900
H  -11.24500 22.24300 43.36400
H  -8.59800 21.10400 39.40700
H  -7.83200 19.69400 39.71600
H  -6.38000 21.12200 41.25300
H  -6.97000 22.44100 40.21200
H  -16.53500 21.13800 41.23600
H  -14.82300 21.60600 41.12200
H  -15.57000 21.48700 42.70600
H  -19.02300 17.16800 42.06600
H  -17.98200 16.64400 43.44000
H  -17.61600 16.23400 41.70300
H  -14.88100 13.12400 42.25800
H  -12.26900 12.01000 43.11300
H  -15.46500 12.94000 44.55900
H  -14.38100 14.32700 44.92800
H  -13.77500 12.75500 44.94200
H  -11.81200 11.73500 40.77300
H  -13.18000 12.71400 40.41300
H  -14.53500 10.97500 40.39200
H  -14.02900 10.65700 42.09900
H  -13.16400 9.87300 40.73400
H  -7.36600 12.95400 43.84300
H  -6.15900 13.33100 42.58000
H  -7.67500 12.41100 42.16600
H  -6.31200 18.24300 40.91400
H  -5.24600 21.01600 44.46400
H  -3.75600 20.76200 43.76700
H  -4.26300 19.51100 44.78600
Mg -5.11500 25.51400 25.25400
C  -3.43600 27.20000 27.82800
C  -6.49100 23.42700 27.45700
C  -6.28300 23.65400 22.70400
C  -2.77900 27.06800 23.08600
N  -4.79300 25.25100 27.41400
C  -4.26200 26.15900 28.31600
C  -4.74400 25.85000 29.71100
C  -5.44200 24.48900 29.58300
C  -5.63000 24.39800 28.02100
C  -4.71400 23.23200 30.10500
C  -5.66600 26.97200 30.43400
C  -5.09700 27.34200 31.79000
H  -4.74200 26.08500 32.65700
N  -6.26800 23.78400 25.07300
C  -6.81800 23.12000 26.12500
C  -7.76000 22.12900 25.65300
C  -7.68000 22.10200 24.26200
C  -6.78000 23.26500 23.95900
C  -8.56500 21.34700 26.71000
C  -8.42000 21.19200 23.24900
O  -8.21100 21.25200 22.07500
C  -9.45000 20.10900 23.68000
N  -4.60300 25.35600 23.29100
C  -5.25800 24.56500 22.37800
C  -4.68100 24.69200 20.96800
C  -3.58700 25.77000 21.06300
C  -3.60500 26.01200 22.57300
C  -4.09800 23.32000 20.36300
C  -3.82700 27.05200 20.21600
C  -3.58400 27.03500 18.72900
N  -3.57100 27.00400 25.35000
C  -2.74800 27.60300 24.40600
C  -1.91700 28.63300 24.98100
C  -2.11400 28.46700 26.37500
C  -3.11800 27.49500 26.49800
C  -1.01400 29.53200 24.28700
C  -1.73200 28.91400 27.68400
O  -0.84100 29.72000 27.98400
C  -2.54500 28.08700 28.71700
C  -1.48000 27.39200 29.48300
O  -0.71900 26.51700 29.03800
O  -1.49500 27.81900 30.77500
C  -0.71200 27.17300 31.79700
H  -7.02000 23.00900 28.31600
H  -6.85000 23.20100 21.88800
H  -2.10600 27.63800 22.44300
H  -3.85200 25.61300 30.29100
H  -6.45300 24.39000 29.97700
H  -3.87600 23.35900 30.79000
H  -4.33700 22.70600 29.22800
H  -5.52700 22.65700 30.54800
H  -6.71300 26.70500 30.58100
H  -5.69500 27.86900 29.81600
H  -5.83900 27.99400 32.25200
H  -4.26800 28.02100 31.58700
H  -9.48600 21.91600 26.83300
H  -8.10400 21.37600 27.69700
H  -8.75900 20.33000 26.36800
H  -9.97100 19.94000 22.73700
H  -10.08800 20.52000 24.46300
H  -8.97700 19.21100 24.07700
H  -5.49400 25.03200 20.32700
H  -2.59100 25.39300 20.83200
H  -4.46800 23.27100 19.33900
H  -4.52000 22.47400 20.90600
H  -3.01100 23.35300 20.30000
H  -3.28100 27.91700 20.59300
H  -4.84800 27.33900 20.46900
H  -2.85000 27.78700 18.44100
H  -4.52300 27.30200 18.24400
H  -3.20300 26.07200 18.38900
H  -1.06200 30.57600 24.59600
H  -1.25200 29.40700 23.23000
H  -0.01100 29.19000 24.53900
H  -3.02100 28.83900 29.34600
H  -1.43100 27.27000 32.61000
H  0.24500 27.66900 31.96200
H  -0.64700 26.12100 31.51800

