158

Mg 9.04500 3.73400 28.24100
C  10.56100 2.03700 30.90200
C  7.45000 5.81600 30.31900
C  7.49500 5.32800 25.58100
C  10.09800 1.19700 26.02400
N  9.14200 3.92700 30.31200
C  9.80500 3.21700 31.23600
C  9.64800 3.87900 32.70200
C  8.51300 4.83800 32.47700
C  8.38700 4.95800 30.95600
C  7.08800 4.45100 33.11600
C  10.93300 4.48200 33.33900
C  11.52800 3.78300 34.59300
H  11.83400 4.65000 35.80100
N  7.72000 5.43200 28.01600
C  7.09200 6.07200 29.00000
C  6.27700 7.14500 28.47900
C  6.26300 7.06400 27.07800
C  7.25300 5.95500 26.79400
C  5.41100 8.03800 29.32200
C  5.62900 7.92400 26.03500
O  5.84400 7.81500 24.80400
C  4.66900 9.11600 26.41200
N  8.69200 3.26500 26.10100
C  8.10700 4.09800 25.24100
C  8.17000 3.57300 23.74900
C  9.23300 2.45500 23.93400
C  9.29100 2.28400 25.44900
C  6.76600 3.20900 23.13800
C  10.68200 2.78800 23.42800
C  11.42300 1.59400 22.79100
N  10.14400 2.00100 28.39000
C  10.47900 1.04800 27.40600
C  11.27100 0.04500 28.03800
C  11.31000 0.37100 29.41600
C  10.67200 1.56000 29.54700
C  11.90200 -1.10400 27.39100
C  11.84100 0.02200 30.71200
O  12.60700 -0.88900 30.98200
C  11.30100 1.07700 31.76200
C  10.51400 0.44700 32.86500
O  9.35100 0.06100 32.77200
O  11.42800 0.28300 33.81300
C  10.93600 -0.20300 35.11700
H  6.99400 6.52300 31.01400
H  7.14200 5.85000 24.68900
H  10.35700 0.44200 25.27900
H  9.23700 3.06200 33.29400
H  8.78200 5.80600 32.90000
H  7.13800 4.67000 34.18200
H  6.81300 3.40900 32.95000
H  6.26700 5.02900 32.69000
H  10.78700 5.54700 33.51900
H  11.70600 4.49600 32.57000
H  12.52700 3.43900 34.32500
H  10.86400 2.94600 34.80900
H  5.84600 9.02800 29.17800
H  5.59900 7.91600 30.38800
H  4.32200 8.01500 29.30300
H  4.34700 9.62000 25.50100
H  5.18700 9.86600 27.01000
H  3.73800 8.78400 26.87100
H  8.43400 4.46800 23.18500
H  8.80100 1.53200 23.54700
H  5.91500 3.64000 23.66400
H  6.56500 2.13800 23.15300
H  6.62900 3.77000 22.21300
H  11.30700 3.15100 24.24400
H  10.59700 3.60900 22.71700
H  10.95000 0.64900 23.05900
H  12.46700 1.60500 23.10600
H  11.40700 1.59500 21.70100
H  12.97300 -0.90400 27.38900
H  11.56700 -1.29100 26.37100
H  11.78500 -1.93900 28.08200
H  12.11200 1.59200 32.27800
H  10.53200 0.58900 35.74700
H  11.81000 -0.63100 35.61000
H  10.20700 -1.00900 35.03100
Mg 25.76500 0.21800 29.57100
C  27.50300 0.09300 32.60000
C  22.86200 0.60500 31.38300
C  24.06400 0.37200 26.61600
C  28.54500 -0.85700 27.79100
N  25.26400 0.26800 31.76500
C  26.14700 0.27300 32.83100
C  25.46300 0.42600 34.15800
C  23.95100 0.47000 33.64900
C  23.99600 0.39800 32.19900
C  22.86300 -0.49300 34.32000
C  25.99700 1.70500 34.98100
C  25.11300 2.20200 36.11700
H  25.54500 1.80700 37.53000
N  23.76600 0.44800 29.12000
C  22.71900 0.63900 29.98600
C  21.48200 0.84000 29.27100
C  21.82900 0.74500 27.86500
C  23.26800 0.52800 27.83900
C  20.17300 1.08100 30.03800
C  20.95500 0.82700 26.61600
O  21.45100 0.86500 25.48100
C  19.46000 0.81300 26.74700
N  26.27100 -0.09200 27.41300
C  25.35700 0.04600 26.45700
C  25.92100 -0.33800 25.01900
C  27.41600 -0.73600 25.41200
C  27.46600 -0.54200 26.94300
C  25.16000 -1.45500 24.28800
C  28.48500 0.19100 24.68800
C  28.24800 0.36000 23.17100
N  27.61500 -0.26700 29.96900
C  28.66300 -0.67300 29.18600
C  29.83800 -0.67000 29.93900
C  29.45200 -0.41400 31.26500
C  28.09300 -0.17500 31.30400
C  31.19500 -0.99100 29.41400
C  29.89800 -0.33500 32.58500
O  31.03100 -0.49900 33.04300
C  28.68200 -0.08500 33.44200
C  28.52800 -1.19300 34.37300
O  28.09200 -2.29400 34.13400
O  29.01700 -0.85500 35.59200
C  28.76200 -1.79900 36.73000
H  21.95200 0.71800 31.97500
H  23.64100 0.45200 25.61200
H  29.47600 -1.12100 27.28500
H  25.69500 -0.46300 34.74400
H  23.52500 1.45700 33.83000
H  23.23200 -0.97100 35.22800
H  22.64300 -1.29000 33.61000
H  22.03000 0.17800 34.52900
H  26.04000 2.55800 34.30500
H  26.97400 1.43100 35.37900
H  24.08900 1.84100 36.02400
H  25.08300 3.28000 35.96000
H  19.75600 2.00000 29.62400
H  20.23300 1.26200 31.11100
H  19.48900 0.25700 29.83500
H  19.15600 0.01300 27.42300
H  18.89100 0.90800 25.82300
H  19.06500 1.60300 27.38500
H  25.80100 0.50800 24.34300
H  27.66300 -1.77300 25.18300
H  25.59100 -2.45400 24.35200
H  25.05600 -1.22800 23.22700
H  24.11600 -1.50200 24.59600
H  29.40500 -0.36100 24.87900
H  28.64100 1.09900 25.26900
H  28.97500 -0.03700 22.46200
H  28.01000 1.39800 22.94000
H  27.30100 -0.13500 22.95500
H  31.87100 -1.12100 30.25900
H  31.59000 -0.16700 28.81900
H  31.12300 -2.01500 29.04800
H  29.01600 0.83900 33.91600
H  29.67000 -2.21500 37.16600
H  28.01800 -2.55600 36.48300
H  28.31200 -1.29100 37.58400

