158

Mg 54.44600 24.52200 45.00200
C  51.85600 26.94300 44.09000
C  52.36500 22.01400 43.79500
C  57.07300 22.44900 44.93500
C  56.50400 27.23000 45.51100
N  52.40500 24.54600 43.92400
C  51.48900 25.60600 43.83400
C  50.08200 25.03900 43.33600
C  50.27300 23.44900 43.63000
C  51.77700 23.29300 43.82700
C  49.46500 22.85000 44.88100
C  49.78800 25.34400 41.83700
C  48.26800 25.15200 41.49900
H  47.97200 24.89900 40.03000
N  54.65800 22.48300 44.61400
C  53.72300 21.66200 44.04700
C  54.32100 20.37300 43.84000
C  55.67800 20.45800 44.34800
C  55.86200 21.86200 44.59700
C  53.56700 19.15400 43.45600
C  56.67100 19.22000 44.46800
O  56.31100 18.03300 44.28200
C  57.99900 19.35400 44.88100
N  56.54800 24.83300 45.01900
C  57.40900 23.74400 45.16100
C  58.79900 24.33700 45.43500
C  58.65200 25.88500 45.60300
C  57.13100 26.00500 45.40400
C  59.59300 23.64000 46.65000
C  59.48500 26.72900 44.59700
C  58.88000 27.11700 43.23100
N  54.18900 26.56700 45.08300
C  55.13200 27.52500 45.36100
C  54.53900 28.77100 45.45200
C  53.25700 28.63300 44.86200
C  53.13400 27.26500 44.58900
C  55.23800 30.06600 45.71600
C  52.14900 29.40900 44.38500
O  52.01100 30.64800 44.46100
C  51.12200 28.31700 43.85000
C  50.85000 28.64000 42.40900
O  51.67500 28.60900 41.45500
O  49.53300 28.84200 42.26000
C  48.86000 29.17900 40.96800
H  51.62600 21.22300 43.65500
H  57.97100 21.82800 44.93600
H  57.23300 27.98900 45.80200
H  49.39900 25.49700 44.05200
H  50.14200 22.94600 42.67200
H  50.05500 22.06600 45.35500
H  48.54100 22.33900 44.61000
H  49.35700 23.68300 45.57600
H  50.40700 24.69000 41.22300
H  50.10200 26.37300 41.66500
H  47.84100 26.09600 41.83800
H  48.02400 24.28300 42.11000
H  54.06300 18.72300 42.58600
H  52.55300 19.38000 43.12500
H  53.50300 18.32600 44.16300
H  58.42700 18.37500 45.09500
H  58.01300 19.77900 45.88500
H  58.63300 19.93600 44.21100
H  59.30000 24.09800 44.49800
H  58.96100 26.07200 46.63100
H  59.21800 24.08400 47.57200
H  60.68100 23.64300 46.59100
H  59.17600 22.63300 46.62900
H  60.13200 25.97000 44.15600
H  60.05900 27.45400 45.17400
H  58.38400 26.19800 42.92000
H  59.73000 27.39600 42.60900
H  58.17000 27.90700 43.47800
H  55.51000 30.68200 44.85900
H  56.10100 29.88600 46.35600
H  54.59100 30.69300 46.33000
H  50.17100 28.33800 44.38100
H  49.65300 29.80400 40.55800
H  47.99200 29.82600 41.09100
H  48.61900 28.41200 40.23100
Mg 30.03900 58.26600 40.15600
C  27.35800 56.08500 39.07000
C  32.21900 56.09900 38.69600
C  32.23900 60.60200 40.36100
C  27.35800 60.63000 40.78600
N  29.79900 56.39600 38.87400
C  28.68600 55.64700 38.71900
C  29.04100 54.20100 38.14200
C  30.57300 54.20700 38.10500
C  30.91500 55.65200 38.70200
C  31.37500 52.98400 38.71500
C  28.32800 53.80600 36.80500
C  27.96300 55.03800 35.90900
H  28.21600 54.76400 34.44400
N  32.07100 58.27200 39.74600
C  32.77100 57.27400 39.22000
C  34.15000 57.63300 39.19500
C  34.23200 59.03100 39.52500
C  32.82900 59.38100 39.90600
C  35.15600 56.67500 38.73800
C  35.47600 59.96700 39.51800
O  36.50300 59.51000 39.10000
C  35.45300 61.33000 40.09600
N  29.75300 60.38500 40.33500
C  30.91700 61.03900 40.55200
C  30.60900 62.45600 41.26000
C  29.10400 62.41400 41.38400
C  28.66300 61.09000 40.77900
C  31.28100 62.68900 42.60400
C  28.42000 63.59500 40.65700
C  27.68400 64.64000 41.48500
N  27.82100 58.35800 40.15800
C  27.00900 59.34100 40.45300
C  25.58300 58.87100 40.28300
C  25.70800 57.54900 39.80300
C  27.08500 57.36500 39.64900
C  24.31300 59.71600 40.50600
C  24.89100 56.39600 39.33000
O  23.64700 56.30500 39.26100
C  26.03500 55.40200 38.89800
C  25.80100 54.17000 39.72000
O  25.41600 54.16200 40.88000
O  25.72200 53.08400 38.86900
C  24.96100 51.92100 39.43100
H  32.88200 55.31200 38.33000
H  32.87900 61.40100 40.74200
H  26.68100 61.43300 41.08300
H  28.74600 53.48200 38.90500
H  30.92100 54.25400 37.07400
H  31.80800 53.37200 39.63600
H  32.15200 52.60400 38.05100
H  30.86500 52.07900 39.04400
H  27.60300 52.99500 36.87800
H  29.17000 53.32300 36.30900
H  28.54400 55.91800 36.18800
H  26.89900 55.25100 36.00900
H  35.09200 56.83000 37.66100
H  34.89500 55.68200 39.10300
H  36.11000 56.93000 39.19900
H  36.42000 61.78100 39.87300
H  35.38800 61.13200 41.16600
H  34.66900 61.91400 39.61400
H  30.88100 63.27600 40.59500
H  28.69800 62.48000 42.39300
H  32.00400 61.89300 42.77900
H  30.61600 62.55500 43.45700
H  31.94300 63.55000 42.70000
H  27.75200 63.20900 39.88700
H  29.12700 64.19500 40.08400
H  27.92400 65.59800 41.02200
H  27.64900 64.54800 42.57000
H  26.63900 64.48600 41.21500
H  24.52800 60.26200 41.42500
H  23.36200 59.21400 40.68600
H  24.12000 60.43800 39.71300
H  26.00100 55.05000 37.86700
H  25.56500 51.39600 40.17100
H  24.80400 51.15900 38.66700
H  23.97400 52.08700 39.86300

