158

Mg 16.56700 51.82000 26.40800
C  18.47500 50.83000 29.20200
C  14.08400 52.75000 28.46900
C  14.85900 52.82100 23.65900
C  19.21300 50.86600 24.34800
N  16.33900 51.85000 28.55100
C  17.22000 51.40000 29.53700
C  16.65500 51.58100 30.93500
C  15.15000 51.89000 30.61000
C  15.19400 52.17800 29.10800
C  14.05500 50.82300 30.99500
C  17.40600 52.65500 31.78600
C  17.80800 52.21000 33.15600
H  16.80700 52.70100 34.20100
N  14.78000 52.75700 26.15200
C  13.84300 53.01400 27.12800
C  12.72300 53.73100 26.54200
C  12.91000 53.74600 25.14100
C  14.19800 53.02900 24.95400
C  11.54600 54.30300 27.39400
C  12.07200 54.36700 24.02600
O  12.39100 54.37300 22.87900
C  10.68200 54.95200 24.31800
N  16.89000 51.68500 24.29100
C  16.05700 52.24700 23.36900
C  16.68800 52.29300 21.95500
C  18.08200 51.65900 22.20900
C  18.12600 51.47800 23.69500
C  15.84400 51.67300 20.85400
C  19.33100 52.50600 21.75200
C  20.29300 51.90500 20.72900
N  18.39000 50.82500 26.65600
C  19.38200 50.54700 25.72500
C  20.55100 49.92000 26.39100
C  20.24300 50.07800 27.76400
C  18.90900 50.58900 27.86200
C  21.85100 49.44200 25.81900
C  20.72000 49.88000 29.11300
O  21.84000 49.52300 29.49400
C  19.56400 50.20000 30.13000
C  19.14100 48.94000 30.83800
O  18.65400 47.95600 30.31100
O  19.21700 49.14900 32.16700
C  18.73800 48.05500 33.08600
H  13.32800 53.08200 29.18400
H  14.37300 53.07200 22.71400
H  20.10900 50.60100 23.78400
H  16.74000 50.60500 31.41200
H  14.85300 52.79700 31.13800
H  13.47000 51.12400 31.86500
H  14.59200 49.87700 31.05500
H  13.36600 50.67900 30.16200
H  16.90200 53.62100 31.79600
H  18.37200 52.83200 31.31300
H  18.77900 52.63500 33.41100
H  17.90800 51.12700 33.22800
H  10.62500 53.87600 26.99700
H  11.55200 55.38700 27.28600
H  11.57900 53.99300 28.43800
H  10.20500 55.09100 23.34800
H  10.89200 55.76800 25.00900
H  10.07600 54.11300 24.66100
H  16.83600 53.35300 21.75300
H  18.15300 50.67400 21.74700
H  16.19200 50.73600 20.41800
H  15.73400 52.50800 20.16200
H  14.92000 51.35200 21.33600
H  19.86100 52.92900 22.60500
H  18.96400 53.40500 21.25600
H  21.18100 52.53600 20.75900
H  19.81500 51.99900 19.75400
H  20.44400 50.83400 20.86900
H  21.72600 48.51600 25.25800
H  22.59800 49.36900 26.61000
H  22.07100 50.15300 25.02200
H  20.07200 50.83300 30.85600
H  17.68700 48.29900 33.24000
H  19.23300 48.06600 34.05700
H  18.88300 47.06200 32.66200
Mg -5.78500 25.77100 25.71700
C  -4.69500 27.34500 28.72800
C  -7.64700 23.50100 27.86000
C  -6.41700 23.89100 23.11800
C  -3.34300 27.61600 24.02500
N  -6.03900 25.33000 28.07400
C  -5.54700 26.20600 28.99200
C  -6.10700 25.80100 30.37700
C  -7.05100 24.60200 30.13300
C  -6.91700 24.43000 28.60000
C  -6.63100 23.25600 30.81000
C  -6.81700 26.98800 31.10400
C  -6.39800 27.32600 32.54700
H  -5.85900 26.26700 33.54100
N  -6.95000 24.00000 25.43900
C  -7.64800 23.23600 26.44600
C  -8.40500 22.16600 25.78300
C  -8.01400 22.17600 24.40600
C  -7.06900 23.36000 24.27300
C  -9.36400 21.22600 26.50100
C  -8.40800 21.32700 23.19900
O  -7.98800 21.47300 22.00600
C  -9.38600 20.25400 23.38800
N  -5.02000 25.79500 23.76600
C  -5.47900 24.87600 22.82900
C  -4.79200 25.12600 21.44900
C  -3.74400 26.26300 21.81000
C  -4.07500 26.68900 23.25400
C  -4.05400 23.81300 20.89500
C  -3.69800 27.47100 20.96300
C  -2.30300 27.70700 20.22000
N  -4.22100 27.15600 26.23200
C  -3.38800 27.87800 25.39600
C  -2.82800 28.97000 26.08800
C  -3.32600 28.81500 27.38700
C  -4.17800 27.68500 27.44300
C  -1.87000 30.00900 25.53500
C  -3.20300 29.28500 28.78500
O  -2.45400 30.17200 29.17400
C  -4.04000 28.36800 29.61600
C  -2.98600 27.70200 30.53400
O  -2.26000 26.76900 30.19900
O  -3.10000 28.21000 31.80200
C  -2.16100 27.60400 32.81500
H  -8.37700 22.93600 28.44300
H  -6.52300 23.33600 22.18400
H  -2.57200 28.25000 23.58200
H  -5.27300 25.50000 31.01000
H  -8.09700 24.75700 30.39600
H  -6.06900 23.41400 31.73000
H  -6.00500 22.59800 30.20800
H  -7.51100 22.70900 31.14800
H  -7.87400 26.72300 31.10400
H  -6.73000 27.94100 30.58200
H  -7.08800 27.96000 33.10400
H  -5.46600 27.87100 32.40200
H  -9.27100 21.29000 27.58500
H  -9.07600 20.23000 26.16700
H  -10.37800 21.44600 26.16500
H  -9.84400 20.07000 22.41600
H  -10.13900 20.47600 24.14500
H  -8.82900 19.39600 23.76300
H  -5.55500 25.46900 20.75000
H  -2.71300 25.90800 21.79800
H  -4.63600 23.37600 20.08400
H  -3.80800 23.17700 21.74600
H  -3.20800 24.07900 20.26200
H  -3.78200 28.42000 21.49100
H  -4.46800 27.34100 20.20300
H  -1.56000 27.25200 20.87400
H  -2.24200 28.78300 20.05400
H  -2.21200 27.11200 19.31100
H  -2.16200 30.37200 24.55000
H  -0.86000 29.60800 25.44800
H  -1.81800 30.86900 26.20300
H  -4.68100 28.93200 30.29300
H  -1.31200 28.28800 32.82100
H  -1.82100 26.59700 32.57400
H  -2.65100 27.52400 33.78600

