158

Mg 47.77800 14.94500 28.18800
C  45.79600 15.00700 31.03500
C  49.89500 17.25900 29.82900
C  49.55200 15.08700 25.33800
C  45.63300 12.82500 26.63000
N  47.82300 16.15300 30.14700
C  47.03800 15.74600 31.21100
C  47.41700 16.34900 32.59200
C  48.56900 17.29600 32.14100
C  48.76900 16.93900 30.60400
C  48.42100 18.81500 32.38700
C  47.82900 15.29900 33.69000
C  46.93700 15.19500 34.89800
H  47.37400 15.95000 36.16000
N  49.49500 16.03600 27.67500
C  50.26800 16.86100 28.49500
C  51.47200 17.24300 27.73800
C  51.33700 16.67200 26.42600
C  50.07400 15.91100 26.40500
C  52.54700 18.07000 28.35800
C  52.30100 16.81200 25.15800
O  52.11600 16.26000 24.06000
C  53.61800 17.57500 25.29500
N  47.56100 14.22500 26.21100
C  48.44900 14.34700 25.19900
C  48.01300 13.43400 24.00700
C  46.85300 12.52800 24.51100
C  46.69100 13.21200 25.87800
C  47.79400 14.21600 22.65900
C  47.19500 10.98100 24.47500
C  48.23000 10.37700 25.48400
N  45.93000 14.25900 28.52600
C  45.21000 13.31900 27.84300
C  43.96100 13.08700 28.56500
C  44.17700 13.74700 29.80800
C  45.40500 14.35700 29.76600
C  42.80500 12.26400 28.04700
C  43.51500 13.95100 31.09000
O  42.48600 13.56200 31.58400
C  44.66600 14.68800 31.93900
C  43.98200 15.91200 32.45300
O  44.13500 17.02600 32.01200
O  43.39400 15.59300 33.68000
C  42.78400 16.64600 34.44900
H  50.54600 17.99600 30.30400
H  50.15000 15.01300 24.42700
H  44.94100 12.02600 26.35800
H  46.56400 16.88500 33.00900
H  49.49900 17.11000 32.67800
H  48.09800 19.34200 31.49000
H  49.36800 19.21000 32.75700
H  47.56400 18.99400 33.03700
H  48.87600 15.41300 33.97000
H  47.75300 14.38600 33.10000
H  46.90200 14.16000 35.23700
H  45.88600 15.35600 34.66000
H  53.53100 17.76200 28.00600
H  52.48100 18.00800 29.44500
H  52.38500 19.09900 28.03600
H  53.32900 18.60500 25.50300
H  54.04200 17.44600 24.29900
H  54.36900 17.11000 25.93400
H  48.89600 12.81400 23.85700
H  46.00300 12.68200 23.84700
H  48.08700 15.26100 22.76700
H  46.75800 14.16400 22.32600
H  48.35900 13.86400 21.79600
H  47.66100 10.67800 23.53800
H  46.26100 10.43100 24.59900
H  47.79900 9.44500 25.85100
H  48.48400 11.04400 26.30800
H  49.16900 10.02600 25.05600
H  43.16100 11.24200 27.91200
H  42.41800 12.63400 27.09800
H  41.89900 12.38600 28.64100
H  45.06700 14.10600 32.77000
H  43.28100 16.68700 35.41800
H  41.73200 16.36900 34.52500
H  42.86900 17.65400 34.04400
Mg 46.99300 24.26000 28.38400
C  47.64100 26.74100 30.77500
C  46.17900 22.05000 30.70400
C  46.56300 21.89800 25.88700
C  48.23300 26.54100 26.02100
N  46.99000 24.39700 30.50600
C  47.11500 25.55000 31.31400
C  46.75100 25.26100 32.81200
C  46.41200 23.71100 32.75700
C  46.54700 23.32100 31.24100
C  47.36100 22.74100 33.48000
C  45.52800 26.07800 33.24800
C  44.93400 25.58600 34.57500
H  44.72800 26.64400 35.70000
N  46.49500 22.23000 28.34000
C  46.17400 21.49700 29.38500
C  45.81900 20.12000 28.98600
C  45.89000 20.05400 27.54600
C  46.39500 21.44300 27.21800
C  45.52100 19.08300 30.08700
C  45.60000 18.86000 26.69500
O  45.67000 18.92100 25.46700
C  44.93500 17.66600 27.28600
N  47.46000 24.14600 26.30700
C  47.07400 23.14800 25.49600
C  47.19200 23.63400 24.02500
C  47.43800 25.15700 24.05300
C  47.69000 25.31000 25.53500
C  48.10200 22.78000 23.12000
C  46.22900 26.14100 23.55800
C  44.81600 25.80800 24.11400
N  47.90600 26.17500 28.37100
C  48.31300 26.95500 27.34900
C  48.79100 28.24200 27.77900
C  48.49000 28.26500 29.19300
C  47.98600 26.95700 29.44400
C  49.36500 29.28400 26.92600
C  48.49500 29.05900 30.40500
O  48.86700 30.22500 30.53000
C  47.88600 28.09400 31.48000
C  48.79000 27.85300 32.69700
O  49.93800 27.42100 32.60200
O  48.19100 28.12800 33.87900
C  48.84700 27.63800 35.07800
H  45.87000 21.39200 31.51900
H  46.37200 21.24300 25.03500
H  48.48800 27.28300 25.26100
H  47.56300 25.52000 33.49200
H  45.38400 23.51700 33.06300
H  46.73800 21.99400 33.97200
H  47.89400 23.33200 34.22400
H  48.09900 22.20200 32.88500
H  44.79200 26.06700 32.44300
H  45.80300 27.10200 33.50100
H  45.47500 24.73200 34.98300
H  43.90300 25.27300 34.41100
H  44.49100 18.72500 30.08500
H  45.54600 19.49900 31.09500
H  46.23300 18.26600 29.96700
H  44.13100 18.07400 27.89900
H  45.62500 17.18600 27.98000
H  44.48800 16.92300 26.62600
H  46.17900 23.49800 23.64400
H  48.33900 25.34300 23.46900
H  47.64700 22.21800 22.30500
H  48.54600 22.03400 23.77900
H  48.91100 23.40200 22.73600
H  46.15300 26.02900 22.47700
H  46.55900 27.13700 23.85100
H  44.16100 25.36800 23.36200
H  44.45100 26.79500 24.40000
H  44.81500 25.20200 25.02000
H  48.56100 29.95500 26.62200
H  49.78000 28.86800 26.00800
H  50.18900 29.79000 27.42900
H  46.99900 28.52400 31.94600
H  49.92800 27.66100 34.93300
H  48.55500 26.62200 35.34100
H  48.55700 28.23100 35.94600

