158

Mg 0.96100 6.86400 26.20300
C  1.99000 9.37600 28.66500
C  1.00000 4.61200 28.71000
C  0.24000 4.77300 23.92400
C  1.68000 9.47400 23.76400
N  1.44700 7.04100 28.45200
C  1.75000 8.07800 29.25300
C  1.56200 7.76000 30.68500
C  1.52300 6.19000 30.66500
C  1.31600 5.91400 29.17400
C  2.79000 5.46200 31.18200
C  0.28000 8.49900 31.41000
C  0.45400 8.72700 32.97000
H  1.75500 8.36900 33.72600
N  0.63300 4.96900 26.28300
C  0.74600 4.11100 27.38300
C  0.37600 2.72100 26.99900
C  0.01500 2.78900 25.60900
C  0.38500 4.17100 25.18000
C  0.19000 1.58100 28.06000
C  -0.50200 1.66300 24.71300
O  -0.95200 1.86600 23.61500
C  -0.52700 0.23800 25.26100
N  1.32200 7.00200 23.97000
C  0.65500 6.00100 23.33300
C  0.07400 6.48300 21.95000
C  0.58400 8.00400 21.88800
C  1.17500 8.24200 23.30900
C  0.45100 5.61200 20.72800
C  -0.43400 9.08100 21.49600
C  -0.05200 10.27500 20.62200
N  1.72100 9.00700 26.14500
C  1.92200 9.88700 25.08700
C  2.42300 11.10200 25.57300
C  2.38100 10.96100 26.93700
C  2.00200 9.66100 27.24900
C  3.08100 12.22800 24.72800
C  2.64300 11.71100 28.14200
O  3.00300 12.87700 28.25700
C  2.25300 10.76700 29.33100
C  3.40100 10.61900 30.20200
O  4.45700 10.08500 29.86200
O  3.14100 11.28600 31.40700
C  4.27400 11.50900 32.29900
H  0.99200 3.84300 29.48500
H  -0.09900 4.04400 23.18600
H  1.66100 10.28200 23.02900
H  2.40500 8.19900 31.21800
H  0.64700 5.92200 31.25700
H  2.52700 4.82600 32.02700
H  3.59000 6.14800 31.45900
H  3.08900 4.77200 30.39300
H  -0.62500 7.89500 31.47000
H  0.11900 9.46100 30.92500
H  -0.35500 8.17500 33.44900
H  0.20800 9.74300 33.28100
H  0.57300 0.61600 27.72900
H  -0.87900 1.50800 28.25900
H  0.56500 2.04300 28.97300
H  -0.96100 0.05600 26.24400
H  0.52700 0.04600 25.46300
H  -0.75200 -0.54900 24.54200
H  -1.01400 6.42300 21.97800
H  1.45000 8.04100 21.22700
H  0.98500 4.69500 20.97900
H  1.21900 6.11000 20.13700
H  -0.35300 5.36500 20.03500
H  -0.71700 9.45400 22.48100
H  -1.26300 8.64600 20.93900
H  -0.91100 10.75200 20.14900
H  0.63000 10.00800 19.81500
H  0.23400 11.07700 21.30300
H  2.38400 12.71900 24.04900
H  3.77600 11.77200 24.02200
H  3.47900 13.05500 25.31600
H  1.39600 11.03400 29.94900
H  4.83100 12.39500 31.99300
H  4.91900 10.65200 32.49200
H  3.83700 11.81400 33.25000
Mg 26.32900 50.00600 25.35600
C  24.34500 51.33600 28.03100
C  28.83000 49.44500 27.61800
C  28.39800 48.98200 22.82900
C  24.20000 51.53300 23.09000
N  26.52000 50.25200 27.65000
C  25.59700 50.81300 28.48500
C  26.19900 50.89300 29.88500
C  27.55700 50.12800 29.76200
C  27.68400 49.96000 28.27000
C  28.63100 51.03000 30.43600
C  25.28200 50.34900 31.09500
C  25.87600 49.56000 32.21400
H  25.14700 49.26600 33.52500
N  28.31800 49.23000 25.25600
C  29.16900 49.07700 26.31500
C  30.46600 48.54500 25.82300
C  30.37600 48.50500 24.36600
C  29.00500 48.96400 24.09800
C  31.63200 48.27700 26.80500
C  31.47900 48.20800 23.41100
O  31.31500 48.25900 22.21500
C  32.78500 47.73100 23.98100
N  26.23700 50.15000 23.26100
C  27.23200 49.62000 22.43400
C  26.84300 49.72100 20.91700
C  25.47700 50.55800 20.95600
C  25.28400 50.74800 22.51000
C  27.92700 50.40300 20.06500
C  24.35100 49.83800 20.14700
C  23.79500 50.64800 18.99800
N  24.50500 51.08000 25.47600
C  23.79300 51.71300 24.47100
C  22.66600 52.45900 25.00700
C  22.84400 52.35100 26.38700
C  23.96000 51.51500 26.62800
C  21.75700 53.25300 24.17800
C  22.31600 52.73500 27.70400
O  21.44400 53.54800 28.06000
C  23.26100 52.11700 28.82300
C  23.80600 53.23600 29.62000
O  24.45200 54.17800 29.18400
O  23.41800 53.09800 30.89400
C  23.94500 54.11900 31.80000
H  29.59500 49.30300 28.38400
H  28.82700 48.59300 21.90300
H  23.64200 52.03000 22.29300
H  26.41400 51.95200 30.02300
H  27.65600 49.15600 30.24600
H  28.33100 51.87000 31.06200
H  29.35600 51.22600 29.64600
H  29.09900 50.45800 31.23800
H  24.62700 49.66400 30.55600
H  24.65700 51.13200 31.52400
H  26.90000 49.91900 32.31600
H  26.01100 48.60100 31.71500
H  31.87200 47.21400 26.84200
H  31.44500 48.44100 27.86600
H  32.54800 48.83100 26.59700
H  32.75200 46.84800 24.62000
H  33.15400 48.64000 24.45600
H  33.48900 47.39800 23.21800
H  26.64700 48.73900 20.48600
H  25.72900 51.58800 20.70400
H  28.29600 49.77300 19.25500
H  28.71100 50.66000 20.77600
H  27.51100 51.31200 19.63100
H  23.58100 49.64600 20.89500
H  24.68900 48.88000 19.75200
H  22.74900 50.43900 18.77200
H  24.41300 50.34200 18.15300
H  23.77200 51.72900 19.13200
H  21.03800 52.60800 23.67200
H  22.33900 53.83600 23.46400
H  21.07200 53.82800 24.80100
H  22.70600 51.47400 29.50700
H  23.95300 55.06300 31.25600
H  24.94800 53.95300 32.19400
H  23.36700 54.28400 32.71000

