158

Mg 36.01100 49.29700 25.52300
C  36.01800 47.31200 28.43400
C  34.96800 51.92700 27.33900
C  35.59000 50.93300 22.62200
C  36.77800 46.45100 23.71900
N  35.31300 49.47700 27.68200
C  35.58600 48.64000 28.69900
C  35.50100 49.34500 30.02800
C  34.92500 50.79000 29.69800
C  35.04300 50.73400 28.13100
C  33.48400 51.18300 30.26600
C  36.80700 49.36500 30.84700
C  36.67000 48.92600 32.36300
H  36.76000 50.07500 33.35000
N  35.47600 51.20200 25.05100
C  34.98300 52.17700 25.93200
C  34.95100 53.46200 25.28500
C  35.08300 53.17500 23.89100
C  35.35000 51.70600 23.78500
C  34.74800 54.68000 26.08500
C  35.06700 54.09600 22.69100
O  35.00800 53.85100 21.47100
C  34.92300 55.59500 22.98900
N  36.03400 48.72500 23.44300
C  35.90900 49.60500 22.47900
C  35.98400 49.02400 21.10900
C  36.42500 47.57500 21.40400
C  36.40900 47.56500 22.95600
C  34.69900 49.00400 20.14400
C  37.76200 47.31600 20.69500
C  39.11100 47.40200 21.51700
N  36.26300 47.32400 25.90700
C  36.60300 46.28700 25.05300
C  36.85300 45.04900 25.87200
C  36.60000 45.42700 27.19100
C  36.25500 46.82200 27.13300
C  37.37700 43.84000 25.40100
C  36.67000 44.97600 28.50600
O  36.80100 43.83800 28.94600
C  36.42600 46.25700 29.37400
C  35.23400 46.05700 30.22400
O  34.04000 46.02700 29.86100
O  35.71900 45.70700 31.51400
C  34.69400 45.41400 32.50500
H  34.84700 52.75500 28.04100
H  35.47000 51.53500 21.71900
H  37.16100 45.60800 23.14000
H  34.76500 48.92700 30.71500
H  35.57200 51.61000 30.01300
H  33.07900 50.27000 30.70100
H  32.91700 51.51800 29.39700
H  33.51500 52.09500 30.86300
H  37.26300 50.35300 30.78100
H  37.57500 48.70400 30.44400
H  37.53400 48.29300 32.56200
H  35.76300 48.32900 32.45900
H  35.39100 55.55500 25.99300
H  34.62800 54.51500 27.15500
H  33.80500 55.04000 25.67400
H  35.80400 55.98900 23.49500
H  34.03400 55.84400 23.56800
H  34.65700 56.06000 22.04000
H  36.81100 49.57800 20.66500
H  35.72900 46.74800 21.26000
H  33.88900 49.63700 20.50800
H  34.31700 47.99600 19.98600
H  35.01200 49.30200 19.14300
H  37.87400 48.00500 19.85800
H  37.74800 46.30200 20.29700
H  39.82600 46.67800 21.12400
H  38.93900 47.27100 22.58500
H  39.56900 48.37500 21.33800
H  37.95900 43.40900 26.21600
H  37.92300 43.79700 24.45900
H  36.55500 43.15200 25.20500
H  37.29900 46.33400 30.02200
H  34.03100 44.57400 32.29500
H  33.99700 46.25200 32.52800
H  35.21500 45.29600 33.45500
Mg -1.40400 34.67000 26.76900
C  -2.91100 32.59300 29.23000
C  -0.36600 36.67900 29.32300
C  -0.58200 36.94500 24.52200
C  -2.97300 32.70300 24.36400
N  -1.66000 34.65900 29.00600
C  -2.27400 33.71200 29.82100
C  -1.98100 34.00800 31.32700
C  -1.24600 35.40200 31.29800
C  -1.16600 35.67400 29.77300
C  -1.98900 36.46600 32.16400
C  -1.25800 32.85000 32.04900
C  -2.01200 32.21200 33.22000
H  -1.16900 31.71800 34.36200
N  -0.55700 36.54600 26.91600
C  -0.09400 37.12800 28.02000
C  0.60800 38.35500 27.68000
C  0.59300 38.44400 26.28500
C  -0.21700 37.29500 25.82500
C  1.40700 39.16700 28.69600
C  1.23100 39.51500 25.37300
O  1.03000 39.53000 24.15500
C  2.14600 40.55400 25.99100
N  -2.02800 34.90300 24.79800
C  -1.47300 35.89300 24.07800
C  -1.75900 35.74000 22.57300
C  -2.25200 34.21400 22.51900
C  -2.39900 33.86600 24.00400
C  -2.77700 36.81100 21.94500
C  -1.40600 33.27900 21.70200
C  0.07100 33.15000 22.14300
N  -2.75500 33.00000 26.73800
C  -3.14900 32.29200 25.69400
C  -3.92300 31.17300 26.16800
C  -3.81100 31.17100 27.57300
C  -3.11200 32.35300 27.88600
C  -4.60900 30.18000 25.25500
C  -4.11500 30.50900 28.79500
O  -4.66800 29.45200 28.99300
C  -3.56400 31.38300 29.92200
C  -4.74100 31.63300 30.82700
O  -5.47600 32.63600 30.78300
O  -4.79600 30.64400 31.71700
C  -5.69500 30.80700 32.79900
H  0.01700 37.19400 30.20700
H  -0.24100 37.64300 23.75500
H  -3.24600 32.11200 23.48800
H  -2.98400 34.21300 31.70200
H  -0.22300 35.34000 31.66800
H  -2.79800 36.99000 31.65600
H  -1.24000 37.13900 32.58200
H  -2.42500 36.01200 33.05400
H  -0.28500 33.24300 32.34600
H  -1.00000 32.00100 31.41700
H  -2.38000 31.31400 32.72300
H  -2.86200 32.78200 33.59400
H  0.91000 40.13600 28.74800
H  2.44200 39.33400 28.39800
H  1.33700 38.68100 29.66900
H  2.38600 41.38500 25.32700
H  3.05400 40.03100 26.29200
H  1.58300 41.06500 26.77200
H  -0.84100 35.91700 22.01200
H  -3.25600 34.16400 22.09800
H  -3.52400 36.57500 21.18700
H  -2.17700 37.50500 21.35700
H  -3.20700 37.34400 22.79200
H  -1.43500 33.60500 20.66200
H  -1.73100 32.26500 21.93800
H  0.65700 33.18100 21.22400
H  0.21200 32.24100 22.72800
H  0.40000 33.86500 22.89700
H  -4.46900 30.40100 24.19700
H  -5.67900 30.32200 25.40700
H  -4.19000 29.20400 25.49900
H  -2.80900 30.77700 30.42300
H  -6.71100 31.04500 32.48200
H  -5.39300 31.51700 33.56900
H  -5.71500 29.82800 33.27700

