158

Mg 35.18900 3.52600 30.16200
C  32.79100 4.19300 32.45900
C  37.58400 3.72800 32.60300
C  37.51200 2.52400 27.82900
C  32.78200 3.58100 27.53100
N  35.15200 3.82700 32.22800
C  34.04400 3.98100 33.01500
C  34.25900 4.19100 34.51300
C  35.82400 4.40700 34.42800
C  36.24800 3.93800 33.03700
C  36.24500 5.93400 34.71000
C  33.78400 2.99300 35.39700
C  33.38400 3.43000 36.81200
H  34.25200 4.41000 37.66900
N  37.28600 3.21600 30.17800
C  38.05900 3.36100 31.31200
C  39.36600 2.87100 31.02100
C  39.37700 2.58500 29.62400
C  37.99000 2.77900 29.10500
C  40.47500 2.78200 32.02300
C  40.49700 2.14900 28.72300
O  40.43900 1.94000 27.48100
C  41.87500 1.86800 29.33800
N  35.14400 3.27800 27.91100
C  36.23400 2.74600 27.26100
C  35.85500 2.46000 25.81400
C  34.28900 2.75000 25.75900
C  34.05100 3.29400 27.11300
C  36.71500 3.35000 24.75500
C  33.37300 1.63800 25.21100
C  32.08800 2.06300 24.44800
N  33.21900 3.87400 29.97100
C  32.33300 3.85700 28.91200
C  31.07600 4.16300 29.38900
C  31.24200 4.32000 30.74100
C  32.53200 4.10100 31.07500
C  29.76500 4.23500 28.60000
C  30.43400 4.66200 31.86100
O  29.25200 5.04600 31.97500
C  31.43900 4.43000 33.10300
C  31.37000 5.67900 33.93800
O  31.58900 6.82800 33.51800
O  30.92200 5.31800 35.21200
C  30.58900 6.55400 36.00900
H  38.31800 3.90800 33.39000
H  38.23400 1.92100 27.27500
H  31.91200 3.52300 26.87500
H  33.73500 5.10400 34.79700
H  36.43200 3.90400 35.17900
H  35.34500 6.40100 35.11000
H  36.67700 6.45400 33.85500
H  36.91400 5.98600 35.56900
H  34.52200 2.21200 35.58200
H  32.89600 2.56800 34.92800
H  33.29100 2.50400 37.38000
H  32.36200 3.78600 36.67700
H  40.64700 1.82700 32.52000
H  40.23600 3.54800 32.76000
H  41.43400 3.13300 31.64200
H  41.91700 1.20800 30.20400
H  42.37000 2.80000 29.60700
H  42.54700 1.50400 28.56100
H  36.07300 1.40800 25.63500
H  34.19000 3.58800 25.06900
H  37.15500 2.59700 24.10200
H  37.44700 3.92800 25.31900
H  36.04900 3.97500 24.15900
H  32.90600 1.18000 26.08300
H  33.90900 0.87400 24.64800
H  31.26900 2.25500 25.14000
H  31.81000 1.28800 23.73400
H  32.35000 2.94600 23.86400
H  29.01700 4.47600 29.35600
H  29.40000 3.34500 28.08800
H  29.86500 5.07500 27.91200
H  31.11000 3.60500 33.73600
H  29.82900 7.20600 35.57800
H  31.53900 7.04900 36.20800
H  30.10600 6.14300 36.89600
Mg -1.13300 34.22300 27.60200
C  -3.10100 32.44600 29.90600
C  0.26400 35.98200 30.20000
C  0.11600 36.20900 25.37900
C  -2.75200 32.37000 24.97500
N  -1.53900 34.34200 29.69000
C  -2.39400 33.50900 30.40500
C  -2.23300 33.75100 31.95500
C  -1.45100 35.16500 31.99600
C  -0.85500 35.19400 30.59200
C  -2.35800 36.47400 32.20000
C  -1.47600 32.54500 32.75400
C  -2.17600 32.12500 34.11200
H  -1.45200 31.73700 35.52800
N  0.09100 35.77800 27.74600
C  0.75500 36.32300 28.93000
C  1.69900 37.30700 28.56500
C  1.67200 37.41500 27.15200
C  0.56500 36.47900 26.69400
C  2.60400 38.10300 29.53600
C  2.58300 38.14500 26.15400
O  2.36400 38.16800 24.95400
C  3.75500 38.93100 26.59500
N  -1.57500 34.49000 25.43200
C  -0.78400 35.37300 24.77500
C  -0.79300 35.19100 23.24300
C  -1.58900 33.75300 23.17800
C  -1.99000 33.49200 24.61300
C  -1.51700 36.33700 22.43600
C  -0.62000 32.67100 22.54500
C  -1.16500 31.79800 21.47900
N  -2.66400 32.75600 27.45100
C  -3.13200 32.08400 26.27600
C  -3.99400 31.01800 26.72800
C  -4.01700 31.08700 28.12600
C  -3.19000 32.15400 28.53300
C  -4.66400 30.06800 25.81500
C  -4.46600 30.41300 29.35500
O  -5.12300 29.40600 29.53000
C  -4.06700 31.37400 30.53000
C  -5.25300 32.00400 31.17800
O  -5.73000 33.08600 30.95200
O  -5.75000 31.09900 32.15400
C  -6.62000 31.61500 33.17000
H  0.72100 36.48000 31.05800
H  0.39400 36.93300 24.61100
H  -3.18700 31.87100 24.10700
H  -3.25800 33.90000 32.29400
H  -0.65400 35.04700 32.73000
H  -3.29900 36.15400 32.64900
H  -2.69600 36.99200 31.30200
H  -1.85000 37.19900 32.83500
H  -0.40900 32.70900 32.90500
H  -1.47200 31.74200 32.01800
H  -2.75100 31.22400 33.90000
H  -2.90400 32.91800 34.28400
H  2.09400 38.23900 30.49000
H  2.67300 39.10600 29.11600
H  3.56500 37.60000 29.64600
H  4.49500 38.27300 27.05000
H  3.46700 39.75300 27.25100
H  4.26100 39.42600 25.76600
H  0.26800 35.14100 22.99800
H  -2.55100 33.95900 22.70900
H  -1.45900 37.21500 23.08100
H  -2.52600 36.01500 22.18200
H  -0.87600 36.55900 21.58300
H  -0.26800 31.96500 23.29700
H  0.21800 33.22500 22.12000
H  -1.23500 30.80400 21.92100
H  -0.50400 31.78500 20.61200
H  -2.18400 32.10300 21.24100
H  -3.97600 29.86000 24.99500
H  -5.56200 30.55600 25.43600
H  -4.90700 29.13000 26.31400
H  -3.53000 30.83100 31.30700
H  -6.02900 31.86600 34.05100
H  -7.22500 30.75900 33.46800
H  -7.26600 32.42700 32.83600

