158

Mg 54.09600 24.76900 44.61200
C  51.45600 27.08100 43.81400
C  51.88000 22.41200 43.55200
C  56.71800 22.79400 44.44600
C  56.18000 27.51200 45.37300
N  51.90300 24.82400 43.53900
C  50.96900 25.85700 43.48000
C  49.60100 25.33700 42.89200
C  49.72100 23.81800 43.30500
C  51.27200 23.62100 43.48400
C  48.86900 23.42100 44.49600
C  49.41400 25.50700 41.31900
C  47.96200 25.39500 40.91300
H  47.65600 25.31200 39.48200
N  54.24400 22.80600 44.07900
C  53.20600 21.97000 43.78900
C  53.75200 20.68100 43.53400
C  55.16400 20.78200 43.78700
C  55.45100 22.20700 44.05600
C  52.89000 19.31700 43.35000
C  56.07300 19.60200 43.82200
O  55.76100 18.45500 43.58600
C  57.52700 19.76300 44.08500
N  56.23300 25.11700 44.90900
C  57.06100 24.09900 44.85700
C  58.44100 24.59400 45.32300
C  58.21800 26.09000 45.80000
C  56.79800 26.24500 45.27000
C  59.08100 23.71600 46.41100
C  59.35300 26.97900 45.38500
C  59.15700 27.83900 44.11300
N  53.93600 26.85900 44.59100
C  54.79600 27.79200 45.12100
C  54.06100 29.03200 45.32400
C  52.78200 28.76400 44.76900
C  52.74600 27.45700 44.34200
C  54.55500 30.34500 45.88200
C  51.46500 29.36800 44.62700
O  51.08800 30.52200 44.91500
C  50.62700 28.32500 43.83900
C  50.36200 28.92400 42.52300
O  51.22400 29.49600 41.85500
O  49.02600 28.96800 42.25700
C  48.68900 29.58300 40.96200
H  51.26300 21.52400 43.40200
H  57.57600 22.11900 44.46100
H  56.72600 28.40700 45.67800
H  48.89100 25.94600 43.45200
H  49.51500 23.07500 42.53500
H  48.25900 22.53000 44.34500
H  48.17700 24.18100 44.85900
H  49.49100 22.99700 45.28400
H  50.02900 24.75900 40.81800
H  49.85500 26.45700 41.01500
H  47.48400 26.26600 41.36100
H  47.59500 24.55800 41.50800
H  53.36600 18.48700 43.87100
H  52.82900 19.02900 42.30100
H  51.95700 19.53700 43.86800
H  57.81600 20.51100 43.34600
H  58.08300 18.85600 43.85000
H  57.72600 20.02400 45.12400
H  59.24300 24.56800 44.58500
H  58.23000 25.97200 46.88400
H  58.50000 22.79500 46.44000
H  59.12500 24.22200 47.37500
H  60.11700 23.48100 46.16600
H  60.26600 26.38700 45.32000
H  59.51300 27.69100 46.19500
H  58.38400 27.40600 43.47700
H  60.08700 28.11300 43.61600
H  58.94200 28.78700 44.60600
H  55.59200 30.38600 46.21200
H  53.93800 30.54500 46.75800
H  54.44000 31.15100 45.15700
H  49.67000 28.12100 44.31900
H  47.99200 28.89600 40.48200
H  49.57000 29.81600 40.36300
H  48.08200 30.48800 40.95200
Mg 49.42200 35.86800 27.14700
C  47.37200 34.34400 29.46800
C  50.23000 38.30300 29.39600
C  51.52400 37.21200 24.76400
C  48.83500 33.35800 24.87800
N  48.79100 36.25500 29.16000
C  48.05300 35.47600 30.01300
C  48.23600 35.97900 31.49200
C  48.90100 37.40100 31.41500
C  49.35200 37.33500 29.88000
C  48.16700 38.68700 31.79000
C  49.13800 35.03000 32.34500
C  48.94700 34.89100 33.91200
H  48.06300 35.85500 34.57800
N  50.62500 37.62400 26.98100
C  50.82800 38.47700 28.05000
C  51.74300 39.48200 27.70400
C  52.27900 39.20500 26.40600
C  51.49800 37.92900 25.98400
C  52.05600 40.70100 28.65000
C  53.30800 39.91200 25.51600
O  53.63300 39.43500 24.44100
C  54.04600 41.14500 26.04400
N  49.86900 35.52800 24.97100
C  50.83500 36.14700 24.26900
C  51.06800 35.55900 22.85700
C  50.42400 34.19000 23.08500
C  49.67200 34.38800 24.37200
C  50.26900 36.42800 21.89100
C  51.38400 33.00400 23.19400
C  51.51800 32.26000 21.91400
N  48.21900 34.24800 27.09800
C  48.15600 33.32800 26.14100
C  47.34600 32.19600 26.65700
C  46.94400 32.60000 27.94000
C  47.52200 33.82700 28.19200
C  47.15500 30.88100 25.90300
C  46.21100 32.19900 29.04500
O  45.55800 31.11800 29.23300
C  46.34000 33.42600 30.01700
C  46.51600 32.79600 31.42300
O  47.42000 32.06100 31.85400
O  45.38000 33.17300 32.12300
C  45.37900 32.61900 33.51500
H  50.71200 38.92200 30.15600
H  52.42500 37.49100 24.21300
H  48.70500 32.43700 24.30700
H  47.31200 36.18200 32.03300
H  49.75700 37.41400 32.09000
H  48.63600 39.19100 32.63500
H  47.15100 38.43900 32.09700
H  48.01900 39.40400 30.98300
H  50.17500 35.21200 32.06400
H  49.02000 34.00100 32.00600
H  49.92800 34.95000 34.38400
H  48.52000 33.89400 34.02900
H  52.37900 41.59400 28.11500
H  52.84500 40.49700 29.37500
H  51.15100 41.01800 29.16700
H  53.37400 42.00100 26.10600
H  54.90300 41.53000 25.49100
H  54.44000 40.84400 27.01500
H  52.11100 35.51400 22.54500
H  49.78000 34.15100 22.20600
H  50.50500 37.39500 22.33500
H  49.19400 36.29200 22.01400
H  50.66900 36.50500 20.88000
H  51.09300 32.20200 23.87200
H  52.33700 33.46400 23.45700
H  50.54800 32.20100 21.41900
H  52.01800 31.29300 21.86400
H  52.01600 33.01900 21.31100
H  48.06200 30.47700 25.45500
H  46.39200 31.07000 25.14800
H  46.76700 30.17400 26.63600
H  45.33400 33.84200 29.96000
H  45.29700 31.53300 33.46600
H  44.51500 33.00300 34.05600
H  46.27900 32.96300 34.02600

