158

Mg 1.36900 -1.69200 43.27400
C  4.72200 -0.83400 42.73500
C  0.36800 1.12900 41.62800
C  -1.78100 -2.90200 43.34600
C  2.37400 -4.79800 44.57600
N  2.43200 -0.13400 42.21500
C  3.82000 0.05800 42.07400
C  4.13900 1.35200 41.40600
C  2.68300 1.96400 41.24100
C  1.77100 0.89900 41.82000
C  2.36400 3.39100 41.77100
C  4.94800 1.31200 40.12900
C  4.21000 0.75600 38.88200
H  4.91000 0.04400 37.80500
N  -0.47300 -0.93600 42.64100
C  -0.71900 0.29600 42.07400
C  -2.08400 0.49500 41.83800
C  -2.67600 -0.78500 42.21600
C  -1.66000 -1.61500 42.81200
C  -2.62000 1.71100 41.14500
C  -4.08100 -1.04700 41.95200
O  -4.86300 -0.17400 41.55500
C  -4.76700 -2.31100 42.32700
N  0.39800 -3.67600 43.81000
C  -0.92100 -3.77000 43.96700
C  -1.34400 -5.17600 44.45700
C  -0.02500 -5.67700 45.02900
C  1.03200 -4.69200 44.39400
C  -2.56600 -5.38800 45.37400
C  0.20100 -7.21800 44.83100
C  0.79200 -8.00900 45.97700
N  3.07100 -2.65200 43.59900
C  3.37800 -3.87500 44.26600
C  4.81100 -4.02900 44.52500
C  5.29100 -2.87000 43.88200
C  4.24500 -2.04800 43.42300
C  5.55400 -5.06400 45.22900
C  6.56200 -2.24500 43.60600
O  7.67600 -2.64300 43.98600
C  6.27300 -0.91800 42.75800
C  7.12800 0.24400 43.34400
O  7.78900 1.03900 42.71000
O  6.94000 0.30900 44.75700
C  7.80500 1.34200 45.38200
H  0.10800 2.08100 41.15900
H  -2.82100 -3.17800 43.53400
H  2.58300 -5.77000 45.03000
H  4.56200 2.02000 42.15700
H  2.46400 1.92500 40.17400
H  1.60800 3.42600 42.55500
H  2.07600 4.00500 40.91700
H  3.28200 3.85300 42.13500
H  5.82600 0.70800 40.35700
H  5.28000 2.34400 40.01400
H  3.78200 1.66800 38.46700
H  3.42300 0.03300 39.09800
H  -3.61900 2.11400 41.31500
H  -2.57200 1.55300 40.06700
H  -1.95700 2.57200 41.23500
H  -5.84300 -2.36100 42.16100
H  -4.70500 -2.42900 43.40900
H  -4.28400 -3.16600 41.85400
H  -1.63900 -5.78400 43.60200
H  0.06800 -5.48600 46.09800
H  -2.91200 -6.39000 45.12000
H  -3.31600 -4.60200 45.28400
H  -2.31600 -5.42100 46.43400
H  0.72100 -7.45100 43.90200
H  -0.76900 -7.63500 44.55800
H  1.65700 -8.53300 45.56900
H  0.06600 -8.72200 46.36800
H  1.07200 -7.38100 46.82300
H  6.24500 -4.66200 45.97000
H  6.05300 -5.73000 44.52500
H  4.75200 -5.61400 45.72000
H  6.71600 -1.08300 41.77600
H  7.91100 1.11000 46.44200
H  7.22900 2.25600 45.23300
H  8.82900 1.37300 45.01000
Mg 34.35500 2.84000 30.08700
C  31.99600 3.89800 32.51600
C  36.88700 3.09500 32.53300
C  36.73900 2.55100 27.55900
C  31.87800 2.92800 27.65700
N  34.34900 3.43400 32.22600
C  33.28300 3.71300 33.08800
C  33.72100 3.69900 34.57500
C  35.25700 3.85900 34.42200
C  35.51500 3.42800 32.97000
C  35.93000 5.24200 34.74700
C  33.06600 2.48000 35.38900
C  32.63800 2.56600 36.88600
H  33.22900 3.67000 37.78200
N  36.41900 2.72500 30.06500
C  37.21200 2.70200 31.20500
C  38.59200 2.38400 30.77400
C  38.61200 2.30200 29.34000
C  37.19700 2.56900 28.91200
C  39.79500 2.24800 31.66700
C  39.72800 1.95300 28.38800
O  39.54300 1.73200 27.17700
C  41.11300 1.60600 28.90900
N  34.28500 2.56700 27.99200
C  35.41200 2.56300 27.15600
C  34.99100 2.54600 25.65200
C  33.39900 2.45100 25.72500
C  33.14300 2.68100 27.23500
C  35.48900 3.78800 24.83000
C  32.78700 1.16800 25.11900
C  32.15700 0.09500 26.06500
N  32.35700 3.32800 30.00700
C  31.45500 3.30500 28.93000
C  30.12600 3.67600 29.45600
C  30.30700 3.88200 30.81100
C  31.64200 3.61500 31.14400
C  28.87200 3.70300 28.64800
C  29.61900 4.22900 32.10600
O  28.45500 4.46500 32.39200
C  30.76000 4.27600 33.26400
C  30.89100 5.62500 33.80700
O  31.23100 6.61200 33.17200
O  30.66100 5.61600 35.18400
C  30.86200 6.89800 35.93300
H  37.73000 3.16700 33.22200
H  37.45400 2.56400 26.73400
H  31.09600 2.80600 26.90500
H  33.29800 4.64300 34.91500
H  35.76500 3.16300 35.08900
H  36.62000 5.17900 35.58800
H  35.13300 5.96100 34.94000
H  36.51700 5.63900 33.91800
H  33.73300 1.64500 35.17200
H  32.16000 2.21700 34.84300
H  32.94900 1.62900 37.34800
H  31.55800 2.64900 37.00800
H  40.74300 2.66600 31.33000
H  39.96800 1.20100 31.91600
H  39.68500 2.83900 32.57700
H  41.68900 2.49400 29.17000
H  41.63400 1.17100 28.05700
H  41.01000 0.81100 29.64700
H  35.51400 1.78900 25.06800
H  32.85900 3.20400 25.15100
H  34.70700 4.47900 24.51600
H  36.11100 3.45400 23.99900
H  36.19500 4.32000 25.46800
H  33.63600 0.64600 24.67700
H  32.11100 1.47100 24.31900
H  32.34300 0.24700 27.12800
H  32.47100 -0.89100 25.72100
H  31.08900 0.25000 25.91700
H  29.04400 3.41400 27.61200
H  28.39700 4.67300 28.79000
H  28.20300 3.06000 29.22000
H  30.51500 3.55000 34.03900
H  30.27600 7.76000 35.61500
H  31.92100 7.15400 35.95800
H  30.52700 6.56000 36.91400

