158

Mg 1.91200 8.08600 26.36200
C  2.18000 10.16400 29.28800
C  2.37800 5.36300 28.63800
C  2.36900 5.98100 23.74500
C  2.10300 10.73000 24.29700
N  2.17600 7.85100 28.78900
C  2.12800 8.81100 29.69600
C  2.11000 8.21600 31.11300
C  2.46200 6.66100 30.84600
C  2.36400 6.58000 29.33800
C  3.80300 6.04800 31.53800
C  0.85900 8.41600 31.86000
C  0.67500 7.53400 33.12700
H  1.87500 7.30400 34.08700
N  2.17700 5.95500 26.24400
C  2.45300 5.06700 27.23700
C  2.77800 3.71000 26.72500
C  2.60900 3.80300 25.31400
C  2.34000 5.24700 25.02900
C  3.07800 2.56700 27.69400
C  2.71500 2.71000 24.27300
O  2.43600 2.94800 23.10100
C  3.19300 1.28600 24.64900
N  2.00300 8.27600 24.35600
C  2.09000 7.32200 23.38500
C  1.82600 7.87700 21.91000
C  1.59400 9.39800 22.20200
C  1.89200 9.44700 23.68200
C  3.00900 7.52000 21.00100
C  0.13900 9.92100 21.88000
C  0.17300 10.87800 20.67500
N  2.06500 10.01200 26.66200
C  2.14000 11.02100 25.71600
C  2.20700 12.36600 26.41100
C  2.28100 12.09500 27.75500
C  2.08400 10.62500 27.87700
C  2.08600 13.68400 25.83400
C  2.35500 12.67400 29.06800
O  2.51300 13.87600 29.41100
C  2.24400 11.43600 30.10400
C  3.40200 11.45900 31.09500
O  4.60700 11.23200 30.85400
O  2.99300 11.97000 32.24600
C  3.91700 11.92500 33.39800
H  2.62300 4.65600 29.43400
H  2.49900 5.32700 22.87900
H  2.15400 11.60300 23.64300
H  2.85800 8.63400 31.78700
H  1.57500 6.10000 31.14000
H  4.06900 6.71000 32.36200
H  4.59100 5.87400 30.80500
H  3.57100 5.07100 31.96100
H  0.01500 8.10800 31.24300
H  0.72200 9.45300 32.16800
H  0.24900 6.55300 32.91600
H  -0.01800 8.12600 33.72500
H  2.11400 2.07600 27.83100
H  3.54600 2.90100 28.62000
H  3.69500 1.83400 27.17400
H  2.77700 0.94000 25.59500
H  4.26900 1.45900 24.66600
H  3.00500 0.56500 23.85300
H  0.88300 7.40800 21.62900
H  2.40800 9.91400 21.69200
H  3.77200 7.07100 21.63600
H  3.41800 8.38300 20.47600
H  2.80100 6.69300 20.32100
H  -0.23100 10.45500 22.75500
H  -0.46100 9.02200 21.74200
H  1.19100 11.05700 20.32800
H  -0.23900 11.84400 20.96500
H  -0.33200 10.44200 19.81200
H  1.49400 13.41100 24.96000
H  3.03800 14.14700 25.57500
H  1.37500 14.31700 26.36400
H  1.32300 11.40600 30.68600
H  4.51000 11.01100 33.43000
H  3.30500 11.82200 34.29300
H  4.54300 12.81000 33.50600
Mg 16.44200 51.51800 25.20300
C  18.02700 50.46300 27.97400
C  13.52800 52.08200 27.18200
C  14.73200 52.52600 22.52100
C  18.80100 50.04000 23.21800
N  15.84700 51.23100 27.30700
C  16.72700 50.94200 28.25900
C  16.31900 51.37900 29.70200
C  14.82300 51.63200 29.37200
C  14.71500 51.71400 27.88200
C  13.85700 50.63300 30.06900
C  17.03500 52.64600 30.24700
C  17.40700 52.70000 31.78700
H  16.55500 51.81200 32.73300
N  14.47100 52.41800 24.94700
C  13.45600 52.58400 25.90700
C  12.38100 53.46300 25.30500
C  12.71300 53.57900 23.90700
C  14.02800 52.87400 23.73600
C  11.23600 54.16500 26.07700
C  11.97600 54.28500 22.74200
O  12.29100 54.20500 21.54900
C  10.78600 55.05200 23.00400
N  16.72200 51.29700 23.14800
C  15.88000 51.80100 22.27600
C  16.37700 51.53600 20.87400
C  17.79700 50.83700 21.07300
C  17.74400 50.73700 22.59200
C  15.43800 50.60800 20.02000
C  18.86200 51.66900 20.40800
C  19.64700 50.94300 19.21600
N  18.10100 50.50000 25.52800
C  19.04200 49.93100 24.61800
C  20.13200 49.34200 25.35700
C  19.75700 49.55400 26.67100
C  18.48200 50.12700 26.69700
C  21.37500 48.70200 24.76700
C  20.23100 49.32200 28.01000
O  21.26600 48.81900 28.42900
C  19.09700 49.91000 28.90900
C  18.54400 48.87300 29.80800
O  17.64900 48.07800 29.63700
O  19.37900 48.83700 30.88700
C  19.01900 47.97200 32.03900
H  12.67800 52.34100 27.81700
H  14.12600 52.87200 21.68100
H  19.49100 49.46800 22.59500
H  16.50000 50.53200 30.36400
H  14.40700 52.55900 29.76700
H  14.38600 50.12100 30.87300
H  13.39100 49.90100 29.40900
H  13.07300 51.17500 30.59800
H  16.27100 53.42300 30.21500
H  17.93700 52.90600 29.69300
H  17.36000 53.71900 32.17000
H  18.37800 52.22100 31.91300
H  10.25300 53.88400 25.70000
H  11.34300 55.22600 25.85000
H  11.29400 53.91900 27.13800
H  11.01900 55.82100 23.74000
H  10.08600 54.41000 23.53800
H  10.30500 55.36700 22.07700
H  16.47600 52.58700 20.60500
H  17.87000 49.81000 20.71600
H  14.66700 50.15400 20.64200
H  15.93100 49.73600 19.58900
H  15.00800 51.14400 19.17400
H  19.58800 52.06700 21.11700
H  18.36200 52.52600 19.95600
H  20.69300 51.23700 19.30000
H  19.09600 51.12000 18.29200
H  19.63800 49.86800 19.39600
H  22.27200 49.02600 25.29600
H  21.52100 49.18400 23.80000
H  21.28200 47.61900 24.68500
H  19.53200 50.62400 29.60900
H  17.97500 47.69900 31.88700
H  19.00700 48.40100 33.04100
H  19.70500 47.12700 31.97400

