158

Mg 36.74900 49.28100 25.95400
C  36.76600 47.43500 28.79700
C  35.32400 51.91700 27.74100
C  36.41700 51.00400 22.98900
C  38.23600 46.75100 24.20400
N  36.03200 49.52300 28.04100
C  36.23400 48.72400 29.08200
C  35.90300 49.30900 30.49000
C  35.30500 50.67700 30.03600
C  35.58600 50.73400 28.56000
C  33.74800 50.76400 30.42900
C  37.21500 49.45300 31.30000
C  37.31300 48.99300 32.77500
H  36.08700 48.86300 33.65500
N  35.95400 51.22200 25.44200
C  35.46000 52.15800 26.31800
C  35.10500 53.36500 25.61200
C  35.39700 53.08500 24.22000
C  35.94600 51.74000 24.17900
C  34.52600 54.57600 26.31400
C  35.21600 54.01600 23.02800
O  35.51400 53.59200 21.88700
C  34.69600 55.33500 23.19700
N  37.21600 48.93500 23.94100
C  37.00100 49.77500 22.86800
C  37.61400 49.27200 21.52400
C  38.44600 47.99700 21.96200
C  38.01100 47.95300 23.47600
C  36.48200 48.97300 20.48200
C  39.98000 48.09200 21.80500
C  40.67700 47.26800 20.66700
N  37.35700 47.47000 26.31700
C  37.92900 46.49600 25.56700
C  38.17800 45.30200 26.30300
C  37.68000 45.65300 27.56300
C  37.21700 46.96100 27.53100
C  38.80500 44.02900 25.71000
C  37.54300 45.08300 28.89400
O  37.70700 43.97900 29.39400
C  36.94100 46.24400 29.77700
C  35.63800 45.68900 30.30500
O  34.59500 45.57600 29.66400
O  35.85400 45.33700 31.58000
C  34.66700 45.19500 32.30900
H  34.90900 52.75100 28.31100
H  36.39600 51.39600 21.97000
H  38.71900 45.96300 23.62300
H  35.22100 48.70200 31.08600
H  35.83200 51.49000 30.53500
H  33.39400 50.01100 31.13300
H  33.17300 50.75000 29.50400
H  33.68600 51.71600 30.95700
H  37.65700 50.44900 31.30700
H  37.92700 48.83500 30.75200
H  37.96800 49.71400 33.26500
H  37.88000 48.06300 32.79200
H  33.82600 55.17600 25.73200
H  35.28500 55.26300 26.68700
H  33.82500 54.19900 27.05900
H  34.89800 55.89300 22.28200
H  35.13500 55.90600 24.01500
H  33.63200 55.15600 23.34800
H  38.33700 50.04400 21.26100
H  38.06200 47.07000 21.53600
H  36.50600 49.76400 19.73200
H  35.50100 49.01500 20.95500
H  36.64200 48.03300 19.95300
H  40.49300 47.73900 22.69900
H  40.21600 49.14300 21.64100
H  39.86200 46.82800 20.09200
H  41.28600 46.45800 21.06900
H  41.37800 47.80900 20.03100
H  39.28800 44.17900 24.74500
H  38.06900 43.28800 25.39700
H  39.61100 43.69700 26.36500
H  37.57500 46.39500 30.65100
H  33.79400 45.80400 32.07300
H  34.87500 45.46700 33.34400
H  34.47200 44.12900 32.20000
Mg -12.63200 16.30500 42.79600
C  -9.38300 15.08100 42.18100
C  -11.88500 19.17200 41.23300
C  -16.06100 17.08000 42.44900
C  -13.65500 13.13100 43.95700
N  -10.82000 17.04300 41.88100
C  -9.54600 16.41900 41.85400
C  -8.45600 17.43700 41.34400
C  -9.29000 18.78100 41.31900
C  -10.74400 18.29900 41.51200
C  -9.01100 19.84300 42.32300
C  -7.88600 17.00600 39.97200
C  -6.33000 16.89800 39.77400
H  -5.79400 15.66400 39.11400
N  -13.86200 17.98500 41.99300
C  -13.23100 19.05700 41.48900
C  -14.24100 20.05000 41.19700
C  -15.48200 19.40800 41.40100
C  -15.16500 18.04800 41.89700
C  -14.02200 21.38400 40.59800
C  -16.83500 20.05200 41.15600
O  -16.91800 21.15100 40.61300
C  -18.12600 19.34600 41.49200
N  -14.64600 15.20100 43.13700
C  -15.82600 15.79000 42.96400
C  -16.95700 14.85500 43.36900
C  -16.21100 13.51000 43.90300
C  -14.79400 13.96100 43.70000
C  -18.04200 15.32900 44.30400
C  -16.65500 12.25800 43.12800
C  -15.74200 11.81400 41.98700
N  -11.77900 14.48300 43.08400
C  -12.26100 13.23800 43.53300
C  -11.18100 12.25600 43.65700
C  -10.10700 12.93400 43.03900
C  -10.46100 14.29800 42.76000
C  -11.28600 10.84900 44.29700
C  -8.68400 12.80800 42.67200
O  -7.95400 11.80100 42.84300
C  -8.17700 14.18800 42.08700
C  -7.14200 14.72900 43.09000
O  -7.30500 15.50900 43.99600
O  -5.95300 14.08600 42.81700
C  -4.78200 14.49300 43.58600
H  -11.53200 20.09700 40.77300
H  -17.12600 17.29700 42.34600
H  -13.73800 12.13300 44.39200
H  -7.56800 17.54400 41.96700
H  -8.96400 19.29900 40.41700
H  -8.06500 19.57000 42.79000
H  -9.76800 19.93400 43.10200
H  -9.06600 20.79300 41.79200
H  -8.20700 17.66900 39.16800
H  -8.36000 16.10700 39.57700
H  -5.84800 16.95100 40.75000
H  -5.88800 17.76100 39.27600
H  -14.34700 21.34900 39.55800
H  -12.95600 21.57000 40.72700
H  -14.59100 22.12100 41.16400
H  -19.04500 19.91500 41.35800
H  -17.99400 19.18700 42.56200
H  -18.07400 18.41900 40.92000
H  -17.50900 14.79300 42.43100
H  -16.41100 13.30800 44.95600
H  -17.66500 16.24400 44.76300
H  -18.38500 14.64300 45.07900
H  -18.94800 15.52800 43.73200
H  -17.63700 12.34500 42.66400
H  -16.67300 11.43200 43.83900
H  -15.15100 10.94500 42.27700
H  -15.01700 12.55900 41.66100
H  -16.38800 11.68900 41.11800
H  -11.63600 10.88900 45.32800
H  -10.29800 10.40300 44.18100
H  -12.07800 10.25600 43.84100
H  -7.75600 14.16100 41.08200
H  -4.34300 15.45000 43.30500
H  -3.98100 13.78800 43.35900
H  -5.05900 14.49800 44.64000

