158

Mg 25.58600 1.97600 29.61200
C  27.57400 1.64700 32.43600
C  22.66200 1.97200 31.75000
C  23.48600 1.96900 26.94000
C  28.18000 1.01600 27.56100
N  25.13200 1.79500 31.81500
C  26.14900 1.83200 32.73000
C  25.56600 2.10400 34.19600
C  24.05800 2.02600 33.99900
C  23.89400 1.97800 32.43000
C  23.40700 0.87000 34.89800
C  26.14000 3.39500 34.90300
C  27.09100 3.06000 36.04200
H  27.16200 3.95800 37.37400
N  23.43200 2.05600 29.44300
C  22.48300 1.98000 30.42000
C  21.10800 1.96100 29.84400
C  21.32100 2.15400 28.39600
C  22.78900 2.01400 28.23300
C  19.91100 1.88800 30.64400
C  20.33900 2.35800 27.31400
O  20.65800 2.49400 26.15700
C  18.89400 2.48400 27.59500
N  25.79700 1.52000 27.59000
C  24.84000 1.90300 26.69600
C  25.38100 1.96300 25.23500
C  26.92500 1.64400 25.45800
C  27.02300 1.47600 26.95500
C  24.71000 0.99900 24.19300
C  27.97700 2.61300 24.91400
C  29.02500 2.02000 23.93400
N  27.52000 1.52500 29.91800
C  28.50000 1.08800 29.01000
C  29.72000 0.89600 29.64400
C  29.45900 1.21100 30.99900
C  28.09500 1.55400 31.13300
C  30.93900 0.34600 28.91700
C  30.00800 1.11000 32.37100
O  31.09400 0.74600 32.74700
C  28.84600 1.49900 33.32500
C  28.54800 0.42200 34.39600
O  28.01100 -0.62600 34.28600
O  29.27700 0.73600 35.55900
C  29.09400 -0.14000 36.73200
H  21.75600 1.97000 32.36000
H  22.86000 2.13900 26.06100
H  28.89900 0.59200 26.85700
H  25.89600 1.25800 34.79900
H  23.76100 3.00500 34.37500
H  22.77300 0.33400 34.19200
H  22.88000 1.32800 35.73400
H  24.18700 0.19600 35.25200
H  25.34300 4.08100 35.19000
H  26.76000 3.93800 34.18900
H  28.06900 2.91600 35.58300
H  26.76500 2.13900 36.52600
H  19.12900 2.60500 30.39300
H  20.02000 1.97200 31.72500
H  19.53600 0.86500 30.60600
H  18.54000 1.49100 27.87300
H  18.41700 3.00000 26.76200
H  18.69300 3.23100 28.36200
H  25.19100 2.98700 24.91300
H  27.23000 0.64800 25.13700
H  23.73700 1.41600 23.93200
H  24.43900 0.08700 24.72600
H  25.42000 0.93800 23.36800
H  28.36000 3.00300 25.85700
H  27.55600 3.48800 24.41900
H  29.60700 2.81300 23.46500
H  28.50800 1.46000 23.15400
H  29.56500 1.27600 24.51900
H  31.31400 1.20900 28.36600
H  30.71500 -0.48400 28.24700
H  31.60200 0.00100 29.71000
H  29.12700 2.42800 33.82200
H  28.05000 -0.43700 36.83900
H  29.45500 0.35200 37.63500
H  29.66300 -1.03200 36.47000
Mg 50.48900 46.37200 41.53400
C  47.42500 47.62400 40.75700
C  49.58400 43.20300 40.54400
C  53.91000 45.30200 41.71000
C  51.70900 49.69300 42.32300
N  48.61800 45.55700 40.90100
C  47.48900 46.20900 40.52000
C  46.44600 45.21900 39.95600
C  47.10300 43.77600 40.34700
C  48.52300 44.15700 40.68400
C  46.38400 43.03200 41.47800
C  45.91300 45.36400 38.42000
C  44.49100 45.01200 38.02500
H  44.42200 43.98900 36.85200
N  51.59900 44.55200 40.94100
C  50.99100 43.38300 40.58100
C  52.00300 42.40400 40.34700
C  53.24000 43.00900 40.67600
C  52.98000 44.38400 41.13900
C  51.65900 40.95700 39.96500
C  54.55200 42.34000 40.43400
O  54.53900 41.17000 40.07500
C  55.85200 42.91300 40.68900
N  52.63100 47.46500 41.70500
C  53.72100 46.71600 41.95900
C  54.89900 47.52600 42.50900
C  54.15400 48.80800 42.89100
C  52.74000 48.68900 42.27600
C  55.65600 46.88900 43.74100
C  54.90900 50.11900 42.40700
C  55.78000 50.86300 43.41900
N  49.69100 48.24000 41.76500
C  50.29300 49.47200 42.09000
C  49.24100 50.45600 42.01100
C  48.11800 49.72600 41.50900
C  48.43000 48.45700 41.31500
C  49.34700 51.88900 42.34100
C  46.68300 49.88300 41.17400
O  45.83500 50.75700 41.37600
C  46.26900 48.51400 40.52300
C  44.99100 47.93300 41.18500
O  45.03300 47.33800 42.20700
O  43.85800 48.06400 40.43500
C  42.61500 47.68300 41.12300
H  49.20900 42.20800 40.29400
H  54.87600 44.93600 42.06500
H  51.96800 50.67500 42.72200
H  45.55400 45.17800 40.58200
H  47.16400 43.09400 39.49900
H  47.11500 42.72700 42.22600
H  45.97200 42.11200 41.06200
H  45.64600 43.60800 42.03700
H  46.49800 44.70800 37.77500
H  46.09100 46.37500 38.05400
H  44.03700 45.95400 37.71500
H  43.92500 44.53400 38.82400
H  51.87100 40.23800 40.75600
H  52.27400 40.64700 39.12000
H  50.61800 40.98100 39.64300
H  56.02100 42.84600 41.76300
H  55.77600 43.95500 40.38000
H  56.61400 42.52300 40.01400
H  55.66400 47.65300 41.74300
H  53.96500 48.86500 43.96300
H  55.77700 47.66700 44.49400
H  56.60900 46.44600 43.45200
H  55.06500 46.08800 44.18600
H  54.10800 50.73600 42.00200
H  55.55000 50.05600 41.52700
H  55.35100 51.80900 43.74700
H  56.73700 51.02000 42.92000
H  55.90000 50.22400 44.29400
H  49.90500 52.49600 41.62800
H  49.83100 52.09000 43.29700
H  48.34400 52.29300 42.48000
H  46.13400 48.71300 39.46000
H  41.81000 47.73600 40.39000
H  42.35300 48.45200 41.85000
H  42.63200 46.69200 41.57700

