158

Mg 25.40900 1.54400 30.74400
C  27.59300 1.37300 33.45800
C  22.74600 1.97000 33.03500
C  23.21000 1.45500 28.11300
C  28.05800 0.83900 28.63400
N  25.15500 1.63800 32.98500
C  26.21000 1.69800 33.81300
C  25.71600 1.96000 35.22900
C  24.17400 2.13200 35.16500
C  24.00000 2.01700 33.63000
C  23.35000 0.95800 35.80200
C  26.47800 3.15600 35.92800
C  27.34200 2.87900 37.10200
H  27.18600 3.84200 38.27400
N  23.30100 1.65200 30.58500
C  22.39400 1.85000 31.59800
C  21.03300 1.93700 31.10200
C  21.17200 1.83200 29.66200
C  22.57600 1.65700 29.40300
C  19.78500 2.26600 31.91900
C  20.14100 1.85800 28.59700
O  20.26900 1.68700 27.38900
C  18.75100 1.93600 29.02400
N  25.57600 1.09000 28.70900
C  24.57400 1.18800 27.79900
C  25.13500 1.17100 26.34300
C  26.65000 1.09200 26.51200
C  26.83000 1.06600 28.02400
C  24.57800 -0.03100 25.61500
C  27.44600 2.22800 25.84500
C  28.46900 1.65500 24.87700
N  27.40900 1.14000 30.95500
C  28.35500 0.85800 30.00700
C  29.59200 0.56000 30.62000
C  29.28800 0.75300 31.99200
C  27.95800 1.07200 32.13500
C  30.97800 0.22200 30.06200
C  29.96600 0.73400 33.32400
O  31.12700 0.38600 33.56900
C  28.80900 1.10400 34.30700
C  28.67300 0.02900 35.28500
O  27.96800 -0.96500 35.14200
O  29.45000 0.23600 36.36300
C  29.18800 -0.71300 37.48500
H  22.00400 2.47300 33.65900
H  22.63400 1.68900 27.21600
H  28.98700 0.82800 28.05900
H  26.00200 1.02900 35.71900
H  23.92700 3.15000 35.46800
H  22.94700 0.28700 35.04300
H  22.50400 1.40600 36.32300
H  23.93700 0.39700 36.52900
H  25.79200 3.94300 36.24100
H  27.12100 3.56500 35.14900
H  28.36200 2.96000 36.72500
H  27.29100 1.88200 37.53900
H  19.77800 3.35000 32.03900
H  19.89100 1.88500 32.93500
H  18.84700 1.80200 31.61400
H  18.62500 1.01000 29.58500
H  18.13100 1.99700 28.13000
H  18.68300 2.82500 29.65200
H  24.81500 2.06000 25.80000
H  26.97200 0.09600 26.20900
H  24.40800 -0.89100 26.26300
H  25.28900 -0.28200 24.82800
H  23.71700 0.36500 25.07700
H  27.89600 2.78800 26.66500
H  26.79000 2.88400 25.27200
H  28.87800 0.69300 25.18500
H  29.30200 2.32400 25.08900
H  28.16700 1.66200 23.83000
H  31.19600 0.98200 29.31200
H  31.02700 -0.76500 29.60100
H  31.79500 0.18100 30.78300
H  29.21500 2.01700 34.74300
H  28.96200 -1.74800 37.22900
H  28.38100 -0.26400 38.06300
H  30.06200 -0.69400 38.13500
Mg 7.62200 53.61700 41.60900
C  7.15000 50.01700 41.25400
C  10.70000 53.31500 40.45300
C  7.44000 56.87000 41.31500
C  3.88300 53.61500 42.07100
N  8.72000 51.86900 41.11100
C  8.40700 50.55000 40.84900
C  9.43500 49.83700 39.93700
C  10.66800 50.69200 40.23000
C  9.99400 52.08400 40.62700
C  11.49700 50.13400 41.46000
C  8.95700 49.79000 38.41200
C  9.45800 48.53800 37.66100
H  8.61700 47.88800 36.63700
N  8.92500 54.90500 41.00300
C  10.19900 54.62200 40.63500
C  10.90300 55.81400 40.38900
C  9.98300 56.81900 40.58100
C  8.69800 56.25800 40.99100
C  12.36600 55.91700 40.01200
C  10.35000 58.30300 40.55200
O  11.44900 58.59000 40.03400
C  9.51200 59.49000 40.96600
N  5.88300 54.96100 41.54100
C  6.14000 56.29200 41.54200
C  4.76500 57.11300 41.61800
C  3.70200 56.07800 41.74400
C  4.51400 54.81400 41.77200
C  4.60700 58.32700 42.61900
C  2.56800 56.11600 40.56700
C  2.77600 55.21400 39.37800
N  5.90800 52.22600 41.87000
C  4.51900 52.38500 42.06700
C  3.86800 51.10000 42.16800
C  4.93600 50.16700 41.94000
C  6.09700 50.90000 41.66700
C  2.45600 50.83800 42.40800
C  5.26200 48.78100 42.00800
O  4.52100 47.81200 42.32600
C  6.73300 48.59900 41.49600
C  6.82700 47.77200 40.25800
O  6.24400 47.94600 39.23300
O  7.61700 46.66400 40.48400
C  7.39300 45.54600 39.51400
H  11.72700 53.30600 40.08200
H  7.33400 57.95700 41.31600
H  2.80000 53.71100 42.17900
H  9.52000 48.81900 40.31800
H  11.27700 50.80300 39.33300
H  12.50300 50.52800 41.31900
H  11.53800 49.04700 41.38600
H  11.08100 50.58200 42.36200
H  9.42100 50.67900 37.98500
H  7.90100 49.84100 38.14800
H  9.71700 47.79600 38.41600
H  10.37000 48.84300 37.14800
H  12.77900 54.91800 39.86800
H  12.93700 56.34700 40.83400
H  12.49500 56.30000 38.99900
H  9.20900 59.39000 42.00800
H  8.62100 59.62900 40.35300
H  10.11700 60.38300 40.80800
H  4.76900 57.48600 40.59400
H  3.33000 56.33000 42.73700
H  5.32000 58.35000 43.44300
H  3.63400 58.37600 43.10800
H  4.79400 59.24500 42.06300
H  2.44700 57.13400 40.19600
H  1.64700 55.85000 41.08600
H  3.77400 54.77800 39.40100
H  2.79500 55.89000 38.52300
H  2.03400 54.44700 39.15600
H  1.89700 51.09300 41.50800
H  2.13400 51.56700 43.15200
H  2.17900 49.88000 42.84800
H  7.35700 48.09900 42.23700
H  8.25600 45.52300 38.84800
H  6.54600 45.54700 38.82800
H  7.42300 44.54200 39.93700

