158

Mg 7.97100 2.42500 27.99500
C  9.73100 1.07700 30.90400
C  6.05100 4.00200 30.27400
C  6.24800 3.44300 25.39600
C  9.69700 0.03400 26.13000
N  7.88400 2.47900 30.25800
C  8.77000 2.03300 31.23000
C  8.55200 2.67400 32.62500
C  7.26400 3.46800 32.40800
C  7.01300 3.28900 30.85600
C  6.09300 2.96800 33.28300
C  9.83600 3.47200 33.19100
C  10.36700 2.93700 34.55600
H  10.33800 3.98000 35.72200
N  6.42000 3.50200 27.82800
C  5.73200 4.12700 28.92400
C  4.59800 4.86800 28.34400
C  4.70200 4.78700 26.89700
C  5.85500 3.89700 26.62900
C  3.57800 5.58400 29.20300
C  3.91600 5.39300 25.76500
O  4.09800 5.13600 24.58400
C  2.88800 6.34700 26.08100
N  8.04400 1.90600 26.01600
C  7.16700 2.45900 25.10500
C  7.38100 1.79600 23.69400
C  8.55200 0.84400 23.93800
C  8.78000 0.88100 25.45600
C  6.07500 1.19500 23.09900
C  9.88200 1.22300 23.18700
C  10.80000 0.11000 22.77100
N  9.50200 0.80800 28.34500
C  10.01600 -0.03800 27.46000
C  10.96600 -0.87800 28.17400
C  10.88400 -0.44700 29.54100
C  9.95400 0.49200 29.59300
C  11.85800 -1.88300 27.52200
C  11.45000 -0.65800 30.88800
O  12.32800 -1.45300 31.20500
C  10.62200 0.33000 31.81700
C  9.71400 -0.53800 32.66100
O  8.75300 -1.19500 32.26300
O  10.05800 -0.41900 33.95700
C  9.40100 -1.23400 35.00200
H  5.52800 4.61400 31.01100
H  5.70700 3.59200 24.45800
H  10.25400 -0.67000 25.50800
H  8.42400 1.80200 33.26700
H  7.51300 4.48000 32.72800
H  6.49600 2.36100 34.09300
H  5.19500 2.56900 32.81000
H  5.71000 3.83200 33.82700
H  9.64800 4.52600 33.39700
H  10.68100 3.40300 32.50600
H  11.37100 2.51700 34.50700
H  9.76900 2.16300 35.03800
H  2.69300 4.95400 29.29300
H  3.08600 6.42900 28.72100
H  3.90100 5.76900 30.22700
H  2.12500 5.92800 26.73600
H  2.46200 6.64300 25.12300
H  3.34400 7.18800 26.60500
H  7.76900 2.45300 22.91500
H  8.16900 -0.09700 23.54200
H  6.11100 0.14100 22.82500
H  5.73300 1.84200 22.29200
H  5.28600 1.17300 23.85000
H  10.40500 1.91500 23.84700
H  9.72100 1.76700 22.25600
H  10.94700 0.09000 21.69100
H  10.40000 -0.83100 23.14800
H  11.78800 0.26200 23.20800
H  12.06800 -1.71400 26.46600
H  11.26200 -2.79500 27.55600
H  12.80700 -1.97500 28.05000
H  11.42300 0.93700 32.23900
H  10.13200 -1.94500 35.38400
H  8.55700 -1.82200 34.64100
H  8.97400 -0.61500 35.79200
Mg -11.55100 15.58600 42.07400
C  -8.51100 13.90700 42.01100
C  -9.99600 18.27000 40.39700
C  -14.49600 17.08300 41.76400
C  -13.06500 12.71900 43.20800
N  -9.47600 15.96000 41.23000
C  -8.43200 15.08600 41.34500
C  -7.21400 15.66800 40.59400
C  -7.63000 17.19500 40.39400
C  -9.08400 17.16800 40.67500
C  -6.77500 18.20100 41.22700
C  -6.78100 14.85900 39.29700
C  -5.34400 14.73700 38.97900
H  -4.86900 15.30200 37.66300
N  -12.20600 17.45000 41.29100
C  -11.41100 18.40600 40.68200
C  -12.20600 19.56700 40.34600
C  -13.52900 19.34100 40.72000
C  -13.45900 17.91000 41.28800
C  -11.68900 20.72200 39.61600
C  -14.70100 20.30200 40.67800
O  -14.52800 21.50400 40.35300
C  -16.11300 19.87300 41.06100
N  -13.49100 14.88200 42.14000
C  -14.54500 15.71800 42.20000
C  -15.85600 14.99300 42.70100
C  -15.40400 13.49100 42.83900
C  -13.87000 13.71000 42.72300
C  -16.32300 15.60500 43.99900
C  -15.93000 12.46400 41.69000
C  -16.67700 11.23200 42.29600
N  -10.94600 13.62200 42.55300
C  -11.68600 12.56800 43.05800
C  -10.77700 11.51700 43.35800
C  -9.52300 12.01500 43.04100
C  -9.73000 13.33400 42.49100
C  -11.10000 10.21700 44.09100
C  -8.11500 11.78300 43.09800
O  -7.49800 10.80900 43.50200
C  -7.42100 12.95200 42.41600
C  -6.36600 13.55500 43.29600
O  -6.63700 14.42000 44.13800
O  -5.21900 12.84000 43.16500
C  -4.25600 13.31900 44.22600
H  -9.54500 19.18100 39.99600
H  -15.41300 17.67400 41.81200
H  -13.51900 11.80800 43.60400
H  -6.39700 15.62600 41.31400
H  -7.49500 17.32800 39.32100
H  -6.00900 17.66600 41.78800
H  -7.40800 18.67700 41.97600
H  -6.29100 18.92200 40.56800
H  -7.12300 15.37500 38.40000
H  -7.27900 13.89300 39.38700
H  -5.21700 13.65600 38.92500
H  -4.70800 15.11900 39.77800
H  -12.24000 20.82500 38.68100
H  -10.60500 20.69600 39.50200
H  -11.87500 21.60300 40.22900
H  -16.83300 20.63700 40.76600
H  -16.19800 19.78000 42.14400
H  -16.38400 18.94400 40.56200
H  -16.61900 15.03800 41.92300
H  -15.66900 13.10200 43.82300
H  -16.91500 16.50500 43.83300
H  -15.49500 15.60000 44.70700
H  -17.06700 14.90100 44.37100
H  -15.12700 12.05700 41.07600
H  -16.62500 12.88300 40.96300
H  -16.67400 11.39600 43.37400
H  -16.09500 10.33900 42.07200
H  -17.71400 11.18200 41.96400
H  -10.62200 10.08300 45.06200
H  -10.98200 9.28700 43.53500
H  -12.17900 10.16800 44.24100
H  -6.94500 12.50900 41.54100
H  -4.66000 13.30200 45.23800
H  -3.98100 14.33100 43.93100
H  -3.44800 12.60400 44.06800

