158

Mg -1.26300 17.47700 26.89100
C  -1.61800 15.22200 29.76000
C  -1.75000 20.06900 29.02300
C  -1.72800 19.48400 24.17500
C  -1.66500 14.64000 24.84600
N  -1.71800 17.60500 29.19500
C  -1.69300 16.60800 30.16100
C  -1.91400 17.20600 31.60700
C  -2.18400 18.72000 31.26400
C  -1.87500 18.83000 29.74300
C  -3.67500 19.04100 31.53100
C  -0.69600 16.98000 32.50400
C  -0.51000 17.66900 33.82600
H  -0.89400 16.96300 35.13700
N  -1.37500 19.48800 26.63900
C  -1.54000 20.38300 27.64400
C  -1.54300 21.70200 27.02400
C  -1.47900 21.54100 25.60200
C  -1.55600 20.12300 25.42600
C  -1.69800 22.93100 27.91200
C  -1.30400 22.55500 24.54000
O  -1.27000 22.32800 23.33500
C  -1.19700 24.01300 24.92300
N  -1.72800 17.11100 24.85000
C  -1.71700 18.11600 23.90300
C  -1.95800 17.53500 22.57200
C  -1.70600 16.03800 22.81300
C  -1.69000 15.88900 24.29700
C  -3.35800 17.97700 22.00100
C  -0.34700 15.49000 22.22600
C  0.98700 16.14200 22.75300
N  -1.49100 15.37700 27.20800
C  -1.56900 14.36500 26.24100
C  -1.51200 13.04400 26.92000
C  -1.56300 13.36800 28.26500
C  -1.47300 14.73400 28.37400
C  -1.58400 11.67400 26.20500
C  -1.61800 12.75100 29.58500
O  -1.73100 11.60300 29.88400
C  -1.73200 13.96500 30.63500
C  -0.71000 13.67000 31.62100
O  0.48700 14.00100 31.71900
O  -1.34900 12.76000 32.41400
C  -0.73100 12.06800 33.52500
H  -1.83400 20.85200 29.78000
H  -2.02600 20.00100 23.26000
H  -1.55300 13.84800 24.10300
H  -2.74000 16.56500 31.91400
H  -1.52400 19.44200 31.74500
H  -3.94200 19.65200 30.66900
H  -3.80300 19.50800 32.50800
H  -4.36600 18.20000 31.47400
H  0.20900 17.15400 31.92100
H  -0.70700 15.92200 32.76500
H  -1.19600 18.49600 33.64300
H  0.44200 18.19800 33.86300
H  -2.04000 22.81100 28.94100
H  -2.38300 23.57100 27.35600
H  -0.72300 23.41100 27.99000
H  -0.29400 23.99700 25.53400
H  -2.04500 24.41700 25.47500
H  -0.95800 24.61800 24.04800
H  -1.15400 17.85400 21.90900
H  -2.53300 15.43400 22.44000
H  -3.64100 18.92700 22.45300
H  -4.00700 17.17200 22.34400
H  -3.27000 18.09800 20.92100
H  -0.42300 15.73000 21.16500
H  -0.31800 14.40100 22.25000
H  1.42500 16.71800 21.93800
H  1.69700 15.40200 23.12200
H  0.73000 16.78400 23.59500
H  -0.62200 11.34100 25.81500
H  -2.32100 11.63400 25.40300
H  -1.94300 10.94200 26.92900
H  -2.70200 13.99500 31.13300
H  -0.87700 12.65500 34.43200
H  0.34900 11.96400 33.42200
H  -1.20300 11.11600 33.76700
Mg 15.88000 52.07700 25.37500
C  17.90400 51.16200 28.18300
C  13.23800 52.47000 27.49100
C  14.33700 53.11700 22.72400
C  18.55300 50.93400 23.34500
N  15.65800 51.93400 27.51900
C  16.57400 51.67400 28.53900
C  16.10000 52.09600 29.92900
C  14.53700 52.11400 29.64900
C  14.44600 52.10200 28.12700
C  13.82400 50.77800 30.23900
C  16.71600 53.42700 30.22000
C  16.71500 53.83000 31.72000
H  15.79200 53.02000 32.70900
N  13.93000 52.75700 25.15000
C  12.97300 52.78600 26.11200
C  11.77100 53.32900 25.45800
C  12.05200 53.55100 24.08100
C  13.44300 53.17600 23.92200
C  10.39600 53.38300 26.20000
C  11.14200 54.06100 22.97000
O  11.49100 54.23500 21.82000
C  9.67500 54.33800 23.23900
N  16.46000 52.19500 23.34900
C  15.65100 52.67100 22.44200
C  16.20900 52.62700 21.00800
C  17.67500 52.16600 21.29300
C  17.59100 51.78100 22.74100
C  15.40500 51.57200 20.10600
C  18.76100 53.23700 21.12000
C  20.11400 52.77400 20.33600
N  17.75000 50.96300 25.57800
C  18.68700 50.52900 24.73800
C  19.78800 49.90300 25.40000
C  19.51800 50.20900 26.74000
C  18.33300 50.85500 26.82600
C  20.91900 49.18700 24.73400
C  20.13600 50.16600 28.02500
O  21.19800 49.72600 28.40900
C  19.02900 50.65100 29.10300
C  18.56200 49.41200 29.89000
O  18.01800 48.35400 29.48800
O  18.68000 49.70400 31.23100
C  18.06900 48.76700 32.15600
H  12.37700 52.73100 28.11000
H  13.79400 53.34300 21.80400
H  19.39600 50.73900 22.67900
H  16.57800 51.42300 30.64100
H  14.20600 53.03900 30.12200
H  13.27700 50.20300 29.49200
H  13.12000 51.09600 31.00800
H  14.53300 50.17600 30.80700
H  16.11200 54.24800 29.83200
H  17.73500 53.46700 29.83700
H  16.73900 54.91900 31.76000
H  17.71900 53.55500 32.04400
H  9.71400 52.62700 25.80900
H  9.85500 54.32300 26.09200
H  10.54500 53.20300 27.26400
H  9.29000 53.53600 23.87000
H  9.12400 54.32500 22.29900
H  9.45100 55.29400 23.71200
H  16.31100 53.51700 20.38700
H  17.91200 51.26100 20.73300
H  14.65800 52.18000 19.59700
H  14.90900 50.78300 20.67200
H  15.97100 51.09400 19.30600
H  19.06100 53.56800 22.11500
H  18.44500 54.16800 20.64900
H  20.01600 51.70700 20.13500
H  21.04900 52.96200 20.86300
H  20.23900 53.29600 19.38800
H  20.64900 49.12200 23.68000
H  21.00100 48.16100 25.09300
H  21.91600 49.61900 24.81700
H  19.30800 51.43800 29.80400
H  18.93300 48.21800 32.53000
H  17.29100 48.16100 31.69200
H  17.70400 49.25800 33.05800

