158

Mg 25.70000 51.46400 25.83200
C  23.29100 52.10200 28.25400
C  27.96200 50.57600 28.17600
C  27.80900 51.02400 23.36800
C  23.38100 52.90900 23.46400
N  25.70800 51.43300 28.02900
C  24.60000 51.52000 28.75700
C  24.92200 51.13200 30.18800
C  26.41800 50.81900 30.27100
C  26.76500 50.99400 28.77800
C  27.22500 51.68800 31.24600
C  23.89900 50.02300 30.76800
C  22.96200 50.46000 31.90400
H  23.30800 49.91800 33.32500
N  27.65100 50.87300 25.74700
C  28.42500 50.57900 26.81700
C  29.72600 50.15400 26.41800
C  29.77100 50.28600 24.98600
C  28.37200 50.69600 24.62600
C  30.83100 49.69400 27.37200
C  30.89900 49.99700 23.97900
O  30.74200 50.18500 22.79900
C  32.18500 49.43600 24.49800
N  25.61800 52.13100 23.71300
C  26.65100 51.76200 22.96700
C  26.39300 52.17200 21.44000
C  24.86000 52.61700 21.49800
C  24.61600 52.61700 22.98600
C  27.33700 53.28400 21.02000
C  23.86400 51.68600 20.66200
C  23.15400 52.36800 19.44600
N  23.74400 52.27600 25.80900
C  22.96500 52.79200 24.77000
C  21.68900 53.26100 25.27400
C  21.76200 53.03000 26.64000
C  23.05500 52.45100 26.92600
C  20.59900 53.93600 24.48200
C  21.08600 53.15500 27.92300
O  19.99700 53.63200 28.16800
C  22.05400 52.48400 28.99700
C  22.26300 53.52600 30.04500
O  23.15900 54.37700 29.95600
O  21.42700 53.36300 31.11400
C  21.62100 54.33300 32.22300
H  28.60100 50.15300 28.95400
H  28.45000 50.82100 22.50800
H  22.60900 53.34400 22.82600
H  24.72300 52.06000 30.72400
H  26.65400 49.78000 30.50000
H  26.65800 52.31500 31.93400
H  27.94100 52.18700 30.59200
H  27.66500 50.91000 31.87000
H  24.45600 49.12600 31.03800
H  23.25900 49.71100 29.94300
H  21.91500 50.22600 31.71700
H  23.14500 51.53400 31.95400
H  31.02700 48.62600 27.28000
H  30.57400 49.98100 28.39200
H  31.74000 50.22700 27.09300
H  31.99500 48.52200 25.06100
H  32.66400 50.15600 25.16100
H  32.84000 49.16600 23.66900
H  26.59300 51.26300 20.87400
H  24.88200 53.64000 21.12400
H  28.05900 53.57300 21.78400
H  26.76200 54.11200 20.60600
H  28.04800 52.84200 20.32300
H  23.08600 51.31200 21.32800
H  24.28100 50.73300 20.33500
H  23.42100 51.86800 18.51500
H  23.49500 53.39400 19.30800
H  22.06500 52.32200 19.48100
H  20.87300 54.23800 23.47200
H  20.32400 54.90100 24.90900
H  19.69200 53.33200 24.49700
H  21.70800 51.53000 29.39500
H  20.93900 53.95100 32.98300
H  21.40900 55.28500 31.73700
H  22.69300 54.29700 32.41800
Mg 0.08100 43.58900 26.16400
C  2.34700 42.88700 28.81300
C  -2.31100 42.17400 28.24800
C  -2.11500 43.54400 23.72100
C  2.70700 44.19600 23.99600
N  0.09100 42.76300 28.30100
C  1.07000 42.79600 29.27700
C  0.50700 42.31600 30.58600
C  -0.95300 41.94200 30.29100
C  -1.09100 42.32600 28.85600
C  -1.46000 40.48100 30.65300
C  0.47400 43.57500 31.57500
C  -0.19600 43.45000 32.97300
H  -0.55100 42.07100 33.54400
N  -2.05800 43.08600 26.01600
C  -2.79100 42.49000 26.95500
C  -4.18100 42.25500 26.49200
C  -4.14900 42.61500 25.14000
C  -2.76900 43.11900 24.90400
C  -5.24800 41.79900 27.41300
C  -5.32300 42.66400 24.11200
O  -5.22100 42.94000 22.93700
C  -6.70300 42.36400 24.56500
N  0.27400 43.91700 24.19100
C  -0.80200 43.95400 23.38700
C  -0.42900 44.21500 21.85000
C  1.05800 44.53400 22.02100
C  1.39600 44.21100 23.49800
C  -0.68700 42.97100 20.91600
C  1.53200 45.92800 21.69500
C  1.26100 47.14000 22.57900
N  2.16000 43.67800 26.34600
C  3.08900 43.92500 25.31900
C  4.43800 43.72400 25.95500
C  4.13500 43.42900 27.30300
C  2.77900 43.28900 27.47600
C  5.74300 43.93400 25.21400
C  4.86400 43.06200 28.49700
O  6.02200 42.94600 28.75200
C  3.63200 42.89500 29.62000
C  3.85600 41.74600 30.56500
O  3.68400 40.64700 30.20100
O  4.10200 42.16200 31.91800
C  4.29600 40.95800 32.83400
H  -3.06500 41.81100 28.95000
H  -2.75200 43.43800 22.84100
H  3.42800 44.58500 23.27500
H  1.11900 41.47900 30.92200
H  -1.55400 42.60100 30.91900
H  -0.71900 39.94600 31.24600
H  -1.77000 39.80100 29.85900
H  -2.32500 40.49900 31.31700
H  -0.05900 44.32500 30.99100
H  1.47800 43.96300 31.74800
H  -1.10600 44.03300 33.11200
H  0.54900 43.92900 33.60800
H  -5.64000 42.74000 27.79900
H  -4.95900 41.08100 28.18000
H  -6.11300 41.40000 26.88300
H  -6.95600 42.82400 25.52000
H  -6.71200 41.27800 24.66100
H  -7.48400 42.67600 23.87200
H  -1.02400 45.03500 21.44800
H  1.60800 43.84700 21.37800
H  0.23500 42.70600 20.39700
H  -1.55400 43.16700 20.28500
H  -0.95200 42.11100 21.53200
H  1.11600 46.24400 20.73800
H  2.60000 45.86500 21.48800
H  0.95500 47.95900 21.92900
H  2.23800 47.40200 22.98700
H  0.63100 46.95900 23.45100
H  5.50000 44.78600 24.57900
H  6.17800 43.16700 24.57300
H  6.50400 44.16700 25.95900
H  3.66300 43.79100 30.24000
H  3.68900 40.07100 32.65600
H  4.24300 41.24300 33.88500
H  5.32300 40.60700 32.73800

