158

Mg 7.59900 3.27800 27.60500
C  9.12600 2.00800 30.52200
C  5.65700 5.37500 29.65600
C  6.19600 4.36900 24.87400
C  9.07800 0.60200 25.82900
N  7.44100 3.66000 29.82200
C  8.18700 3.04500 30.80000
C  7.89300 3.62500 32.18900
C  6.78500 4.65000 31.94000
C  6.57600 4.54700 30.36700
C  5.46200 4.33500 32.69800
C  9.12700 4.17500 32.95600
C  8.79700 4.85200 34.25700
H  9.90300 4.87100 35.38200
N  6.18100 4.74300 27.34200
C  5.45900 5.46100 28.27600
C  4.54300 6.28600 27.58000
C  4.82800 6.10100 26.20800
C  5.80600 4.99700 26.06900
C  3.51100 7.13600 28.24700
C  4.27000 6.90400 25.07800
O  4.63500 6.69900 23.93000
C  3.31100 7.97900 25.37700
N  7.49700 2.46200 25.66400
C  6.89800 3.20300 24.71900
C  6.94700 2.48700 23.37200
C  7.88500 1.26700 23.64900
C  8.20500 1.41300 25.08400
C  5.64800 2.12100 22.66200
C  9.15500 1.11700 22.73500
C  9.30300 -0.15900 21.95900
N  8.87300 1.72800 28.00100
C  9.38700 0.69900 27.20900
C  10.22400 -0.15800 27.90900
C  10.09400 0.28700 29.25500
C  9.33200 1.47300 29.23400
C  11.02900 -1.28300 27.33100
C  10.60100 0.04700 30.61600
O  11.34400 -0.81000 31.05500
C  9.92000 1.17700 31.50000
C  9.06300 0.57200 32.55600
O  7.96000 0.10100 32.27900
O  9.61900 0.59000 33.84500
C  8.80700 0.22800 35.06500
H  5.13600 6.11100 30.27200
H  5.66300 4.75700 24.00300
H  9.42400 -0.21800 25.19600
H  7.48800 2.85600 32.84700
H  7.01600 5.64200 32.32800
H  5.67600 3.76300 33.60100
H  4.79400 3.72700 32.08800
H  5.02300 5.30200 32.94500
H  9.55600 5.01200 32.40400
H  9.92600 3.47500 33.20100
H  7.84800 4.56500 34.71000
H  8.69400 5.89700 33.96500
H  3.50600 8.19100 27.97000
H  3.63200 7.14900 29.33000
H  2.53600 6.78300 27.91100
H  3.79900 8.78000 25.93200
H  2.36900 7.58000 25.75300
H  3.06100 8.38200 24.39500
H  7.41700 3.25800 22.76200
H  7.40500 0.29300 23.55500
H  5.46000 2.76600 21.80400
H  4.74700 2.40100 23.20600
H  5.61400 1.09400 22.29700
H  10.06800 1.42500 23.24400
H  9.02300 1.91500 22.00500
H  9.15900 -0.18000 20.87900
H  8.76500 -0.97400 22.44400
H  10.33400 -0.51300 21.95700
H  11.40500 -0.94800 26.36400
H  10.39500 -2.16800 27.30100
H  11.92300 -1.35600 27.95000
H  10.75500 1.79400 31.83400
H  8.60900 -0.84400 35.07200
H  7.88700 0.81200 35.04400
H  9.48400 0.42900 35.89500
Mg -12.41700 39.11500 41.28800
C  -10.33400 36.33300 40.57400
C  -10.28100 41.07100 39.66500
C  -14.88300 41.59100 41.23000
C  -14.86800 36.78800 42.49700
N  -10.41600 38.79300 40.45500
C  -9.81800 37.56300 40.10200
C  -8.57200 37.66800 39.18900
C  -8.54900 39.23600 38.92900
C  -9.83500 39.74400 39.74000
C  -7.23200 39.95100 39.29600
C  -8.50100 36.77900 37.92700
C  -7.61300 35.51100 37.82500
H  -6.44300 35.67200 36.92500
N  -12.43300 41.13300 40.80900
C  -11.35700 41.76000 40.21700
C  -11.63500 43.13200 40.02600
C  -13.01800 43.33900 40.32900
C  -13.55100 41.99600 40.83100
C  -10.70500 44.19400 39.45800
C  -13.79000 44.66100 40.31000
O  -13.27100 45.65300 39.81600
C  -15.11500 44.80600 40.99800
N  -14.57000 39.15800 41.79400
C  -15.30700 40.36300 41.76400
C  -16.67500 40.14500 42.34000
C  -16.70000 38.60600 42.57700
C  -15.30900 38.11500 42.30600
C  -17.08100 41.03200 43.49000
C  -17.76700 37.85100 41.75900
C  -19.01800 37.66000 42.57000
N  -12.66300 36.96100 41.34900
C  -13.62600 36.21500 42.10200
C  -13.17500 34.87000 42.21600
C  -11.95100 34.83600 41.59600
C  -11.66300 36.15300 41.15600
C  -13.84200 33.67000 42.90900
C  -10.79300 34.06700 41.27100
O  -10.62600 32.83600 41.46300
C  -9.71700 34.94500 40.56400
C  -8.38300 34.84900 41.29700
O  -7.45200 34.07500 40.96000
O  -8.16400 35.82600 42.26000
C  -6.71400 36.03100 42.49200
H  -9.73800 41.63300 38.90200
H  -15.69100 42.32200 41.29300
H  -15.59400 36.12800 42.97700
H  -7.74700 37.34500 39.82300
H  -8.85800 39.48700 37.91400
H  -6.40700 39.24900 39.17100
H  -7.29300 40.10100 40.37400
H  -7.12400 40.90500 38.78100
H  -8.12200 37.42900 37.13800
H  -9.51600 36.60900 37.56800
H  -8.13700 34.57700 37.62600
H  -7.22100 35.22700 38.80200
H  -9.73300 43.76800 39.20900
H  -10.72300 44.99400 40.19900
H  -11.13200 44.48700 38.49900
H  -15.79100 44.64200 40.15900
H  -15.31500 45.77000 41.46600
H  -15.13800 44.13500 41.85700
H  -17.39300 40.28200 41.53100
H  -16.76700 38.45100 43.65400
H  -17.51200 40.43900 44.29600
H  -17.84600 41.76200 43.22500
H  -16.19300 41.54100 43.86600
H  -17.45300 36.80800 41.71800
H  -17.99200 38.37500 40.83000
H  -19.05800 38.50900 43.25200
H  -18.85100 36.72300 43.10000
H  -19.92500 37.73500 41.97000
H  -13.10000 32.96600 43.28500
H  -14.52500 33.32300 42.13400
H  -14.48700 33.95000 43.74200
H  -9.74500 34.55600 39.54600
H  -6.14200 36.28300 41.59900
H  -6.44600 35.18500 43.12600
H  -6.52600 36.90100 43.12000

