158

Mg 29.30900 57.18000 40.89100
C  26.38900 55.27800 40.18000
C  31.10100 54.80200 39.33500
C  31.97400 59.33100 41.08000
C  27.18400 59.74600 41.93100
N  28.73800 55.29100 39.79700
C  27.57200 54.63200 39.67500
C  27.61100 53.30700 38.90300
C  29.16300 53.04100 39.12600
C  29.75100 54.45600 39.47600
C  29.58700 52.09500 40.23400
C  26.91200 53.05300 37.48800
C  26.44200 54.24700 36.73900
H  26.66100 54.17600 35.22900
N  31.29800 57.02000 40.33400
C  31.88800 55.92000 39.75300
C  33.29500 56.18000 39.41800
C  33.47600 57.52400 39.84800
C  32.25800 58.02800 40.55000
C  34.17100 55.22900 38.62400
C  34.76800 58.37200 39.51000
O  35.75300 57.93900 38.97800
C  34.98000 59.90300 39.73700
N  29.56700 59.23500 41.58400
C  30.76800 59.90300 41.55100
C  30.55500 61.40000 41.80800
C  29.08600 61.53300 42.07200
C  28.54300 60.10700 41.90300
C  31.44300 62.02500 42.95200
C  28.23200 62.49400 41.18300
C  27.20400 63.35300 41.87800
N  27.30300 57.46400 41.07200
C  26.53400 58.55200 41.51000
C  25.08700 58.30800 41.45100
C  25.02000 56.98300 41.02000
C  26.38500 56.53700 40.72900
C  23.96300 59.33700 41.70500
C  24.07000 55.99000 40.66100
O  22.88800 55.86400 40.77600
C  24.95900 54.78700 40.18000
C  24.69800 53.52700 40.99700
O  23.59700 52.97500 41.03800
O  25.79600 53.20200 41.76000
C  25.65600 51.92200 42.48000
H  31.66400 53.89800 39.09200
H  32.78200 60.06400 41.09600
H  26.49100 60.51600 42.27700
H  27.12700 52.61700 39.59500
H  29.65900 52.68700 38.22200
H  30.56500 52.38600 40.61800
H  29.85600 51.16700 39.73000
H  28.87600 52.05600 41.05900
H  26.03700 52.43400 37.68700
H  27.54500 52.45600 36.83100
H  27.10100 54.98700 37.19200
H  25.40200 54.50000 36.94300
H  34.59400 55.68500 37.72900
H  33.60900 54.31900 38.40900
H  34.96100 54.84100 39.26600
H  34.81300 60.09700 40.79600
H  34.21700 60.51700 39.25800
H  36.00100 60.20600 39.50600
H  30.71200 61.96600 40.89000
H  28.93600 61.70300 43.13800
H  32.09700 61.33100 43.48000
H  30.78200 62.52700 43.65900
H  32.09700 62.80300 42.55800
H  27.67900 62.01100 40.37700
H  29.00000 63.19100 40.84800
H  27.53400 64.38600 41.77200
H  27.05300 63.12300 42.93300
H  26.24500 63.29200 41.36400
H  23.02900 58.93100 41.31900
H  24.20400 60.30100 41.25800
H  23.89100 59.35600 42.79300
H  24.67600 54.50200 39.16700
H  26.66600 51.51400 42.43800
H  24.94200 51.27400 41.97200
H  25.27000 51.95700 43.49900
Mg 17.27000 52.56500 25.73500
C  19.01700 50.99400 28.42700
C  14.88600 53.44200 27.81700
C  15.37900 53.29500 23.00700
C  19.58200 50.88100 23.45100
N  17.05900 52.29900 27.90300
C  17.95700 51.80900 28.79700
C  17.40600 51.95700 30.22700
C  15.93300 52.51400 29.96800
C  16.00300 52.86900 28.52300
C  14.73800 51.59000 30.43200
C  18.30200 52.81300 31.05500
C  18.01200 52.89800 32.57800
H  16.92900 52.01000 33.29700
N  15.44500 53.50500 25.49100
C  14.60000 53.76700 26.48100
C  13.37500 54.46300 25.97900
C  13.55400 54.40000 24.50300
C  14.85700 53.74000 24.26300
C  12.22400 54.92500 26.83100
C  12.63500 54.88700 23.43900
O  12.88900 54.90300 22.27000
C  11.28100 55.46700 23.83100
N  17.52500 52.12300 23.56100
C  16.55000 52.59800 22.67800
C  16.95200 52.36400 21.22500
C  18.36200 51.80400 21.40200
C  18.52600 51.62100 22.93200
C  16.05400 51.51300 20.31100
C  19.45400 52.66400 20.86600
C  20.64900 52.03800 20.03000
N  18.99100 51.15100 25.86100
C  19.80600 50.57000 24.85600
C  20.85100 49.80300 25.52600
C  20.59600 49.92500 26.91500
C  19.41800 50.71900 27.06500
C  22.04700 49.13700 24.90700
C  21.04100 49.55000 28.26100
O  22.05900 48.98900 28.63200
C  19.92800 50.11200 29.20700
C  19.16300 49.00600 29.78400
O  18.15300 48.43900 29.37800
O  19.56700 48.83700 31.08500
C  18.69900 48.01900 31.94200
H  14.04700 53.65600 28.48300
H  14.77500 53.50200 22.12100
H  20.29800 50.38900 22.78900
H  17.43900 50.96900 30.68500
H  15.84500 53.42200 30.56500
H  14.12700 51.31200 29.57300
H  14.12400 52.18600 31.10700
H  15.12600 50.67400 30.87900
H  17.99500 53.81200 30.74700
H  19.37900 52.64300 31.04900
H  17.94400 53.94900 32.85700
H  18.96300 52.52100 32.95500
H  12.51800 54.79900 27.87400
H  11.33200 54.31800 26.68200
H  11.91800 55.96900 26.75600
H  11.40400 56.43400 24.31800
H  10.65400 54.77900 24.39900
H  10.67000 55.69300 22.95700
H  17.03200 53.26800 20.62100
H  18.40300 50.79000 21.00300
H  15.62500 50.65500 20.82700
H  16.65000 51.17200 19.46400
H  15.21100 52.08500 19.92200
H  19.83300 53.33400 21.63800
H  18.94600 53.24400 20.09600
H  21.47300 52.64500 20.40400
H  20.51600 52.30800 18.98300
H  20.67800 50.95800 20.17600
H  22.94600 49.75300 24.91900
H  21.89600 48.67100 23.93300
H  22.24800 48.30500 25.58200
H  20.34500 50.66000 30.05200
H  18.71100 48.41600 32.95700
H  19.17300 47.03800 31.98000
H  17.67900 47.90800 31.57500

