158

Mg 35.24800 48.62300 25.49800
C  35.40900 46.96000 28.54700
C  34.22800 51.44700 27.20500
C  34.53300 49.98600 22.47700
C  36.21900 45.64300 23.86600
N  34.77000 49.08300 27.72100
C  35.01800 48.29200 28.72800
C  34.90900 49.03500 30.05400
C  34.38700 50.39900 29.61500
C  34.44600 50.33000 28.09800
C  32.91200 50.79200 29.98600
C  36.23300 49.03200 30.81300
C  36.10200 48.66200 32.28100
H  34.77700 49.10700 32.95000
N  34.53500 50.50600 24.84300
C  34.19100 51.57700 25.68200
C  33.89100 52.73600 24.90500
C  34.01500 52.32400 23.53200
C  34.34600 50.90900 23.53700
C  33.48800 54.05600 25.60600
C  33.76800 53.19200 22.29100
O  33.83200 52.74600 21.19400
C  33.44900 54.66600 22.53700
N  35.24900 47.90200 23.46500
C  34.98300 48.69300 22.39800
C  35.36000 48.07200 21.07600
C  36.23200 46.87800 21.60600
C  35.89200 46.77500 23.10000
C  34.17700 47.60400 20.23700
C  37.76000 47.13400 21.17400
C  38.72600 47.90300 22.14400
N  35.70400 46.67800 26.01100
C  36.10200 45.50800 25.29600
C  36.48300 44.40900 26.17900
C  36.18500 44.98600 27.42700
C  35.59100 46.31000 27.31500
C  37.16500 43.18200 25.78800
C  36.44100 44.67300 28.85800
O  37.05900 43.71100 29.33700
C  35.82300 45.93000 29.59400
C  34.62500 45.40400 30.18000
O  33.57600 45.16200 29.64200
O  34.91900 45.10600 31.47800
C  33.74800 44.61900 32.26400
H  33.92100 52.29900 27.81600
H  34.47100 50.58600 21.56700
H  36.53100 44.78200 23.27100
H  34.16400 48.49600 30.63900
H  35.00700 51.25500 29.88200
H  32.22200 50.79800 29.14200
H  32.84700 51.75000 30.50000
H  32.50200 50.00200 30.61400
H  36.77000 49.95400 30.58900
H  36.96700 48.37700 30.34200
H  36.89600 49.07000 32.90600
H  36.28900 47.58900 32.32100
H  32.50800 54.34600 25.22900
H  34.06800 54.95200 25.38700
H  33.42000 53.99400 26.69200
H  32.50400 54.83900 23.05200
H  33.31500 55.20000 21.59600
H  34.22800 55.15300 23.12300
H  35.96200 48.68400 20.40500
H  35.83800 45.94100 21.21200
H  34.29600 46.61600 19.79400
H  34.07400 48.27200 19.38200
H  33.29700 47.64000 20.88000
H  37.70000 47.65700 20.21900
H  38.18100 46.18100 20.85100
H  38.31700 48.02900 23.14600
H  38.98100 48.87700 21.72700
H  39.57800 47.24200 22.30400
H  37.84100 42.90400 26.59600
H  37.61100 43.07400 24.79900
H  36.44900 42.36300 25.72100
H  36.58400 46.25800 30.30200
H  33.00700 45.41400 32.18300
H  33.92400 44.31900 33.29700
H  33.26700 43.77900 31.76300
Mg 8.78600 47.79600 26.65900
C  6.83300 47.44000 29.55200
C  11.51300 48.00700 28.82000
C  10.74600 47.98400 24.00600
C  5.91700 47.56000 24.74400
N  9.08000 47.81400 28.95600
C  8.14100 47.57600 29.95200
C  8.72100 47.64600 31.34000
C  10.22700 47.97100 31.07400
C  10.27600 47.92000 29.52900
C  10.78900 49.33700 31.74000
C  8.33900 46.48600 32.37400
C  9.40300 45.98800 33.40200
H  8.89200 45.49200 34.69500
N  10.84100 47.98100 26.46400
C  11.77300 48.02200 27.44700
C  13.11900 48.11100 26.86600
C  12.99200 48.17800 25.47000
C  11.49000 48.08400 25.25000
C  14.34500 48.12800 27.86100
C  13.99500 48.25200 24.33400
O  13.66700 48.56700 23.17100
C  15.46700 48.33700 24.77800
N  8.40900 47.86200 24.69900
C  9.36200 47.96400 23.76400
C  8.77600 48.15900 22.38500
C  7.27900 47.85500 22.59500
C  7.18300 47.73900 24.08400
C  9.16900 49.52300 21.55200
C  6.57200 46.72300 21.78400
C  5.70500 47.21000 20.59200
N  6.77700 47.68700 26.98900
C  5.73000 47.54500 26.10600
C  4.53900 47.43000 26.83700
C  4.90100 47.38600 28.19900
C  6.31400 47.54500 28.25100
C  3.09900 47.35600 26.28800
C  4.35500 47.20500 29.58800
O  3.19100 47.04700 29.96000
C  5.62400 47.24600 30.47600
C  5.55300 46.02000 31.30300
O  5.83800 44.89800 30.93600
O  5.14700 46.33500 32.53600
C  4.89000 45.23500 33.47900
H  12.33200 48.09800 29.53700
H  11.31400 48.14900 23.08800
H  4.95400 47.48600 24.23400
H  8.31800 48.54800 31.80200
H  10.96000 47.21200 31.34900
H  11.82700 49.14300 32.01100
H  10.22800 49.65200 32.62000
H  10.55300 50.04800 30.94800
H  8.13000 45.61300 31.75600
H  7.44300 46.81900 32.89800
H  10.16200 46.75100 33.56900
H  9.92300 45.15800 32.92300
H  15.14200 47.43000 27.60400
H  14.13800 47.78700 28.87500
H  14.76600 49.13000 27.77200
H  15.72000 47.38000 25.23500
H  15.49900 49.08400 25.57100
H  16.13000 48.48600 23.92600
H  9.22400 47.32700 21.84100
H  6.72400 48.78400 22.46400
H  9.13500 50.48600 22.06200
H  8.58600 49.56600 20.63200
H  10.21400 49.38700 21.27300
H  6.10200 46.05900 22.50900
H  7.35400 46.15300 21.28200
H  5.93300 48.24600 20.34400
H  4.63700 47.20900 20.81100
H  5.84900 46.53900 19.74500
H  2.54500 46.54700 26.76400
H  3.11700 47.18900 25.21100
H  2.51300 48.22200 26.59500
H  5.52000 47.99000 31.26600
H  3.82100 45.07700 33.62800
H  5.31100 45.29900 34.48200
H  5.49100 44.36400 33.21600

