158

Mg 25.10500 -0.86300 29.09400
C  27.00100 -0.82400 32.04000
C  22.19800 -0.50000 31.24300
C  23.07200 -1.03000 26.44400
C  27.88300 -1.87500 27.27700
N  24.64900 -0.55100 31.36600
C  25.68300 -0.54100 32.30700
C  25.16400 -0.18100 33.66300
C  23.55700 -0.39200 33.40100
C  23.42500 -0.45800 31.88600
C  22.98400 -1.56900 34.22600
C  25.64200 1.25100 34.07800
C  26.64300 1.37600 35.26700
H  26.15600 1.98200 36.59800
N  22.95700 -0.61200 28.82900
C  21.98400 -0.51900 29.82200
C  20.73100 -0.27300 29.15100
C  20.91900 -0.39200 27.76300
C  22.39100 -0.71500 27.63400
C  19.40400 -0.22500 29.81000
C  19.89100 -0.27300 26.57900
O  20.24800 -0.47800 25.42200
C  18.51800 0.31400 26.86900
N  25.42200 -1.71900 27.12600
C  24.41900 -1.38800 26.18600
C  24.99600 -1.45600 24.74000
C  26.54400 -1.39900 25.05400
C  26.65800 -1.70000 26.55100
C  24.59500 -2.58300 23.81100
C  27.31000 -0.16900 24.48600
C  27.80700 0.98000 25.34900
N  27.07400 -1.32800 29.51300
C  28.11900 -1.69400 28.67500
C  29.34700 -1.75900 29.49400
C  28.95700 -1.42100 30.78300
C  27.53800 -1.23000 30.78100
C  30.72400 -2.11200 29.06000
C  29.40700 -1.20900 32.16000
O  30.57100 -1.17800 32.50900
C  28.22600 -0.86900 33.05700
C  28.04600 -1.87100 34.05600
O  27.40300 -2.89500 33.85300
O  28.72500 -1.46200 35.16300
C  28.52400 -2.37000 36.34300
H  21.37200 -0.48100 31.95700
H  22.39700 -0.90200 25.59600
H  28.84800 -1.95500 26.77400
H  25.52600 -0.89900 34.40000
H  23.04700 0.52700 33.69100
H  22.38800 -1.19400 35.05800
H  23.77900 -2.22500 34.58000
H  22.31100 -2.17900 33.62400
H  24.82700 1.87400 34.44500
H  25.94300 1.79900 33.18500
H  27.41500 2.06200 34.92000
H  27.17200 0.46300 35.53900
H  19.50500 -0.71700 30.77700
H  18.70300 -0.66400 29.10000
H  19.13300 0.81900 29.97000
H  18.27700 0.84400 25.94800
H  18.63500 1.10300 27.61200
H  17.84100 -0.47600 27.19100
H  24.69600 -0.48500 24.34600
H  27.13700 -2.18100 24.58000
H  24.45400 -2.37800 22.74900
H  23.72700 -3.04000 24.28600
H  25.41400 -3.30100 23.77600
H  26.76200 0.19700 23.61800
H  28.08500 -0.77000 24.01100
H  27.36500 0.90500 26.34300
H  27.46400 1.92000 24.91700
H  28.89400 0.94600 25.42100
H  30.63900 -2.48200 28.03800
H  31.15200 -2.95300 29.60600
H  31.30600 -1.19200 29.02600
H  28.39600 0.12600 33.46800
H  28.52700 -3.38700 35.95100
H  27.61200 -2.07700 36.86300
H  29.38500 -2.30600 37.00800
Mg 36.51000 49.51900 24.85800
C  36.28400 47.80800 27.97400
C  35.58900 52.35700 26.72100
C  36.63300 51.24900 22.05800
C  37.14500 46.57000 23.29300
N  35.89000 49.97100 27.10700
C  36.01900 49.14600 28.17000
C  35.86400 49.91900 29.48800
C  35.26600 51.30100 29.03300
C  35.61900 51.22400 27.53700
C  33.77000 51.44600 29.27800
C  37.25700 49.89000 30.27900
C  37.16700 49.56900 31.78100
H  35.90700 50.09300 32.51000
N  36.13600 51.47400 24.44600
C  35.86600 52.50100 25.35400
C  35.71000 53.75800 24.65400
C  36.08100 53.52600 23.28500
C  36.27700 52.03100 23.14900
C  35.40000 55.07000 25.23000
C  36.15200 54.49400 22.16900
O  36.27100 54.10000 21.00300
C  36.04300 55.98400 22.27400
N  36.81200 48.96900 22.95800
C  36.82400 49.87200 21.94400
C  37.12600 49.25500 20.55100
C  37.42600 47.73400 20.93500
C  37.10700 47.72100 22.47400
C  35.98800 49.43900 19.55400
C  38.90800 47.27300 20.56800
C  39.99000 47.87800 21.47900
N  36.62500 47.58100 25.42700
C  36.93800 46.43600 24.63200
C  37.02200 45.32300 25.45900
C  36.82400 45.81400 26.76600
C  36.52700 47.14300 26.70000
C  37.37000 43.97000 24.98900
C  36.75400 45.47000 28.14300
O  36.93000 44.34200 28.68500
C  36.43400 46.74700 28.98100
C  35.12000 46.41700 29.58500
O  34.04100 46.38400 29.01800
O  35.31200 46.30100 31.00300
C  34.07200 45.82500 31.76500
H  35.33400 53.25400 27.28800
H  36.65300 51.78700 21.10800
H  37.57100 45.72000 22.75600
H  35.11000 49.38800 30.07000
H  35.85300 52.18400 29.28400
H  33.25900 50.73300 28.63100
H  33.48100 52.42200 28.88800
H  33.60200 51.31500 30.34700
H  37.67600 50.89500 30.31200
H  37.96800 49.20900 29.81200
H  38.13000 49.90300 32.16800
H  37.05600 48.48600 31.83700
H  34.66600 55.69100 24.71500
H  36.30800 55.67100 25.27100
H  34.80300 54.97700 26.13800
H  35.09600 56.22600 22.75500
H  36.07200 56.36700 21.25400
H  36.87100 56.33100 22.89200
H  38.05000 49.70100 20.18500
H  36.70700 47.06400 20.46600
H  35.04000 49.13800 20.00100
H  36.13900 48.80300 18.68100
H  35.88600 50.49000 19.28400
H  39.18200 47.71100 19.60800
H  38.90900 46.18300 20.60600
H  40.73800 47.09600 21.35400
H  39.74700 48.16800 22.50200
H  40.31300 48.81100 21.01700
H  38.19900 43.97100 24.28100
H  36.51200 43.47500 24.53400
H  37.65800 43.35500 25.84100
H  37.11400 47.01200 29.79000
H  33.40700 45.44000 30.99300
H  33.57400 46.70100 32.18100
H  34.48000 45.13400 32.50300

