158

Mg 40.01800 10.13800 29.46900
C  41.99300 11.41500 32.15800
C  37.84500 8.98200 31.79300
C  38.46900 8.72500 27.00000
C  42.71900 10.90300 27.37000
N  39.95700 10.12900 31.75400
C  40.70800 10.91400 32.60200
C  40.16700 10.93800 34.01200
C  38.88900 10.01000 33.87500
C  38.85100 9.68800 32.38300
C  38.81100 8.84300 34.88700
C  39.94300 12.37600 34.51600
C  40.63300 12.76100 35.81800
H  39.77000 13.61600 36.81700
N  38.32500 9.03700 29.44600
C  37.54900 8.61100 30.47900
C  36.33000 8.01900 29.91100
C  36.42100 8.01500 28.49200
C  37.81600 8.58200 28.27400
C  35.21000 7.58400 30.92400
C  35.45300 7.54400 27.42700
O  35.69400 7.54900 26.20400
C  34.14100 7.03500 27.80000
N  40.64100 9.78000 27.51200
C  39.72500 9.20200 26.67300
C  40.16700 9.29200 25.17300
C  41.52500 9.94900 25.36600
C  41.66200 10.19900 26.81300
C  40.26500 7.96500 24.36500
C  41.78400 11.24800 24.50300
C  41.18600 12.58700 24.93800
N  41.87100 11.01000 29.64800
C  42.82100 11.31300 28.72300
C  44.00100 11.93900 29.31600
C  43.70200 12.04500 30.61500
C  42.43200 11.39400 30.82200
C  45.31400 12.26100 28.67300
C  44.18300 12.52000 31.85800
O  45.27000 13.11100 32.05800
C  43.13600 12.10300 32.96600
C  43.79000 11.23000 34.00600
O  43.82000 10.00900 33.97800
O  44.11700 11.96900 35.06900
C  44.29500 11.17300 36.33300
H  37.22000 8.59700 32.60200
H  37.92400 8.40400 26.10900
H  43.50700 11.10600 26.64200
H  40.87500 10.47600 34.69900
H  37.94100 10.54000 33.97000
H  37.88200 8.66900 35.43100
H  39.56000 9.04300 35.65300
H  39.12600 7.91300 34.41300
H  38.85400 12.38800 34.57900
H  40.15000 13.11400 33.74100
H  41.46900 13.36600 35.46900
H  41.05100 11.90500 36.34800
H  34.61400 8.38300 31.36500
H  35.66400 7.19900 31.83700
H  34.58100 6.78200 30.53800
H  34.17300 6.38500 28.67400
H  33.52600 6.57600 27.02600
H  33.58200 7.91700 28.11400
H  39.53800 9.94000 24.56300
H  42.30800 9.23100 25.12500
H  39.45100 7.95400 23.64100
H  40.18300 7.06400 24.97300
H  41.16500 8.00800 23.75100
H  41.60600 10.93700 23.47400
H  42.86000 11.38100 24.60800
H  40.71300 13.15900 24.13900
H  41.91800 13.21700 25.44400
H  40.35800 12.33800 25.60100
H  45.21000 13.28800 28.32300
H  45.50000 11.63900 27.79700
H  46.18600 12.33000 29.32300
H  42.74100 13.00400 33.43400
H  44.03000 10.12100 36.23600
H  43.48400 11.65200 36.88200
H  45.28600 11.42000 36.71400
Mg -2.14700 34.42900 25.97600
C  -3.44300 32.87800 28.77900
C  -0.23300 36.39400 27.90500
C  -1.30000 36.04900 23.11300
C  -4.30000 32.39000 23.96400
N  -2.14400 34.88400 28.15900
C  -2.65400 34.03700 29.14100
C  -2.07300 34.29700 30.46100
C  -1.19000 35.53400 30.24800
C  -1.17000 35.61900 28.66800
C  -1.62900 36.81400 31.01800
C  -1.34600 33.06700 31.13100
C  -1.95000 32.46200 32.38000
H  -1.15500 32.55900 33.64800
N  -0.85500 35.93700 25.60000
C  -0.05100 36.52300 26.50600
C  1.01300 37.28500 25.83800
C  0.68000 37.19100 24.41900
C  -0.58900 36.48300 24.34700
C  2.17400 37.86800 26.60400
C  1.47100 37.73100 23.24200
O  1.06800 37.65900 22.08200
C  2.82300 38.32100 23.54800
N  -2.75600 34.27500 23.78500
C  -2.40800 35.21700 22.84400
C  -2.83400 34.83000 21.40000
C  -3.64100 33.54400 21.72200
C  -3.57400 33.35800 23.27300
C  -3.58900 35.91700 20.56500
C  -3.15500 32.28000 21.01800
C  -2.04000 31.41200 21.63800
N  -3.64400 33.01000 26.22500
C  -4.29200 32.19100 25.32800
C  -4.96300 31.18200 25.98700
C  -4.76500 31.47300 27.34600
C  -3.83300 32.49700 27.44900
C  -5.74100 30.16800 25.38000
C  -5.06200 31.03000 28.64700
O  -5.81300 30.12600 28.98600
C  -4.29600 31.93700 29.67000
C  -5.18000 32.56900 30.59700
O  -5.81500 33.60900 30.33100
O  -5.21100 31.92900 31.81500
C  -5.95400 32.44200 32.91100
H  0.47500 36.85100 28.59900
H  -1.03100 36.62300 22.22400
H  -4.75100 31.58700 23.37900
H  -2.95300 34.51200 31.06700
H  -0.15400 35.38700 30.55100
H  -1.88100 37.59400 30.30000
H  -0.78100 37.24400 31.55200
H  -2.30700 36.64300 31.85400
H  -0.36600 33.42900 31.44100
H  -1.18400 32.37100 30.30800
H  -2.14100 31.42200 32.11200
H  -2.85400 33.02400 32.61300
H  3.15200 37.81200 26.12600
H  2.13500 37.34400 27.55900
H  1.94200 38.91500 26.80100
H  2.67500 39.16900 24.21700
H  3.28000 38.62000 22.60400
H  3.40700 37.50200 23.96600
H  -1.91000 34.60800 20.86600
H  -4.68200 33.74800 21.47200
H  -3.61400 36.86300 21.10600
H  -4.64100 35.63400 20.52900
H  -3.12100 35.96900 19.58300
H  -2.84500 32.48500 19.99300
H  -4.02400 31.64200 20.85400
H  -1.53500 31.69100 22.56200
H  -1.30600 31.34600 20.83400
H  -2.45600 30.41700 21.79500
H  -5.44700 29.70200 24.43900
H  -6.81100 30.35400 25.46400
H  -5.56000 29.34300 26.07000
H  -3.65200 31.32700 30.30400
H  -5.76900 33.48800 33.15600
H  -5.63700 31.83200 33.75600
H  -7.02400 32.26100 32.80600

