158

Mg 48.09600 45.27000 42.86500
C  44.59200 45.26900 42.12400
C  48.26800 42.22500 41.37600
C  51.44800 45.81300 42.54900
C  47.70000 48.61100 43.88100
N  46.59400 43.94100 41.75400
C  45.25300 44.15800 41.65300
C  44.67600 43.05400 40.68600
C  45.72500 41.91300 40.76800
C  46.94200 42.67300 41.38400
C  45.36400 40.61500 41.47600
C  44.64500 43.69400 39.30000
C  43.25900 43.67400 38.55000
H  43.22300 43.47200 37.04900
N  49.69200 44.11000 42.25100
C  49.52400 42.83200 41.75100
C  50.85200 42.21500 41.68600
C  51.84900 43.24100 42.04100
C  51.02200 44.47500 42.28100
C  51.10200 40.70300 41.39300
C  53.31400 43.11000 42.09500
O  53.79200 42.05300 41.83900
C  54.33500 44.27100 42.28400
N  49.40900 47.18800 42.77300
C  50.72300 46.99100 42.82300
C  51.45100 48.29000 43.24200
C  50.24700 49.25700 43.65200
C  49.04200 48.24200 43.50800
C  52.44000 48.11300 44.40900
C  49.99000 50.60900 42.80600
C  49.38000 51.78000 43.56100
N  46.51000 46.65100 43.11700
C  46.49800 47.91800 43.65400
C  45.13200 48.30000 43.89300
C  44.42100 47.31600 43.18500
C  45.28300 46.35900 42.76300
C  44.70300 49.53600 44.75000
C  43.05500 46.99000 42.78700
O  41.98400 47.53000 43.02400
C  43.12500 45.70400 41.95100
C  42.09100 44.73700 42.54600
O  41.44400 43.95600 41.84700
O  42.15700 44.64200 43.87100
C  41.24900 43.72500 44.58600
H  48.47300 41.19300 41.08400
H  52.53600 45.89000 42.50800
H  47.63600 49.63200 44.26100
H  43.65800 42.86300 41.02500
H  46.06200 41.59200 39.78200
H  45.57600 39.76700 40.82400
H  44.30500 40.56900 41.73300
H  45.98800 40.72000 42.36300
H  45.28700 43.12500 38.62700
H  44.98300 44.72100 39.16200
H  42.63800 44.51700 38.85400
H  42.87000 42.78800 39.05000
H  51.91900 40.63800 40.67500
H  50.23400 40.28300 40.88500
H  51.34100 40.13000 42.28900
H  54.12900 44.86300 41.39300
H  55.36100 43.90500 42.24200
H  54.19700 44.81300 43.21900
H  51.86400 48.82200 42.38500
H  50.21600 49.46400 44.72100
H  53.27000 47.50200 44.05300
H  51.99100 47.43500 45.13400
H  52.85000 49.09100 44.66200
H  49.46100 50.40600 41.87400
H  51.01900 50.88400 42.57500
H  48.45100 52.20800 43.18500
H  50.08200 52.61100 43.63200
H  49.27300 51.53700 44.61800
H  45.22000 49.54900 45.71000
H  43.66000 49.35400 45.00600
H  44.99300 50.44500 44.22200
H  42.82500 45.85200 40.91300
H  40.30900 43.47700 44.09100
H  41.05000 44.25400 45.51800
H  41.64000 42.75800 44.90100
Mg 8.89200 48.61000 25.48100
C  7.05100 48.56200 28.49200
C  11.60100 49.88000 27.35900
C  10.67400 48.86700 22.62300
C  6.02000 47.98200 23.76900
N  9.35900 49.04400 27.75600
C  8.41400 48.94300 28.76900
C  8.90100 49.45800 30.07300
C  10.29500 50.10400 29.62300
C  10.50100 49.68400 28.13400
C  10.51700 51.62700 29.90300
C  8.86200 48.61200 31.35800
C  9.87000 48.91400 32.54700
H  9.24800 48.75600 33.97600
N  10.94400 49.15100 25.06800
C  11.91900 49.53700 26.00300
C  13.20100 49.55300 25.25600
C  12.92700 49.26700 23.87000
C  11.44800 49.08600 23.77800
C  14.52800 49.91700 25.90400
C  13.88600 49.33400 22.69000
O  13.49900 49.15100 21.53100
C  15.44000 49.61700 22.75900
N  8.39100 48.50600 23.46700
C  9.31900 48.46000 22.52700
C  8.69700 48.25500 21.14900
C  7.25800 47.75400 21.51700
C  7.16800 48.09900 22.99200
C  8.74800 49.48200 20.18700
C  6.85900 46.20800 21.28600
C  6.60000 45.92100 19.79100
N  7.01400 48.28700 26.00600
C  5.90700 48.04100 25.17300
C  4.71300 47.84300 25.90900
C  5.13200 48.05800 27.24000
C  6.53700 48.30400 27.23600
C  3.26800 47.62600 25.34600
C  4.70700 48.14400 28.60300
O  3.59200 48.08500 29.03600
C  5.93600 48.46100 29.49000
C  6.00400 47.24000 30.31100
O  6.84300 46.32700 30.23300
O  5.02800 47.15600 31.21900
C  5.27200 46.26600 32.40200
H  12.49700 50.18600 27.90300
H  11.19100 48.90600 21.66300
H  5.05300 47.80700 23.29200
H  8.26100 50.29600 30.35000
H  11.13100 49.57300 30.07800
H  11.56200 51.87000 30.09800
H  9.86200 52.04600 30.66700
H  10.43400 52.17600 28.96500
H  9.19000 47.62900 31.02000
H  7.85300 48.44300 31.73300
H  10.05800 49.97800 32.39700
H  10.80500 48.36000 32.46600
H  14.63200 49.67200 26.96100
H  14.88400 50.91100 25.63000
H  15.27500 49.24400 25.48400
H  15.78000 49.99800 21.79600
H  15.97100 48.71700 23.06800
H  15.56500 50.40200 23.50500
H  9.20200 47.40000 20.70000
H  6.57800 48.39100 20.95200
H  9.31300 49.32300 19.26800
H  9.27400 50.29300 20.69100
H  7.74700 49.85200 19.96200
H  5.94600 46.01900 21.85000
H  7.67800 45.52300 21.50300
H  6.62500 46.84600 19.21400
H  5.65300 45.39800 19.66200
H  7.43500 45.30400 19.46000
H  2.59700 47.88000 26.16700
H  3.04500 46.68900 24.83600
H  2.96200 48.43000 24.67700
H  5.70100 49.32600 30.11100
H  4.35300 46.11100 32.96600
H  6.02500 46.69500 33.06300
H  5.65600 45.29100 32.10000

