158

Mg 53.50500 23.95300 45.16800
C  50.63600 25.86300 44.49100
C  52.19600 21.28700 43.83500
C  56.71100 22.60300 45.09300
C  54.99500 27.04300 46.09500
N  51.65600 23.68600 44.23900
C  50.62700 24.51400 44.02300
C  49.31400 23.80800 43.75000
C  49.83600 22.27500 43.67900
C  51.33700 22.44000 43.96000
C  49.13900 21.23700 44.66100
C  48.54600 24.23500 42.54200
C  49.35800 24.36400 41.23000
H  48.85600 23.74900 39.99300
N  54.34300 22.14700 44.56500
C  53.59900 21.14100 44.11700
C  54.45900 19.97800 43.90700
C  55.80200 20.33600 44.22300
C  55.69400 21.71700 44.68200
C  53.90700 18.64000 43.28300
C  57.02800 19.47300 44.11400
O  56.92900 18.34700 43.66500
C  58.37900 20.01300 44.47300
N  55.55900 24.75300 45.40700
C  56.61200 23.97400 45.29600
C  57.93900 24.78600 45.58400
C  57.38000 26.16900 45.94400
C  55.84500 26.00400 45.77100
C  58.99800 24.20200 46.62000
C  57.74500 27.37100 45.02500
C  59.23000 27.46100 44.60500
N  52.91500 26.00000 45.45900
C  53.58900 27.06900 45.92300
C  52.74200 28.23700 46.22100
C  51.56600 27.85700 45.58500
C  51.74200 26.47900 45.12200
C  53.17100 29.50500 46.93200
C  50.20500 28.25400 45.22800
O  49.54200 29.30300 45.46100
C  49.59900 26.99800 44.46300
C  49.35400 27.52400 43.12600
O  50.27500 27.79800 42.32400
O  47.99900 27.59400 42.86600
C  47.40700 28.02700 41.54900
H  51.58700 20.39300 43.68400
H  57.69400 22.13300 45.16600
H  55.37400 28.04800 46.29400
H  48.81900 23.93700 44.71300
H  49.77500 21.92100 42.64900
H  48.44800 21.80000 45.28800
H  49.81300 20.62800 45.26300
H  48.59500 20.57600 43.98500
H  48.01300 25.16700 42.72800
H  47.66200 23.60200 42.45700
H  50.33000 23.91900 41.44200
H  49.56200 25.41000 40.99800
H  54.42000 18.39800 42.35200
H  52.83500 18.72400 43.11100
H  54.05500 17.75200 43.89700
H  58.58900 20.82100 43.77300
H  59.04600 19.17400 44.27500
H  58.30300 20.25500 45.53400
H  58.47000 24.81800 44.63300
H  57.53800 26.32900 47.01100
H  59.70400 23.54300 46.11600
H  58.62800 23.60300 47.45300
H  59.62000 24.97300 47.07400
H  57.50900 28.33000 45.48800
H  57.19600 27.18400 44.10200
H  59.87100 26.75500 45.13300
H  59.73200 28.41000 44.79700
H  59.22200 27.17900 43.55300
H  52.29900 30.13000 47.12700
H  53.91600 30.05800 46.36000
H  53.58300 29.28300 47.91600
H  48.64100 26.68800 44.88000
H  46.80500 28.93500 41.54500
H  46.79800 27.23400 41.11300
H  48.23200 28.28700 40.88600
Mg 47.22400 35.10300 28.29800
C  45.38300 33.50700 30.72900
C  47.53400 37.72900 30.50000
C  48.80800 36.91000 25.75800
C  46.59000 32.60100 26.09300
N  46.66500 35.43700 30.40300
C  45.99500 34.58300 31.20500
C  45.97900 35.02500 32.65500
C  46.41700 36.58100 32.47700
C  46.88200 36.60100 31.04000
C  45.42600 37.68100 32.77400
C  47.04400 34.22600 33.45300
C  47.20300 34.50500 34.95700
H  46.15000 35.36600 35.78900
N  48.04800 36.94500 28.17200
C  48.08100 37.89700 29.21600
C  48.63300 39.09000 28.72300
C  48.97400 38.88900 27.35400
C  48.63000 37.47600 27.01600
C  49.06000 40.29300 29.55500
C  49.58000 39.95800 26.41300
O  50.15000 39.62400 25.35300
C  49.41800 41.37400 26.73200
N  47.70300 34.84100 26.29000
C  48.36300 35.64100 25.42700
C  48.29800 35.10800 23.96100
C  47.82100 33.61400 24.15100
C  47.31500 33.68200 25.56000
C  47.40200 36.07700 23.14700
C  48.92000 32.52500 24.01000
C  48.51000 31.38400 23.02100
N  46.14900 33.36300 28.39000
C  46.03100 32.42300 27.35400
C  45.25800 31.32200 28.00600
C  44.86200 31.75300 29.24800
C  45.53500 32.96600 29.47800
C  44.97800 29.96300 27.33400
C  44.14900 31.36200 30.43000
O  43.53500 30.34400 30.72000
C  44.36000 32.53100 31.38300
C  44.59100 32.02000 32.75000
O  45.41300 31.21100 33.11100
O  43.70000 32.60900 33.58300
C  43.77300 32.10500 34.95000
H  47.63100 38.57500 31.18200
H  49.14800 37.58200 24.96700
H  46.45300 31.68900 25.50700
H  44.98100 34.85300 33.05700
H  47.11700 36.83300 33.27400
H  44.43200 37.23400 32.78400
H  45.48400 38.51000 32.06900
H  45.55900 38.10100 33.77100
H  47.93100 34.48500 32.87500
H  47.05100 33.14000 33.35800
H  48.22300 34.88900 34.96900
H  47.16800 33.52700 35.43700
H  50.14100 40.38100 29.44500
H  48.77000 40.20500 30.60200
H  48.43300 41.12200 29.22700
H  49.52700 41.94600 25.81000
H  50.08200 41.71000 27.52900
H  48.38100 41.45700 27.05600
H  49.29200 34.97900 23.53200
H  46.88400 33.43500 23.62300
H  48.15100 36.33000 22.39600
H  46.98500 36.90800 23.71600
H  46.57500 35.57700 22.64200
H  49.23800 32.09800 24.96200
H  49.80200 32.96400 23.54300
H  49.27500 31.35200 22.24500
H  47.54200 31.59600 22.56700
H  48.48600 30.44400 23.57300
H  43.94500 29.69200 27.55100
H  45.66700 29.23200 27.75900
H  45.07400 29.99600 26.24900
H  43.44200 33.11800 31.34900
H  43.74800 31.01500 34.96600
H  42.97300 32.55100 35.54000
H  44.77000 32.39400 35.28400

