158

Mg 25.66100 0.56400 28.77700
C  27.53700 0.16400 31.64300
C  22.78600 0.92800 30.77500
C  23.78300 0.70500 26.06700
C  28.44400 -0.42700 26.92000
N  25.21400 0.30600 30.94000
C  26.18500 0.45300 31.91700
C  25.57100 0.82300 33.30500
C  24.05300 0.90100 32.98600
C  23.93700 0.67300 31.45200
C  23.35500 -0.16800 33.84100
C  26.17000 2.06000 33.95500
C  26.31300 1.88400 35.51400
H  25.75500 2.94900 36.49500
N  23.61900 0.89600 28.45900
C  22.63700 1.02800 29.38200
C  21.37000 1.20100 28.73900
C  21.62800 1.17900 27.29800
C  23.07100 0.85100 27.23900
C  20.04900 1.39300 29.44200
C  20.62800 1.37900 26.20200
O  20.85300 1.20200 25.06100
C  19.20700 1.84100 26.53200
N  26.00500 0.08500 26.81300
C  25.14300 0.46300 25.79800
C  25.76100 0.12900 24.37400
C  27.21800 -0.13100 24.71700
C  27.23500 -0.17100 26.18400
C  24.98100 -1.01100 23.69100
C  28.25200 0.96600 24.27600
C  28.47800 1.17000 22.73400
N  27.66900 0.06700 29.19300
C  28.71600 -0.24000 28.33200
C  29.83700 -0.36600 29.13100
C  29.45600 -0.13900 30.47900
C  28.12100 0.06000 30.44500
C  31.30100 -0.71000 28.75400
C  29.97200 -0.12100 31.78700
O  31.08400 -0.44300 32.15700
C  28.68500 0.07600 32.63900
C  28.53400 -0.99300 33.74100
O  27.88500 -1.95100 33.60500
O  29.04500 -0.47400 34.87800
C  28.79600 -1.18500 36.13000
H  21.91400 0.94600 31.43200
H  23.19100 0.67500 25.15000
H  29.30900 -0.65000 26.29200
H  25.80500 0.03400 34.01900
H  23.68900 1.88400 33.28400
H  22.60100 0.42500 34.35800
H  24.00000 -0.64300 34.58000
H  22.85200 -0.91200 33.22400
H  25.56100 2.92000 33.67300
H  27.17500 2.28200 33.59700
H  27.38800 1.86000 35.68900
H  25.82500 0.94800 35.78500
H  20.13100 1.35400 30.52800
H  19.36100 0.56300 29.28200
H  19.75100 2.42300 29.24500
H  19.16400 2.81100 27.02800
H  18.78900 1.08200 27.19300
H  18.56200 1.80600 25.65400
H  25.77500 0.93700 23.64200
H  27.56800 -1.08900 24.33300
H  24.47200 -1.65800 24.40500
H  25.66500 -1.51900 23.01200
H  24.29400 -0.64700 22.92600
H  29.24100 0.57800 24.52000
H  28.20200 1.90000 24.83600
H  28.51700 2.24600 22.56700
H  27.68100 0.70000 22.15800
H  29.39000 0.82700 22.24600
H  31.40200 -0.84200 27.67600
H  31.50700 -1.67200 29.22300
H  31.93000 0.14500 28.99800
H  28.86800 1.03500 33.12200
H  28.38400 -2.17400 35.92700
H  28.04100 -0.58700 36.64200
H  29.69300 -1.23100 36.74700
Mg 42.99000 41.41800 25.42200
C  42.24000 43.84000 27.83900
C  43.76200 39.27900 27.88500
C  43.54600 39.31500 23.00100
C  41.95300 43.92100 22.94000
N  43.19200 41.62000 27.63900
C  42.72300 42.61500 28.42100
C  42.81900 42.23000 29.94100
C  43.36300 40.75400 29.88400
C  43.46300 40.50200 28.38700
C  44.74000 40.56200 30.70500
C  41.49600 42.41500 30.76400
C  41.42300 41.71100 32.14200
H  41.45800 42.66100 33.33000
N  43.64500 39.59100 25.43800
C  43.84900 38.80400 26.53700
C  44.10000 37.48800 26.09700
C  44.20300 37.48900 24.71000
C  43.79900 38.85200 24.29200
C  44.22300 36.28100 27.12100
C  44.51700 36.33100 23.76700
O  44.76500 36.41400 22.55300
C  44.43300 34.91200 24.22600
N  42.65300 41.60000 23.31400
C  43.01200 40.51500 22.53700
C  42.77700 40.76000 20.97000
C  42.11200 42.14400 21.03500
C  42.19900 42.58200 22.49300
C  44.14700 40.76300 20.17500
C  40.68200 42.12100 20.46900
C  39.66600 41.37900 21.29200
N  42.44200 43.46800 25.34800
C  42.10000 44.30400 24.28200
C  41.90100 45.62500 24.83800
C  41.76800 45.41400 26.20500
C  42.13300 44.14000 26.47300
C  41.61400 46.84800 24.02200
C  41.45600 46.17600 27.37300
O  41.07000 47.31300 27.50300
C  41.64600 45.09300 28.57200
C  42.71700 45.64000 29.41100
O  43.89500 45.81800 29.17600
O  42.11200 46.12700 30.62500
C  43.06600 46.84900 31.48200
H  43.79800 38.50200 28.65100
H  43.79700 38.55400 22.25900
H  41.67500 44.67000 22.19500
H  43.44400 42.93200 30.49300
H  42.67900 39.97800 30.22800
H  44.75300 39.90300 31.57400
H  45.13200 41.55900 30.90500
H  45.45500 40.07600 30.04200
H  40.69900 42.25000 30.03800
H  41.34300 43.48800 30.87600
H  42.27900 41.06400 32.33200
H  40.51300 41.11300 32.19900
H  43.50400 35.49900 26.87900
H  43.86200 36.51200 28.12300
H  45.26700 35.96800 27.10600
H  43.54300 34.76600 24.83700
H  45.27000 34.55600 24.82600
H  44.47400 34.23000 23.37600
H  42.04000 40.05400 20.58600
H  42.67500 42.88900 20.47300
H  44.98400 40.35600 20.74300
H  44.42100 41.79100 19.93900
H  44.07200 40.12800 19.29300
H  40.72400 41.62200 19.50000
H  40.38100 43.16200 20.36000
H  39.17400 40.56700 20.75600
H  38.95100 42.13200 21.62200
H  40.03300 40.85200 22.17300
H  42.53000 47.22100 23.56600
H  41.30200 47.71300 24.60700
H  40.77100 46.56000 23.39300
H  40.68900 44.92600 29.06600
H  43.54800 47.71300 31.02400
H  43.88700 46.23100 31.84600
H  42.51000 47.21800 32.34400

