158

Mg 41.07400 41.78500 27.50000
C  40.54300 44.14300 30.04000
C  41.92100 39.59700 29.92700
C  42.00900 39.58400 25.10500
C  40.73200 44.17400 25.14300
N  41.11900 41.88300 29.70700
C  40.79500 42.89300 30.57300
C  40.83900 42.46800 32.05300
C  41.48700 41.07400 31.90900
C  41.57400 40.84100 30.36800
C  42.94500 40.84500 32.61600
C  39.38800 42.41600 32.72000
C  39.31400 41.45000 33.95500
H  38.61700 42.03800 35.14900
N  41.71900 39.82200 27.47700
C  41.99200 39.07500 28.55800
C  42.27500 37.70800 28.17800
C  42.30300 37.67000 26.76300
C  42.02600 39.06200 26.39400
C  42.43200 36.65000 29.16800
C  42.52100 36.51600 25.83300
O  42.52300 36.64800 24.63100
C  42.75800 35.08400 26.28600
N  41.51700 41.84000 25.44900
C  41.77700 40.86600 24.65400
C  41.59000 41.15300 23.17800
C  40.98500 42.59500 23.17900
C  41.04600 42.88800 24.66800
C  42.94700 41.06600 22.41800
C  39.58800 42.58600 22.45200
C  38.43400 41.77000 23.09400
N  40.84100 43.73900 27.53900
C  40.72500 44.61600 26.46000
C  40.59800 46.03400 26.96100
C  40.46600 45.87500 28.40200
C  40.61800 44.46800 28.67700
C  40.56800 47.23700 26.07700
C  40.23300 46.59400 29.58900
O  40.03500 47.73400 29.84700
C  40.23600 45.48100 30.73700
C  41.27900 45.82600 31.65700
O  42.48800 45.82800 31.49000
O  40.72200 46.27600 32.78600
C  41.61600 46.84800 33.81900
H  42.19900 38.88700 30.70900
H  42.10800 38.82200 24.33000
H  40.62300 44.85900 24.30000
H  41.46900 43.18100 32.58400
H  40.82700 40.30100 32.30300
H  43.07400 41.74500 33.21700
H  43.66000 40.69400 31.80700
H  42.81600 39.97900 33.26600
H  38.60700 42.35300 31.96300
H  39.41600 43.43200 33.11400
H  40.27700 41.01500 34.22200
H  38.69300 40.60600 33.65500
H  41.83700 36.92900 30.03800
H  43.45700 36.48100 29.49900
H  42.20500 35.63800 28.83300
H  41.73900 34.85000 26.59500
H  43.47400 35.13400 27.10700
H  43.08900 34.33300 25.56800
H  40.86200 40.47400 22.73500
H  41.63000 43.34600 22.72300
H  43.48000 40.20900 22.82900
H  43.53200 41.98600 22.44100
H  42.66300 40.87300 21.38300
H  39.79100 42.04100 21.53000
H  39.26000 43.59800 22.21200
H  37.58600 42.45200 23.04000
H  38.73200 41.33600 24.04800
H  38.19400 40.95000 22.41600
H  41.40000 47.91300 26.27400
H  39.72500 47.82400 26.44000
H  40.51700 47.05900 25.00300
H  39.32600 45.30200 31.31000
H  42.39100 47.39500 33.28200
H  41.99400 46.07100 34.48400
H  41.14700 47.69800 34.31500
Mg -1.78700 34.09900 26.57800
C  -2.87500 32.23700 29.32700
C  -0.99200 36.63000 28.57900
C  -1.42700 36.07000 23.79000
C  -3.78600 32.01100 24.57300
N  -1.89200 34.27700 28.64200
C  -2.10400 33.33700 29.63300
C  -1.63500 33.83300 31.08700
C  -1.09500 35.19600 30.74800
C  -1.38900 35.42700 29.22900
C  -1.43900 36.43300 31.61100
C  -0.77600 32.94000 31.97800
C  -1.04900 33.02000 33.53000
H  -0.01400 32.38000 34.54000
N  -1.13800 36.02600 26.20000
C  -0.84600 36.87300 27.16900
C  -0.09300 37.95500 26.64200
C  -0.33700 37.90700 25.22200
C  -1.03200 36.65900 25.03700
C  0.78800 38.88200 27.49300
C  0.18700 38.77300 24.06600
O  0.06100 38.56600 22.85800
C  0.88200 40.04500 24.54600
N  -2.34700 34.05200 24.50000
C  -2.01000 34.89100 23.51300
C  -2.60300 34.53800 22.16700
C  -3.27600 33.18400 22.45000
C  -3.14000 33.06700 24.00800
C  -3.56900 35.58200 21.58600
C  -2.77400 32.02700 21.55000
C  -1.62800 31.21900 22.09800
N  -2.91100 32.23800 26.82600
C  -3.74100 31.61600 25.89200
C  -4.43000 30.53400 26.56400
C  -4.08800 30.74700 27.98400
C  -3.20900 31.77500 28.02400
C  -5.20800 29.37600 25.98300
C  -4.24500 30.25500 29.32600
O  -4.95900 29.36500 29.77900
C  -3.49900 31.19300 30.22600
C  -4.39500 31.86100 31.22500
O  -5.14700 32.80700 31.02200
O  -4.19100 31.23500 32.43000
C  -4.76700 31.83700 33.70200
H  -0.50900 37.33200 29.26200
H  -1.30500 36.74200 22.93800
H  -4.47700 31.46700 23.92600
H  -2.54700 33.94200 31.67400
H  -0.01100 35.08300 30.75700
H  -2.00700 36.23300 32.52000
H  -2.03000 37.13000 31.01700
H  -0.53300 37.01000 31.79700
H  0.25400 33.28700 31.89800
H  -0.82300 31.90800 31.63000
H  -1.99500 32.49300 33.65500
H  -1.24400 34.04700 33.83900
H  1.84900 38.87400 27.24000
H  0.58400 38.60600 28.52700
H  0.32900 39.86300 27.37500
H  0.88900 40.84600 23.80600
H  1.89100 39.89100 24.92900
H  0.24500 40.35500 25.37500
H  -1.74300 34.34400 21.52600
H  -4.30700 33.40800 22.17400
H  -3.00200 36.49800 21.42000
H  -4.21600 35.87600 22.41300
H  -4.01900 35.22300 20.66100
H  -2.50700 32.29500 20.52700
H  -3.61400 31.38000 21.29700
H  -0.91200 31.16600 21.27800
H  -2.01300 30.20800 22.22800
H  -1.10100 31.69500 22.92500
H  -4.85700 28.43000 26.39400
H  -5.20600 29.38900 24.89300
H  -6.22400 29.41100 26.37600
H  -2.63100 30.64800 30.59600
H  -4.16500 32.71600 33.93200
H  -4.72300 31.11200 34.51400
H  -5.77800 32.16500 33.45900

