158

Mg 17.47600 -1.36600 27.56500
C  16.35700 0.77900 30.00400
C  19.54000 -2.90200 30.03500
C  18.57300 -3.55500 25.16400
C  15.59800 0.31100 25.24400
N  17.93500 -0.98400 29.70600
C  17.27100 -0.23000 30.54300
C  17.52700 -0.45400 32.01200
C  18.63500 -1.59100 31.96000
C  18.76700 -1.85200 30.46400
C  19.93300 -1.29300 32.64100
C  16.25300 -0.77400 32.93900
C  16.02800 0.15600 34.21400
H  17.22100 0.55200 34.93400
N  18.92900 -2.89300 27.58200
C  19.63000 -3.39600 28.68500
C  20.45800 -4.47700 28.25500
C  20.21200 -4.69900 26.83500
C  19.21700 -3.65700 26.46200
C  21.53500 -5.03700 29.13300
C  20.86300 -5.57100 25.82500
O  20.71300 -5.41100 24.64300
C  21.84200 -6.65500 26.20400
N  17.25300 -1.53500 25.47100
C  17.77300 -2.50700 24.76200
C  17.01900 -2.53600 23.32500
C  15.90200 -1.45100 23.55000
C  16.28500 -0.81900 24.82300
C  18.02300 -2.36100 22.16300
C  14.42500 -1.94000 23.46700
C  13.60300 -1.12600 22.47300
N  16.30700 0.30300 27.56000
C  15.54200 0.88700 26.53800
C  14.73700 1.92300 27.07900
C  15.00900 1.93800 28.41500
C  15.98500 0.93800 28.66200
C  13.87200 2.83800 26.25000
C  14.75500 2.67000 29.64400
O  13.91300 3.59900 29.82000
C  15.51500 1.91600 30.70900
C  16.43800 2.84600 31.38600
O  17.54800 3.02700 30.98800
O  15.78200 3.48500 32.46300
C  16.60300 4.63100 32.93800
H  20.15700 -3.49200 30.71600
H  18.58700 -4.47400 24.57400
H  14.85400 0.72900 24.56200
H  17.99400 0.41100 32.48300
H  18.19900 -2.52100 32.32600
H  20.69700 -1.30500 31.86400
H  20.07500 -2.04100 33.42000
H  19.97300 -0.28100 33.04300
H  16.16300 -1.81200 33.25900
H  15.41100 -0.51100 32.29900
H  15.44200 -0.36200 34.97300
H  15.48400 1.07300 33.98800
H  20.86700 -5.68800 29.69800
H  22.05500 -4.42700 29.87100
H  22.33000 -5.48000 28.53300
H  21.97000 -7.38000 25.40000
H  21.31600 -7.16000 27.01500
H  22.77900 -6.32400 26.65000
H  16.59100 -3.52700 23.16800
H  16.05900 -0.67800 22.79800
H  18.34300 -3.34400 21.81700
H  18.92900 -1.78000 22.33500
H  17.33200 -1.96600 21.41800
H  14.01900 -1.93700 24.47800
H  14.32600 -2.97400 23.13700
H  14.14800 -0.22400 22.19600
H  12.71200 -0.78800 23.00200
H  13.20800 -1.56500 21.55600
H  12.83300 2.51000 26.28000
H  14.24400 2.83500 25.22500
H  13.81800 3.86200 26.62000
H  14.82500 1.50700 31.44700
H  15.92100 4.99400 33.70700
H  16.78900 5.42600 32.21600
H  17.48600 4.27500 33.46800
Mg 42.50000 41.94600 26.21900
C  41.50300 44.27400 28.70000
C  43.41900 39.77400 28.80000
C  43.50900 39.63300 23.93000
C  41.88700 44.21000 23.80000
N  42.33900 41.98500 28.51900
C  41.91900 43.07300 29.25700
C  41.89600 42.64700 30.76200
C  42.66800 41.22400 30.79500
C  42.75500 40.93600 29.26500
C  43.86600 41.02400 31.69200
C  40.47100 42.57700 31.40900
C  40.33700 43.23600 32.75000
H  41.34600 42.97800 33.84600
N  43.37500 40.07000 26.32600
C  43.66500 39.42000 27.48300
C  44.11300 38.07400 27.12900
C  43.97200 37.91800 25.72600
C  43.67400 39.21000 25.21900
C  44.51000 36.91900 28.17400
C  44.16600 36.70500 24.87400
O  44.04500 36.66800 23.66900
C  44.48100 35.35300 25.50800
N  42.75900 41.89600 24.21400
C  43.26200 40.89700 23.43200
C  43.34400 41.28700 21.92900
C  42.69800 42.71800 21.90200
C  42.39700 42.94100 23.43200
C  44.73000 41.14600 21.15600
C  41.40600 42.69000 21.10700
C  40.18600 42.06400 21.81900
N  41.75000 43.82100 26.20600
C  41.58300 44.66000 25.12200
C  41.18700 46.01900 25.59400
C  41.12700 45.86700 27.00900
C  41.45200 44.51900 27.32200
C  40.93200 47.21100 24.79700
C  40.75100 46.53700 28.23600
O  40.52900 47.76300 28.34600
C  41.01400 45.54200 29.42500
C  42.02300 46.10200 30.24500
O  43.01100 46.59700 29.74200
O  41.79200 45.82100 31.56800
C  42.85200 46.28600 32.43300
H  43.50000 38.99300 29.55900
H  43.87500 38.97000 23.14300
H  41.68700 45.01200 23.08700
H  42.47700 43.35200 31.35500
H  42.10400 40.35400 31.13300
H  44.56000 40.41900 31.10900
H  43.66500 40.58000 32.66800
H  44.44900 41.93000 31.85500
H  40.05800 41.57000 31.37400
H  39.92200 43.16200 30.67100
H  39.40000 42.84800 33.14800
H  40.20500 44.31000 32.61500
H  45.45000 36.44100 27.89900
H  43.68500 36.22200 28.31700
H  44.67600 37.40400 29.13600
H  43.86000 35.21900 26.39400
H  45.56300 35.38400 25.63700
H  44.29400 34.46000 24.91100
H  42.73500 40.57300 21.37300
H  43.38800 43.44500 21.47400
H  45.38200 41.96400 21.46100
H  44.56300 41.24500 20.08300
H  45.09800 40.14400 21.37900
H  41.58000 42.06400 20.23200
H  41.19800 43.73400 20.87300
H  39.83500 41.17400 21.29700
H  39.51900 42.92700 21.83700
H  40.36100 41.69700 22.83000
H  41.40500 46.94300 23.85300
H  41.57600 47.92000 25.31900
H  39.90600 47.52800 24.61100
H  40.14800 45.23300 30.01000
H  43.26000 47.25100 32.13300
H  43.71500 45.62800 32.33900
H  42.51500 46.31600 33.46900

