158

Mg 26.19200 -0.27600 29.11600
C  27.85800 -0.65100 32.08100
C  23.17700 0.16600 30.83700
C  24.54100 -0.27900 26.14100
C  29.22600 -0.87600 27.34800
N  25.53100 -0.50300 31.18200
C  26.44900 -0.41200 32.21900
C  25.63200 -0.08100 33.57200
C  24.12900 0.19700 33.04500
C  24.27100 -0.08600 31.56700
C  23.04400 -0.72700 33.81700
C  26.15100 1.04500 34.54000
C  26.46800 0.47200 35.94800
H  27.30100 1.39900 36.82600
N  24.16500 -0.03100 28.60100
C  23.06700 0.16300 29.43900
C  21.84800 0.37200 28.63100
C  22.24600 0.27200 27.22200
C  23.70100 -0.00900 27.27500
C  20.48000 0.55300 29.28100
C  21.45600 0.33300 25.92700
O  21.90300 0.24900 24.79800
C  19.98100 0.49900 26.11200
N  26.81500 -0.49100 27.08900
C  25.95000 -0.52300 26.04100
C  26.60500 -0.90100 24.72200
C  28.10800 -0.66600 25.01800
C  28.07900 -0.66900 26.62500
C  26.22300 -2.34900 24.37300
C  28.74500 0.72400 24.61800
C  29.12300 0.86900 23.06500
N  28.08700 -0.70700 29.60700
C  29.21800 -0.92000 28.78500
C  30.31700 -1.22400 29.67300
C  29.89500 -1.06200 30.96500
C  28.51200 -0.83900 30.84600
C  31.71000 -1.52300 29.28900
C  30.24100 -0.97700 32.34000
O  31.33500 -1.00900 32.96700
C  28.95000 -0.70600 33.13300
C  28.72300 -1.93200 34.05700
O  28.43200 -3.08400 33.77000
O  29.10400 -1.55700 35.33500
C  29.14100 -2.70400 36.30700
H  22.36800 0.49800 31.49100
H  24.09400 -0.38700 25.15100
H  30.14300 -1.04400 26.78000
H  25.68200 -1.04500 34.07900
H  23.90400 1.26100 33.11700
H  22.47400 -1.37700 33.15200
H  22.30600 -0.19100 34.41400
H  23.64500 -1.37900 34.45100
H  25.46200 1.88900 34.57200
H  27.14500 1.29800 34.17200
H  26.88900 -0.52600 35.82500
H  25.47500 0.35700 36.38200
H  20.07900 1.54000 29.05400
H  20.65000 0.54900 30.35700
H  19.83000 -0.27800 29.00600
H  19.51000 0.58100 25.13200
H  19.84100 1.40100 26.70800
H  19.57400 -0.42600 26.52000
H  26.22200 -0.36700 23.85200
H  28.73400 -1.49800 24.69400
H  25.28600 -2.62200 24.85800
H  26.98500 -3.04800 24.71800
H  26.00100 -2.53400 23.32200
H  29.69900 0.99000 25.07400
H  27.99400 1.47600 24.86200
H  28.45900 1.55300 22.53700
H  28.92100 -0.08500 22.57900
H  30.13700 1.22300 22.87900
H  31.91200 -1.22100 28.26100
H  31.89300 -2.59700 29.27600
H  32.44300 -1.13700 29.99700
H  29.06900 0.17600 33.76200
H  28.37300 -2.58000 37.07100
H  30.11500 -2.83400 36.78000
H  28.99000 -3.69600 35.88100
Mg 35.95600 1.10800 29.61400
C  33.87100 2.14800 32.36200
C  38.67800 1.15800 31.62800
C  37.69000 0.49000 26.86700
C  33.10800 1.62400 27.57000
N  36.19100 1.33800 31.77400
C  35.19800 1.84600 32.73000
C  35.80400 1.79500 34.15900
C  37.41900 1.68200 33.83300
C  37.43800 1.29900 32.35700
C  38.37900 2.89000 34.18200
C  35.34200 0.66400 35.09800
C  35.10200 0.89500 36.58700
H  35.57200 2.19800 37.27900
N  37.83300 0.80200 29.28400
C  38.81300 0.92300 30.24300
C  40.11500 0.78800 29.58100
C  39.89000 0.43400 28.24900
C  38.38500 0.48900 28.07600
C  41.44300 0.75700 30.23100
C  40.85200 -0.07200 27.21000
O  40.46500 -0.41600 26.07200
C  42.36500 -0.23800 27.44600
N  35.43900 0.90100 27.52100
C  36.35200 0.74100 26.55900
C  35.74200 0.84100 25.14400
C  34.26500 0.84300 25.48000
C  34.24800 1.03400 26.95800
C  36.35600 2.05400 24.29800
C  33.53300 -0.50100 24.97600
C  32.73100 -0.44100 23.65100
N  33.96200 1.76500 29.89800
C  32.95200 1.95600 28.93100
C  31.76200 2.45800 29.57900
C  32.06300 2.51000 30.95200
C  33.39300 2.14800 31.04400
C  30.44200 2.74800 28.81100
C  31.55300 2.91500 32.29000
O  30.54400 3.35200 32.74900
C  32.74300 2.66300 33.23100
C  32.94200 3.96200 33.96000
O  33.25500 5.02300 33.46600
O  32.58500 3.82400 35.26300
C  32.28200 5.14100 35.98600
H  39.57900 1.21900 32.24300
H  38.35400 0.23500 26.03900
H  32.21300 1.65100 26.94500
H  35.52300 2.77900 34.53300
H  37.82900 0.76300 34.25200
H  38.70400 3.42900 33.29200
H  39.34800 2.64800 34.62000
H  37.69600 3.54600 34.72200
H  35.97800 -0.21700 35.01200
H  34.37000 0.40400 34.67900
H  35.44600 0.04400 37.17400
H  34.02400 0.99300 36.71800
H  41.61900 1.46700 31.03900
H  42.19600 1.05600 29.50100
H  41.73900 -0.24800 30.53200
H  42.84900 0.73800 27.41400
H  42.69100 -0.81500 26.58100
H  42.74000 -0.85900 28.26000
H  35.88500 -0.10200 24.61700
H  33.80100 1.71200 25.01200
H  36.63400 2.90700 24.91900
H  35.50700 2.26100 23.64700
H  37.19600 1.63100 23.74800
H  32.79300 -0.81900 25.71100
H  34.25000 -1.31200 24.85000
H  31.69600 -0.71100 23.86000
H  33.12300 -1.23500 23.01600
H  32.81900 0.53600 23.17600
H  30.24600 2.10700 27.95200
H  30.42900 3.80500 28.54600
H  29.74500 2.61300 29.63800
H  32.50200 1.91300 33.98500
H  31.39000 5.64000 35.60800
H  33.10300 5.83900 36.14900
H  31.99900 4.82600 36.99100

