158

Mg 40.58400 8.67700 29.81400
C  42.19300 10.28400 32.48600
C  38.29100 7.34600 32.13200
C  39.15800 6.88600 27.47000
C  43.30100 9.46300 27.81000
N  40.29800 8.76600 32.08100
C  41.10000 9.54300 32.95100
C  40.50000 9.53600 34.40300
C  39.36200 8.47400 34.27900
C  39.35000 8.10500 32.74900
C  39.56900 7.24300 35.23200
C  39.97200 10.87200 34.88900
C  39.15800 10.82800 36.19500
H  39.59400 11.70000 37.31000
N  38.82800 7.40700 29.77400
C  38.03400 7.01000 30.82000
C  36.96200 6.20000 30.34200
C  37.18600 6.13800 28.93800
C  38.39900 6.82700 28.63800
C  35.89400 5.65800 31.24500
C  36.36000 5.44800 27.84800
O  36.55300 5.58200 26.66500
C  35.18100 4.62700 28.34700
N  41.11300 8.29800 27.85700
C  40.34600 7.51300 27.04300
C  41.02600 7.37700 25.62500
C  42.34200 8.27000 25.78800
C  42.27700 8.72700 27.24700
C  41.36200 5.89100 25.28100
C  42.42900 9.44700 24.77100
C  42.00900 10.93500 25.25300
N  42.32400 9.73200 29.98200
C  43.32900 9.97400 29.10900
C  44.29500 10.94100 29.67100
C  43.92500 11.03100 31.00000
C  42.73900 10.26200 31.11800
C  45.48100 11.52500 29.10700
C  44.24600 11.55800 32.33800
O  45.33200 11.97900 32.72000
C  43.09000 11.13500 33.31400
C  43.74300 10.30300 34.37200
O  44.25400 9.20100 34.23600
O  43.53400 10.94600 35.56000
C  43.74800 10.21400 36.80700
H  37.55900 6.93000 32.82700
H  38.73300 6.25600 26.68600
H  44.18500 9.62400 27.18900
H  41.19500 9.13200 35.13900
H  38.37200 8.90700 34.42100
H  40.40600 7.40500 35.91100
H  39.80600 6.43600 34.53800
H  38.68600 7.00100 35.82400
H  39.24800 11.22600 34.15600
H  40.79600 11.58200 34.95600
H  38.94200 9.83400 36.58700
H  38.15900 11.25400 36.11300
H  35.08900 6.38500 31.35200
H  36.35400 5.49600 32.22000
H  35.38800 4.72000 31.01900
H  35.62900 3.89700 29.02100
H  34.86100 4.23300 27.38200
H  34.34100 5.23300 28.68600
H  40.35300 7.74300 24.85000
H  43.14100 7.62900 25.41400
H  40.64700 5.51100 24.55100
H  41.25100 5.31100 26.19700
H  42.38400 5.68600 24.96300
H  41.83500 9.25800 23.87700
H  43.47200 9.55300 24.47300
H  41.16100 11.26100 24.65000
H  42.78200 11.69100 25.11600
H  41.62800 10.83800 26.27000
H  45.40700 11.52600 28.01900
H  46.34500 10.93000 29.40500
H  45.65000 12.52600 29.50200
H  42.57500 12.00100 33.72900
H  43.44900 9.17900 36.64100
H  43.00400 10.45700 37.56500
H  44.72200 10.29800 37.29000
Mg 42.70500 41.46200 26.79100
C  42.21400 44.08000 29.18300
C  43.33800 39.46800 29.38700
C  43.42300 39.16100 24.56200
C  42.34000 43.91500 24.17800
N  42.83400 41.81800 29.06800
C  42.49100 42.85900 29.80600
C  42.69700 42.71500 31.35100
C  43.14300 41.20100 31.34100
C  43.18500 40.80300 29.83300
C  44.45200 40.83100 32.11300
C  41.36900 43.03300 32.08100
C  41.17600 42.33700 33.39800
H  41.45600 43.23300 34.58800
N  43.29000 39.55000 26.95500
C  43.35300 38.88800 28.11500
C  43.76100 37.51600 27.78200
C  43.90300 37.40100 26.33500
C  43.59400 38.72700 25.84200
C  44.13400 36.50800 28.91300
C  44.14800 36.21300 25.37400
O  44.20300 36.36100 24.10300
C  44.30300 34.86900 25.97100
N  43.06400 41.56800 24.67200
C  43.20200 40.40500 23.96600
C  43.14500 40.63400 22.38300
C  42.48600 42.04200 22.36800
C  42.61200 42.59200 23.82200
C  44.53200 40.53600 21.69800
C  40.98000 41.96000 22.01600
C  40.14600 40.86300 22.74300
N  42.33200 43.59200 26.62900
C  42.18600 44.41900 25.49800
C  41.82200 45.74200 25.95500
C  41.79000 45.62600 27.37400
C  42.15100 44.33000 27.73200
C  41.50000 46.90000 25.07300
C  41.55900 46.37300 28.60500
O  41.06900 47.50500 28.83000
C  41.89600 45.41600 29.78900
C  42.89700 46.13500 30.58100
O  44.11900 46.13700 30.41300
O  42.32900 46.73000 31.71200
C  43.16900 47.24000 32.78500
H  43.50300 38.92900 30.32200
H  43.46600 38.45800 23.72700
H  42.07000 44.61000 23.38000
H  43.45100 43.31800 31.85800
H  42.30000 40.59000 31.66400
H  45.27900 40.50600 31.48200
H  44.20800 39.98300 32.75200
H  44.78800 41.64600 32.75400
H  40.50400 42.94300 31.42400
H  41.40500 44.08700 32.35700
H  41.71400 41.39400 33.50300
H  40.11700 42.12000 33.53900
H  44.10400 36.97900 29.89500
H  45.17100 36.27900 28.66800
H  43.73600 35.49300 28.88200
H  43.31500 34.49100 26.23500
H  45.01400 34.90900 26.79600
H  44.58000 34.15000 25.20000
H  42.50000 39.85000 21.98600
H  43.01800 42.78200 21.77000
H  44.87100 41.39500 21.11900
H  44.34900 39.64500 21.09800
H  45.33200 40.25100 22.38000
H  41.00800 41.78400 20.94000
H  40.41800 42.88800 22.12200
H  39.40900 41.48500 23.25200
H  40.77100 40.29100 23.42900
H  39.64500 40.12700 22.11400
H  41.11100 47.63100 25.78100
H  40.66300 46.68300 24.41000
H  42.34700 47.26100 24.48900
H  41.10400 45.43700 30.53700
H  44.06800 47.72900 32.40800
H  43.52200 46.31900 33.24800
H  42.55900 47.86500 33.43800

