158

Mg 17.23900 -1.34100 28.40200
C  16.16600 0.64400 30.97900
C  19.46500 -2.96400 30.65300
C  18.89400 -2.79700 25.84300
C  15.68200 0.76600 26.16600
N  17.79900 -1.18500 30.53700
C  17.08000 -0.32900 31.43300
C  17.53800 -0.67100 32.92500
C  18.74300 -1.70100 32.75700
C  18.71500 -1.93700 31.18500
C  20.11200 -1.23000 33.26600
C  16.30000 -1.15700 33.81400
C  16.30200 -0.83600 35.33500
H  17.63800 -0.79400 36.06300
N  18.78600 -2.87700 28.32300
C  19.53400 -3.45600 29.31500
C  20.37000 -4.54000 28.81000
C  20.18100 -4.55200 27.35400
C  19.29500 -3.37400 27.12500
C  21.29700 -5.30800 29.75900
C  20.74000 -5.54400 26.30600
O  20.42400 -5.41800 25.12300
C  21.64500 -6.68500 26.69800
N  17.29500 -0.99100 26.32300
C  18.04500 -1.78400 25.49700
C  17.76700 -1.39200 23.95400
C  16.63500 -0.28800 24.02400
C  16.48900 -0.20800 25.57800
C  19.07700 -0.89900 23.21100
C  15.35600 -0.66000 23.25800
C  14.09500 -1.22200 23.98700
N  16.10700 0.41600 28.49600
C  15.49100 1.13500 27.53300
C  14.73500 2.20000 28.15400
C  15.02800 2.07100 29.52300
C  15.90500 0.93400 29.63800
C  13.82400 3.24700 27.48400
C  14.67100 2.67400 30.77100
O  13.91500 3.55500 31.14500
C  15.33700 1.69300 31.78000
C  16.26000 2.55900 32.66700
O  17.20100 3.16700 32.29800
O  15.92100 2.52400 33.98900
C  16.83500 3.24100 34.92300
H  20.02900 -3.43800 31.46000
H  19.35400 -3.29100 24.98400
H  15.05600 1.42800 25.56400
H  17.85600 0.26300 33.38700
H  18.47200 -2.62400 33.26900
H  20.43600 -1.83600 34.11300
H  19.98800 -0.20000 33.60000
H  20.83400 -1.18800 32.45000
H  16.44000 -2.23800 33.81600
H  15.41100 -0.84400 33.26600
H  15.67300 -1.65800 35.67700
H  15.70000 0.07200 35.38200
H  22.33700 -5.26800 29.43400
H  20.94000 -6.33100 29.87400
H  21.29600 -4.80000 30.72300
H  22.02500 -6.68000 27.72000
H  22.51000 -6.70200 26.03400
H  20.94000 -7.50800 26.58900
H  17.39700 -2.29300 23.46500
H  16.97900 0.70000 23.72000
H  18.94300 0.08300 22.75700
H  19.35000 -1.67200 22.49200
H  19.85800 -0.76200 23.95900
H  15.58000 -1.31900 22.42000
H  15.13300 0.28300 22.76100
H  13.26700 -0.51400 24.02100
H  14.38100 -1.52600 24.99400
H  13.79700 -2.04700 23.34000
H  12.92600 3.17700 28.09800
H  13.57700 3.06100 26.43900
H  14.39900 4.16800 27.57900
H  14.57400 1.20700 32.38700
H  16.22300 3.83500 35.60200
H  17.50900 3.90600 34.38300
H  17.45100 2.59400 35.54800
Mg -4.43000 25.47500 26.24000
C  -3.32700 27.11700 29.09600
C  -6.22300 23.41800 28.19600
C  -4.78900 23.41900 23.59800
C  -2.07800 27.41700 24.43800
N  -4.60400 25.22100 28.38000
C  -4.15500 26.03900 29.37100
C  -4.65100 25.63000 30.76100
C  -5.32300 24.25700 30.44200
C  -5.39900 24.26700 28.90000
C  -4.62200 22.93700 31.06100
C  -5.54900 26.68500 31.42900
C  -6.73800 26.22300 32.24600
H  -6.43700 25.16100 33.26800
N  -5.49800 23.73900 25.87300
C  -6.20700 23.07100 26.83300
C  -6.99100 22.02000 26.17800
C  -6.66300 22.14000 24.82400
C  -5.57600 23.08900 24.69900
C  -8.11200 21.28700 26.86100
C  -7.23100 21.37200 23.68500
O  -6.70200 21.42000 22.56700
C  -8.38700 20.35400 23.79200
N  -3.31000 25.33400 24.39000
C  -3.82000 24.47700 23.45800
C  -3.02400 24.70200 22.13400
C  -2.19600 25.98100 22.33100
C  -2.62900 26.28900 23.79500
C  -2.20100 23.48700 21.65600
C  -2.41200 27.24800 21.33200
C  -1.10300 27.84100 20.83300
N  -3.16600 27.05200 26.62000
C  -2.30400 27.78500 25.79900
C  -1.59500 28.78300 26.54800
C  -2.04400 28.61900 27.86600
C  -2.95100 27.54500 27.82600
C  -0.66300 29.77400 26.10400
C  -2.02800 29.12800 29.22700
O  -1.58400 30.18300 29.69900
C  -2.82300 28.09600 30.11700
C  -1.81500 27.56800 31.06600
O  -0.73400 26.99600 30.79400
O  -2.30000 27.77500 32.32000
C  -1.64600 27.10200 33.39400
H  -6.83800 22.71500 28.76200
H  -5.01900 22.94800 22.64000
H  -1.34100 28.05200 23.94100
H  -3.79200 25.54600 31.42700
H  -6.37700 24.32100 30.71400
H  -4.13000 22.51800 30.18300
H  -5.33400 22.26000 31.53200
H  -3.87900 23.26700 31.78700
H  -5.79200 27.44300 30.68400
H  -4.86800 27.19900 32.10800
H  -7.58500 25.96300 31.61200
H  -7.08900 27.16200 32.67400
H  -7.97800 20.22400 26.66300
H  -9.05500 21.47300 26.34600
H  -8.36900 21.48900 27.90100
H  -9.32600 20.83300 24.07100
H  -8.10200 19.63100 24.55600
H  -8.56400 19.74700 22.90400
H  -3.87100 24.95600 21.49700
H  -1.13400 25.82000 22.51800
H  -2.79900 22.78900 21.07000
H  -1.87900 22.97100 22.56000
H  -1.31000 23.75600 21.08900
H  -2.82100 28.09900 21.87500
H  -3.07900 26.98300 20.51200
H  -0.98600 28.83200 21.27300
H  -1.12700 27.97500 19.75200
H  -0.27400 27.22000 21.17200
H  -1.17400 30.70400 25.85400
H  -0.14000 29.39400 25.22600
H  0.01100 29.94400 26.94300
H  -3.50900 28.77400 30.62400
H  -0.70600 26.63200 33.10600
H  -2.29100 26.27900 33.70000
H  -1.45300 27.78900 34.21800

