158

Mg 34.59700 3.23500 29.85200
C  32.29200 3.68400 32.35900
C  37.15800 3.35500 32.06700
C  36.70100 2.49300 27.25200
C  31.90000 3.38300 27.52700
N  34.65500 3.44600 31.96900
C  33.61000 3.58200 32.83300
C  34.15200 3.43900 34.23200
C  35.68900 3.52000 34.10300
C  35.86400 3.50700 32.60400
C  36.39900 4.60500 35.04600
C  33.52400 2.27300 35.09400
C  33.19100 2.43200 36.63400
H  33.95800 3.53400 37.35900
N  36.63500 3.01100 29.69200
C  37.55700 3.08000 30.73100
C  38.96300 2.83200 30.21700
C  38.78300 2.52200 28.84600
C  37.31400 2.60600 28.52000
C  40.21400 3.05600 31.17500
C  39.85600 2.16700 27.90300
O  39.65100 1.96800 26.66400
C  41.23100 2.15900 28.34600
N  34.37700 2.80500 27.69100
C  35.35200 2.60300 26.83200
C  34.82400 2.87700 25.38800
C  33.31900 2.87800 25.53100
C  33.13600 3.06700 27.05300
C  35.38100 4.13900 24.75600
C  32.40900 1.84900 24.75700
C  32.43100 0.43300 25.28000
N  32.56100 3.49200 29.79800
C  31.59100 3.59100 28.80700
C  30.26700 3.87700 29.48000
C  30.57100 3.88500 30.80500
C  31.89900 3.61700 30.98700
C  28.93600 4.00800 28.69100
C  29.90600 4.09100 32.16200
O  28.70600 4.29200 32.43000
C  31.01000 3.87600 33.15700
C  30.96000 5.10800 34.07400
O  31.59400 6.13900 33.93800
O  30.25700 4.79800 35.19500
C  30.39300 5.79200 36.27000
H  37.91700 3.18800 32.83400
H  37.32000 2.45300 26.35400
H  31.02400 3.50800 26.88700
H  33.88500 4.34500 34.77600
H  36.01300 2.49300 34.26900
H  36.72400 5.41700 34.39600
H  37.21100 4.07200 35.54200
H  35.67100 5.00500 35.75100
H  34.17600 1.40000 35.08700
H  32.52500 2.00900 34.74700
H  33.35800 1.47800 37.13500
H  32.11500 2.61100 36.64400
H  40.57300 4.06600 30.97800
H  41.12200 2.50800 30.92200
H  40.01200 3.07800 32.24600
H  41.92000 1.98700 27.51900
H  41.25600 1.22100 28.90100
H  41.67700 2.93800 28.96300
H  35.16100 2.03700 24.78000
H  32.92800 3.82300 25.15500
H  36.01900 4.58800 25.51700
H  34.65400 4.86100 24.38300
H  35.91200 3.85300 23.84700
H  32.71000 1.92000 23.71200
H  31.39100 2.23500 24.80400
H  31.43900 -0.01100 25.19900
H  32.77600 0.37300 26.31200
H  33.15800 -0.09500 24.66300
H  28.21300 3.27800 29.05200
H  29.14600 3.73900 27.65500
H  28.68000 5.06800 28.68900
H  30.68600 2.99600 33.71200
H  29.73600 6.63800 36.06700
H  31.33800 6.23600 36.58200
H  29.88300 5.31300 37.10600
Mg 26.90600 50.93300 26.43000
C  24.93500 51.63900 29.10900
C  29.46900 49.89400 28.64300
C  29.00200 50.25300 23.86900
C  24.58400 52.32200 24.36600
N  27.11500 50.68200 28.49200
C  26.06700 50.89800 29.39700
C  26.49600 50.57800 30.82800
C  28.04600 50.46400 30.71100
C  28.28300 50.38200 29.18400
C  28.80900 51.55700 31.41100
C  25.70400 49.44300 31.40800
C  25.18800 49.46600 32.87800
H  26.18300 49.93500 33.94000
N  28.94100 50.27200 26.24600
C  29.79200 49.88300 27.27600
C  31.04000 49.38800 26.73900
C  30.89300 49.39000 25.27200
C  29.56000 49.95900 25.01600
C  32.12500 48.82600 27.64500
C  31.93700 48.82000 24.28400
O  31.79200 49.00800 23.05100
C  33.13200 48.21300 24.78900
N  26.84000 51.29700 24.44200
C  27.76600 50.90700 23.51700
C  27.18400 50.88100 22.07400
C  25.72500 51.48500 22.29900
C  25.69100 51.67100 23.85100
C  28.04400 51.30800 20.84100
C  24.50100 50.66000 21.79900
C  23.56900 51.24200 20.69600
N  25.03900 51.72400 26.56800
C  24.27400 52.36900 25.70400
C  23.07100 52.79600 26.40900
C  23.26500 52.62500 27.76100
C  24.52700 51.99000 27.81100
C  21.73000 53.38200 25.83300
C  22.79300 52.73700 29.11900
O  21.71000 53.17200 29.48500
C  23.85100 52.08600 30.09900
C  24.31000 53.15100 31.02100
O  24.87800 54.21800 30.76700
O  23.85500 52.75200 32.29400
C  23.91300 53.82000 33.31800
H  30.13700 49.53100 29.42700
H  29.53200 49.89000 22.98600
H  23.72800 52.37200 23.68900
H  26.22300 51.50300 31.33600
H  28.41500 49.56100 31.19700
H  29.35300 50.94000 32.12700
H  28.24200 52.33900 31.91700
H  29.47700 52.11300 30.75300
H  26.14900 48.44800 31.37400
H  24.80400 49.43900 30.79300
H  24.82400 48.45100 33.03800
H  24.31600 50.12100 32.87100
H  32.11700 47.73900 27.72800
H  32.16100 49.28000 28.63500
H  33.13200 49.00600 27.26900
H  32.88700 47.39800 25.47000
H  33.75300 48.99600 25.22500
H  33.56900 47.66500 23.95400
H  26.95700 49.81800 21.99800
H  25.76700 52.50600 21.91900
H  28.42700 50.36100 20.46100
H  28.87900 51.91100 21.19500
H  27.51800 51.99000 20.17300
H  23.86000 50.45100 22.65600
H  24.87900 49.73100 21.37500
H  23.71700 50.71800 19.75200
H  23.71300 52.32100 20.64100
H  22.60200 50.99600 21.13600
H  22.00800 54.41500 25.62300
H  21.00100 53.23000 26.62900
H  21.43900 52.81400 24.95000
H  23.43000 51.22300 30.61400
H  23.83800 54.85700 32.99100
H  24.79600 53.70300 33.94500
H  22.97900 53.73300 33.87400

