158

Mg 47.50200 25.33900 28.20100
C  48.38200 27.58300 30.82400
C  46.77200 23.01300 30.65300
C  46.89200 23.11800 25.83300
C  48.62400 27.60300 25.91700
N  47.61800 25.31300 30.54500
C  47.87700 26.37100 31.36800
C  47.65000 26.04900 32.90100
C  47.36900 24.47100 32.80700
C  47.25200 24.20100 31.25100
C  48.53000 23.63200 33.37200
C  46.53900 26.92800 33.55800
C  45.81600 26.35900 34.76200
H  45.45600 27.35900 35.92000
N  46.79200 23.38400 28.26400
C  46.50700 22.59200 29.33400
C  46.09000 21.29300 28.92500
C  46.01300 21.35600 27.42400
C  46.50400 22.69300 27.10600
C  45.67900 20.22900 29.91100
C  45.47400 20.41200 26.40100
O  45.30300 20.74900 25.23900
C  45.16100 19.00400 26.86100
N  47.70200 25.39500 26.13700
C  47.49300 24.27400 25.34800
C  47.99200 24.45000 23.90500
C  48.40500 25.95500 23.86100
C  48.20000 26.36500 25.37000
C  49.04800 23.43400 23.55300
C  47.50300 26.84000 22.92700
C  48.13800 27.74800 21.92800
N  48.21300 27.29100 28.27500
C  48.63900 28.11700 27.24400
C  49.18200 29.37900 27.77300
C  49.04900 29.22100 29.18300
C  48.55000 27.91800 29.40000
C  49.73200 30.54900 26.94700
C  49.27500 29.87000 30.46900
O  49.68400 30.99800 30.68800
C  48.86300 28.80600 31.53500
C  50.04800 28.49900 32.46300
O  51.05800 27.93100 32.16500
O  49.69400 28.86700 33.75400
C  50.54900 28.26100 34.76400
H  46.52800 22.26900 31.41400
H  46.81800 22.41700 24.99900
H  48.98900 28.23400 25.10400
H  48.60200 26.21900 33.40300
H  46.35000 24.27000 33.13800
H  49.02300 23.04600 32.59600
H  48.05700 22.91500 34.04200
H  49.18200 24.35300 33.86500
H  45.84700 27.09100 32.73200
H  47.01900 27.85600 33.86700
H  46.24700 25.45000 35.18200
H  44.92400 25.85400 34.39200
H  46.42200 19.44000 30.02000
H  44.76800 19.78200 29.51300
H  45.48600 20.56700 30.92900
H  44.83100 18.46000 25.97700
H  44.43100 18.91900 27.66500
H  46.06400 18.57900 27.30100
H  47.08700 24.27800 23.32300
H  49.43400 26.19600 23.59700
H  49.97800 23.96000 23.76900
H  49.07300 23.32600 22.46800
H  49.00800 22.43400 23.98400
H  46.94200 27.53300 23.55400
H  46.64100 26.36400 22.45900
H  47.67800 27.66400 20.94300
H  49.21000 27.57800 21.82000
H  47.98300 28.76300 22.29300
H  49.51500 30.45200 25.88300
H  50.79700 30.65300 27.15700
H  49.27400 31.43400 27.38900
H  47.94200 29.02500 32.07500
H  51.39300 28.88500 35.06100
H  50.90800 27.25100 34.56800
H  49.88500 28.13200 35.61900
Mg 49.60800 45.37100 42.35500
C  46.61500 45.93700 40.77100
C  49.40200 42.10500 41.04400
C  52.90200 44.98800 42.95600
C  49.85700 48.89800 42.75600
N  48.24000 44.19400 41.09400
C  47.08200 44.65100 40.49700
C  46.36000 43.68900 39.65700
C  47.22300 42.36300 39.88000
C  48.31300 42.85700 40.86200
C  46.30200 41.21500 40.44500
C  46.32500 44.21900 38.21400
C  44.99600 44.10900 37.47200
H  44.97000 43.32800 36.09400
N  50.89900 43.73400 42.11700
C  50.67600 42.50400 41.57400
C  51.95600 41.74600 41.57200
C  52.83700 42.48800 42.47500
C  52.26200 43.79400 42.54700
C  52.15100 40.36500 40.96800
C  54.09500 41.97200 42.98700
O  54.37600 40.77400 42.94600
C  55.10600 42.82900 43.67100
N  51.19500 46.71500 42.63500
C  52.42500 46.32400 42.96200
C  53.34100 47.51700 43.35600
C  52.31000 48.73100 43.45300
C  51.07300 48.14100 42.79700
C  54.12000 47.23400 44.65100
C  52.87200 50.05900 42.84500
C  52.61700 51.39500 43.62100
N  48.37300 47.00800 42.17900
C  48.60800 48.36400 42.45900
C  47.30400 49.11000 42.31700
C  46.45600 48.14200 41.65900
C  47.22000 46.94100 41.52300
C  47.18200 50.62300 42.66600
C  45.10700 47.92900 41.16600
O  44.10300 48.58400 41.24600
C  45.18900 46.50500 40.49200
C  44.03300 45.74000 40.98700
O  43.02300 45.55700 40.36200
O  44.15500 45.40200 42.26800
C  42.98200 44.70100 42.78700
H  49.30900 41.08500 40.66700
H  53.99200 44.94900 42.90500
H  49.86100 49.98900 42.79900
H  45.33900 43.43800 39.94500
H  47.75700 41.94000 39.02900
H  46.13100 40.49100 39.64900
H  45.32500 41.57100 40.77100
H  46.81400 40.80000 41.31400
H  47.04300 43.65500 37.61800
H  46.79000 45.20200 38.14000
H  44.52200 45.09100 37.44700
H  44.35200 43.41800 38.01600
H  53.16300 40.25200 40.57700
H  51.45800 40.36500 40.12700
H  51.93900 39.55700 41.66800
H  54.84600 43.34000 44.59800
H  55.58700 43.55100 43.01100
H  55.91800 42.13000 43.87300
H  54.09400 47.79800 42.61900
H  51.86500 48.79400 44.44600
H  53.84100 48.05800 45.30800
H  55.17500 47.18800 44.38100
H  53.81800 46.23600 44.96700
H  52.45500 50.13400 41.84100
H  53.93800 49.96800 42.63700
H  52.48000 52.21400 42.91400
H  53.50100 51.53800 44.24200
H  51.75600 51.30100 44.28300
H  47.61100 51.17100 41.82700
H  47.73600 50.92900 43.55400
H  46.19300 50.86800 43.05500
H  45.18700 46.67200 39.41500
H  42.14700 45.35700 43.03500
H  43.31900 44.00000 43.55100
H  42.58800 43.99400 42.05700

