158

Mg 43.07700 4.49200 46.98000
C  40.83000 7.26200 46.56700
C  40.43000 2.28400 46.94600
C  45.29400 1.94500 46.51600
C  45.64100 6.74700 45.87400
N  40.95600 4.79700 46.74600
C  40.21300 6.02700 46.66400
C  38.76200 5.74200 46.53500
C  38.64900 4.20900 46.78700
C  40.06500 3.70200 46.91100
C  37.86200 3.72000 48.05100
C  38.01500 6.23300 45.20500
C  38.71700 5.67400 43.96900
H  39.30300 6.78600 42.99800
N  42.89600 2.38200 46.83300
C  41.73600 1.67700 46.87500
C  42.05800 0.23400 46.88900
C  43.50700 0.09800 46.88100
C  43.95800 1.50400 46.78700
C  40.94200 -0.88000 47.00900
C  44.36600 -1.13200 46.91200
O  43.88900 -2.22000 47.13900
C  45.88700 -1.17400 46.63900
N  45.18600 4.40800 46.32700
C  45.85900 3.25700 46.38400
C  47.36600 3.45000 46.00800
C  47.47900 4.98100 45.74200
C  46.01000 5.44500 46.01100
C  48.27400 2.94200 47.13400
C  48.01400 5.33100 44.38300
C  47.22000 5.04800 43.16200
N  43.27200 6.61600 46.54400
C  44.37500 7.34600 46.16900
C  44.03700 8.75600 46.12800
C  42.73700 8.75500 46.30000
C  42.23300 7.44100 46.53600
C  44.96000 9.94700 45.85200
C  41.59200 9.61400 46.48600
O  41.57600 10.82500 46.43500
C  40.29200 8.70000 46.55000
C  39.38600 8.88800 47.68700
O  39.25200 8.11700 48.64500
O  38.51500 9.85100 47.39300
C  37.25300 9.97800 48.01300
H  39.55700 1.62800 46.97300
H  46.07500 1.19700 46.36100
H  46.46700 7.44700 45.72900
H  38.20700 6.18800 47.36000
H  38.11300 3.65400 46.01600
H  38.56500 3.28100 48.76000
H  37.04600 3.06000 47.75800
H  37.61400 4.64100 48.57900
H  37.89500 7.31700 45.20000
H  36.97600 5.90700 45.23400
H  37.92600 5.20800 43.38200
H  39.47900 4.99900 44.35900
H  40.09600 -0.42800 47.52800
H  41.34200 -1.76000 47.51200
H  40.63500 -1.10000 45.98600
H  46.53700 -0.69800 47.37400
H  46.00100 -0.74500 45.64400
H  46.22800 -2.20000 46.50700
H  47.51300 2.89800 45.07900
H  48.08200 5.40900 46.54400
H  49.07800 2.31100 46.75700
H  47.59500 2.32900 47.72700
H  48.81400 3.67900 47.72800
H  48.95700 4.81100 44.20900
H  48.17500 6.40300 44.26800
H  47.68500 4.36800 42.44800
H  47.02200 5.92800 42.55100
H  46.25300 4.72900 43.55200
H  45.34500 10.07400 44.84000
H  45.87900 9.77600 46.41400
H  44.43300 10.85700 46.13800
H  39.72300 8.76500 45.62300
H  36.46800 9.96900 47.25700
H  37.27600 10.89500 48.60100
H  37.04500 9.14500 48.68500
Mg 7.02500 53.92100 41.38800
C  5.83100 50.77400 40.47600
C  10.18100 53.15600 40.44500
C  7.81100 57.40800 41.44000
C  3.65900 54.80700 42.11500
N  7.82000 52.22400 40.32400
C  7.16100 51.02000 40.12300
C  8.18200 49.91500 39.71700
C  9.54400 50.62600 40.13600
C  9.21500 52.11400 40.24100
C  10.24800 50.04800 41.42500
C  8.02300 49.49200 38.23600
C  7.00900 50.02400 37.18900
H  6.67800 49.17900 36.01600
N  8.78000 55.04800 41.01700
C  9.95300 54.52300 40.63300
C  10.95500 55.49700 40.72600
C  10.34200 56.76100 40.98400
C  8.84800 56.45600 41.15300
C  12.42300 55.25300 40.28300
C  10.98200 58.08200 41.07300
O  12.19600 58.11200 40.80000
C  10.34400 59.36900 41.42100
N  5.88300 55.86500 41.73100
C  6.42200 57.10000 41.60200
C  5.37900 58.19300 41.94000
C  4.11800 57.36100 42.25200
C  4.51700 55.92700 41.96400
C  5.81600 59.31000 43.00300
C  2.82300 57.74400 41.42400
C  1.81300 58.66100 42.15700
N  5.08600 52.98200 41.52400
C  3.87400 53.49900 41.78200
C  2.92400 52.40900 41.77100
C  3.62900 51.33300 41.21800
C  4.94300 51.73500 41.05900
C  1.47900 52.44000 42.25100
C  3.56700 49.82300 40.89300
O  2.69300 48.99600 41.03300
C  5.01700 49.49700 40.57900
C  4.90200 48.54700 39.38000
O  4.28500 48.65600 38.35600
O  5.67800 47.39000 39.66200
C  5.50700 46.20800 38.77000
H  11.25200 52.96700 40.54200
H  8.06000 58.46000 41.59700
H  2.62600 55.01400 42.40500
H  7.99500 49.06000 40.36700
H  10.26300 50.44400 39.33700
H  10.63700 50.91500 41.95900
H  11.05200 49.38900 41.09800
H  9.56200 49.43100 42.00500
H  7.82800 48.42500 38.13000
H  8.90900 49.63700 37.61700
H  7.23800 51.04700 36.89100
H  6.04100 50.25100 37.63500
H  12.68300 55.99100 39.52500
H  12.54400 54.23400 39.91700
H  13.06300 55.43300 41.14700
H  9.84800 59.13300 42.36300
H  9.76100 59.59900 40.52900
H  11.12700 60.10600 41.59700
H  5.16600 58.66800 40.98200
H  3.93800 57.39400 43.32600
H  6.83900 59.15200 43.34400
H  5.10400 59.33000 43.82800
H  5.69300 60.25300 42.46900
H  2.30300 56.86300 41.04800
H  3.08400 58.23400 40.48600
H  0.96700 58.05900 42.48800
H  1.50500 59.53100 41.57800
H  2.24800 59.05900 43.07400
H  1.44700 52.71600 43.30500
H  1.05800 51.45400 42.05900
H  1.04300 53.21900 41.62500
H  5.33700 48.93200 41.45500
H  5.30900 45.26000 39.27100
H  6.31300 45.99200 38.06900
H  4.70000 46.25800 38.03900

