158

Mg 50.33300 46.15400 42.10300
C  47.20500 47.30400 40.94400
C  49.40700 42.91800 41.02300
C  53.53100 45.22800 42.35700
C  51.24200 49.48300 42.90300
N  48.47400 45.31400 41.13600
C  47.31100 45.90000 40.80500
C  46.36800 44.95700 40.15200
C  46.95800 43.61400 40.54800
C  48.42500 43.93400 40.90200
C  46.13300 42.78100 41.63900
C  46.38500 45.24200 38.58400
C  45.01500 45.29000 37.83600
H  44.71900 44.27500 36.67100
N  51.32000 44.30000 41.77800
C  50.76000 43.10100 41.40000
C  51.81800 42.05900 41.39900
C  53.01800 42.70100 41.76500
C  52.67300 44.12100 42.02600
C  51.56900 40.67500 40.93200
C  54.37500 42.08800 41.89900
O  54.56000 41.01400 41.40900
C  55.57300 42.70700 42.60400
N  52.17900 47.22900 42.43600
C  53.32200 46.61500 42.57700
C  54.43600 47.58300 42.95300
C  53.67200 48.89900 43.37300
C  52.23500 48.51800 42.83600
C  55.46000 46.99800 43.94400
C  54.23400 50.26700 42.86300
C  54.22500 51.44100 43.95700
N  49.40100 48.04700 42.06200
C  49.90500 49.30100 42.43300
C  48.86200 50.25100 42.21900
C  47.81000 49.57400 41.56200
C  48.15800 48.19800 41.53700
C  48.98800 51.71700 42.42000
C  46.50200 49.73300 40.88100
O  45.73200 50.68000 40.63300
C  46.11600 48.31800 40.45900
C  44.77700 48.01000 41.12500
O  44.54300 47.96400 42.28900
O  43.80800 48.00900 40.19400
C  42.45600 48.28200 40.59900
H  49.22600 41.89500 40.68700
H  54.54400 44.83300 42.25400
H  51.66400 50.40300 43.31300
H  45.33100 45.12500 40.44100
H  46.97200 43.08500 39.59500
H  45.59800 41.94800 41.18500
H  45.33400 43.32200 42.14700
H  46.74000 42.38900 42.45500
H  47.02100 44.59400 37.98100
H  46.92200 46.14900 38.30500
H  44.78700 46.28200 37.44500
H  44.31100 45.07700 38.64000
H  52.08700 40.52700 39.98500
H  50.51700 40.45000 40.75300
H  51.98900 39.95600 41.63500
H  55.18500 43.19800 43.49600
H  56.08600 43.36400 41.90200
H  56.23700 41.98100 43.07100
H  54.89800 47.81400 41.99300
H  53.64100 48.87100 44.46200
H  55.81600 47.81700 44.56800
H  56.32100 46.62500 43.38900
H  54.96300 46.22700 44.53300
H  53.69100 50.48700 41.94300
H  55.28600 50.04700 42.68000
H  53.45900 52.11500 43.57500
H  55.24700 51.78400 44.12200
H  53.93300 51.17400 44.97300
H  47.99000 52.14800 42.33600
H  49.67600 52.08100 41.65700
H  49.39700 51.82100 43.42500
H  46.10300 48.33600 39.37000
H  41.73600 47.55100 40.23300
H  42.11400 49.29800 40.40200
H  42.38000 48.30800 41.68600
Mg 0.45700 43.28300 25.43700
C  2.23000 43.05900 28.28600
C  -2.46300 42.52500 27.23200
C  -1.16400 42.26400 22.59900
C  3.33100 43.87100 23.54000
N  -0.06600 42.81000 27.56100
C  0.82800 42.91800 28.59700
C  0.21800 42.83300 30.00900
C  -1.29800 42.72300 29.54100
C  -1.28800 42.61400 28.03800
C  -2.13800 41.56300 30.27800
C  0.51900 44.02800 31.07700
C  0.92200 43.74100 32.46600
H  0.61300 42.30600 33.16400
N  -1.47200 42.57900 24.92500
C  -2.49800 42.51800 25.83300
C  -3.75000 42.43600 25.08500
C  -3.39300 42.20700 23.73600
C  -1.96000 42.35100 23.73400
C  -5.08200 42.63300 25.81800
C  -4.32100 41.98200 22.42900
O  -3.92100 42.11800 21.29700
C  -5.72700 41.74900 22.66700
N  1.05000 42.99500 23.31600
C  0.15800 42.57600 22.40200
C  0.83700 42.64400 20.98400
C  2.13600 43.50900 21.31300
C  2.18000 43.46100 22.83900
C  1.14800 41.31700 20.29200
C  2.19800 44.99400 20.75700
C  2.26000 46.12300 21.76100
N  2.46900 43.41900 25.80200
C  3.51800 43.70300 24.93500
C  4.70100 43.83100 25.77300
C  4.26200 43.61800 27.08200
C  2.85100 43.30200 27.05800
C  6.10000 44.19300 25.35000
C  4.67300 43.51300 28.45700
O  5.79000 43.62500 28.95100
C  3.43900 43.09800 29.28900
C  3.73300 41.89300 30.14700
O  3.38100 40.75300 29.88200
O  4.37700 42.30500 31.33100
C  4.83400 41.19700 32.18900
H  -3.35700 42.47400 27.85700
H  -1.69900 41.78100 21.77800
H  4.23100 44.26800 23.06600
H  0.60100 41.93900 30.50100
H  -1.81200 43.64200 29.82300
H  -2.84600 42.08700 30.92000
H  -1.48800 40.88200 30.82800
H  -2.74600 41.09900 29.50200
H  -0.41000 44.58500 31.20100
H  1.23500 44.72300 30.63800
H  0.37900 44.30800 33.22100
H  1.97500 44.00300 32.57500
H  -5.83400 43.09000 25.17500
H  -4.99500 43.32000 26.66000
H  -5.56300 41.78500 26.30500
H  -5.85200 41.03300 23.48000
H  -6.22900 41.42700 21.75500
H  -6.26200 42.69200 22.77200
H  0.09800 43.20200 20.40900
H  3.05100 42.98000 21.04900
H  1.24500 40.60500 21.11200
H  2.13500 41.32000 19.83100
H  0.39900 41.11100 19.52800
H  1.45000 45.31600 20.03200
H  3.16000 44.93000 20.24700
H  1.28600 46.14400 22.25000
H  2.38000 47.14800 21.41200
H  2.93600 46.04700 22.61200
H  6.32500 45.11800 25.88100
H  6.24400 44.21700 24.27000
H  6.85500 43.50500 25.73000
H  3.48000 43.90200 30.02500
H  5.54400 40.63700 31.58200
H  3.93800 40.67100 32.51800
H  5.28200 41.73000 33.02800

