158

Mg 16.89800 52.97800 26.85200
C  18.72000 51.21800 29.32700
C  14.65500 53.70400 29.26400
C  14.92700 54.20700 24.50500
C  18.99400 51.51000 24.35100
N  16.80400 52.66300 28.99900
C  17.67100 51.95500 29.81600
C  17.25500 51.92800 31.28100
C  15.75800 52.28600 31.09300
C  15.77700 52.98000 29.72300
C  14.95600 50.97700 31.30000
C  18.08900 53.01700 31.98800
C  18.47600 52.81400 33.43700
H  17.40700 52.08900 34.26700
N  15.08900 53.97700 26.87300
C  14.36200 54.25200 27.99200
C  13.22700 55.01800 27.63100
C  13.16900 54.99100 26.22900
C  14.45300 54.40100 25.77700
C  12.28700 55.55700 28.68500
C  11.98900 55.45700 25.28200
O  12.22500 55.53800 24.08900
C  10.60200 55.92200 25.81700
N  17.09700 53.02900 24.73400
C  16.05700 53.60800 24.01000
C  16.26100 53.34700 22.49600
C  17.62100 52.57500 22.49800
C  17.93700 52.44400 23.97000
C  15.11400 52.58500 21.90900
C  18.69700 53.14800 21.54800
C  19.71300 54.19700 22.04300
N  18.53300 51.59200 26.77500
C  19.30100 51.16000 25.73900
C  20.41700 50.43800 26.30800
C  20.26900 50.43900 27.69500
C  19.05500 51.05600 27.92400
C  21.56400 49.90900 25.49000
C  20.83700 50.13200 28.97000
O  21.95000 49.74100 29.26900
C  19.84500 50.61700 30.04700
C  19.46400 49.44900 30.95400
O  18.83400 48.49400 30.51400
O  19.78500 49.63200 32.29600
C  19.24200 48.68500 33.27700
H  13.97900 53.94600 30.08700
H  14.48200 54.75300 23.67100
H  19.50200 50.93500 23.57400
H  17.60900 51.06100 31.83900
H  15.38200 52.90800 31.90600
H  15.09700 50.27000 30.48200
H  13.87600 51.02700 31.43400
H  15.36600 50.50900 32.19500
H  17.55200 53.96500 32.00900
H  19.01800 53.19100 31.44600
H  18.71800 53.79300 33.85100
H  19.41300 52.25900 33.40000
H  11.96400 56.56000 28.40700
H  12.72600 55.48000 29.68000
H  11.35200 54.99800 28.70900
H  10.00100 55.16000 26.31300
H  9.92800 56.34200 25.07100
H  10.82200 56.80500 26.41700
H  16.37500 54.30000 21.98100
H  17.42800 51.55400 22.17000
H  14.57700 53.17400 21.16500
H  14.49500 52.11600 22.67400
H  15.57700 51.73400 21.41100
H  18.21100 53.88100 20.90300
H  19.17800 52.35800 20.97200
H  19.41500 54.50900 23.04400
H  19.67200 55.09000 21.42000
H  20.73300 53.81800 22.10000
H  21.97500 50.62900 24.78200
H  21.08400 49.17400 24.84200
H  22.36700 49.37700 25.99900
H  20.35200 51.28700 30.74200
H  19.61500 47.69100 33.03000
H  18.15800 48.58500 33.20900
H  19.63100 49.07400 34.21800
Mg -12.21100 37.49500 41.84900
C  -10.32200 34.80800 40.45500
C  -10.11900 39.61100 40.36500
C  -14.46300 39.89400 42.66500
C  -14.55900 35.01000 42.86800
N  -10.48600 37.22600 40.64100
C  -9.85600 36.06300 40.07800
C  -8.66100 36.40000 39.12500
C  -8.52000 37.91800 39.33400
C  -9.79100 38.26000 40.23200
C  -7.15900 38.47600 39.84500
C  -8.71600 35.81300 37.68600
C  -7.41200 35.18000 37.00700
H  -6.71500 35.93600 35.96900
N  -12.23500 39.49900 41.62100
C  -11.23800 40.17000 41.03200
C  -11.58000 41.58300 41.11900
C  -12.73600 41.71500 41.85300
C  -13.22500 40.36700 42.07000
C  -10.75800 42.67100 40.50200
C  -13.53900 43.03900 42.18300
O  -13.18000 44.17400 41.74800
C  -14.71800 43.00200 43.07900
N  -14.34000 37.49500 42.35000
C  -15.02700 38.57100 42.85500
C  -16.34200 38.25200 43.45800
C  -16.26100 36.72200 43.62200
C  -15.02400 36.37200 42.78800
C  -16.74700 39.07700 44.71500
C  -17.50700 35.99200 43.09800
C  -18.19600 34.85700 43.98600
N  -12.42300 35.37300 41.71600
C  -13.36300 34.47100 42.32900
C  -12.87100 33.08000 42.31500
C  -11.72300 33.20500 41.48500
C  -11.46000 34.62000 41.22100
C  -13.45800 31.77300 42.84700
C  -10.65500 32.42200 40.93600
O  -10.52600 31.23100 40.99400
C  -9.72100 33.39600 40.16500
C  -8.23600 33.27200 40.47300
O  -7.44900 32.50900 39.89900
O  -8.05800 33.99800 41.65200
C  -6.80200 33.81200 42.41800
H  -9.38300 40.28400 39.92100
H  -15.22400 40.60300 43.00000
H  -15.24200 34.33600 43.38900
H  -7.76300 36.02200 39.61400
H  -8.66100 38.43300 38.38400
H  -6.50900 37.67000 39.50500
H  -7.26300 38.71400 40.90300
H  -6.99200 39.48500 39.46900
H  -9.11300 36.55900 36.99800
H  -9.34200 34.92000 37.68000
H  -7.58800 34.18200 36.60500
H  -6.65000 35.07200 37.78000
H  -10.63400 43.46900 41.23400
H  -11.21600 42.95400 39.55400
H  -9.74000 42.34700 40.28400
H  -15.57400 42.62300 42.52200
H  -14.85300 43.95800 43.58400
H  -14.53900 42.30800 43.90100
H  -17.18000 38.48200 42.80000
H  -15.97400 36.50400 44.65100
H  -16.11100 39.87800 45.09200
H  -16.89900 38.44300 45.58800
H  -17.76400 39.46200 44.64000
H  -17.14400 35.50100 42.19500
H  -18.25900 36.75800 42.90900
H  -19.27400 34.87700 43.82200
H  -17.97800 35.05600 45.03500
H  -17.71600 33.90300 43.76700
H  -14.49900 31.77300 42.52400
H  -13.37900 31.82800 43.93300
H  -12.91000 30.88800 42.52400
H  -10.02400 32.89100 39.24700
H  -6.78400 34.64500 43.12000
H  -6.03700 33.95500 41.65500
H  -6.62400 32.93000 43.03400

