158

Mg 41.35200 40.99400 26.89000
C  40.71300 43.28700 29.57100
C  42.30500 38.79700 29.39200
C  42.08100 38.92700 24.56000
C  40.85900 43.67300 24.60000
N  41.45100 41.02800 29.20800
C  41.11400 42.01500 30.05700
C  41.04200 41.55000 31.51100
C  41.91900 40.29400 31.43400
C  41.93800 40.00400 29.89500
C  43.44000 40.56600 32.00400
C  39.63300 41.38400 32.13700
C  39.25600 42.36500 33.30700
H  38.48800 41.77900 34.51200
N  41.95700 39.09000 27.00600
C  42.26700 38.40200 28.14000
C  42.67800 37.03200 27.76300
C  42.68900 37.03800 26.31300
C  42.15100 38.36900 25.87300
C  42.97200 35.89200 28.70300
C  43.07500 35.92900 25.36700
O  42.91300 35.96800 24.17000
C  43.60300 34.64600 25.89600
N  41.64700 41.31500 24.84200
C  41.77400 40.17700 24.10700
C  41.73500 40.52500 22.60700
C  41.22700 41.96600 22.67600
C  41.26600 42.34700 24.10800
C  43.07300 40.30800 21.96500
C  39.90200 42.31400 21.98700
C  38.63400 41.74200 22.63100
N  40.75900 42.99700 26.96900
C  40.70600 43.99300 26.01200
C  40.33300 45.26300 26.58700
C  40.31500 44.98000 27.99500
C  40.61600 43.59600 28.14500
C  40.02400 46.56800 25.85200
C  40.07400 45.69700 29.25600
O  39.92000 46.92000 29.41500
C  40.30400 44.57400 30.34400
C  41.36600 45.09900 31.31600
O  42.56100 44.93700 31.19000
O  40.82000 45.75500 32.38800
C  41.69600 46.41300 33.43400
H  42.66800 38.09300 30.14400
H  42.29800 38.18800 23.78600
H  40.65700 44.43500 23.84500
H  41.63000 42.30100 32.04000
H  41.42400 39.42800 31.87300
H  44.14300 40.62200 31.17300
H  43.64500 39.89400 32.83700
H  43.52600 41.54400 32.47700
H  39.50500 40.37500 32.53000
H  38.88600 41.62500 31.38100
H  38.69000 43.19300 32.87800
H  40.15600 42.80300 33.73700
H  42.28400 35.05500 28.58200
H  42.91100 36.24300 29.73300
H  43.95900 35.50300 28.45300
H  42.79300 34.23000 26.49500
H  44.51500 34.76100 26.48200
H  43.66700 34.02400 25.00300
H  41.05000 39.83100 22.12000
H  41.92600 42.63800 22.17700
H  43.13600 39.36200 21.42600
H  43.83000 40.26700 22.74800
H  43.31500 41.05400 21.20800
H  39.92900 41.80700 21.02200
H  39.80200 43.39500 21.88300
H  38.87500 41.10000 23.47900
H  37.97600 41.24300 21.91900
H  38.13500 42.62200 23.03700
H  39.62400 47.29700 26.55700
H  39.23700 46.40600 25.11600
H  40.88900 47.02800 25.37300
H  39.36400 44.47500 30.88600
H  42.76300 46.30800 33.23300
H  41.55500 45.86200 34.36400
H  41.42100 47.44500 33.65100
Mg 16.80800 53.84200 26.46700
C  18.93600 52.06300 28.71900
C  14.75300 54.48400 29.15200
C  14.75800 55.33300 24.36700
C  18.96900 52.95900 23.89800
N  16.85400 53.33700 28.68200
C  17.83900 52.66000 29.33100
C  17.47900 52.57800 30.79600
C  15.97600 53.03600 30.86600
C  15.79000 53.63900 29.47000
C  14.93900 51.90400 31.22600
C  18.53700 53.49600 31.53800
C  18.83200 53.16500 32.98800
H  17.78000 52.36900 33.78100
N  15.05300 54.92400 26.67900
C  14.38300 55.10700 27.89700
C  13.27400 56.03600 27.67800
C  13.27300 56.35500 26.32700
C  14.42300 55.52200 25.66700
C  12.30800 56.40900 28.70300
C  12.26800 57.12900 25.55000
O  12.27300 57.16700 24.32600
C  11.22500 57.93000 26.24100
N  16.83600 54.05000 24.43800
C  15.82700 54.65400 23.72500
C  16.21700 54.79900 22.25200
C  17.74300 54.58400 22.30000
C  17.88500 53.79700 23.60300
C  15.29300 53.89000 21.39200
C  18.57400 55.91100 22.28800
C  19.91700 55.93000 21.49400
N  18.54700 52.66800 26.26400
C  19.31100 52.42000 25.16400
C  20.49200 51.66200 25.51700
C  20.29900 51.41300 26.88400
C  19.13500 52.11200 27.30400
C  21.66200 51.37000 24.76800
C  20.89900 50.74700 28.04600
O  21.89400 50.06400 28.19800
C  20.00400 51.17000 29.26900
C  19.36700 49.94700 29.92400
O  18.43800 49.23100 29.52100
O  19.98500 49.68800 31.13500
C  19.29800 48.81800 32.02900
H  14.14200 54.77000 30.01100
H  14.03900 55.72200 23.64300
H  19.63000 52.66600 23.08000
H  17.48000 51.55000 31.15800
H  15.91000 53.86700 31.57000
H  14.50200 52.23400 32.16900
H  15.46300 50.98200 31.47900
H  14.24200 51.81100 30.39400
H  18.17200 54.52200 31.48800
H  19.50100 53.66400 31.05800
H  19.06300 54.10200 33.49400
H  19.64700 52.44700 32.89600
H  11.34700 55.89600 28.73900
H  12.16100 57.48500 28.79700
H  12.76700 56.20500 29.67100
H  10.94100 58.74900 25.57900
H  11.63200 58.44900 27.10800
H  10.26300 57.42500 26.33200
H  16.12700 55.86000 22.02000
H  18.16500 53.89900 21.56400
H  14.66700 53.34300 22.09800
H  15.92100 53.20100 20.82800
H  14.69500 54.45100 20.67400
H  18.92600 56.18200 23.28400
H  18.02100 56.77200 21.91400
H  19.95700 56.67800 20.70200
H  20.04800 54.96100 21.01100
H  20.72400 55.97800 22.22500
H  22.54200 51.38800 25.41100
H  21.83900 52.09800 23.97600
H  21.59900 50.39100 24.29100
H  20.63200 51.69000 29.99300
H  19.69500 48.87600 33.04300
H  19.29700 47.81200 31.60800
H  18.23300 49.04100 32.09800

