158

Mg 41.41300 7.67300 29.62400
C  42.85200 8.97300 32.52900
C  38.99700 6.19200 31.69000
C  40.09000 6.11200 26.90400
C  44.16500 8.68700 27.74300
N  40.93400 7.64800 31.93300
C  41.72000 8.27800 32.88500
C  41.13500 7.96500 34.30200
C  39.93600 6.98400 33.94800
C  39.97900 6.85100 32.44200
C  39.93900 5.65500 34.72400
C  40.66800 9.24300 35.14000
C  40.80800 9.26200 36.72600
H  40.92100 10.58400 37.29400
N  39.67800 6.54600 29.29800
C  38.83900 6.00500 30.27800
C  37.77600 5.32200 29.59200
C  37.99000 5.43800 28.24800
C  39.29000 6.06200 28.08600
C  36.64100 4.53900 30.37600
C  37.05000 5.09600 27.13200
O  37.42300 4.98200 25.96700
C  35.65400 4.69200 27.44500
N  42.03000 7.44000 27.58000
C  41.26900 6.81000 26.68300
C  41.88600 6.99600 25.26200
C  43.06300 7.97700 25.44500
C  43.06700 8.06700 26.96900
C  42.25200 5.61400 24.62600
C  42.94000 9.39900 24.84900
C  41.76700 10.33300 25.28100
N  43.10800 8.68700 29.97400
C  44.18100 8.98800 29.14300
C  45.12300 9.75000 29.92600
C  44.63800 9.81900 31.21700
C  43.42800 9.07400 31.22300
C  46.44600 10.33400 29.54100
C  44.76700 10.42200 32.50500
O  45.64400 11.15800 32.88600
C  43.61900 9.83300 33.44300
C  44.32100 9.19400 34.51400
O  44.79000 8.06700 34.45000
O  44.19300 9.96000 35.62000
C  44.84200 9.66700 36.87200
H  38.20500 5.71500 32.27200
H  39.62600 5.57300 26.07500
H  44.98400 9.07200 27.13200
H  41.91900 7.47300 34.87700
H  39.04900 7.47200 34.35200
H  40.79100 5.65200 35.40400
H  40.14700 4.90600 33.96000
H  38.97600 5.45800 35.19700
H  39.64600 9.40700 34.80100
H  41.26900 10.03800 34.69800
H  41.68700 8.74100 37.10500
H  39.89900 8.75900 37.05500
H  36.91400 4.38300 31.42000
H  36.27900 3.62700 29.90200
H  35.74600 5.14000 30.53800
H  35.09300 4.63700 26.51300
H  35.15000 5.29900 28.19800
H  35.79700 3.66200 27.77100
H  41.09500 7.47200 24.68200
H  44.02200 7.56600 25.12800
H  42.22900 4.87700 25.42900
H  43.27300 5.64400 24.24400
H  41.67300 5.35700 23.73900
H  42.96900 9.32900 23.76200
H  43.85800 9.93400 25.09400
H  42.15300 11.09900 25.95400
H  41.01500 9.68200 25.72900
H  41.31600 10.77200 24.39100
H  47.03100 9.42100 29.43700
H  46.86000 11.03200 30.27000
H  46.35400 10.77800 28.55000
H  43.02600 10.68400 33.77700
H  45.12200 8.62100 36.75000
H  44.13600 9.61600 37.70100
H  45.70200 10.26200 37.17800
Mg 48.34100 14.67800 28.03400
C  46.52000 14.96700 31.08300
C  50.63900 16.75200 29.43200
C  50.17500 14.38000 25.19000
C  45.77400 12.82000 26.76900
N  48.57700 15.72600 29.97000
C  47.74700 15.68900 31.08000
C  48.26900 16.39600 32.31700
C  49.35100 17.24000 31.63400
C  49.58400 16.53900 30.31700
C  48.89600 18.74800 31.37000
C  48.68200 15.40600 33.45600
C  47.94100 15.58800 34.78000
H  48.68400 15.39100 36.09400
N  50.19600 15.33500 27.49100
C  51.01500 16.18000 28.16900
C  52.31100 16.35500 27.45800
C  52.12100 15.78500 26.18300
C  50.75100 15.13400 26.23000
C  53.46900 17.11500 28.05800
C  53.07100 15.65100 24.93800
O  52.90000 14.93200 23.98100
C  54.30500 16.50800 24.96300
N  47.91900 13.83100 26.20800
C  48.86600 13.78400 25.16100
C  48.30600 13.01800 23.93500
C  47.00000 12.41400 24.53700
C  46.85700 13.04400 25.90000
C  48.13900 13.92800 22.63900
C  47.01300 10.84500 24.48600
C  48.18300 10.14600 25.17700
N  46.52800 14.06600 28.69300
C  45.58200 13.26400 28.04500
C  44.39800 13.10600 28.91700
C  44.72700 13.67800 30.09100
C  46.01600 14.23700 29.95300
C  43.31600 12.19500 28.60000
C  44.27200 13.94200 31.51100
O  43.26500 13.53100 32.13900
C  45.50600 14.68600 32.23900
C  44.80600 15.84900 32.79600
O  44.64200 16.90400 32.23900
O  44.53000 15.62300 34.09900
C  44.05700 16.84700 34.76400
H  51.34300 17.45100 29.88700
H  50.53400 14.38900 24.15800
H  44.99800 12.19600 26.32000
H  47.48600 17.02600 32.73900
H  50.29400 17.16300 32.17700
H  48.53300 18.75300 30.34200
H  49.74800 19.41100 31.51200
H  48.11400 19.06700 32.05900
H  49.76600 15.49700 33.53000
H  48.47100 14.34800 33.29800
H  47.19200 14.81800 34.96700
H  47.37000 16.51600 34.77900
H  53.36000 18.19800 28.11800
H  54.43900 16.89800 27.61100
H  53.45200 16.82800 29.10900
H  54.88600 16.54400 24.04100
H  54.99500 16.04400 25.66700
H  54.01800 17.53800 25.17600
H  48.98300 12.18100 23.76300
H  46.10400 12.61800 23.95100
H  48.51700 13.41800 21.75300
H  48.72000 14.84600 22.72500
H  47.10800 14.22800 22.45100
H  46.91900 10.54200 23.44300
H  46.09800 10.54300 24.99500
H  47.93900 9.47800 26.00300
H  48.88800 10.75700 25.74100
H  48.87600 9.72500 24.44900
H  42.73400 11.85500 29.45600
H  43.58000 11.28800 28.05600
H  42.66700 12.83200 27.99900
H  45.86900 14.02400 33.02500
H  43.29400 17.35200 34.17200
H  44.82500 17.61900 34.70500
H  43.77900 16.79600 35.81700

