158

Mg 8.34700 3.10000 28.28000
C  9.86200 1.58600 30.99200
C  6.35300 4.72900 30.33900
C  6.62600 4.21700 25.58700
C  10.07700 0.88200 26.10400
N  8.17000 3.17400 30.46200
C  8.95400 2.57400 31.34300
C  8.56500 3.02100 32.80800
C  7.21600 3.87100 32.58700
C  7.24200 3.94700 31.00600
C  5.78100 3.38100 33.09400
C  9.72900 3.75500 33.50900
C  9.34600 4.54400 34.66100
H  10.02200 4.29300 35.99300
N  6.76600 4.36800 27.97100
C  6.09100 5.01500 29.01900
C  5.10700 5.87200 28.49700
C  5.08400 5.69600 27.09300
C  6.12500 4.71100 26.83100
C  4.39000 6.94800 29.31400
C  4.30000 6.41000 26.08600
O  4.45900 6.32400 24.89900
C  3.24000 7.42200 26.47900
N  8.14200 2.41900 26.17700
C  7.51600 3.21300 25.23900
C  7.82000 2.84900 23.80200
C  8.89300 1.68300 23.95500
C  9.08300 1.66800 25.50000
C  6.63100 2.40600 22.83800
C  10.16200 2.03700 23.07200
C  11.17300 3.09100 23.67000
N  9.79500 1.52600 28.44300
C  10.43500 0.79100 27.50000
C  11.37600 -0.05200 28.18700
C  11.19500 0.28700 29.54600
C  10.28000 1.23000 29.63800
C  12.26300 -1.03000 27.58600
C  11.64800 -0.08200 30.86600
O  12.48100 -0.87500 31.20100
C  10.82300 0.76500 31.95000
C  9.97900 -0.18200 32.61300
O  8.93500 -0.71400 32.16800
O  10.46800 -0.48000 33.79700
C  9.53600 -1.00100 34.80100
H  5.80600 5.38700 31.01700
H  6.14100 4.68100 24.72600
H  10.70000 0.31300 25.41100
H  8.36600 2.09000 33.33800
H  7.44200 4.85300 33.00200
H  5.45400 4.26700 33.63800
H  5.96400 2.57200 33.80100
H  5.19300 3.02200 32.24900
H  10.28700 4.31300 32.75800
H  10.38900 2.97600 33.89000
H  8.30500 4.41100 34.95600
H  9.36200 5.58800 34.34900
H  4.64500 7.05300 30.36800
H  3.33200 6.78200 29.11200
H  4.58300 7.94600 28.92100
H  2.61000 7.73300 25.64600
H  3.75600 8.31300 26.83600
H  2.64400 6.99700 27.28700
H  8.31900 3.68000 23.30400
H  8.55600 0.70600 23.60800
H  5.69100 2.40200 23.39100
H  6.76500 1.47900 22.28100
H  6.53000 3.09700 22.00200
H  9.80700 2.39900 22.10700
H  10.73400 1.11100 23.01300
H  11.94700 2.56100 24.22500
H  10.68000 3.78900 24.34700
H  11.67400 3.59800 22.84500
H  12.68100 -0.63700 26.65900
H  11.70500 -1.94900 27.40400
H  13.04700 -1.30800 28.29000
H  11.58900 1.25700 32.54900
H  8.59300 -0.45600 34.75200
H  9.87500 -0.73400 35.80200
H  9.40600 -2.07600 34.67600
Mg 35.20900 3.00600 29.19000
C  33.26800 4.01200 32.06900
C  37.95700 3.14100 31.36700
C  37.31400 2.65700 26.65200
C  32.52300 3.68900 27.21500
N  35.54200 3.53100 31.48600
C  34.58100 3.84400 32.42400
C  35.13700 3.93400 33.79300
C  36.68200 3.91500 33.50700
C  36.76200 3.54200 31.97600
C  37.54600 5.19700 33.76700
C  34.76700 2.61600 34.60600
C  34.51500 2.82800 36.10100
H  35.38500 3.68700 37.05500
N  37.30200 2.69000 29.02600
C  38.19900 2.68200 30.07100
C  39.51700 2.21200 29.55200
C  39.41400 2.07300 28.17100
C  37.95800 2.43900 27.87900
C  40.66900 1.80700 30.39400
C  40.29900 1.64100 27.11500
O  39.98700 1.62600 25.88400
C  41.73500 1.26600 27.47500
N  34.97200 3.26600 27.30400
C  35.96200 3.01200 26.35000
C  35.48400 3.15200 24.97800
C  33.93000 3.18200 25.09100
C  33.78100 3.37200 26.65800
C  36.10700 4.28900 24.14500
C  33.20900 1.92600 24.43200
C  32.72900 0.87800 25.40400
N  33.30200 3.76800 29.54200
C  32.19600 3.87100 28.60300
C  30.97000 4.10400 29.29500
C  31.35800 4.18500 30.68200
C  32.78200 3.99500 30.74200
C  29.65200 4.26300 28.48300
C  30.84400 4.33300 32.01600
O  29.74200 4.67600 32.42000
C  32.06000 4.19800 33.00300
C  32.28400 5.39400 33.79600
O  32.54500 6.50600 33.34200
O  32.01400 4.99700 35.09200
C  32.13900 6.00400 36.11500
H  38.82200 3.11900 32.03300
H  37.82700 2.53100 25.69700
H  31.69300 3.57500 26.51500
H  34.89000 4.86600 34.30100
H  37.28600 3.12300 33.94900
H  38.47700 4.91600 34.26000
H  37.05100 5.99000 34.32800
H  37.75200 5.58900 32.77100
H  35.68600 2.03100 34.63600
H  33.96500 1.94800 34.29300
H  34.47200 1.83500 36.54900
H  33.54100 3.27200 36.30700
H  40.75100 0.72600 30.28500
H  40.49000 2.13400 31.41900
H  41.52600 2.35700 30.00400
H  42.34100 2.07100 27.89100
H  42.19800 0.92700 26.54800
H  41.74400 0.38700 28.11900
H  35.84900 2.23900 24.50800
H  33.52200 4.02400 24.53300
H  35.41400 5.11500 23.98500
H  36.47100 3.88100 23.20300
H  36.92200 4.67400 24.75800
H  33.85600 1.49300 23.66900
H  32.39300 2.39300 23.88100
H  32.58600 -0.01800 24.80100
H  31.72200 1.02600 25.79400
H  33.38600 0.75000 26.26500
H  29.50300 5.34200 28.54200
H  28.94000 3.73900 29.12100
H  29.65500 3.97400 27.43200
H  31.95800 3.31000 33.62700
H  32.68000 5.58700 36.96400
H  31.15000 6.30700 36.46000
H  32.59100 6.93000 35.75900

