158

Mg 26.21100 50.49600 26.19900
C  23.92500 51.68700 28.60000
C  28.45700 49.74900 28.76600
C  28.44300 49.65700 23.92400
C  24.08300 51.67800 23.70200
N  26.18400 50.83000 28.35900
C  25.09700 51.10000 29.13000
C  25.43100 50.81300 30.57900
C  27.00300 50.62400 30.66200
C  27.28800 50.40800 29.14600
C  27.86500 51.72900 31.21700
C  24.63000 49.69100 31.30900
C  24.00000 50.12500 32.67000
H  25.05700 50.58400 33.71500
N  28.10900 49.65000 26.33400
C  28.86900 49.40300 27.45800
C  30.07600 48.82700 27.06200
C  30.17300 48.89500 25.62800
C  28.86000 49.37400 25.19100
C  31.27500 48.42500 27.94700
C  31.32400 48.66800 24.71000
O  31.24600 48.74200 23.46500
C  32.78400 48.35500 25.18600
N  26.27100 50.65200 24.11100
C  27.29200 50.32500 23.37700
C  26.99800 50.36700 21.83200
C  25.47400 50.80800 21.80800
C  25.22800 51.05600 23.31800
C  27.90300 51.28500 20.98300
C  24.37300 49.84100 21.23500
C  23.79700 48.73500 21.99700
N  24.33100 51.58300 26.08800
C  23.62500 52.00500 25.02600
C  22.39800 52.61000 25.50000
C  22.44400 52.55300 26.87000
C  23.65100 51.89800 27.23300
C  21.39700 53.39300 24.58700
C  21.76200 52.89900 28.19300
O  20.66700 53.45200 28.32200
C  22.68400 52.25700 29.32300
C  23.12700 53.30000 30.22700
O  23.96300 54.19400 29.93700
O  22.48900 53.13200 31.47800
C  22.92500 54.00900 32.58500
H  29.05100 49.29500 29.56200
H  29.11300 49.30800 23.13500
H  23.49100 52.08800 22.88100
H  25.20500 51.71100 31.15400
H  27.19900 49.66600 31.14400
H  27.26900 52.64100 31.25500
H  28.75500 51.78900 30.59100
H  28.12900 51.52900 32.25500
H  25.11900 48.71800 31.35800
H  23.85700 49.41700 30.59200
H  23.60000 49.16300 32.98900
H  23.23700 50.90200 32.61500
H  30.99600 48.33600 28.99700
H  32.04100 49.19800 27.88300
H  31.70900 47.43900 27.77900
H  33.00200 49.06200 25.98700
H  33.48000 48.41300 24.34900
H  32.85600 47.32700 25.54100
H  27.06800 49.38400 21.36600
H  25.33900 51.85100 21.52300
H  28.75200 50.81100 20.49000
H  28.31000 52.03500 21.66100
H  27.45900 51.91400 20.21100
H  24.87000 49.34500 20.40000
H  23.63600 50.40900 20.66800
H  24.08500 48.68200 23.04600
H  24.06900 47.77100 21.56700
H  22.72600 48.90500 21.88500
H  21.41800 53.11900 23.53300
H  21.59500 54.46500 24.55800
H  20.44600 53.08700 25.02300
H  22.25000 51.49300 29.96800
H  23.00400 55.02100 32.18800
H  23.88000 53.71500 33.02200
H  22.25100 54.01700 33.44200
Mg -0.02300 43.14700 26.22300
C  2.12200 43.06300 29.02000
C  -2.57600 42.06600 28.18600
C  -1.80700 42.92100 23.45000
C  2.76100 44.13000 24.29900
N  -0.25500 42.79500 28.36500
C  0.80600 42.75100 29.31600
C  0.21600 42.32900 30.69000
C  -1.24900 41.77000 30.36700
C  -1.40900 42.25400 28.86600
C  -1.45900 40.21200 30.46200
C  0.15500 43.50500 31.66600
C  0.65100 43.19300 33.08300
H  0.15000 41.85800 33.74500
N  -1.91200 42.59200 25.85500
C  -2.78400 42.20800 26.79500
C  -4.04600 41.98300 26.07700
C  -3.81800 42.04700 24.67900
C  -2.44500 42.57000 24.62100
C  -5.32300 41.53500 26.81200
C  -4.78200 41.81200 23.54100
O  -4.48400 42.12300 22.37200
C  -6.19700 41.22300 23.81700
N  0.41800 43.46600 24.13300
C  -0.50700 43.37800 23.15600
C  0.01800 43.82500 21.78000
C  1.41800 44.38800 22.15700
C  1.53300 43.98600 23.63300
C  -0.05500 42.61900 20.75400
C  1.60200 45.83000 21.91100
C  0.97000 46.44900 20.65800
N  1.97900 43.62300 26.52000
C  2.98300 44.02800 25.70200
C  4.19800 44.14600 26.40200
C  3.86300 43.84600 27.71800
C  2.54500 43.48100 27.77100
C  5.56600 44.30900 25.85900
C  4.38200 43.75200 29.11500
O  5.50900 44.03500 29.60600
C  3.22400 43.28200 30.03900
C  3.65900 42.04900 30.67100
O  3.95500 40.97700 30.24700
O  3.77500 42.32500 32.04900
C  4.26200 41.28000 32.97400
H  -3.41100 41.59600 28.71000
H  -2.33000 42.76800 22.50300
H  3.62000 44.43000 23.69500
H  0.83900 41.56300 31.15100
H  -1.90000 42.20500 31.12600
H  -0.50500 39.74800 30.71200
H  -1.79900 39.60700 29.62100
H  -2.04600 40.05200 31.36700
H  -0.82800 43.97500 31.68000
H  0.83700 44.29000 31.33900
H  0.38800 44.00100 33.76600
H  1.74000 43.21200 33.04300
H  -5.21700 41.44700 27.89300
H  -5.69600 40.61600 26.35900
H  -6.09400 42.29300 26.67600
H  -6.87300 41.28900 22.96500
H  -6.64300 41.96300 24.48100
H  -6.23100 40.20300 24.20200
H  -0.67000 44.58900 21.41900
H  2.18000 43.77800 21.67100
H  0.92700 42.53000 20.28900
H  -0.81700 42.89100 20.02400
H  -0.22500 41.68300 21.28500
H  2.68800 45.92600 21.89900
H  1.16400 46.29200 22.79600
H  0.46600 45.77500 19.96600
H  1.75800 46.92600 20.07600
H  0.28500 47.20500 21.04300
H  6.14600 43.41400 26.08700
H  6.02500 45.26000 26.13100
H  5.63500 44.26100 24.77200
H  3.00400 43.99100 30.83700
H  4.71500 41.62400 33.90400
H  5.04400 40.67200 32.52000
H  3.40100 40.65300 33.20600

