158

Mg 25.82300 -0.72900 29.38800
C  27.89400 -0.88500 32.19900
C  23.14300 -0.49900 31.46000
C  23.94800 -0.70400 26.57100
C  28.58800 -1.50300 27.37600
N  25.59500 -0.55400 31.61200
C  26.59500 -0.63500 32.63700
C  26.05000 -0.34200 33.99600
C  24.52200 -0.25000 33.73100
C  24.40000 -0.56600 32.18300
C  23.73300 -1.33900 34.44400
C  26.68800 0.86900 34.72200
C  27.48800 0.51100 35.96600
H  27.38500 1.33000 37.20700
N  23.77100 -0.58800 29.05900
C  22.84000 -0.38600 30.03000
C  21.58100 -0.18200 29.40900
C  21.82200 -0.40300 28.08500
C  23.21400 -0.60900 27.80400
C  20.35300 -0.07200 30.13900
C  20.74900 -0.38600 26.96100
O  20.92300 -0.82100 25.80400
C  19.31500 0.12400 27.21400
N  26.17600 -1.11300 27.28200
C  25.28200 -0.89100 26.30900
C  25.90300 -0.77500 24.96700
C  27.41800 -0.89000 25.19000
C  27.44200 -1.17700 26.70700
C  25.32100 -1.80100 23.89500
C  28.27600 0.26900 24.72200
C  28.45300 1.52000 25.57100
N  27.85300 -1.08600 29.63200
C  28.82900 -1.39500 28.76300
C  30.07700 -1.52500 29.50200
C  29.77800 -1.32200 30.82800
C  28.38000 -1.09800 30.86900
C  31.40900 -1.93900 28.86200
C  30.37500 -1.34600 32.11500
O  31.53300 -1.52200 32.45900
C  29.18200 -1.04200 33.09000
C  29.04600 -2.16100 34.01800
O  28.49700 -3.26400 33.84600
O  29.57000 -1.76800 35.21800
C  29.48400 -2.69500 36.30500
H  22.30700 -0.28500 32.12800
H  23.36200 -0.43500 25.68900
H  29.49200 -1.53100 26.76400
H  26.19600 -1.30500 34.48600
H  24.17700 0.75500 33.97700
H  24.23000 -1.61200 35.37500
H  23.59200 -2.27000 33.89500
H  22.72300 -0.98900 34.65500
H  25.93100 1.58600 35.03900
H  27.39000 1.50100 34.17800
H  28.51900 0.64800 35.64000
H  27.35800 -0.55300 36.16500
H  19.91700 0.89700 29.89800
H  20.55900 -0.23900 31.19600
H  19.65500 -0.81400 29.75000
H  19.27100 1.00500 27.85400
H  18.69800 -0.68800 27.59800
H  18.86500 0.41100 26.26400
H  25.77600 0.25700 24.64000
H  27.77600 -1.79000 24.69000
H  25.86500 -2.74300 23.96500
H  25.39500 -1.35700 22.90200
H  24.26200 -2.06000 23.90800
H  27.97900 0.56500 23.71600
H  29.26100 -0.16500 24.54800
H  29.51100 1.75100 25.69600
H  27.91100 1.48400 26.51500
H  28.14300 2.44300 25.08100
H  32.10500 -1.10800 28.97500
H  31.38800 -2.35100 27.85300
H  31.81700 -2.65700 29.57400
H  29.33400 -0.09900 33.61500
H  28.43300 -2.61500 36.57900
H  30.07700 -2.17000 37.05400
H  29.85000 -3.71000 36.15300
Mg 47.22100 44.65900 43.36200
C  43.61500 44.28800 43.06700
C  47.34600 41.24400 42.59800
C  50.42100 45.08300 42.76800
C  46.59700 48.16600 43.58900
N  45.67100 43.01000 42.73700
C  44.27300 43.09200 42.82800
C  43.61800 41.68800 42.84200
C  44.85700 40.73500 42.80400
C  46.03100 41.75100 42.70100
C  44.85300 39.71800 44.01800
C  42.53600 41.41900 41.78500
C  42.73600 42.18800 40.47000
H  42.56300 41.50300 39.04600
N  48.67800 43.37100 42.70500
C  48.54300 42.03200 42.54300
C  49.87000 41.49000 42.42000
C  50.81500 42.51000 42.31600
C  50.01800 43.77100 42.62100
C  50.14300 40.08100 42.46100
C  52.26900 42.41800 41.91300
O  52.69100 41.33100 41.59200
C  53.19300 43.62300 41.86000
N  48.31400 46.40400 43.03900
C  49.70600 46.29100 42.91400
C  50.37800 47.66500 43.17500
C  49.11900 48.67700 43.29400
C  47.92200 47.70700 43.32400
C  51.37500 47.61200 44.34300
C  49.00400 49.70600 42.17100
C  48.94600 51.14800 42.63000
N  45.50200 45.97100 43.52600
C  45.42000 47.33200 43.63700
C  43.99900 47.73000 43.64600
C  43.28600 46.59800 43.52700
C  44.23700 45.54600 43.34600
C  43.58400 49.14300 44.01100
C  41.99700 46.09400 43.44900
O  40.95600 46.72500 43.49300
C  42.10400 44.50200 43.06600
C  41.34500 43.79100 44.05100
O  40.23300 43.37700 43.83900
O  41.92100 43.92300 45.30300
C  41.23900 43.30300 46.42900
H  47.57700 40.20100 42.37500
H  51.50000 45.22200 42.86800
H  46.56300 49.25500 43.67000
H  43.16000 41.72400 43.83100
H  44.82500 40.24500 41.83100
H  45.57900 40.00100 44.78100
H  45.29100 38.77300 43.69900
H  43.82600 39.58100 44.35700
H  41.61500 41.89000 42.12600
H  42.18400 40.41200 41.56200
H  43.70200 42.69200 40.43100
H  42.06100 43.03300 40.33600
H  50.95900 39.98900 43.17700
H  50.47400 39.69500 41.49800
H  49.31800 39.45600 42.80400
H  52.82700 44.47900 41.29400
H  54.08200 43.30000 41.31900
H  53.59700 43.80100 42.85700
H  50.85000 47.92600 42.22800
H  49.21900 49.19400 44.24800
H  52.39600 47.52200 43.97200
H  51.07300 46.69600 44.85200
H  51.24700 48.44100 45.03900
H  48.07000 49.51800 41.64300
H  49.90900 49.85800 41.58200
H  48.86800 51.22000 43.71500
H  48.02900 51.68300 42.38600
H  49.85000 51.70100 42.37400
H  42.72600 49.40700 43.39200
H  44.50200 49.72100 43.90700
H  43.26700 49.05600 45.05100
H  41.63000 44.24900 42.11800
H  40.37800 42.72800 46.09000
H  40.88100 44.13800 47.03100
H  41.81000 42.62100 47.06000

