158

Mg 49.39500 45.03600 43.50600
C  45.96100 45.80600 42.72400
C  48.86800 41.91900 42.23300
C  52.55200 44.87100 43.17300
C  49.60900 48.58600 44.33400
N  47.58300 44.04100 42.62200
C  46.23200 44.43200 42.50600
C  45.32300 43.31900 41.87400
C  46.32700 42.09300 41.96200
C  47.72000 42.72000 42.29200
C  45.91900 41.06700 43.03700
C  44.83200 43.63700 40.43700
C  45.89600 44.25400 39.49900
H  45.43900 44.19900 38.00300
N  50.56100 43.52900 42.84300
C  50.21200 42.27700 42.41000
C  51.46600 41.49900 42.29200
C  52.55700 42.41100 42.37100
C  51.88400 43.66700 42.86100
C  51.47600 40.13500 41.83000
C  54.00700 42.14300 42.09800
O  54.41900 41.07700 41.61200
C  55.09100 43.14400 42.38400
N  50.83200 46.55300 43.66100
C  52.10800 46.15700 43.56300
C  53.08300 47.30300 43.77200
C  52.16500 48.42100 44.42800
C  50.81300 47.90400 44.05200
C  54.30600 47.04300 44.64300
C  52.53800 49.80000 43.84800
C  53.34900 50.77000 44.77300
N  48.08500 46.82700 43.72000
C  48.34100 48.14700 44.00000
C  47.19200 48.95300 43.84700
C  46.24300 48.09400 43.33800
C  46.83800 46.79700 43.28000
C  47.10400 50.39700 44.11200
C  44.89400 48.09600 42.79800
O  44.02000 48.92200 42.63200
C  44.63800 46.62900 42.42100
C  43.47100 46.13700 43.18300
O  42.41200 45.86400 42.62900
O  43.64400 45.96700 44.50900
C  42.36400 45.61200 45.27000
H  48.67400 40.85200 42.10900
H  53.63400 44.96400 43.05500
H  49.72600 49.57100 44.79000
H  44.36000 43.24000 42.37700
H  46.36600 41.62100 40.98000
H  45.11700 41.46900 43.65500
H  46.75100 40.93500 43.72900
H  45.73800 40.11100 42.54400
H  43.98200 44.29200 40.62700
H  44.38000 42.74700 39.99900
H  46.77900 43.62700 39.62500
H  45.97200 45.31300 39.74400
H  51.65600 40.07600 40.75700
H  50.49400 39.70600 42.02900
H  52.24600 39.59700 42.38300
H  54.85500 43.93000 41.66700
H  56.05800 42.74100 42.08400
H  55.07900 43.56100 43.39100
H  53.41600 47.57600 42.77100
H  52.27100 48.38000 45.51200
H  54.13800 45.99500 44.89200
H  54.30800 47.62400 45.56500
H  55.22800 47.01400 44.06200
H  51.69500 50.45600 43.63300
H  53.03800 49.67300 42.88800
H  52.83500 51.72800 44.83900
H  54.37300 51.01100 44.48500
H  53.69300 50.42500 45.74800
H  46.08000 50.76700 44.17500
H  47.46000 50.86100 43.19300
H  47.57900 50.69900 45.04500
H  44.40600 46.42500 41.37600
H  42.10200 44.62400 44.89300
H  41.60800 46.31500 44.91800
H  42.45200 45.54900 46.35400
Mg 48.26400 35.32300 28.45300
C  46.18900 33.94100 30.77400
C  48.47300 38.08300 30.42400
C  49.46600 37.07700 25.82300
C  47.69200 32.64700 26.34600
N  47.52100 35.81600 30.31400
C  46.84000 35.07000 31.13500
C  47.20600 35.46000 32.53300
C  47.45300 36.97700 32.37600
C  47.88500 36.96000 30.90100
C  46.22500 37.85600 32.67800
C  48.45100 34.68100 33.12000
C  48.67000 34.71900 34.64500
H  47.64200 35.54400 35.42000
N  48.87700 37.27500 28.17600
C  48.88000 38.30200 29.14300
C  49.39200 39.49800 28.64300
C  49.77900 39.21100 27.26300
C  49.42400 37.80400 27.01100
C  49.58800 40.80800 29.53700
C  50.40800 40.24700 26.25600
O  50.70700 39.95900 25.06500
C  50.75500 41.67900 26.67400
N  48.40900 34.87800 26.35100
C  49.11900 35.72300 25.55600
C  49.41000 35.14300 24.18500
C  49.09600 33.62800 24.46100
C  48.46100 33.68800 25.86000
C  48.53600 35.84900 23.17100
C  50.33000 32.72100 24.33300
C  50.82900 32.43300 22.90400
N  47.18700 33.53700 28.53900
C  47.05300 32.50500 27.61300
C  46.30700 31.45900 28.15600
C  45.86500 31.94800 29.40200
C  46.48000 33.26200 29.60100
C  45.96500 30.13100 27.61700
C  45.07300 31.69500 30.60600
O  44.36600 30.72700 30.93200
C  45.13700 33.04800 31.41900
C  45.43800 32.62300 32.84000
O  46.43600 32.00700 33.23700
O  44.42700 32.99900 33.63300
C  44.30800 32.43300 35.04900
H  48.42000 38.89900 31.14900
H  49.91400 37.70100 25.04600
H  47.51000 31.85000 25.62200
H  46.30800 35.31200 33.13300
H  48.20100 37.34400 33.07800
H  46.10800 38.09800 33.73500
H  45.40400 37.34500 32.17600
H  46.42200 38.85000 32.27500
H  49.31400 35.10700 32.60700
H  48.35600 33.65500 32.76500
H  49.70900 34.95000 34.88200
H  48.46000 33.70400 34.98100
H  50.41800 41.42800 29.20000
H  49.82200 40.63300 30.58700
H  48.67000 41.39400 29.47900
H  49.80300 42.03700 27.06700
H  51.14100 42.15600 25.77300
H  51.66200 41.63800 27.27600
H  50.43800 35.38600 23.91600
H  48.35100 33.29100 23.74000
H  49.15800 36.51800 22.57700
H  47.65900 36.29900 23.63600
H  48.21500 35.05400 22.49900
H  49.94900 31.75100 24.65200
H  51.06200 33.07200 25.06000
H  50.44000 33.14000 22.17100
H  50.49600 31.48400 22.48500
H  51.91000 32.29400 22.93900
H  44.89700 30.01800 27.42900
H  46.36000 29.31500 28.22300
H  46.51800 29.97700 26.69100
H  44.13000 33.46400 31.43400
H  43.28800 32.09200 35.22700
H  44.63900 33.14400 35.80600
H  44.93300 31.58300 35.32600

