158

Mg 25.50100 -1.33600 29.27900
C  27.50000 -1.40400 32.30000
C  22.68400 -1.11700 31.35100
C  23.69400 -1.44300 26.55400
C  28.39500 -2.08200 27.44900
N  25.14600 -1.45500 31.62600
C  26.17000 -1.29600 32.57300
C  25.48300 -1.18200 33.95900
C  23.95200 -1.01900 33.62000
C  23.92700 -1.25500 32.10500
C  23.03900 -1.85800 34.45800
C  26.14500 -0.12800 34.90300
C  25.15500 0.50300 35.93800
H  25.87500 1.12400 37.15700
N  23.48800 -1.16900 28.95800
C  22.50800 -1.05100 29.95100
C  21.21600 -1.07000 29.22900
C  21.51500 -1.00600 27.80200
C  22.99100 -1.23200 27.70400
C  19.88200 -1.05400 29.95700
C  20.52100 -0.89100 26.66800
O  20.79100 -1.04200 25.48300
C  19.11000 -0.71700 26.96500
N  25.97500 -1.88500 27.32200
C  25.05800 -1.82600 26.34900
C  25.65600 -1.96600 24.94200
C  27.25700 -2.03700 25.23400
C  27.21400 -1.95800 26.76700
C  25.13200 -3.23300 24.20200
C  28.04600 -0.87000 24.66700
C  27.71600 0.51900 25.07300
N  27.52600 -1.75200 29.75600
C  28.55700 -1.94400 28.89400
C  29.78500 -2.05000 29.62900
C  29.39500 -1.86900 30.98100
C  28.05100 -1.62500 31.02300
C  31.13400 -2.28000 29.02000
C  29.93700 -1.73200 32.33200
O  31.06900 -1.88300 32.83400
C  28.70800 -1.34600 33.23800
C  28.67000 -2.32900 34.39800
O  28.44000 -3.55600 34.37400
O  29.20300 -1.63300 35.53400
C  29.41500 -2.45300 36.75000
H  21.84100 -0.85400 31.99500
H  23.13000 -1.45900 25.61900
H  29.21800 -2.28000 26.75800
H  25.79200 -2.14000 34.37900
H  23.66400 0.02100 33.77400
H  22.51400 -2.59000 33.84400
H  22.26800 -1.18400 34.83200
H  23.43600 -2.42700 35.29900
H  26.32300 0.74000 34.26700
H  27.04400 -0.46900 35.41600
H  24.47700 -0.32200 36.15300
H  24.49800 1.26700 35.52300
H  20.05500 -1.25500 31.01400
H  19.25400 -1.89200 29.65200
H  19.31000 -0.13400 29.84100
H  18.90800 0.16200 27.57700
H  18.84400 -1.67100 27.42200
H  18.51700 -0.60800 26.05700
H  25.49800 -1.08800 24.31500
H  27.64200 -2.97000 24.82300
H  24.81300 -2.92200 23.20700
H  24.30900 -3.66800 24.76900
H  25.90100 -3.98600 24.02600
H  27.80300 -0.96500 23.60900
H  29.11800 -1.05500 24.59000
H  27.18400 0.93700 24.21800
H  28.60700 1.13400 25.20400
H  27.04300 0.46500 25.92800
H  31.20500 -1.70200 28.09800
H  31.22300 -3.32500 28.72200
H  31.80900 -1.88800 29.78000
H  28.88900 -0.34700 33.63300
H  29.13300 -3.50100 36.64900
H  28.82500 -2.03300 37.56400
H  30.42500 -2.42100 37.15800
Mg 35.30600 -0.24100 29.44100
C  33.29900 1.12000 32.02400
C  37.88400 -0.28500 31.70400
C  37.32700 -1.32700 27.03700
C  32.79400 0.43300 27.13100
N  35.53100 0.38800 31.59300
C  34.56900 0.87200 32.42600
C  35.09900 1.09700 33.75600
C  36.62900 1.10300 33.50000
C  36.74100 0.32600 32.17300
C  37.44200 2.41600 33.60400
C  34.56100 -0.06300 34.69500
C  34.17500 0.48100 36.09000
H  35.09200 1.60600 36.70000
N  37.30100 -0.76400 29.42100
C  38.23500 -0.74700 30.41800
C  39.48900 -1.38400 29.99200
C  39.34700 -1.69400 28.61400
C  37.92700 -1.27200 28.27300
C  40.55400 -1.55800 30.98000
C  40.30600 -2.42200 27.73100
O  40.03500 -2.74200 26.56300
C  41.70500 -2.81400 28.25500
N  35.07800 -0.39500 27.39300
C  36.07400 -0.90300 26.59600
C  35.75400 -0.74600 25.11100
C  34.20900 -0.47300 25.16900
C  34.01100 -0.07000 26.62200
C  36.46100 0.34800 24.41200
C  33.38900 -1.68700 24.68900
C  32.86300 -2.82500 25.57700
N  33.39200 0.61900 29.52400
C  32.50200 0.72800 28.49500
C  31.24200 1.13800 29.06700
C  31.53100 1.28700 30.48500
C  32.83100 0.95000 30.69300
C  29.95300 1.47500 28.28300
C  30.90200 1.79900 31.70100
O  29.75400 2.21500 31.90200
C  32.01800 1.58400 32.79600
C  32.19700 2.82500 33.58600
O  32.57400 3.89900 33.14800
O  31.62100 2.66900 34.77200
C  31.56700 3.79700 35.69600
H  38.69400 -0.12300 32.41900
H  38.05000 -1.51800 26.24100
H  31.99300 0.62200 26.41300
H  34.89000 2.08200 34.17100
H  37.05400 0.49300 34.29800
H  37.87700 2.46800 32.60600
H  38.05500 2.36200 34.50400
H  36.81600 3.30700 33.66100
H  35.37400 -0.77900 34.81200
H  33.67400 -0.47100 34.21100
H  34.09200 -0.41300 36.70700
H  33.18900 0.94500 36.11400
H  40.11400 -1.66800 31.97200
H  41.19000 -0.68000 31.08600
H  41.20700 -2.42600 30.89400
H  42.28400 -2.03400 28.75000
H  42.36800 -3.04400 27.42100
H  41.53500 -3.72800 28.82600
H  36.12300 -1.62300 24.58100
H  33.88300 0.35600 24.54000
H  35.94000 1.29100 24.24500
H  36.89200 -0.07900 23.50700
H  37.33800 0.72100 24.94200
H  34.00300 -2.21000 23.95600
H  32.58200 -1.30200 24.06600
H  31.83400 -3.02500 25.27700
H  32.97100 -2.73300 26.65800
H  33.41100 -3.76100 25.46800
H  29.72900 0.62200 27.64200
H  30.18000 2.42700 27.80300
H  29.14100 1.66500 28.98500
H  31.76300 0.72400 33.41500
H  32.48800 3.80500 36.28000
H  30.71000 3.75700 36.36800
H  31.65300 4.77300 35.21900

