158

Mg 48.74500 25.03600 28.44600
C  49.59700 27.26800 30.90200
C  47.76200 22.77200 30.81900
C  47.64300 23.13000 25.95000
C  50.23900 27.26500 26.12100
N  48.78500 25.02600 30.69700
C  48.92100 26.12700 31.39800
C  48.48400 25.90700 32.87300
C  48.13300 24.38900 32.88100
C  48.18800 24.03000 31.38800
C  48.81300 23.36900 33.76400
C  47.35200 26.85900 33.35200
C  47.77600 27.91500 34.33300
H  46.97500 28.13900 35.59900
N  48.03500 23.07100 28.41300
C  47.73600 22.30300 29.49100
C  47.22300 21.06900 28.99400
C  46.96300 21.25400 27.60000
C  47.53700 22.56900 27.26400
C  46.94000 19.87900 29.85100
C  46.40900 20.25500 26.49400
O  46.38800 20.46400 25.30500
C  45.99800 18.93300 26.92500
N  48.92200 25.13700 26.34900
C  48.22700 24.27300 25.49500
C  48.23700 24.72000 24.10300
C  49.15300 26.01800 24.15300
C  49.48600 26.21100 25.60900
C  48.74300 23.70100 22.99700
C  48.47500 27.10700 23.35800
C  49.44400 27.95600 22.55600
N  49.76400 26.87600 28.52300
C  50.27200 27.67800 27.49200
C  50.77400 28.92200 28.03800
C  50.59600 28.81200 29.41400
C  49.88600 27.54800 29.59900
C  51.33500 30.11000 27.12800
C  50.79400 29.48200 30.63200
O  51.26700 30.54700 30.97200
C  50.09200 28.50000 31.68800
C  51.16600 28.13700 32.65800
O  52.06400 27.37700 32.40600
O  51.01200 28.83400 33.87300
C  51.95500 28.43800 34.94300
H  47.30000 22.16400 31.60000
H  47.06900 22.58700 25.19600
H  50.78200 27.84900 25.37500
H  49.34000 26.06000 33.53100
H  47.08500 24.35400 33.17900
H  49.00300 23.72900 34.77500
H  49.70700 22.99100 33.26800
H  48.12300 22.52700 33.72600
H  46.43400 26.36200 33.66400
H  47.06700 27.46600 32.49300
H  47.56700 28.89400 33.90200
H  48.83400 27.82900 34.58000
H  47.05000 20.07100 30.91900
H  47.69800 19.11700 29.67500
H  45.93100 19.56100 29.59000
H  45.78400 18.27900 26.07900
H  45.08300 19.01700 27.51000
H  46.80700 18.42700 27.45200
H  47.20100 24.99300 23.90300
H  50.06300 25.76800 23.60700
H  48.78200 22.73000 23.49100
H  49.66500 23.97800 22.48600
H  47.94300 23.64100 22.26000
H  48.02800 27.84700 24.02200
H  47.71900 26.72400 22.67200
H  50.47300 27.61400 22.66200
H  49.36200 28.97400 22.93700
H  49.29000 27.96900 21.47700
H  51.42000 31.02800 27.70900
H  50.72600 30.35900 26.26000
H  52.33900 29.94100 26.73700
H  49.38900 29.09800 32.26900
H  51.88200 29.29700 35.61000
H  52.94500 28.42500 34.48600
H  51.74500 27.47900 35.41800
Mg 35.57300 48.09400 25.76500
C  35.84000 45.96200 28.59400
C  34.56000 50.55200 27.84700
C  34.85200 49.88500 23.13300
C  36.23500 45.33600 23.72700
N  35.03500 48.09400 27.94200
C  35.36400 47.19700 28.89700
C  35.15600 47.82900 30.31500
C  34.44600 49.16600 30.00300
C  34.63400 49.23200 28.50000
C  32.87400 49.23900 30.41800
C  36.40100 47.90800 31.22500
C  36.26800 47.44200 32.70200
H  34.90400 47.59000 33.31400
N  34.86700 49.98800 25.53200
C  34.67300 50.87900 26.49300
C  34.44500 52.20400 25.88700
C  34.52900 52.06900 24.46800
C  34.81100 50.60600 24.31800
C  34.20500 53.38900 26.78900
C  34.29200 53.12300 23.32000
O  34.51300 52.87700 22.11500
C  33.67100 54.36400 23.62800
N  35.28400 47.52200 23.71600
C  35.10200 48.52800 22.83400
C  34.98000 47.98600 21.37700
C  35.64200 46.62700 21.57500
C  35.70800 46.45100 23.05700
C  33.56500 47.90900 20.87000
C  36.98700 46.49100 20.88100
C  38.19700 46.89300 21.61400
N  36.12900 46.15000 25.98600
C  36.36800 45.09400 25.13400
C  36.89500 43.96200 25.81700
C  36.66400 44.19100 27.14200
C  36.11700 45.55600 27.27200
C  37.42000 42.65200 25.24100
C  36.75700 43.66500 28.44700
O  37.14500 42.59200 28.88600
C  36.26000 44.84200 29.45000
C  35.03700 44.37100 30.21100
O  34.06000 43.89400 29.77900
O  35.28400 44.44600 31.54700
C  34.28400 43.87900 32.42400
H  34.19000 51.35000 28.49500
H  34.60200 50.53900 22.29500
H  36.66200 44.49000 23.18300
H  34.39200 47.22300 30.80000
H  34.92400 50.01900 30.48500
H  32.58200 50.20200 30.83800
H  32.70900 48.53900 31.23700
H  32.26900 49.01400 29.53900
H  36.86000 48.89700 31.24200
H  37.08800 47.19800 30.76500
H  37.01600 47.93500 33.32300
H  36.50900 46.39400 32.88000
H  33.11900 53.47700 26.75900
H  34.59900 54.27400 26.28900
H  34.71800 53.36300 27.75000
H  34.39600 55.16300 23.77900
H  33.18900 54.22400 24.59600
H  32.89100 54.63700 22.91700
H  35.63000 48.62200 20.77500
H  34.95000 45.89300 21.16100
H  32.92900 48.54000 21.49200
H  33.18400 46.90600 21.06600
H  33.48400 48.13500 19.80700
H  37.04300 46.98500 19.91100
H  37.15100 45.42800 20.70200
H  38.40500 45.98600 22.18100
H  37.96500 47.59100 22.41900
H  39.10500 47.13400 21.06100
H  38.43600 42.66800 25.63600
H  37.45400 42.39900 24.18100
H  36.77700 41.92200 25.73400
H  37.08500 44.97700 30.15000
H  34.00500 42.90600 32.02000
H  33.42100 44.54500 32.44600
H  34.70400 43.67800 33.40900

