158

Mg 1.73000 -3.21200 44.76500
C  5.03700 -2.53400 44.09900
C  0.71600 -0.57500 42.76800
C  -1.58800 -4.45500 44.76000
C  2.74700 -6.28300 46.02900
N  2.76500 -1.85600 43.45100
C  4.15300 -1.66200 43.48600
C  4.54900 -0.34400 42.75900
C  3.09900 0.30300 42.53300
C  2.16000 -0.76800 42.93100
C  2.94500 1.67400 43.20900
C  5.17500 -0.70000 41.43300
C  6.27300 0.43600 41.03300
H  6.39300 0.91400 39.58200
N  -0.22700 -2.57200 43.94600
C  -0.38700 -1.43900 43.09400
C  -1.81900 -1.26400 42.82500
C  -2.52000 -2.31500 43.49000
C  -1.46700 -3.18800 44.16200
C  -2.34600 -0.12900 41.96700
C  -3.97500 -2.34600 43.52800
O  -4.68100 -1.60700 42.81600
C  -4.66200 -3.27600 44.41200
N  0.73800 -5.07500 45.34400
C  -0.60900 -5.31700 45.33800
C  -0.81200 -6.89300 45.69300
C  0.51200 -7.28300 46.40200
C  1.36400 -6.16800 45.88400
C  -2.06000 -7.32600 46.47500
C  1.05400 -8.65300 45.91100
C  1.90100 -9.49000 46.84700
N  3.54400 -4.21600 45.17500
C  3.79700 -5.38100 45.79600
C  5.16600 -5.51900 46.01600
C  5.77600 -4.41800 45.43300
C  4.70700 -3.71800 44.80300
C  5.94700 -6.79200 46.60400
C  7.02600 -3.72800 45.12700
O  8.19700 -3.96800 45.34900
C  6.58700 -2.52400 44.12900
C  7.13400 -1.31100 44.70400
O  6.90500 -0.80800 45.78300
O  8.10600 -0.74900 43.83600
C  8.62600 0.56800 44.20600
H  0.48600 0.29000 42.14200
H  -2.57200 -4.89700 44.58700
H  3.16200 -7.17100 46.51200
H  5.26800 0.22500 43.34900
H  2.86000 0.41400 41.47500
H  2.84700 2.31800 42.33500
H  3.83600 1.90500 43.79300
H  2.12000 1.77400 43.91400
H  4.44500 -0.89300 40.64800
H  5.67500 -1.66300 41.53800
H  7.29700 0.09900 41.19300
H  6.01500 1.29400 41.65500
H  -3.23400 0.41700 42.28600
H  -2.47000 -0.53200 40.96100
H  -1.62200 0.68300 41.89900
H  -4.80800 -4.27000 43.99000
H  -5.64700 -2.85600 44.61900
H  -4.25000 -3.32600 45.42000
H  -0.72800 -7.39600 44.72900
H  0.61600 -7.10300 47.47200
H  -2.74200 -7.94600 45.89200
H  -2.60600 -6.41000 46.70000
H  -1.86600 -7.91200 47.37400
H  1.59700 -8.52200 44.97500
H  0.22800 -9.30300 45.62300
H  2.89400 -9.68100 46.44100
H  1.47900 -10.49400 46.88500
H  2.02600 -9.00500 47.81500
H  6.99500 -6.74500 46.30700
H  5.50700 -7.64400 46.08600
H  5.95200 -6.95600 47.68100
H  7.07000 -2.74200 43.17600
H  9.25400 0.85600 43.36300
H  9.23300 0.53200 45.11000
H  7.81200 1.23900 44.48300
Mg 40.29000 9.69000 29.47400
C  42.27400 10.63800 32.12800
C  37.96100 8.61400 31.57400
C  38.51500 8.53000 26.79700
C  43.11700 10.37700 27.28400
N  40.25200 9.46800 31.65600
C  41.06900 10.01100 32.57300
C  40.54600 9.90700 34.02900
C  39.23900 9.05300 33.74100
C  39.11800 9.06400 32.18900
C  39.19400 7.63700 34.42600
C  40.25000 11.33200 34.69800
C  39.52700 11.44300 35.99000
H  40.25600 11.96600 37.27200
N  38.44300 8.80600 29.23500
C  37.57200 8.49400 30.22000
C  36.36100 8.01100 29.65900
C  36.46400 7.96700 28.24200
C  37.82600 8.46000 28.01800
C  35.25900 7.71100 30.67500
C  35.44800 7.47100 27.11400
O  35.63000 7.50200 25.88300
C  34.10700 7.04300 27.64400
N  40.70900 9.59700 27.32000
C  39.86200 8.96300 26.47900
C  40.51000 8.74000 25.03100
C  41.93200 9.36600 25.25900
C  41.93300 9.88600 26.66200
C  40.37700 7.33100 24.44200
C  42.46900 10.42600 24.27000
C  42.10300 11.95800 24.52500
N  42.27100 10.37400 29.60100
C  43.23000 10.70100 28.68700
C  44.40400 11.35900 29.32400
C  43.93300 11.47900 30.63700
C  42.70600 10.82800 30.78400
C  45.66000 11.90500 28.74200
C  44.36400 11.89500 31.93000
O  45.42900 12.45000 32.27600
C  43.27100 11.42000 32.95900
C  43.89200 10.52000 33.93700
O  44.33200 9.37000 33.73500
O  43.90700 11.18700 35.10300
C  44.38800 10.50900 36.30000
H  37.18300 8.35300 32.29500
H  37.89200 8.29300 25.93100
H  44.05000 10.40000 26.71800
H  41.34400 9.38900 34.56200
H  38.38900 9.65600 34.06200
H  39.30700 6.91600 33.61500
H  38.21500 7.55900 34.89900
H  40.04500 7.52500 35.09900
H  39.80000 11.92100 33.90000
H  41.17400 11.90400 34.77200
H  39.29000 10.40600 36.22700
H  38.66900 12.10600 35.88600
H  35.29900 8.50800 31.41800
H  35.50900 6.76200 31.14900
H  34.24500 7.69000 30.27600
H  34.25300 6.35300 28.47500
H  33.46800 6.61300 26.87300
H  33.67400 7.96200 28.03700
H  39.99500 9.42100 24.35300
H  42.55500 8.47300 25.32200
H  41.23800 6.96200 23.88400
H  39.47600 7.23000 23.83700
H  40.20000 6.72600 25.33100
H  42.11200 10.06300 23.30700
H  43.55000 10.33200 24.16900
H  41.27500 12.03400 25.23000
H  41.68800 12.37100 23.60500
H  42.95500 12.59800 24.75100
H  45.84800 11.31000 27.84800
H  46.46700 11.77900 29.46400
H  45.62700 12.97600 28.54100
H  42.80900 12.27500 33.45300
H  43.49300 10.40700 36.91400
H  45.14900 11.11100 36.79600
H  44.76400 9.49100 36.20100

