158

Mg 16.82900 -1.22100 28.54200
C  15.82600 0.53400 31.30900
C  18.96200 -2.96600 30.57200
C  18.18300 -2.59600 25.77100
C  14.95600 0.86500 26.48200
N  17.32000 -1.14000 30.72700
C  16.82400 -0.43000 31.65000
C  17.31500 -0.81500 33.04700
C  18.63900 -1.60000 32.75100
C  18.36400 -1.88900 31.30600
C  20.06200 -1.10100 33.13600
C  16.28900 -1.39800 34.02000
C  16.31800 -0.77300 35.44600
H  17.61600 -0.22100 35.93000
N  18.28600 -2.68500 28.28700
C  19.06300 -3.34800 29.21900
C  19.99500 -4.25700 28.47000
C  19.68400 -4.21500 27.10800
C  18.69100 -3.14000 26.97800
C  21.06300 -5.13800 29.22900
C  20.26800 -5.07600 25.90400
O  19.89600 -5.07800 24.72700
C  21.39800 -6.02400 26.13800
N  16.55600 -0.98400 26.37900
C  17.25100 -1.61000 25.48100
C  16.86200 -1.18400 24.06800
C  15.69600 -0.25700 24.27800
C  15.75000 -0.04200 25.80200
C  18.09500 -0.60600 23.16800
C  14.26700 -0.70600 23.85000
C  14.02300 -0.66800 22.34200
N  15.67300 0.37500 28.74100
C  14.93200 1.09500 27.85000
C  14.07200 2.10400 28.55200
C  14.38600 1.83600 29.90300
C  15.37400 0.81100 29.98500
C  13.12400 3.17300 27.93000
C  14.07700 2.20100 31.29700
O  13.20800 2.98900 31.70700
C  14.98600 1.44000 32.20000
C  15.88200 2.41200 32.82100
O  16.93200 2.76400 32.39300
O  15.25800 2.90000 33.94600
C  16.11800 3.80500 34.75600
H  19.69000 -3.56400 31.12500
H  18.55500 -3.05900 24.85500
H  14.48300 1.62200 25.85300
H  17.72600 0.09500 33.48700
H  18.44900 -2.52100 33.30200
H  20.57500 -0.78800 32.22600
H  20.61700 -1.88400 33.65400
H  19.93300 -0.24100 33.79300
H  16.33500 -2.48300 34.11100
H  15.30800 -1.29700 33.55500
H  16.02400 -1.50600 36.19700
H  15.58800 0.03200 35.36800
H  21.21600 -4.86700 30.27400
H  21.99300 -4.81300 28.76400
H  20.86600 -6.20800 29.17200
H  22.34200 -5.50900 26.31700
H  21.51600 -6.59100 25.21400
H  21.11700 -6.71200 26.93500
H  16.46200 -2.11700 23.67100
H  15.96600 0.68700 23.80600
H  18.59100 -1.44900 22.68700
H  18.85900 -0.22700 23.84800
H  17.61200 0.09800 22.49000
H  13.54900 0.00600 24.25600
H  14.07600 -1.76000 24.05100
H  13.37100 0.13800 22.00500
H  13.67900 -1.64700 22.00700
H  14.95700 -0.45300 21.82500
H  13.61600 3.56600 27.04000
H  12.96600 4.06800 28.53200
H  12.20400 2.66800 27.63500
H  14.39400 0.92200 32.95500
H  16.02100 3.52000 35.80300
H  15.81200 4.83400 34.57100
H  17.16600 3.67600 34.48600
Mg 47.80400 25.03700 28.04900
C  48.76800 27.29800 30.56600
C  46.69400 22.85900 30.47200
C  46.86300 23.09000 25.58800
C  48.94500 27.52000 25.73400
N  47.66100 25.12000 30.21900
C  48.16400 26.09100 31.01100
C  47.86100 25.85000 32.48700
C  47.32700 24.33400 32.47100
C  47.22200 24.06600 30.96700
C  48.21800 23.32900 33.24500
C  46.83200 26.83500 33.16900
C  47.12300 27.20500 34.58300
H  45.90700 27.16500 35.54800
N  46.96500 23.12800 28.00500
C  46.59400 22.34600 29.10000
C  45.95300 21.14200 28.62500
C  46.00100 21.19100 27.17600
C  46.59000 22.53000 26.83200
C  45.38400 20.11300 29.55100
C  45.45300 20.12900 26.22300
O  45.54900 20.19700 24.98100
C  45.01800 18.77200 26.79000
N  47.82000 25.29700 25.92200
C  47.39700 24.31300 25.14400
C  47.70400 24.60700 23.68400
C  48.15900 26.15100 23.73600
C  48.31500 26.34400 25.23100
C  48.78400 23.63900 23.09400
C  47.20500 27.20700 23.07500
C  47.70500 27.82000 21.74200
N  48.70900 26.97600 28.09700
C  49.10700 27.85000 27.11700
C  49.72900 29.01400 27.65900
C  49.55900 28.82700 29.02500
C  48.93800 27.64800 29.22600
C  50.31200 30.21500 26.91600
C  49.81200 29.54800 30.28300
O  50.36000 30.60900 30.59800
C  49.18400 28.54200 31.28700
C  50.09900 28.38300 32.47600
O  51.10900 27.69000 32.48100
O  49.61100 29.18200 33.53700
C  50.35200 29.10300 34.82100
H  46.53600 22.13200 31.27100
H  46.58400 22.35700 24.82900
H  49.27200 28.22900 24.97000
H  48.84100 25.95000 32.95600
H  46.34100 24.18300 32.91100
H  47.80500 22.46700 33.76900
H  48.57200 23.96100 34.05900
H  49.12600 23.09700 32.69000
H  45.85100 26.36000 33.16600
H  46.58500 27.64200 32.47900
H  47.49300 28.22900 34.52900
H  47.92200 26.57700 34.97700
H  44.33500 20.08200 29.25800
H  45.54700 20.49500 30.55900
H  45.96900 19.20100 29.43200
H  45.77500 18.18500 27.31100
H  44.55700 18.17200 26.00500
H  44.19300 19.11300 27.41500
H  46.82600 24.59800 23.03800
H  49.13200 26.35900 23.29100
H  48.45600 22.97400 22.29500
H  49.27100 23.01800 23.84600
H  49.60100 24.24000 22.69300
H  46.95900 27.90200 23.87800
H  46.29000 26.64300 22.89100
H  48.71800 27.43700 21.61700
H  47.71600 28.91000 21.76200
H  46.96200 27.51500 21.00600
H  51.04500 30.70100 27.56100
H  49.49900 30.94000 26.88400
H  50.60400 29.95900 25.89800
H  48.26400 28.96400 31.69000
H  50.03200 28.25800 35.43000
H  50.12600 30.00700 35.38600
H  51.43700 28.99800 34.81000

