158

Mg -2.24600 17.16100 25.73300
C  -2.59700 14.90900 28.37100
C  -3.11800 19.69100 27.82300
C  -2.34300 19.14900 23.08100
C  -2.02900 14.36100 23.54000
N  -2.78100 17.23400 27.88300
C  -2.81000 16.28000 28.76100
C  -3.28100 16.72800 30.15500
C  -3.50600 18.27800 29.93900
C  -3.16300 18.44000 28.45400
C  -4.91200 18.78100 30.42500
C  -2.17500 16.53600 31.33800
C  -2.33200 17.38000 32.61600
H  -2.25500 16.68500 33.96300
N  -2.41100 19.18900 25.49500
C  -2.73300 20.06700 26.50100
C  -2.58800 21.37900 25.97500
C  -2.33800 21.24300 24.60400
C  -2.35500 19.79000 24.33100
C  -2.51500 22.65600 26.84100
C  -2.02800 22.35800 23.54300
O  -1.82500 22.08100 22.34600
C  -1.73800 23.72300 24.01800
N  -2.22000 16.82900 23.60100
C  -2.16700 17.83500 22.68100
C  -2.17200 17.30100 21.23100
C  -2.14300 15.71700 21.42200
C  -2.14900 15.57300 22.95400
C  -3.25700 17.84600 20.21500
C  -1.31000 14.89200 20.49100
C  0.12200 14.46600 20.99200
N  -2.26100 15.01700 25.83400
C  -2.06800 14.02700 24.90600
C  -1.98000 12.72600 25.63300
C  -2.28700 13.00200 26.97400
C  -2.35400 14.45100 27.04300
C  -1.88700 11.35200 24.94300
C  -2.38200 12.54200 28.33200
O  -2.11600 11.39800 28.78600
C  -2.53200 13.68700 29.31700
C  -1.31700 13.66700 30.20200
O  -0.15800 13.90700 29.83100
O  -1.66100 13.29000 31.44100
C  -0.54100 13.04100 32.36500
H  -3.24100 20.55400 28.48100
H  -2.45200 19.80300 22.21300
H  -1.90700 13.57500 22.79100
H  -4.20200 16.18300 30.36000
H  -2.78300 18.89200 30.47700
H  -5.39700 19.22900 29.55800
H  -4.81300 19.60500 31.13200
H  -5.70200 18.09500 30.73100
H  -1.20400 16.89200 30.99500
H  -2.36000 15.50800 31.64800
H  -3.36000 17.73600 32.53900
H  -1.57600 18.16500 32.59500
H  -2.52300 22.39800 27.90000
H  -3.21700 23.39200 26.44800
H  -1.51300 23.07800 26.76700
H  -0.81900 23.66400 24.60200
H  -2.61900 23.94400 24.61900
H  -1.56700 24.45500 23.22800
H  -1.17600 17.46400 20.82000
H  -3.10100 15.20800 21.31300
H  -3.92700 17.02400 19.96000
H  -2.81500 18.19700 19.28200
H  -3.79900 18.66700 20.68400
H  -1.37800 15.50600 19.59300
H  -1.92100 14.04300 20.18200
H  0.23400 13.39600 20.81300
H  0.24900 14.62200 22.06300
H  0.94300 14.98200 20.49400
H  -0.84500 11.15500 25.19500
H  -1.97700 11.41600 23.85900
H  -2.55000 10.59800 25.36700
H  -3.43600 13.46300 29.88400
H  -0.54300 13.84100 33.10600
H  0.47700 12.79000 32.06800
H  -0.97600 12.18700 32.88400
Mg 25.76200 0.04500 28.99100
C  27.65600 -0.51200 32.00600
C  23.15800 0.89500 31.03200
C  23.92400 0.24300 26.33700
C  28.53800 -0.90000 27.15400
N  25.43600 0.05000 31.31400
C  26.37600 -0.09800 32.23300
C  25.83800 0.20800 33.58100
C  24.30700 0.41600 33.32400
C  24.27600 0.49200 31.80000
C  23.30900 -0.70200 33.89000
C  26.53900 1.49200 34.28700
C  27.01500 1.26700 35.71400
H  26.70100 2.39600 36.70100
N  23.78400 0.51800 28.76700
C  22.85600 0.83000 29.68300
C  21.55000 1.04600 29.04200
C  21.78100 0.78400 27.65900
C  23.26800 0.54100 27.53100
C  20.30600 1.35600 29.86300
C  20.75400 0.89300 26.49600
O  21.06900 0.78900 25.28000
C  19.30500 0.97300 26.90100
N  26.17400 -0.45300 27.03400
C  25.26600 -0.10600 26.07200
C  25.82400 -0.25100 24.63100
C  27.32200 -0.50800 24.86200
C  27.34600 -0.66100 26.44300
C  25.09000 -1.32300 23.81100
C  28.34200 0.48900 24.31300
C  28.64400 1.66700 25.25200
N  27.69300 -0.56700 29.41500
C  28.70900 -0.97500 28.55800
C  29.89400 -1.26100 29.34700
C  29.48000 -1.11200 30.67300
C  28.15100 -0.68700 30.71900
C  31.21600 -1.67400 28.83300
C  30.01400 -1.19500 32.03300
O  31.11000 -1.57300 32.47200
C  28.83700 -0.67600 32.95000
C  28.58900 -1.80400 33.84300
O  28.01400 -2.82900 33.62500
O  29.20600 -1.47100 35.04300
C  28.98700 -2.44400 36.19100
H  22.36700 1.40200 31.58700
H  23.38500 0.49200 25.42000
H  29.48500 -1.09000 26.64400
H  25.99000 -0.57900 34.31900
H  23.92500 1.33600 33.76600
H  22.77300 -1.16400 33.06100
H  22.65200 -0.18300 34.58800
H  23.82600 -1.46100 34.47700
H  25.84100 2.32600 34.21400
H  27.38500 1.70800 33.63400
H  28.09700 1.13600 35.71800
H  26.61900 0.28700 35.97800
H  19.63100 0.50600 29.76100
H  19.75300 2.22200 29.49800
H  20.43000 1.57700 30.92300
H  18.96900 1.91100 27.34300
H  19.16000 0.10700 27.54800
H  18.69700 0.70000 26.03900
H  25.88500 0.68100 24.06800
H  27.64600 -1.42200 24.36500
H  25.81700 -1.96500 23.31300
H  24.52600 -0.82500 23.02200
H  24.44600 -1.89400 24.48000
H  27.91600 0.81300 23.36400
H  29.24000 -0.02400 23.96800
H  27.96100 1.65900 26.10100
H  28.46900 2.60800 24.73100
H  29.66800 1.63700 25.62500
H  31.55200 -0.87800 28.17000
H  31.09100 -2.55400 28.20300
H  31.91800 -1.91500 29.63200
H  29.10400 0.23600 33.48500
H  28.18200 -2.19700 36.88300
H  29.90800 -2.30800 36.75800
H  28.82500 -3.46400 35.84200

