158

Mg 16.45100 -1.84900 27.85600
C  15.28700 0.50900 30.28000
C  18.46000 -3.22900 30.19300
C  17.76300 -3.58100 25.30700
C  14.26900 -0.18200 25.49500
N  16.97400 -1.31000 30.00700
C  16.20800 -0.45500 30.80500
C  16.52400 -0.63100 32.34100
C  17.52900 -1.85000 32.25900
C  17.58100 -2.26600 30.75500
C  18.93100 -1.52800 32.88600
C  15.39900 -0.98400 33.33000
C  15.46600 -0.46700 34.80900
H  16.85000 -0.02200 35.46500
N  17.88500 -3.33400 27.76800
C  18.64500 -3.72500 28.86700
C  19.52900 -4.80400 28.40300
C  19.28700 -4.89300 26.93700
C  18.30900 -3.88600 26.60300
C  20.42100 -5.53000 29.28100
C  19.99000 -5.77000 25.89500
O  19.83200 -5.61100 24.72400
C  21.18400 -6.68000 26.43500
N  15.96600 -1.95600 25.77300
C  16.66900 -2.70900 24.85300
C  16.43100 -2.33600 23.42600
C  15.14400 -1.55600 23.56600
C  15.15000 -1.12100 25.05000
C  17.47900 -1.44100 22.82800
C  13.76400 -2.31400 23.17100
C  12.88200 -3.06900 24.15800
N  14.83000 -0.37600 27.84500
C  14.14000 0.22300 26.80400
C  13.33300 1.34400 27.37900
C  13.72700 1.38900 28.71800
C  14.68900 0.41600 28.95700
C  12.29600 2.26400 26.61400
C  13.50900 2.13200 29.89800
O  12.89200 3.15200 30.11600
C  14.46700 1.58300 30.98900
C  15.25200 2.73200 31.50800
O  16.13400 3.36900 30.94700
O  14.91500 2.97900 32.80000
C  15.79700 3.87700 33.55500
H  19.09700 -3.79900 30.87200
H  18.14300 -4.16900 24.46900
H  13.53700 0.15200 24.75600
H  17.10600 0.25100 32.60900
H  17.22200 -2.74600 32.79900
H  19.66600 -1.85800 32.15200
H  19.15800 -2.21000 33.70500
H  19.00000 -0.48700 33.20100
H  15.25800 -2.05400 33.48700
H  14.50500 -0.63900 32.81200
H  14.95700 -1.10500 35.53200
H  14.84500 0.42800 34.80100
H  20.51100 -6.59600 29.07100
H  20.28600 -5.43100 30.35800
H  21.39200 -5.07300 29.09000
H  21.84900 -6.01700 26.98900
H  21.70200 -7.08400 25.56500
H  20.88800 -7.54200 27.03300
H  16.26700 -3.25400 22.86100
H  15.33200 -0.60700 23.06400
H  18.37400 -1.98100 22.52000
H  17.86000 -0.88100 23.68200
H  17.19600 -0.69500 22.08600
H  14.09600 -3.02500 22.41400
H  13.18600 -1.56600 22.63000
H  13.03700 -2.78700 25.20000
H  13.09100 -4.12400 23.98100
H  11.82100 -2.92300 23.95700
H  11.42900 2.34000 27.26900
H  12.03000 1.92700 25.61200
H  12.72600 3.25200 26.44900
H  13.80100 1.18100 31.75200
H  15.91600 4.83400 33.04700
H  16.73500 3.35700 33.75100
H  15.31200 4.10500 34.50400
Mg 25.03800 1.62400 30.29400
C  27.25800 1.36400 33.03200
C  22.40300 2.03000 32.54800
C  22.91500 1.69300 27.70500
C  27.60800 1.11800 28.09900
N  24.89100 1.68600 32.55100
C  25.92900 1.73400 33.45900
C  25.46900 1.95000 34.89100
C  23.94900 2.13400 34.69300
C  23.67400 1.82900 33.16600
C  23.11000 1.29300 35.67600
C  26.11900 3.19700 35.57300
C  26.89700 2.93400 36.87700
H  26.77500 3.98100 38.07600
N  22.95100 1.72100 30.16500
C  22.04600 1.91400 31.18400
C  20.74500 1.97000 30.67100
C  20.85800 1.89600 29.23800
C  22.33300 1.70800 29.01400
C  19.46700 2.11300 31.58800
C  19.72900 2.00600 28.21300
O  19.91900 1.93000 27.01400
C  18.30300 2.33800 28.68400
N  25.16400 1.41600 28.20200
C  24.26100 1.62000 27.29600
C  24.71400 1.62800 25.81800
C  26.28000 1.41900 25.93000
C  26.36000 1.35900 27.52400
C  24.01500 0.53600 25.01800
C  27.08100 2.66300 25.42800
C  26.85200 4.04600 26.21100
N  26.96600 1.27000 30.46300
C  27.96500 1.02800 29.46500
C  29.27400 0.88100 30.14800
C  29.00400 1.03000 31.50600
C  27.58400 1.20500 31.69000
C  30.58100 0.66600 29.35500
C  29.65200 0.99700 32.81300
O  30.81600 0.87100 33.11200
C  28.57700 1.34300 33.87300
C  28.55200 0.38100 34.89900
O  27.92200 -0.66400 34.85600
O  29.20400 0.79600 36.02800
C  29.26900 -0.16700 37.10600
H  21.62500 2.31600 33.25900
H  22.13900 1.72700 26.93800
H  28.33400 0.91300 27.31000
H  25.63300 1.02700 35.44600
H  23.64900 3.17100 34.83800
H  22.43800 2.08300 36.01100
H  23.75600 0.78700 36.39400
H  22.44500 0.57700 35.19300
H  25.36200 3.96100 35.74800
H  26.68900 3.67800 34.77800
H  27.96000 3.04000 36.65900
H  26.71200 1.97800 37.36700
H  18.87500 2.98600 31.31600
H  19.68400 1.96900 32.64700
H  18.85800 1.23700 31.36500
H  18.39200 3.23000 29.30300
H  17.99500 1.51300 29.32700
H  17.76600 2.50100 27.74900
H  24.46700 2.57200 25.33200
H  26.55500 0.51400 25.38800
H  23.50900 -0.17600 25.67100
H  24.67800 -0.12100 24.45500
H  23.35500 0.96000 24.26100
H  26.76600 2.77800 24.39000
H  28.12900 2.37700 25.33700
H  27.67400 4.21100 26.90700
H  25.86200 3.97600 26.66300
H  26.76500 4.75800 25.39100
H  30.70900 1.40800 28.56700
H  30.50400 -0.31300 28.88200
H  31.39500 0.62800 30.08000
H  28.65100 2.29800 34.39400
H  29.94500 0.14000 37.90400
H  29.53000 -1.20800 36.91400
H  28.30200 -0.14600 37.60800

