158

Mg 24.54300 -6.77200 46.66500
C  27.00800 -4.39800 46.21800
C  22.71000 -5.25900 44.12300
C  22.47400 -9.38300 46.64300
C  26.91800 -8.54800 48.71800
N  24.96400 -5.13800 45.16500
C  26.03500 -4.28500 45.29400
C  25.87300 -3.14900 44.30200
C  24.37900 -3.35100 43.85800
C  23.98000 -4.71700 44.39500
C  23.33300 -2.26800 44.24500
C  27.00800 -3.41400 43.16100
C  27.91500 -2.15900 42.94200
H  27.95700 -1.80100 41.43700
N  22.74100 -7.16500 45.70300
C  22.13800 -6.40300 44.64200
C  20.88000 -7.04200 44.32900
C  20.83500 -8.21500 45.13800
C  22.04100 -8.29900 45.85400
C  19.81800 -6.53100 43.34700
C  19.59300 -9.05800 45.21700
O  18.70200 -8.92900 44.39600
C  19.38400 -10.03400 46.41300
N  24.66400 -8.71000 47.43600
C  23.68300 -9.59900 47.34800
C  23.96300 -10.88300 48.13300
C  25.36300 -10.56000 48.73500
C  25.72700 -9.13600 48.27400
C  22.85600 -11.19500 49.25000
C  26.37700 -11.60400 48.35500
C  27.16600 -12.17300 49.61900
N  26.57500 -6.59500 47.40100
C  27.34300 -7.29700 48.27800
C  28.54600 -6.49000 48.63200
C  28.43700 -5.35400 47.76300
C  27.25800 -5.47400 47.09700
C  29.57300 -6.95100 49.65400
C  29.18000 -4.15000 47.46200
O  30.20300 -3.69200 47.86400
C  28.20700 -3.45300 46.34500
C  27.81000 -2.18100 46.86700
O  27.16500 -1.97300 47.87500
O  28.29700 -1.20400 46.07500
C  27.70500 0.13200 46.21800
H  22.11700 -4.69100 43.40400
H  21.83700 -10.25800 46.49900
H  27.52600 -9.12300 49.42100
H  26.01600 -2.22200 44.85600
H  24.31700 -3.34400 42.77000
H  23.88600 -1.36400 44.50100
H  22.68900 -2.54000 45.08200
H  22.70900 -2.03800 43.38200
H  26.52500 -3.73700 42.23900
H  27.67400 -4.21300 43.48700
H  28.95500 -2.26300 43.25100
H  27.58500 -1.27300 43.48500
H  18.91600 -6.46700 43.95500
H  19.63000 -7.13800 42.46100
H  20.12900 -5.54500 43.00200
H  18.31200 -10.14400 46.57900
H  19.86100 -9.58000 47.28200
H  19.95900 -10.93700 46.21100
H  24.08300 -11.66000 47.37700
H  25.19700 -10.27200 49.77300
H  22.33200 -12.12900 49.04500
H  22.16000 -10.36400 49.36600
H  23.37300 -11.13900 50.20800
H  27.14000 -11.25400 47.65900
H  25.80900 -12.48700 48.06300
H  26.49100 -12.41300 50.44100
H  27.83900 -11.36000 49.89100
H  27.66500 -13.07200 49.25700
H  29.83000 -7.98000 49.40400
H  29.19600 -6.86200 50.67300
H  30.49100 -6.36500 49.60900
H  28.66200 -3.33800 45.36100
H  27.46300 0.51800 45.22800
H  28.40400 0.86200 46.62600
H  26.75900 0.13800 46.75900
Mg 26.56600 0.56500 28.75400
C  28.34100 -0.02000 31.73700
C  23.61000 0.17500 30.59300
C  24.91600 0.97100 25.94300
C  29.65100 0.12000 27.04400
N  26.11700 0.23800 30.90100
C  26.96000 0.18000 31.91700
C  26.21200 0.22800 33.24800
C  24.71700 0.14300 32.90200
C  24.76400 0.06500 31.35600
C  23.91000 -1.08100 33.53000
C  26.56000 1.53500 34.08900
C  26.57600 1.18900 35.62700
H  27.17300 2.12600 36.58600
N  24.50900 0.62700 28.28700
C  23.51600 0.48700 29.19900
C  22.20000 0.79000 28.48800
C  22.56200 0.98200 27.16900
C  24.00800 0.87500 27.05000
C  20.82300 0.76200 29.24600
C  21.68600 1.08400 25.94100
O  22.12800 0.95100 24.83100
C  20.16300 1.29300 26.06100
N  27.23400 0.37200 26.72700
C  26.35300 0.77000 25.73000
C  27.10200 0.99700 24.33600
C  28.64100 0.96100 24.85700
C  28.54800 0.46400 26.30800
C  26.68900 0.10600 23.15800
C  29.25500 2.38000 24.77300
C  29.68600 2.72300 23.35100
N  28.57000 0.09800 29.20900
C  29.70200 0.00800 28.44600
C  30.85500 -0.13800 29.23000
C  30.32700 -0.10600 30.51500
C  28.92300 -0.05800 30.43900
C  32.22600 -0.37700 28.79300
C  30.73600 -0.16200 31.87600
O  31.84200 -0.23100 32.32000
C  29.42600 -0.09500 32.78500
C  29.16300 -1.33700 33.64900
O  28.53600 -2.33700 33.32700
O  29.64400 -1.04100 34.88000
C  29.38500 -2.06200 35.92400
H  22.70800 0.17000 31.20700
H  24.39400 1.07800 24.99000
H  30.59600 0.27900 26.52000
H  26.70600 -0.53900 33.84500
H  24.12400 1.02000 33.16000
H  23.07600 -0.74100 34.14300
H  24.56000 -1.63400 34.20800
H  23.46900 -1.71300 32.76000
H  25.76400 2.24000 33.84800
H  27.49900 1.93900 33.70900
H  26.77600 0.15100 35.89000
H  25.53900 1.30400 35.94200
H  20.48700 1.79600 29.32400
H  20.85400 0.32900 30.24600
H  19.99200 0.18400 28.84200
H  19.83100 1.69600 25.10400
H  20.02500 2.03100 26.85200
H  19.79200 0.29100 26.27600
H  26.69800 1.93400 23.95200
H  29.19200 0.20100 24.30300
H  26.09100 0.75900 22.52300
H  26.02800 -0.72700 23.39700
H  27.48800 -0.25700 22.51100
H  30.16600 2.38500 25.37200
H  28.60800 3.16200 25.17000
H  29.12200 3.61000 23.06200
H  29.41100 1.92700 22.65900
H  30.75300 2.86300 23.17800
H  32.80000 0.30300 29.42300
H  32.41500 -0.16200 27.74100
H  32.58000 -1.38700 28.99900
H  29.58700 0.76000 33.44200
H  30.08000 -1.98600 36.76000
H  29.55400 -3.05800 35.51400
H  28.34900 -2.02700 36.26200

