158

Mg 36.06400 1.36200 29.82800
C  33.63700 2.01700 32.35500
C  38.43300 1.50400 32.32900
C  38.22000 0.49100 27.46700
C  33.51000 1.48700 27.46300
N  36.01500 1.71900 32.05700
C  34.93900 1.86400 32.86400
C  35.39600 2.00100 34.32600
C  36.88300 1.97100 34.24900
C  37.14400 1.82100 32.77400
C  37.53600 3.18900 34.82700
C  34.61200 0.89600 35.18400
C  34.33000 1.16500 36.72000
H  34.95400 2.41600 37.34500
N  38.06000 0.95200 29.90300
C  38.79700 1.09700 31.02600
C  40.14900 0.75900 30.64500
C  40.18200 0.47100 29.23100
C  38.77100 0.59400 28.78400
C  41.25800 0.64900 31.68400
C  41.39600 0.13700 28.32100
O  41.26100 -0.03700 27.07600
C  42.81700 -0.09000 28.83300
N  35.87800 0.99300 27.82400
C  36.91100 0.53500 27.02500
C  36.54500 0.22600 25.53100
C  35.07300 0.70300 25.55900
C  34.77000 1.04800 27.08200
C  37.38700 1.01700 24.45100
C  34.10200 -0.30300 24.78300
C  33.42700 -1.49400 25.58600
N  33.97700 1.97000 29.76300
C  33.05600 1.78900 28.78100
C  31.78500 2.13600 29.22300
C  31.93000 2.11200 30.62800
C  33.28400 2.06400 30.95600
C  30.50700 2.15400 28.47600
C  31.25900 2.22100 31.90400
O  30.09100 2.43500 32.03100
C  32.28200 2.12500 33.04700
C  32.15300 3.39000 33.90300
O  32.35400 4.54400 33.53100
O  31.69700 2.98700 35.09700
C  31.19700 4.03800 35.93900
H  39.23300 1.45200 33.07100
H  38.84200 0.11600 26.65100
H  32.77900 1.61700 26.66200
H  35.00800 2.97500 34.62200
H  37.30000 1.14000 34.81800
H  36.80800 3.98900 34.68900
H  38.44100 3.32900 34.23600
H  37.83300 2.92500 35.84200
H  35.22300 -0.00000 35.08000
H  33.68700 0.46900 34.79600
H  34.74100 0.36500 37.33500
H  33.25900 1.14400 36.92300
H  41.66300 -0.36300 31.71800
H  41.04100 0.88500 32.72600
H  42.08600 1.31100 31.43500
H  42.85600 -1.08400 29.28000
H  43.12100 0.68400 29.53700
H  43.56700 -0.00400 28.04600
H  36.60400 -0.86300 25.54400
H  34.92900 1.62800 25.00100
H  38.07700 1.76100 24.84800
H  36.82800 1.54000 23.67400
H  37.79400 0.23400 23.81200
H  34.66400 -0.76900 23.97400
H  33.23500 0.15200 24.30600
H  32.35300 -1.37200 25.72900
H  33.76900 -1.57900 26.61700
H  33.60300 -2.44600 25.08400
H  29.84200 1.29800 28.59100
H  30.64500 2.44300 27.43400
H  29.95800 3.03000 28.82300
H  32.03000 1.27200 33.67600
H  31.14500 5.00200 35.43300
H  31.73200 4.15900 36.88100
H  30.16500 3.74500 36.13200
Mg 46.43800 44.75800 43.49900
C  42.89700 44.64500 43.24800
C  46.43600 41.31800 42.97200
C  49.72700 45.03400 43.09300
C  46.17200 48.20300 43.56000
N  44.89500 43.27500 43.17100
C  43.49600 43.42000 43.00800
C  42.78300 42.05300 42.65800
C  43.90400 41.07200 43.01500
C  45.16500 41.94400 43.03000
C  43.69500 40.32100 44.38100
C  42.27700 41.93500 41.18700
C  43.21400 42.40700 40.13100
H  42.95700 42.01400 38.58700
N  47.92000 43.40400 43.05900
C  47.74300 42.01600 42.85400
C  48.96400 41.42000 42.54500
C  49.99900 42.42700 42.63700
C  49.23700 43.72100 42.95600
C  49.14800 39.89500 42.30500
C  51.51300 42.20000 42.55200
O  51.92500 41.04900 42.29800
C  52.44200 43.33500 42.77000
N  47.75700 46.39500 43.29200
C  49.09400 46.25000 43.25200
C  49.78600 47.60700 43.17500
C  48.66900 48.67800 43.23700
C  47.46700 47.74000 43.40000
C  51.02900 47.77100 44.20200
C  48.57800 49.50400 41.93900
C  48.13100 50.93300 42.08800
N  44.91000 46.17100 43.51900
C  44.96300 47.50000 43.63500
C  43.59700 48.05100 43.86300
C  42.79500 46.97300 43.67200
C  43.60700 45.82500 43.44200
C  43.18700 49.46800 43.95700
C  41.39900 46.55800 43.60500
O  40.38500 47.22600 43.63400
C  41.43600 44.99300 43.27400
C  40.67100 44.27500 44.32200
O  39.82300 43.43700 44.12400
O  41.09600 44.62300 45.58700
C  40.62500 43.85700 46.73500
H  46.40600 40.23100 43.07300
H  50.79900 45.13100 42.90300
H  46.05200 49.27100 43.75200
H  41.90200 41.90400 43.28100
H  44.01800 40.39600 42.16700
H  43.52100 39.26800 44.15900
H  42.81500 40.73600 44.87400
H  44.54100 40.40700 45.06200
H  41.45600 42.65200 41.17100
H  42.02500 40.87700 41.11200
H  44.24300 42.18500 40.41400
H  42.90000 43.45000 40.10900
H  48.93800 39.74100 41.24600
H  48.43000 39.26000 42.82400
H  50.16700 39.55200 42.48400
H  52.26600 43.84900 43.71600
H  52.30100 44.00900 41.92500
H  53.45500 42.93700 42.73000
H  50.27000 47.53400 42.20100
H  48.69500 49.24000 44.17000
H  50.76400 47.36500 45.17800
H  51.31500 48.80500 44.39700
H  51.95100 47.38300 43.77100
H  47.89800 48.87900 41.36000
H  49.52200 49.53700 41.39600
H  48.89100 51.62700 42.44600
H  47.18200 50.98600 42.62300
H  47.58400 51.14400 41.16800
H  42.92400 49.64000 45.00000
H  42.22600 49.54900 43.44900
H  43.98100 50.13800 43.62800
H  40.89200 44.88400 42.33600
H  40.74500 44.43800 47.65000
H  41.22600 42.95100 46.80800
H  39.59100 43.52700 46.63500

