158

Mg 47.47700 14.87600 28.27900
C  45.43700 14.87200 30.97300
C  49.42100 17.10600 29.77400
C  49.13000 15.31500 25.35100
C  44.90500 13.11700 26.41500
N  47.37100 15.87000 30.13600
C  46.51200 15.64600 31.16700
C  47.00600 16.37700 32.43700
C  48.02300 17.39600 31.89100
C  48.26300 16.79000 30.48200
C  47.56300 18.85000 31.89100
C  47.45000 15.41200 33.66100
C  47.38000 16.00600 35.02600
H  48.52000 15.69900 35.95200
N  49.12300 15.92000 27.71000
C  49.72600 16.89800 28.43100
C  50.84600 17.48100 27.67600
C  50.90300 16.76300 26.38300
C  49.66500 15.91000 26.42900
C  51.71500 18.56800 28.24800
C  51.75700 16.88800 25.16600
O  51.71100 16.17600 24.13400
C  52.96500 17.80800 25.35500
N  47.13100 14.12900 26.23000
C  47.95600 14.54700 25.19400
C  47.46600 13.96000 23.86300
C  46.17200 13.21400 24.30400
C  46.04400 13.50200 25.72800
C  47.26900 15.05300 22.83600
C  46.15600 11.74000 23.91600
C  46.76700 10.75000 24.98100
N  45.52300 14.04600 28.60400
C  44.65100 13.41400 27.77400
C  43.55000 13.05600 28.57800
C  43.81100 13.57700 29.84100
C  45.04500 14.16800 29.80700
C  42.33900 12.30100 28.19100
C  43.34300 13.68000 31.15900
O  42.25100 13.24300 31.59200
C  44.39900 14.46300 32.00100
C  43.74000 15.66600 32.63900
O  43.34700 16.64700 32.06300
O  43.62200 15.45200 33.98100
C  42.89900 16.50800 34.73300
H  50.08100 17.77100 30.33600
H  49.59400 15.25800 24.36500
H  44.14400 12.53500 25.89100
H  46.16400 16.98700 32.76400
H  48.89600 17.38500 32.54400
H  48.17900 19.48100 32.53200
H  46.56600 18.95500 32.31700
H  47.58600 19.32200 30.90900
H  48.49000 15.09700 33.57300
H  46.76700 14.56200 33.67300
H  46.41200 15.86900 35.50800
H  47.41700 17.08400 34.86700
H  51.83600 19.32400 27.47200
H  52.58800 18.06900 28.67000
H  51.14200 19.05300 29.03900
H  53.63200 17.58900 26.18900
H  52.53700 18.80500 25.45700
H  53.57900 17.72100 24.45900
H  48.14400 13.15600 23.58100
H  45.37100 13.66800 23.72100
H  47.13000 16.06600 23.21400
H  46.44500 14.66700 22.23600
H  48.09300 14.97500 22.12700
H  46.79700 11.55200 23.05400
H  45.17100 11.41200 23.58400
H  46.10700 10.12000 25.57900
H  47.34100 11.31400 25.71600
H  47.44000 10.06700 24.46200
H  42.18500 11.57500 28.98900
H  42.40000 11.69900 27.28400
H  41.43100 12.89900 28.26600
H  44.70800 13.88300 32.87000
H  43.00500 16.20600 35.77500
H  41.86600 16.61300 34.40100
H  43.36900 17.48700 34.64500
Mg 46.25300 24.20200 28.73600
C  47.14000 26.28300 31.42200
C  45.25600 21.86800 30.97900
C  46.42200 21.84200 26.28000
C  47.84500 26.52000 26.60800
N  45.93500 24.25200 30.96200
C  46.36100 25.23300 31.86600
C  45.96000 24.83700 33.30600
C  45.55200 23.29400 33.15000
C  45.62200 23.06900 31.59500
C  46.44100 22.35200 33.95300
C  44.83500 25.76200 33.98000
C  45.13700 26.33000 35.40500
H  44.05200 26.26000 36.39700
N  45.76700 22.18700 28.60100
C  45.43100 21.43900 29.64900
C  45.06700 20.08700 29.19200
C  45.29800 20.10800 27.76900
C  45.84700 21.42300 27.48400
C  44.43300 19.02500 30.07400
C  45.01300 19.00500 26.73700
O  45.08000 19.20400 25.50700
C  44.59500 17.70900 27.30400
N  46.88000 24.30100 26.67900
C  46.85500 23.10500 25.94500
C  47.44900 23.35300 24.56000
C  47.79600 24.90100 24.59000
C  47.47200 25.32700 26.02600
C  48.53400 22.44400 24.04100
C  47.11500 25.75500 23.52000
C  47.79800 25.86600 22.11000
N  47.09100 26.04200 28.87400
C  47.66200 26.90300 27.94700
C  48.21200 28.10500 28.52700
C  48.05700 27.88300 29.89500
C  47.34300 26.62800 30.08400
C  48.83200 29.29500 27.79800
C  48.34500 28.44500 31.24200
O  48.88100 29.51900 31.59100
C  47.72600 27.39600 32.28300
C  48.74400 26.92700 33.22000
O  49.50600 26.00100 32.92600
O  48.60900 27.58300 34.42900
C  49.34000 27.07700 35.59400
H  45.01200 21.03800 31.64500
H  46.41300 21.12700 25.45500
H  48.30000 27.20800 25.89200
H  46.86700 24.99700 33.88900
H  44.50200 23.19700 33.42600
H  45.92800 22.31400 34.91400
H  47.49900 22.61400 33.96100
H  46.31400 21.36000 33.51800
H  43.87400 25.24900 34.00800
H  44.85300 26.66200 33.36500
H  45.36000 27.39700 35.40600
H  46.02100 25.81400 35.77900
H  43.41200 18.99900 29.69300
H  44.43200 19.29900 31.12900
H  45.02400 18.11000 30.06100
H  43.70300 17.83100 27.91800
H  45.46000 17.42600 27.90300
H  44.39000 17.04500 26.46400
H  46.64900 23.23000 23.83000
H  48.85600 25.01900 24.36200
H  49.47300 22.97200 23.87700
H  48.20300 21.99300 23.10500
H  48.64000 21.79000 24.90600
H  47.15900 26.77100 23.91200
H  46.09200 25.41200 23.36800
H  48.70000 25.26100 22.02200
H  48.10300 26.87800 21.84300
H  47.02500 25.44100 21.47000
H  48.41600 29.56900 26.82800
H  49.86800 28.99700 27.63800
H  48.81000 30.20400 28.39800
H  46.89100 27.89200 32.77800
H  50.27400 27.63700 35.60100
H  49.64800 26.03100 35.59300
H  48.74500 27.34000 36.46900

