158

Mg 2.59300 -2.04300 44.65400
C  5.52900 -0.68600 43.52600
C  0.83600 0.02100 42.58700
C  -0.26100 -3.85000 45.37900
C  4.50500 -4.48500 46.38900
N  3.12700 -0.62600 43.13100
C  4.44200 -0.17700 42.82800
C  4.42900 0.98800 41.82300
C  2.88000 1.36100 41.80200
C  2.24900 0.23200 42.61200
C  2.57800 2.80600 42.32300
C  5.02000 0.63300 40.43500
C  6.28400 1.37000 40.09100
H  6.59600 1.94100 38.66700
N  0.53500 -1.84600 44.08900
C  0.00100 -0.93500 43.18800
C  -1.32900 -1.19500 43.03900
C  -1.72800 -2.22200 43.93800
C  -0.43900 -2.71700 44.52600
C  -2.32000 -0.37400 42.14800
C  -3.13000 -2.68300 44.21400
O  -4.01000 -2.33100 43.42000
C  -3.55900 -3.77400 45.18800
N  2.23900 -3.93400 45.76100
C  0.96100 -4.37100 45.96000
C  0.92500 -5.66600 46.84700
C  2.44300 -5.99300 46.94500
C  3.10500 -4.76600 46.30700
C  0.27300 -5.65000 48.25200
C  2.93500 -7.27800 46.19600
C  3.22300 -8.40000 47.16400
N  4.64700 -2.49700 44.97600
C  5.23900 -3.44700 45.76700
C  6.66900 -3.20800 45.79000
C  6.82800 -2.14300 44.93400
C  5.55600 -1.73600 44.49700
C  7.76500 -3.94700 46.56100
C  7.84000 -1.28300 44.39700
O  9.03600 -1.21300 44.60300
C  7.06100 -0.31300 43.50500
C  7.22700 1.04600 44.07400
O  8.09100 1.79300 43.66300
O  6.38300 1.34500 45.07000
C  6.65300 2.55200 45.87600
H  0.27000 0.65400 41.90000
H  -1.15200 -4.45000 45.57400
H  5.05600 -5.17600 47.03000
H  4.95000 1.81200 42.30900
H  2.38000 1.32400 40.83400
H  2.67500 3.47900 41.47200
H  3.13900 3.16800 43.18400
H  1.53400 2.82300 42.63500
H  4.32700 0.65600 39.59400
H  5.35900 -0.39900 40.52500
H  7.14500 0.76500 40.37500
H  6.24400 2.22900 40.76100
H  -1.99800 0.66700 42.17300
H  -3.27400 -0.06800 42.57800
H  -2.52500 -0.77500 41.15600
H  -3.03500 -3.63100 46.13200
H  -3.32700 -4.71000 44.68000
H  -4.63100 -3.71700 45.37600
H  0.40800 -6.37400 46.19900
H  2.61100 -6.01000 48.02200
H  -0.81400 -5.62400 48.17300
H  0.55000 -4.73700 48.77900
H  0.50900 -6.54400 48.83000
H  3.90700 -7.09500 45.73900
H  2.20000 -7.52000 45.42800
H  2.46100 -9.17900 47.15000
H  3.23300 -8.02200 48.18600
H  4.18300 -8.85800 46.92300
H  8.29200 -4.58800 45.85300
H  7.27300 -4.49600 47.36400
H  8.41300 -3.23200 47.06800
H  7.59300 -0.33400 42.55400
H  7.68100 2.66600 46.22100
H  5.92100 2.66000 46.67600
H  6.50600 3.33500 45.13200
Mg 23.92600 -6.59900 45.75400
C  26.32900 -4.09600 45.26900
C  21.59900 -4.59800 44.15200
C  21.86400 -9.23300 45.86900
C  26.59500 -8.61100 46.95800
N  23.97800 -4.63600 44.84900
C  25.08000 -3.89600 44.68500
C  24.67400 -2.63200 43.82900
C  23.11600 -2.59900 43.95300
C  22.85700 -4.01600 44.42600
C  22.49800 -1.54700 44.90100
C  25.24500 -2.73300 42.38200
C  25.50500 -1.37600 41.75500
H  24.65200 -1.04900 40.50800
N  21.96600 -6.86600 45.10800
C  21.20300 -5.89200 44.44800
C  19.90700 -6.47700 44.21500
C  19.98900 -7.86100 44.63600
C  21.27900 -8.01700 45.23100
C  18.85300 -5.71500 43.33700
C  18.92800 -8.89600 44.53600
O  18.05000 -8.67400 43.77000
C  19.00000 -10.26300 45.13600
N  24.17400 -8.54500 46.31700
C  23.19800 -9.46300 46.34500
C  23.70300 -10.84800 46.95400
C  25.16100 -10.60600 46.88900
C  25.34300 -9.14000 46.66400
C  23.09900 -11.23400 48.34800
C  25.88400 -11.42100 45.78000
C  26.97700 -12.41100 46.08900
N  26.05400 -6.42200 46.15800
C  26.96400 -7.31600 46.67300
C  28.21500 -6.66500 46.91100
C  28.02300 -5.38100 46.25800
C  26.70500 -5.30900 45.79800
C  29.46100 -7.25800 47.42500
C  28.63400 -4.08400 45.95100
O  29.72700 -3.64400 46.15600
C  27.50800 -3.25900 45.10800
C  27.27300 -1.84200 45.63700
O  27.07700 -1.59500 46.82300
O  27.34700 -0.96600 44.65800
C  27.61100 0.41000 45.00700
H  20.80900 -3.96700 43.73900
H  21.27600 -10.15200 45.81500
H  27.31600 -9.36000 47.29200
H  24.90700 -1.67400 44.29400
H  22.60400 -2.49800 42.99600
H  23.24900 -0.91400 45.37300
H  21.90400 -1.95500 45.71900
H  21.82100 -0.96500 44.27600
H  24.43200 -3.17700 41.80700
H  26.14700 -3.33600 42.27400
H  26.56700 -1.27400 41.53100
H  25.35700 -0.53700 42.43500
H  19.12500 -5.24500 42.39200
H  18.53300 -4.84400 43.91000
H  17.90700 -6.20800 43.11300
H  18.00500 -10.70800 45.10600
H  19.19500 -10.02000 46.18000
H  19.73200 -10.91000 44.65200
H  23.36600 -11.56600 46.20600
H  25.54800 -10.82400 47.88400
H  22.08200 -11.56300 48.12900
H  23.09900 -10.32300 48.94600
H  23.58500 -12.00900 48.94000
H  26.43800 -10.72200 45.15300
H  25.19300 -12.02200 45.18900
H  26.65500 -13.44400 45.95900
H  27.55100 -12.21800 46.99500
H  27.60200 -12.25900 45.20800
H  29.39000 -7.73300 48.40300
H  30.28100 -6.54100 47.38000
H  29.79000 -7.92800 46.63100
H  27.85400 -3.22600 44.07400
H  27.95000 1.05600 44.19700
H  28.27100 0.49600 45.87000
H  26.66100 0.90700 45.20300

