158

Mg 42.32500 41.02700 26.07500
C  41.43500 43.47700 28.54300
C  43.53900 39.05000 28.54100
C  43.22500 39.05600 23.66900
C  41.44300 43.50200 23.74300
N  42.43600 41.20900 28.25500
C  41.99800 42.29400 29.05600
C  42.09500 41.92000 30.53300
C  42.81900 40.48000 30.55000
C  42.94700 40.21500 29.02200
C  44.17300 40.49200 31.34900
C  40.71200 41.78400 31.27900
C  40.81400 41.69900 32.84400
H  40.19200 42.88700 33.63900
N  43.14800 39.14700 26.11400
C  43.59700 38.47000 27.26700
C  44.10100 37.22100 26.78400
C  43.93100 37.17600 25.33700
C  43.39200 38.45700 24.94300
C  44.80100 36.26700 27.70000
C  44.20800 35.97100 24.36800
O  44.01500 36.07600 23.18600
C  44.69100 34.56500 24.88900
N  42.33600 41.34000 24.03900
C  42.70000 40.25500 23.28700
C  42.35500 40.47300 21.76800
C  41.55400 41.86200 21.85300
C  41.78800 42.28800 23.29000
C  43.61000 40.53400 20.79700
C  40.02900 41.66100 21.49200
C  39.15400 40.99500 22.51200
N  41.65100 43.11500 26.08400
C  41.38100 43.99900 25.03000
C  41.00400 45.28800 25.53000
C  40.94000 45.11300 26.93600
C  41.30700 43.75400 27.19200
C  40.67100 46.47300 24.77200
C  40.61300 45.78400 28.19400
O  40.15500 46.87800 28.41300
C  40.81900 44.70300 29.25100
C  41.69500 45.26900 30.35600
O  42.89600 45.27200 30.29500
O  41.09300 45.78600 31.42000
C  41.84700 46.36200 32.45500
H  43.86100 38.44000 29.38800
H  43.54700 38.43300 22.83200
H  41.25500 44.27900 22.99900
H  42.63500 42.69400 31.07900
H  42.13600 39.77000 31.01700
H  44.38800 39.71900 32.08700
H  44.16600 41.46000 31.85000
H  45.03500 40.43200 30.68500
H  40.22800 40.90900 30.84500
H  40.16300 42.67100 30.96400
H  41.86100 41.59500 33.12700
H  40.33300 40.76500 33.13500
H  44.65600 35.23900 27.36700
H  44.28300 36.36500 28.65400
H  45.84100 36.45900 27.96300
H  44.08500 34.18300 25.71000
H  45.75200 34.70600 25.09800
H  44.69700 33.91800 24.01200
H  41.74600 39.67300 21.34600
H  42.00400 42.55100 21.13700
H  44.46600 40.37700 21.45400
H  43.71600 41.49200 20.28900
H  43.52800 39.70700 20.09200
H  40.01900 41.12300 20.54400
H  39.54800 42.60900 21.25000
H  38.99900 39.97700 22.15600
H  38.18500 41.49200 22.56100
H  39.58300 40.92400 23.51100
H  40.07800 46.38100 23.86200
H  41.62800 46.91000 24.48500
H  40.19400 47.20600 25.42300
H  39.87200 44.41900 29.71000
H  42.72400 46.86000 32.04100
H  42.18400 45.57700 33.13200
H  41.17300 46.98900 33.04000
Mg -6.43900 26.04700 25.68700
C  -4.80700 27.33000 28.44600
C  -8.00600 23.80600 27.84300
C  -7.19100 24.08800 23.00300
C  -4.54900 28.18800 23.55600
N  -6.24400 25.48100 27.87100
C  -5.58700 26.28800 28.76600
C  -6.12800 25.91800 30.21500
C  -6.91800 24.64200 29.94700
C  -7.11500 24.64400 28.47900
C  -6.41000 23.30900 30.59000
C  -6.99100 27.00100 30.95900
C  -7.08300 27.07800 32.52900
H  -6.34400 26.07300 33.43200
N  -7.62700 24.30900 25.35400
C  -8.23100 23.61100 26.38600
C  -9.01600 22.57800 25.84900
C  -8.73400 22.56200 24.42800
C  -7.81000 23.68300 24.16500
C  -9.89900 21.72700 26.70300
C  -9.16300 21.53500 23.35700
O  -8.66900 21.54600 22.22200
C  -10.20300 20.57400 23.68500
N  -5.83500 26.03800 23.62100
C  -6.32500 25.15200 22.72600
C  -6.07900 25.64200 21.27800
C  -5.33000 27.03200 21.40300
C  -5.25000 27.13300 22.96500
C  -5.30800 24.64800 20.41500
C  -6.06100 28.31600 20.70000
C  -7.00200 29.16100 21.59000
N  -5.05400 27.57900 25.94800
C  -4.38600 28.37600 24.97800
C  -3.48200 29.22700 25.68100
C  -3.58200 28.87300 27.03300
C  -4.54300 27.83600 27.12900
C  -2.61700 30.30800 25.14300
C  -3.09400 29.13200 28.41700
O  -2.33300 30.05600 28.82500
C  -3.92700 28.18500 29.35700
C  -2.92700 27.46500 30.24800
O  -2.44900 26.37800 29.99000
O  -2.85900 28.16900 31.34500
C  -2.49300 27.35000 32.51400
H  -8.48800 23.08500 28.50800
H  -7.54000 23.59400 22.09400
H  -4.05500 28.89100 22.88100
H  -5.29800 25.68700 30.88200
H  -7.87400 24.65100 30.47100
H  -6.34400 22.59900 29.76600
H  -7.10500 23.02900 31.38200
H  -5.43300 23.53000 31.02000
H  -8.04000 26.87300 30.69400
H  -6.83400 27.96700 30.47800
H  -8.12200 26.87500 32.79200
H  -6.94100 28.08300 32.92800
H  -9.58200 20.68600 26.63600
H  -10.93000 21.92300 26.40800
H  -10.04200 21.98700 27.75100
H  -10.55000 19.90800 22.89600
H  -11.10600 21.05100 24.06700
H  -9.73800 19.81000 24.30900
H  -7.09100 25.82100 20.91300
H  -4.34000 26.94400 20.95500
H  -5.79000 24.68500 19.43800
H  -5.46500 23.67300 20.87600
H  -4.22800 24.78500 20.47000
H  -6.69000 27.94000 19.89200
H  -5.32000 28.97500 20.24800
H  -6.58900 30.16600 21.67500
H  -7.28700 28.69100 22.53100
H  -7.93400 29.24200 21.03100
H  -1.64400 30.45000 25.61400
H  -3.18200 31.23500 25.23900
H  -2.53700 30.25600 24.05700
H  -4.59000 28.87300 29.88100
H  -2.79400 27.86600 33.42600
H  -1.40300 27.36700 32.53800
H  -3.00700 26.38800 32.50500

