158

Mg 47.21300 35.55700 26.69900
C  45.61900 33.94000 29.37100
C  47.78000 38.25500 28.72400
C  48.11500 37.27100 23.93500
C  46.10000 32.89100 24.62700
N  46.72400 36.01100 28.73000
C  46.21100 35.18300 29.65100
C  46.53000 35.75900 31.05100
C  46.73800 37.24200 30.81400
C  47.15600 37.15600 29.36000
C  45.49400 38.14500 31.11300
C  47.69200 34.99800 31.68500
C  48.01600 35.00200 33.24300
H  47.05600 35.89100 34.06300
N  47.97100 37.48800 26.31900
C  48.10800 38.50000 27.29500
C  48.60800 39.67000 26.71000
C  48.85000 39.37100 25.29400
C  48.30100 37.99800 25.10100
C  48.84400 40.90800 27.48000
C  49.37500 40.24500 24.22000
O  49.41000 39.87100 23.04000
C  49.91500 41.64800 24.51400
N  47.11000 35.07300 24.57300
C  47.52400 35.97000 23.64300
C  47.48700 35.47300 22.25200
C  47.23700 33.94800 22.50600
C  46.78300 33.93700 23.97900
C  46.54600 36.18100 21.24800
C  48.50200 33.11400 22.33900
C  48.61600 32.08800 21.15200
N  46.13000 33.80200 26.86200
C  45.81600 32.79500 25.99100
C  45.17000 31.70100 26.63300
C  45.00600 32.09900 28.03000
C  45.63800 33.38400 28.06800
C  44.53600 30.46600 26.04300
C  44.42200 31.78900 29.28600
O  43.81200 30.80100 29.66400
C  44.69700 32.99000 30.20400
C  45.09700 32.53800 31.53200
O  46.09700 31.86600 31.84600
O  44.20000 33.02300 32.42500
C  44.59400 32.83200 33.82500
H  47.96800 39.18400 29.26800
H  48.44700 37.71600 22.99400
H  45.83900 32.03200 24.00600
H  45.67400 35.61800 31.71000
H  47.54100 37.64100 31.43400
H  45.73900 38.97200 31.77900
H  44.65000 37.56300 31.48200
H  45.19500 38.59300 30.16500
H  48.58900 35.23900 31.11500
H  47.60900 33.94800 31.40500
H  49.02300 35.38900 33.40300
H  47.90500 33.96700 33.56800
H  49.72900 41.38300 27.05800
H  48.96200 40.72800 28.54800
H  48.04600 41.59700 27.20000
H  50.19600 42.12400 23.57500
H  50.73300 41.90600 25.18700
H  49.09000 42.25700 24.88300
H  48.45500 35.57200 21.76100
H  46.46400 33.51200 21.87300
H  45.84000 35.48500 20.79600
H  47.19100 36.66500 20.51500
H  45.95200 36.95500 21.73500
H  48.51600 32.49900 23.23900
H  49.40500 33.72400 22.35300
H  48.53400 31.07500 21.54600
H  49.54500 32.07600 20.58200
H  47.83000 32.25300 20.41600
H  45.25200 29.65600 26.18000
H  44.39900 30.65500 24.97800
H  43.52600 30.23900 26.38300
H  43.74400 33.49800 30.34900
H  43.86000 33.44400 34.35000
H  45.59700 33.23300 33.96900
H  44.40300 31.81500 34.16700
Mg 31.09300 58.36800 40.31500
C  28.21700 56.76500 38.82100
C  33.01200 55.78100 38.98300
C  33.82400 60.27000 40.41500
C  29.11000 61.11300 41.07400
N  30.59300 56.48800 39.14500
C  29.36500 56.06800 38.65100
C  29.44000 54.66600 38.30400
C  30.91100 54.19100 38.80500
C  31.55200 55.57900 38.89600
C  30.73800 53.50200 40.21600
C  29.12700 54.40000 36.74900
C  29.19700 55.52100 35.74300
H  28.29800 55.45300 34.48400
N  33.22700 58.06500 39.84900
C  33.70600 56.89400 39.40700
C  35.14700 56.99400 39.21200
C  35.45300 58.35900 39.56400
C  34.19200 58.95000 40.01300
C  35.95100 55.98700 38.53900
C  36.80900 58.98800 39.44400
O  37.74900 58.48700 38.87500
C  37.01200 60.32800 40.02400
N  31.39500 60.37800 40.56500
C  32.63200 60.97300 40.62600
C  32.56400 62.46500 41.04200
C  31.03200 62.72600 41.41800
C  30.45300 61.33500 40.99600
C  33.59200 62.76400 42.21100
C  30.32700 63.88500 40.76500
C  29.50500 64.86300 41.61900
N  28.99900 58.81900 40.24800
C  28.35300 59.99400 40.55400
C  26.93100 59.79600 40.36900
C  26.80300 58.54100 39.66200
C  28.13700 57.99000 39.58700
C  25.85600 60.77100 40.74700
C  25.91000 57.60600 38.98100
O  24.73300 57.62700 38.71600
C  26.70500 56.41000 38.62400
C  26.23100 55.20600 39.32500
O  25.97600 55.12200 40.55200
O  26.01600 54.21600 38.42700
C  25.39700 53.04800 39.05700
H  33.55400 54.87100 38.71800
H  34.60400 61.03300 40.45200
H  28.63200 62.04400 41.38600
H  28.64900 54.15500 38.85200
H  31.44500 53.56300 38.09200
H  31.47800 52.70300 40.26000
H  29.78500 52.97600 40.16400
H  30.91100 54.25100 40.98900
H  28.11500 54.01600 36.62000
H  29.79000 53.62000 36.37600
H  30.20200 55.51600 35.32000
H  29.01500 56.51400 36.15500
H  35.72500 56.10500 37.48000
H  35.76600 54.94500 38.80100
H  36.99100 56.18800 38.79700
H  36.57200 60.38100 41.01900
H  36.48500 61.04000 39.38900
H  38.08200 60.53800 40.03800
H  32.75800 63.02200 40.12500
H  30.94000 62.72500 42.50400
H  34.50600 63.27400 41.90600
H  33.99900 61.84800 42.63900
H  33.14200 63.39600 42.97700
H  29.52900 63.53200 40.11200
H  31.02400 64.48100 40.17700
H  30.21300 65.59900 41.99800
H  28.92800 64.37200 42.40400
H  28.77700 65.44000 41.04800
H  25.74200 61.51600 39.96000
H  26.30300 61.31300 41.58200
H  24.91800 60.29300 41.02800
H  26.48800 56.28500 37.56300
H  25.53900 52.30700 38.27100
H  24.33600 53.16500 39.28000
H  25.92600 52.73200 39.95600

