158

Mg -1.55500 17.28900 26.35100
C  -2.59900 15.25100 29.02700
C  -2.78400 20.04600 28.02000
C  -1.09700 19.01200 23.50000
C  -1.20500 14.30300 24.32800
N  -2.50600 17.61300 28.33800
C  -2.85800 16.61600 29.21800
C  -3.32500 17.31400 30.48500
C  -3.88700 18.64900 29.85900
C  -2.96800 18.85800 28.69000
C  -5.38000 18.65300 29.48100
C  -2.13300 17.53000 31.39300
C  -2.36600 17.09600 32.88700
H  -1.21400 16.67000 33.74100
N  -1.71700 19.25300 25.88300
C  -2.15100 20.23900 26.75300
C  -1.95100 21.48000 26.04700
C  -1.45100 21.20200 24.74100
C  -1.39500 19.79800 24.66600
C  -2.42700 22.81500 26.68800
C  -1.12900 22.12600 23.59300
O  -0.78800 21.75100 22.47500
C  -1.19400 23.53000 23.82500
N  -1.42100 16.66400 24.20000
C  -1.09400 17.65100 23.34500
C  -0.98500 17.07200 21.87400
C  -0.61800 15.54500 22.24100
C  -1.16600 15.46900 23.67900
C  -2.18000 17.32800 21.00400
C  0.89600 15.08100 22.20600
C  1.90700 15.86200 23.01300
N  -1.76700 15.25300 26.57900
C  -1.53500 14.14400 25.75800
C  -1.90800 12.97300 26.47000
C  -2.19500 13.32200 27.78300
C  -2.12900 14.71800 27.76000
C  -1.76300 11.59500 25.87200
C  -2.47400 12.78900 29.10900
O  -2.52400 11.63100 29.46400
C  -2.89800 14.01300 29.93800
C  -2.18000 13.94300 31.23800
O  -1.03300 14.18800 31.39700
O  -3.06700 13.55500 32.20400
C  -2.46800 12.99400 33.42600
H  -3.21100 20.94800 28.46200
H  -1.15700 19.48200 22.51700
H  -1.17300 13.47500 23.61700
H  -4.08200 16.65300 30.90800
H  -3.71800 19.48700 30.53600
H  -5.78200 17.64700 29.35600
H  -5.40700 19.17100 28.52300
H  -5.98100 19.03800 30.30600
H  -1.75200 18.55000 31.33500
H  -1.18500 17.12600 31.03800
H  -3.02800 16.23500 32.79600
H  -2.92400 17.90300 33.36100
H  -2.87800 22.80700 27.68000
H  -3.19300 23.20100 26.01600
H  -1.47800 23.34900 26.74400
H  -2.21600 23.76300 24.12500
H  -0.84000 24.09800 22.96500
H  -0.60200 23.73600 24.71700
H  -0.09300 17.50000 21.41700
H  -1.25200 14.89500 21.63700
H  -2.79800 18.05700 21.52900
H  -2.75700 16.40300 21.01400
H  -1.84200 17.58400 20.00000
H  1.03100 15.30300 21.14800
H  0.86000 14.00100 22.35400
H  1.45200 16.64900 23.61300
H  2.64000 16.28600 22.32700
H  2.36300 15.04900 23.57900
H  -2.12900 11.63800 24.84600
H  -2.19700 10.78400 26.45700
H  -0.71000 11.42900 25.64600
H  -3.95700 13.83900 30.13000
H  -1.72800 13.73200 33.73500
H  -1.90000 12.07600 33.27900
H  -3.16000 12.84700 34.25600
Mg 47.00300 34.47000 27.27000
C  45.21900 33.11700 29.93300
C  47.62300 37.25200 29.23800
C  48.14600 36.06000 24.61200
C  45.77600 31.77100 25.27300
N  46.62100 35.03200 29.31700
C  45.90800 34.25300 30.25700
C  46.06900 34.98800 31.71000
C  46.43000 36.42100 31.32700
C  46.92300 36.21200 29.88200
C  45.27100 37.41000 31.32700
C  47.14800 34.22000 32.58000
C  46.87200 34.20100 34.12100
H  45.86200 35.20800 34.72300
N  47.81900 36.34100 27.00900
C  48.08400 37.29600 27.91500
C  48.66000 38.54600 27.30100
C  48.86700 38.26600 25.94100
C  48.27400 36.87200 25.79800
C  49.06200 39.77900 28.12200
C  49.65700 38.98900 24.85800
O  49.86900 38.50500 23.76600
C  50.30600 40.33800 25.16600
N  46.90600 33.98400 25.20900
C  47.56900 34.79500 24.29200
C  47.49400 34.11700 22.86000
C  46.93200 32.74000 23.23100
C  46.47600 32.80100 24.62600
C  46.69800 34.92200 21.81000
C  47.82000 31.47800 22.88300
C  49.21100 31.48300 23.56900
N  45.82900 32.66100 27.47900
C  45.40200 31.58500 26.61800
C  44.51100 30.71100 27.35200
C  44.45800 31.27800 28.59000
C  45.26900 32.39500 28.64900
C  43.77100 29.56100 26.74500
C  43.82900 31.11800 29.86000
O  43.11400 30.20800 30.19800
C  44.06600 32.40100 30.65800
C  44.23500 32.05100 32.02800
O  45.28500 31.72600 32.61200
O  43.00200 32.08000 32.67700
C  42.99700 31.67800 34.10200
H  47.62100 38.18100 29.81200
H  48.46600 36.42600 23.63400
H  45.34400 30.98300 24.65300
H  45.06200 34.98600 32.12700
H  47.20600 36.88200 31.93900
H  45.42300 38.24700 32.00900
H  44.36900 36.91400 31.68500
H  45.03100 37.89700 30.38200
H  48.16400 34.54800 32.35800
H  47.20900 33.28400 32.02600
H  47.71200 34.47600 34.75800
H  46.64200 33.18800 34.45300
H  48.21100 40.05400 28.74500
H  49.32400 40.66700 27.54900
H  49.94100 39.42700 28.66200
H  50.88200 40.61200 24.28200
H  50.91900 40.31700 26.06700
H  49.49700 41.06000 25.27700
H  48.54300 34.00900 22.58700
H  46.05200 32.46600 22.65000
H  45.90600 34.24100 21.49600
H  47.27500 35.10200 20.90300
H  46.30100 35.78800 22.34000
H  47.86100 31.26400 21.81500
H  47.28700 30.55900 23.12900
H  50.03800 31.67600 22.88500
H  49.27700 30.54600 24.12400
H  49.20000 32.22000 24.37200
H  44.46000 29.10400 26.03400
H  42.83200 29.80200 26.24600
H  43.49400 28.81400 27.48800
H  43.18900 33.00400 30.42000
H  43.45600 32.42900 34.74600
H  43.50700 30.72000 34.20000
H  41.95900 31.55200 34.40900

