158

Mg 43.59800 3.92600 47.54400
C  41.78000 6.98500 47.26500
C  40.57000 2.34200 47.25600
C  45.11600 1.08100 46.67600
C  46.51100 5.74000 47.05100
N  41.40700 4.62100 47.05300
C  40.91100 5.90800 47.09000
C  39.41800 5.92800 47.07100
C  39.05900 4.38800 47.24600
C  40.44700 3.73100 47.16100
C  38.28900 3.98600 48.48100
C  38.75200 6.62500 45.83100
C  38.79200 5.80200 44.55100
H  38.92500 6.71500 43.35700
N  42.95400 1.90200 47.26600
C  41.65900 1.50100 47.17700
C  41.59700 0.09500 46.97600
C  42.90500 -0.41400 46.80600
C  43.70900 0.85700 46.99100
C  40.32200 -0.71000 46.78600
C  43.32700 -1.86600 46.59300
O  42.44000 -2.74200 46.59900
C  44.82800 -2.27500 46.55200
N  45.46700 3.47200 46.76300
C  45.97100 2.18500 46.64200
C  47.54700 2.12600 46.39500
C  47.84400 3.64900 46.73200
C  46.54200 4.34400 46.84400
C  48.36400 1.05000 47.28300
C  48.78900 4.27500 45.71700
C  50.14900 4.83700 46.22300
N  44.12500 5.92900 47.45800
C  45.35900 6.48900 47.23700
C  45.26300 7.98500 47.36000
C  43.87400 8.20100 47.46300
C  43.19600 6.90900 47.42100
C  46.37100 8.95000 47.29100
C  42.78300 9.22100 47.52400
O  42.79500 10.42900 47.75600
C  41.37700 8.47300 47.30100
C  40.38900 8.72200 48.39500
O  40.41900 8.20600 49.48000
O  39.32200 9.48300 47.88100
C  38.34500 9.82200 48.92000
H  39.58900 1.86400 47.24600
H  45.56700 0.13900 46.35500
H  47.39900 6.34400 46.85400
H  39.02500 6.45400 47.94100
H  38.47300 4.08800 46.37700
H  38.92400 3.73200 49.32900
H  37.54000 3.22600 48.25900
H  37.79900 4.91200 48.78300
H  39.41200 7.47600 45.66300
H  37.75200 7.02200 46.00700
H  37.81200 5.32400 44.53800
H  39.65000 5.14800 44.70800
H  40.43300 -1.66900 47.29100
H  40.09000 -0.94800 45.74700
H  39.48600 -0.19600 47.26000
H  45.42300 -1.84600 47.35800
H  45.34700 -1.96200 45.64600
H  44.82500 -3.36500 46.53600
H  47.53500 1.80300 45.35400
H  48.22400 3.84900 47.73400
H  48.03300 1.11200 48.32000
H  49.41000 1.35700 47.27600
H  48.26900 0.03400 46.89900
H  48.27700 5.08700 45.20000
H  49.06600 3.50100 45.00200
H  50.83300 4.02500 45.97400
H  50.10200 5.20500 47.24800
H  50.51200 5.69900 45.66400
H  46.13800 9.73500 48.01000
H  46.35900 9.48500 46.34100
H  47.32800 8.45400 47.45300
H  41.00900 8.90400 46.37000
H  38.22600 9.00900 49.63600
H  37.33400 9.77100 48.51500
H  38.57200 10.73500 49.47100
Mg 30.55100 58.69600 41.03200
C  27.78800 56.89700 39.93600
C  32.55600 56.28800 39.65300
C  33.08500 60.99600 41.01800
C  28.31300 61.40500 41.77700
N  30.12000 56.88400 39.81100
C  28.96600 56.23500 39.65300
C  29.11200 54.76500 39.27700
C  30.64600 54.58400 39.34500
C  31.16700 55.98200 39.67400
C  31.17400 53.39700 40.17900
C  28.40300 54.26700 38.03300
C  28.20200 55.22000 36.80900
H  28.36100 54.82800 35.37800
N  32.53300 58.61900 40.55400
C  33.15300 57.56000 39.92700
C  34.57800 57.88400 39.83100
C  34.78100 59.20800 40.15200
C  33.46400 59.66500 40.59600
C  35.64000 56.94800 39.27800
C  36.13000 59.92400 40.08900
O  37.07600 59.38900 39.49600
C  36.40400 61.29700 40.65200
N  30.61000 60.81000 41.59400
C  31.81700 61.49200 41.52800
C  31.71600 62.98000 41.88000
C  30.18500 63.10400 42.21200
C  29.65700 61.74400 41.81500
C  32.65600 63.39900 43.03300
C  29.35700 64.29000 41.68100
C  29.08600 65.49200 42.69300
N  28.43000 59.06500 41.08200
C  27.64800 60.18500 41.37200
C  26.26800 59.91600 41.15100
C  26.32400 58.61300 40.59400
C  27.62300 58.16900 40.48000
C  25.18600 60.90800 41.35800
C  25.43500 57.54900 40.07600
O  24.23200 57.56700 39.92900
C  26.39200 56.36700 39.76300
C  26.10000 55.32100 40.78100
O  26.58800 55.16800 41.87600
O  25.14800 54.43700 40.26300
C  24.70500 53.22900 41.05300
H  33.24600 55.53600 39.26400
H  33.74900 61.85300 40.89000
H  27.59100 62.21400 41.90600
H  28.68100 54.33100 40.17900
H  31.07300 54.44700 38.35200
H  31.92200 53.72900 40.89800
H  31.55000 52.69100 39.43800
H  30.44700 52.89100 40.81400
H  27.43700 53.88700 38.36500
H  29.00700 53.48100 37.58000
H  28.92800 56.02200 36.94200
H  27.18000 55.57900 36.92600
H  35.68000 57.22400 38.22500
H  35.33700 55.90600 39.38800
H  36.57600 57.08800 39.81800
H  35.92900 61.54600 41.60200
H  36.14200 62.01600 39.87500
H  37.47900 61.36700 40.81400
H  31.80000 63.54000 40.94900
H  30.15700 63.07300 43.30200
H  33.16300 62.52200 43.43600
H  32.19000 63.90200 43.88000
H  33.32700 64.17300 42.66200
H  28.47400 63.91300 41.16500
H  29.93000 64.61200 40.81100
H  29.32000 65.24700 43.72900
H  28.00600 65.63800 42.66200
H  29.56600 66.40300 42.33600
H  25.40500 61.47400 42.26300
H  24.30600 60.29300 41.54800
H  25.04600 61.45500 40.42600
H  26.09600 56.08700 38.75100
H  24.26900 53.60500 41.97900
H  25.51900 52.57500 41.36600
H  24.00200 52.68100 40.42600

