158

Mg 42.22800 41.23800 26.91900
C  41.45600 43.63100 29.40300
C  43.15600 39.13500 29.27400
C  42.98600 39.05600 24.55800
C  41.50500 43.66500 24.49300
N  42.40700 41.47000 29.21700
C  41.88100 42.44900 30.03100
C  41.93800 42.01900 31.52200
C  42.63700 40.59700 31.45400
C  42.76700 40.39100 29.90700
C  44.05100 40.39800 32.12800
C  40.55700 41.99000 32.16700
C  40.48100 42.80800 33.53200
H  39.83400 42.05600 34.69700
N  43.04800 39.39600 26.97400
C  43.38300 38.69400 28.02000
C  44.02400 37.38000 27.64200
C  43.87300 37.27600 26.27000
C  43.26200 38.59400 25.85900
C  44.57900 36.38300 28.69100
C  44.27500 36.17200 25.35900
O  43.91000 36.15600 24.17500
C  44.94800 34.89200 25.76200
N  42.42000 41.40500 24.81400
C  42.66300 40.31800 24.08300
C  42.74700 40.73900 22.52000
C  42.02200 42.03900 22.55300
C  42.03700 42.39300 24.00800
C  44.18600 40.73900 22.06100
C  40.65700 41.99500 21.79000
C  39.50100 40.91300 22.08300
N  41.66000 43.23900 26.91000
C  41.38500 44.13400 25.84100
C  40.79000 45.32700 26.35800
C  40.82300 45.16000 27.74600
C  41.39900 43.93400 28.06000
C  40.38700 46.48800 25.54500
C  40.53200 45.86000 28.97800
O  40.06100 46.89100 29.28500
C  40.88000 44.83000 30.07400
C  41.73500 45.48800 31.05300
O  42.85800 45.93700 30.76900
O  41.14400 45.64900 32.25400
C  41.82100 46.59400 33.18300
H  43.33100 38.40900 30.07200
H  43.33000 38.45800 23.71100
H  41.26400 44.39100 23.71400
H  42.60300 42.66200 32.09900
H  41.95200 39.82900 31.81300
H  44.85100 40.41300 31.38800
H  44.09800 39.45000 32.66400
H  44.22800 41.17300 32.87500
H  40.17400 40.98300 32.33200
H  39.86500 42.49000 31.48900
H  39.83400 43.67900 33.42200
H  41.42700 43.24800 33.84500
H  44.08200 35.41300 28.66400
H  44.34100 36.69900 29.70700
H  45.62400 36.13900 28.49800
H  45.91600 35.15200 26.19200
H  45.10900 34.21300 24.92500
H  44.30600 34.23300 26.34500
H  42.22200 39.97400 21.94800
H  42.69300 42.81200 22.17700
H  44.83100 41.08900 22.86700
H  44.29900 41.27400 21.11800
H  44.57100 39.80900 21.64100
H  40.85300 41.66000 20.77200
H  40.16500 42.96700 21.82000
H  38.59200 41.32800 22.51800
H  39.94100 40.04000 22.56400
H  39.14500 40.60900 21.09900
H  39.68100 47.05600 26.15100
H  39.75000 46.18200 24.71500
H  41.17200 47.14900 25.17700
H  39.88400 44.72100 30.50300
H  41.67400 47.60900 32.81500
H  42.90600 46.49700 33.21700
H  41.30700 46.37000 34.11800
Mg 9.65300 48.47200 25.53700
C  7.61200 48.79200 28.40800
C  12.32500 49.57700 27.47300
C  11.56700 48.32800 22.84100
C  6.81400 47.76200 23.63700
N  9.90100 49.27100 27.63400
C  8.99700 49.14900 28.62200
C  9.56600 49.45800 30.04100
C  11.03500 49.94900 29.65100
C  11.10800 49.54600 28.16200
C  11.25500 51.51100 29.79800
C  9.60600 48.23000 30.96300
C  9.42200 48.55900 32.46100
H  8.94000 47.37600 33.27200
N  11.64200 49.05300 25.15300
C  12.59200 49.30100 26.10500
C  13.89600 49.29500 25.48400
C  13.71200 48.90000 24.11600
C  12.28500 48.80400 23.95600
C  15.24700 49.64400 26.16700
C  14.76500 48.84400 22.99800
O  14.49000 48.69400 21.82300
C  16.24400 48.83100 23.28800
N  9.22000 48.30200 23.56600
C  10.23800 48.08100 22.69800
C  9.78300 47.59400 21.29400
C  8.33900 47.14600 21.64400
C  8.04700 47.76100 23.01500
C  9.86100 48.63400 20.14400
C  8.03000 45.62500 21.61700
C  7.89600 44.77900 22.88500
N  7.59300 48.29500 25.89600
C  6.52900 48.08300 24.98600
C  5.29700 48.13300 25.76500
C  5.66000 48.41400 27.08600
C  7.03100 48.52300 27.13400
C  3.86700 47.85200 25.22900
C  5.12300 48.51300 28.41800
O  3.95900 48.34400 28.82900
C  6.39800 48.60200 29.31000
C  6.29900 47.29600 30.05300
O  6.49500 46.16200 29.56700
O  5.68700 47.52900 31.28700
C  5.30500 46.33900 32.08900
H  13.18200 49.87900 28.07800
H  12.14500 48.16500 21.92900
H  5.95600 47.58800 22.98300
H  9.02800 50.22500 30.59800
H  11.86300 49.53200 30.22400
H  12.15900 51.73100 30.36600
H  10.42800 52.04600 30.26400
H  11.37000 51.93200 28.79900
H  10.61200 47.81400 30.91900
H  8.95400 47.46000 30.55100
H  8.61000 49.28000 32.55700
H  10.33200 48.96700 32.89900
H  15.01300 49.83600 27.21400
H  15.71900 50.52900 25.74000
H  15.88900 48.76400 26.19600
H  16.52400 49.78100 23.74500
H  16.75500 48.56900 22.36200
H  16.29800 48.05100 24.04700
H  10.34600 46.73400 20.93200
H  7.64000 47.65500 20.98000
H  10.69100 49.32800 20.27000
H  8.87300 49.07800 20.01800
H  10.17500 48.08800 19.25400
H  8.78500 45.13100 21.00500
H  7.09700 45.59700 21.05500
H  8.58800 45.13700 23.64700
H  8.12600 43.73100 22.69300
H  6.90300 44.79200 23.33300
H  3.44900 47.54100 26.18600
H  3.78400 46.97100 24.59200
H  3.23400 48.66600 24.87300
H  6.25400 49.37900 30.06100
H  5.97000 45.50700 31.85500
H  4.23800 46.15500 31.96300
H  5.43100 46.37300 33.17100

