158

Mg 30.46200 58.12900 39.26000
C  27.82200 56.09100 38.03600
C  32.70000 55.58000 38.42000
C  33.07300 60.35600 39.43800
C  28.14900 60.75900 39.54000
N  30.24500 56.07000 38.34800
C  29.08500 55.49400 37.94700
C  29.36000 54.03800 37.60700
C  30.85700 53.76800 37.92300
C  31.32100 55.19900 38.35100
C  31.17100 52.74200 39.06800
C  28.90100 53.69000 36.23300
C  29.53000 54.48400 35.05800
H  28.62600 55.46600 34.21500
N  32.61700 57.96200 38.95300
C  33.32600 56.76800 38.74700
C  34.77600 57.09400 38.72200
C  34.89100 58.48500 38.99800
C  33.48500 59.00900 39.14500
C  35.91400 56.08000 38.55000
C  36.16700 59.25500 38.94500
O  37.25400 58.64200 38.82700
C  36.21800 60.83100 38.88300
N  30.58300 60.28300 39.18600
C  31.77500 60.91500 39.52500
C  31.54300 62.48000 39.58600
C  30.01300 62.52600 39.63000
C  29.50400 61.06100 39.48400
C  32.26600 63.30300 40.68100
C  29.26300 63.42800 38.57000
C  28.60600 64.68400 39.18300
N  28.34900 58.37400 39.06600
C  27.58600 59.47400 39.23100
C  26.18400 59.08900 39.06000
C  26.18400 57.78600 38.58300
C  27.55500 57.40200 38.51100
C  24.98200 59.91800 39.31200
C  25.35100 56.66600 38.17000
O  24.14200 56.55700 38.03900
C  26.44200 55.54900 37.70100
C  26.10500 54.37900 38.51400
O  26.50700 54.06900 39.63400
O  25.25200 53.59200 37.73000
C  24.54600 52.50100 38.37000
H  33.42300 54.80600 38.15300
H  33.83300 61.09800 39.69000
H  27.39700 61.55100 39.57300
H  28.83500 53.37200 38.29200
H  31.43600 53.32500 37.11400
H  30.51600 52.71700 39.93900
H  32.17800 52.93400 39.43600
H  31.22700 51.76600 38.58700
H  27.82700 53.73400 36.05200
H  29.12100 52.62700 36.13400
H  29.91300 53.77600 34.32400
H  30.41700 55.03900 35.36400
H  36.85300 56.35400 39.03200
H  36.07800 56.03200 37.47300
H  35.65600 55.08700 38.92000
H  37.14000 61.15300 38.39700
H  36.01200 61.17800 39.89500
H  35.39300 61.07800 38.21500
H  31.91900 62.92800 38.66600
H  29.81800 62.82100 40.66100
H  33.01700 63.93800 40.21000
H  32.98700 62.69200 41.22500
H  31.61700 63.88000 41.33900
H  28.41900 62.87800 38.15500
H  30.00200 63.86700 37.89900
H  29.10500 65.52200 38.69800
H  28.73900 64.72800 40.26400
H  27.52500 64.63700 39.04300
H  24.49800 59.61600 40.24000
H  24.16200 59.78700 38.60600
H  25.25200 60.96500 39.45400
H  26.32600 55.27900 36.65100
H  23.59600 52.44000 37.83900
H  24.33700 52.48800 39.44000
H  25.10800 51.58000 38.21300
Mg 27.50000 50.82200 25.34500
C  25.58700 51.76400 28.14200
C  29.88400 49.80800 27.62000
C  29.51300 50.14300 22.75000
C  25.25000 52.53500 23.34400
N  27.70300 50.73800 27.61600
C  26.74800 51.13200 28.53500
C  27.04000 50.66900 29.94400
C  28.57800 50.21800 29.79000
C  28.78300 50.25800 28.29400
C  29.66300 50.93500 30.59400
C  25.99700 49.52600 30.46700
C  25.32800 49.67900 31.84600
H  25.94500 50.44900 33.02700
N  29.47000 50.09000 25.23500
C  30.21800 49.69900 26.28500
C  31.40500 49.10400 25.70400
C  31.41900 49.27900 24.28900
C  30.13500 49.90200 24.03300
C  32.42900 48.42800 26.52400
C  32.46200 48.92300 23.18200
O  32.38300 49.33700 22.05000
C  33.59500 48.05900 23.55100
N  27.42500 51.31100 23.43900
C  28.29000 50.77200 22.50000
C  27.68400 50.69800 21.08500
C  26.67300 51.85700 21.25900
C  26.39800 51.89600 22.81000
C  28.62400 51.07800 19.86600
C  25.40800 51.63800 20.38700
C  24.92500 52.79600 19.45100
N  25.84500 52.06200 25.68800
C  24.97300 52.64500 24.78600
C  23.85100 53.26300 25.44700
C  24.05200 52.95200 26.80100
C  25.25800 52.20000 26.87300
C  22.66400 54.03900 24.70400
C  23.40800 53.01000 28.14500
O  22.32000 53.45000 28.49000
C  24.51800 52.29200 29.04300
C  24.92200 53.41600 29.96800
O  25.91100 54.12400 29.82000
O  24.08500 53.50600 31.07700
C  24.54200 54.46500 32.13400
H  30.55100 49.39300 28.37900
H  29.98600 49.62100 21.91500
H  24.49000 52.89700 22.64900
H  27.01000 51.53500 30.60600
H  28.68400 49.15400 30.00000
H  30.48900 51.38300 30.04200
H  30.15100 50.45800 31.44300
H  29.08000 51.75700 31.00900
H  26.58200 48.60700 30.51000
H  25.26200 49.39700 29.67300
H  25.13000 48.68500 32.24600
H  24.36500 50.15500 31.66000
H  32.14000 47.38400 26.64800
H  32.45200 48.85400 27.52600
H  33.43100 48.45300 26.09600
H  33.85000 47.47400 22.66700
H  33.16600 47.23400 24.12000
H  34.40600 48.61800 24.01800
H  27.22200 49.71600 20.98200
H  27.19600 52.78900 21.04800
H  28.39600 50.34500 19.09200
H  29.67700 51.15900 20.13700
H  28.35800 52.04100 19.43000
H  24.64100 51.33800 21.10100
H  25.55700 50.80000 19.70500
H  25.04100 52.31700 18.47900
H  25.54300 53.69400 19.43700
H  23.84800 52.91600 19.57000
H  23.20800 54.75900 24.09300
H  21.96900 54.54900 25.37100
H  21.95600 53.49300 24.08100
H  24.11900 51.47900 29.65000
H  24.56100 55.48100 31.73900
H  25.52800 54.35500 32.58500
H  23.80000 54.42500 32.93100

