158

Mg 40.25800 41.40000 27.37900
C  39.38300 43.64400 29.96500
C  41.53000 39.28800 29.76400
C  41.32500 39.33900 24.90800
C  39.63700 43.94400 25.03300
N  40.37900 41.41100 29.72600
C  39.75100 42.34100 30.46500
C  39.83400 41.90600 31.98400
C  40.79000 40.70300 31.89800
C  40.98900 40.42900 30.40400
C  42.20100 41.01100 32.59400
C  38.34700 41.83300 32.48000
C  37.95500 42.63200 33.76200
H  38.99600 42.58600 34.91500
N  41.22400 39.49200 27.33800
C  41.75500 38.83500 28.44000
C  42.25800 37.58200 27.97800
C  42.10200 37.46500 26.53200
C  41.51500 38.76300 26.21900
C  42.97000 36.58100 28.87000
C  42.55900 36.39900 25.62100
O  42.60100 36.64400 24.43700
C  43.02700 35.00300 26.09900
N  40.58900 41.66300 25.37400
C  40.90500 40.63700 24.54500
C  40.83600 41.07200 23.10800
C  39.95200 42.32900 23.15300
C  40.11800 42.69900 24.62300
C  42.13700 41.38300 22.32100
C  38.43100 42.07400 22.78400
C  37.69000 40.78400 23.12100
N  39.75700 43.41200 27.40700
C  39.58000 44.33200 26.37500
C  39.07600 45.57000 26.90400
C  38.99500 45.37600 28.30200
C  39.36000 43.94600 28.53300
C  38.75500 46.74400 26.08800
C  38.65600 45.87600 29.60200
O  38.21300 47.04200 29.76500
C  38.94600 44.92900 30.72000
C  39.99300 45.52800 31.68000
O  41.20000 45.37300 31.58900
O  39.33600 46.17000 32.73300
C  40.09400 46.89000 33.75400
H  41.79000 38.49600 30.46900
H  41.71300 38.83300 24.02100
H  39.60100 44.64900 24.20000
H  40.25700 42.75100 32.52700
H  40.22100 39.88400 32.33900
H  42.82700 41.61300 31.93600
H  42.64700 40.01600 32.57300
H  42.08700 41.45700 33.58200
H  38.02300 40.82400 32.73700
H  37.67100 42.12000 31.67400
H  36.99400 42.21400 34.06200
H  37.72100 43.60500 33.33000
H  43.10700 36.86200 29.91400
H  43.99800 36.38100 28.56800
H  42.53200 35.58400 28.82200
H  43.44500 34.48900 25.23300
H  42.19800 34.43500 26.52100
H  43.82100 35.12200 26.83600
H  40.30300 40.24400 22.64100
H  40.26900 43.09900 22.44900
H  42.25500 42.43800 22.07400
H  42.19300 40.93100 21.33000
H  42.94800 40.99300 22.93600
H  38.32000 42.40200 21.75000
H  38.00100 42.91100 23.33400
H  37.21300 40.47400 22.19200
H  36.96500 40.96900 23.91400
H  38.37900 39.99900 23.43400
H  38.98200 47.59200 26.73500
H  37.68800 46.87800 25.90700
H  39.42500 46.71500 25.23000
H  37.97700 44.76000 31.18900
H  40.79400 47.64100 33.38800
H  40.74000 46.18100 34.27200
H  39.49600 47.35100 34.54000
Mg 25.33700 50.88100 26.43700
C  23.35900 51.99100 29.14400
C  27.51200 49.54500 28.64200
C  27.45900 50.24800 23.88400
C  23.11700 52.39500 24.31300
N  25.57300 51.00100 28.69800
C  24.59400 51.45100 29.57100
C  25.01100 51.15100 31.01900
C  26.40700 50.30500 30.86300
C  26.55200 50.35400 29.30700
C  27.61600 50.77100 31.71300
C  23.84800 50.50300 31.86800
C  24.37000 49.92900 33.20600
H  24.28200 50.79900 34.48300
N  27.11800 49.89500 26.28600
C  27.80700 49.32500 27.31000
C  28.86300 48.49000 26.78900
C  28.87400 48.74100 25.38700
C  27.80100 49.70400 25.11700
C  29.80400 47.70300 27.72100
C  29.64700 48.14700 24.37000
O  29.66700 48.40500 23.14000
C  30.66200 47.11600 24.78800
N  25.36300 51.43800 24.38300
C  26.28400 50.98200 23.56200
C  26.00800 51.38400 22.10900
C  24.55500 51.95100 22.24100
C  24.26500 51.87600 23.71500
C  27.04800 52.36300 21.45800
C  23.58700 51.14500 21.39000
C  23.15800 49.67700 21.81900
N  23.64300 51.97300 26.63600
C  22.78500 52.49300 25.66000
C  21.56000 52.97500 26.19700
C  21.66400 52.67700 27.58100
C  23.03100 52.21300 27.79800
C  20.39800 53.47000 25.42800
C  21.07200 52.92000 28.85100
O  19.94800 53.36300 29.08300
C  22.07300 52.39300 29.94700
C  22.27000 53.50700 30.86600
O  23.29100 54.14900 30.85100
O  21.18100 53.80300 31.64000
C  21.48600 54.76000 32.66300
H  28.14800 49.08200 29.39900
H  28.02300 49.99600 22.98400
H  22.43200 52.82400 23.58000
H  25.17000 52.18400 31.32800
H  26.17700 49.24900 31.00400
H  27.21900 51.55800 32.35400
H  28.35600 51.25500 31.07500
H  28.08100 49.93700 32.23700
H  23.32400 49.72500 31.31400
H  23.13700 51.28200 32.14600
H  25.42900 49.67000 33.22600
H  23.93400 48.93200 33.26000
H  29.64600 46.65100 27.48200
H  29.47900 47.75200 28.76000
H  30.79000 48.04600 27.40700
H  31.42300 47.59800 25.40200
H  31.03400 46.69200 23.85600
H  30.12000 46.29700 25.26200
H  26.09800 50.50100 21.47500
H  24.55500 52.93100 21.76300
H  27.87900 52.53800 22.14100
H  26.71100 53.37500 21.23400
H  27.50400 51.94100 20.56200
H  23.92400 51.13400 20.35300
H  22.65900 51.71300 21.32100
H  22.18900 49.78800 22.30700
H  23.97700 49.34600 22.45700
H  23.17600 49.06400 20.91800
H  19.47800 53.65500 25.98300
H  20.05800 52.70400 24.73100
H  20.63400 54.28300 24.74200
H  21.66000 51.51700 30.44600
H  21.77100 55.73100 32.25800
H  22.28400 54.54100 33.37300
H  20.60500 54.89000 33.29100

