158

Mg 47.50800 16.49200 28.87800
C  45.62300 16.03600 31.66700
C  49.62500 18.43000 30.74300
C  49.47000 16.95200 26.12700
C  44.96300 15.23900 26.92600
N  47.55100 17.22100 30.91600
C  46.68400 16.89700 31.87800
C  47.27700 17.25800 33.25900
C  48.34000 18.30600 32.90300
C  48.43700 18.05800 31.41000
C  47.92600 19.75300 33.23500
C  47.93900 15.99100 33.95100
C  48.06400 16.00800 35.54600
H  47.83600 17.32000 36.33500
N  49.35100 17.41300 28.52100
C  50.09500 18.00500 29.48600
C  51.32000 18.48700 28.87800
C  51.38800 17.93900 27.59100
C  50.05600 17.39100 27.33800
C  52.32600 19.34400 29.69300
C  52.52500 17.80300 26.65000
O  52.48700 17.16500 25.58900
C  53.89300 18.30500 27.07600
N  47.19300 16.36600 26.72600
C  48.21100 16.38100 25.84000
C  47.64700 16.03100 24.34800
C  46.26100 15.35200 24.68800
C  46.06900 15.70000 26.18200
C  47.62500 17.22500 23.35300
C  46.10900 13.82900 24.45900
C  45.05700 13.40000 23.43500
N  45.67400 15.72200 29.15100
C  44.77500 15.19700 28.30500
C  43.68200 14.61200 29.01300
C  43.95600 14.88400 30.37200
C  45.22800 15.53300 30.39700
C  42.60900 13.90700 28.33900
C  43.52000 14.67300 31.73200
O  42.45600 14.18700 32.17100
C  44.64800 15.40000 32.63700
C  43.99800 16.35600 33.54300
O  43.26900 17.23700 33.13500
O  44.18600 16.08300 34.84500
C  43.75300 17.14000 35.80700
H  50.21500 19.08200 31.39100
H  50.12100 16.91500 25.25100
H  44.21200 14.71500 26.33100
H  46.42900 17.71300 33.77000
H  49.27900 18.02900 33.38300
H  48.69500 20.09600 33.92700
H  46.98800 19.77500 33.79100
H  47.95300 20.36600 32.33400
H  48.87900 15.68300 33.49300
H  47.25200 15.16200 33.77700
H  49.08600 15.65100 35.66800
H  47.38100 15.24600 35.92200
H  52.63600 20.14300 29.01900
H  53.19400 18.75600 29.99100
H  51.97900 19.82500 30.60800
H  53.95600 19.39300 27.07900
H  54.66400 17.93000 26.40200
H  54.21200 18.13200 28.10400
H  48.34000 15.30400 23.92200
H  45.56100 15.96200 24.11700
H  48.32800 17.05000 22.53900
H  47.86700 18.14400 23.88700
H  46.64000 17.40200 22.92100
H  45.96700 13.29800 25.40000
H  47.05900 13.40400 24.13700
H  45.11100 14.17200 22.66700
H  44.04000 13.26800 23.80300
H  45.31600 12.41100 23.05800
H  42.00200 13.42100 29.10300
H  43.04600 13.13900 27.70100
H  41.96000 14.56600 27.76100
H  44.98700 14.54600 33.22200
H  42.66900 17.23300 35.75400
H  44.09700 18.10100 35.42600
H  44.22500 16.89500 36.75900
Mg 9.68900 48.09100 25.51800
C  7.89800 48.22800 28.57800
C  12.48500 49.29000 27.23900
C  11.40300 47.73500 22.74500
C  6.70000 47.08200 23.82200
N  10.01900 48.91200 27.62500
C  9.24000 48.69000 28.71000
C  9.96700 49.18100 29.98300
C  11.23300 49.92900 29.45700
C  11.29200 49.26200 28.01900
C  11.16400 51.49500 29.35100
C  10.32000 48.00400 30.97400
C  9.76000 48.13800 32.40000
H  10.14700 46.91100 33.34000
N  11.70100 48.44600 25.03800
C  12.69500 48.83200 25.90800
C  13.98200 48.84900 25.26700
C  13.65300 48.47800 23.89400
C  12.16500 48.15600 23.77700
C  15.31700 49.12300 25.83800
C  14.57900 48.29400 22.76300
O  14.26200 47.96100 21.63800
C  16.00100 48.83100 22.90400
N  9.11400 47.56800 23.55300
C  10.03200 47.48300 22.54000
C  9.40200 46.89300 21.27600
C  7.96600 46.50000 21.71900
C  7.91300 47.02500 23.14000
C  9.44700 47.75400 20.05100
C  7.62700 44.93500 21.54300
C  8.31500 44.04200 22.52100
N  7.68700 47.85500 25.98700
C  6.57300 47.48200 25.18600
C  5.42000 47.27100 26.09200
C  5.91800 47.55700 27.40800
C  7.28400 47.96500 27.29200
C  4.10900 46.79800 25.69800
C  5.60900 47.51000 28.85500
O  4.54600 47.13400 29.44500
C  6.85800 47.98400 29.60600
C  7.18500 46.77100 30.44300
O  7.83400 45.79400 30.05800
O  6.58100 46.92900 31.65300
C  6.77900 45.82000 32.53400
H  13.30400 49.80200 27.74900
H  11.95100 47.51500 21.82600
H  5.78500 46.73300 23.33900
H  9.32900 49.90700 30.48700
H  12.08500 49.69300 30.09400
H  12.20300 51.82400 29.38600
H  10.58500 51.98200 30.13600
H  10.70200 51.78300 28.40700
H  11.38300 47.84200 31.15200
H  9.84600 47.08400 30.63200
H  8.67200 48.12200 32.46400
H  10.27600 48.96300 32.89000
H  16.01800 48.30100 25.69400
H  15.24100 49.44700 26.87600
H  15.69000 49.98600 25.28600
H  16.07900 49.91500 22.98900
H  16.54000 48.53300 22.00500
H  16.55300 48.40600 23.74200
H  10.02700 46.00300 21.20500
H  7.17100 47.04100 21.20500
H  9.19500 48.74700 20.42300
H  8.86200 47.37700 19.21200
H  10.47500 47.77600 19.69000
H  7.99400 44.72400 20.53800
H  6.54100 44.88000 21.60800
H  9.32700 44.36800 22.76100
H  8.49800 43.13300 21.94700
H  7.71400 43.90800 23.42100
H  3.89300 47.16300 24.69300
H  3.45000 47.29900 26.40800
H  4.03500 45.71600 25.80100
H  6.62300 48.91400 30.12400
H  7.83700 45.57200 32.44600
H  6.13400 44.97000 32.30900
H  6.63200 46.18500 33.55000

