158

Mg -9.77100 38.71700 41.17500
C  -9.12700 35.28900 40.68500
C  -6.68600 39.44900 39.91100
C  -10.83300 41.90700 40.73000
C  -13.13700 37.82200 42.20500
N  -8.07700 37.46900 40.47400
C  -7.92000 36.05100 40.33000
C  -6.57500 35.58900 39.78500
C  -5.82000 36.98700 39.71000
C  -6.89200 38.00700 40.08800
C  -4.56000 37.14300 40.61500
C  -6.75600 34.85900 38.48900
C  -5.46700 34.12300 38.09700
H  -4.79300 34.59600 36.73200
N  -8.86100 40.36400 40.48700
C  -7.60700 40.51700 40.10000
C  -7.32500 41.87500 39.66000
C  -8.57100 42.57000 39.67400
C  -9.48500 41.59600 40.29900
C  -5.97200 42.22700 39.16100
C  -8.86800 43.95600 39.07900
O  -7.97400 44.77600 38.68000
C  -10.24900 44.56400 39.10500
N  -11.90100 39.66900 41.23300
C  -11.86100 41.05700 41.14500
C  -13.16900 41.58300 41.86300
C  -13.90000 40.32900 42.32700
C  -13.02300 39.19100 41.82500
C  -12.95800 42.65300 43.01200
C  -15.37800 40.12300 41.80100
C  -16.50300 39.79000 42.81900
N  -10.88300 37.00900 41.46700
C  -12.22800 36.80000 41.81400
C  -12.48800 35.37000 41.98700
C  -11.26000 34.76900 41.53900
C  -10.35600 35.82200 41.12000
C  -13.78700 34.71500 42.56800
C  -10.71700 33.49900 41.39600
O  -11.16700 32.41300 41.70200
C  -9.35300 33.78500 40.71400
C  -8.34000 32.94500 41.36500
O  -7.64000 32.07200 40.82000
O  -8.18000 33.34600 42.66900
C  -7.09200 32.65000 43.39000
H  -5.70800 39.56600 39.43900
H  -11.17100 42.94500 40.73800
H  -14.05700 37.58400 42.74300
H  -6.23500 34.90800 40.56500
H  -5.51400 37.16100 38.67800
H  -4.04700 36.24600 40.96300
H  -4.66600 37.80400 41.47500
H  -3.84800 37.63700 39.95400
H  -7.06400 35.49700 37.66100
H  -7.56500 34.13300 38.56600
H  -5.76100 33.09200 37.90200
H  -4.78500 34.11900 38.94700
H  -5.37900 41.87300 40.00400
H  -5.74600 43.29200 39.10900
H  -5.71200 41.77000 38.20600
H  -10.95700 43.88500 38.62900
H  -10.19700 45.50100 38.55000
H  -10.72100 44.83000 40.05000
H  -13.81100 42.13800 41.17900
H  -13.82100 40.31800 43.41400
H  -11.90700 42.76700 43.27600
H  -13.58500 42.51900 43.89300
H  -13.39500 43.55700 42.58600
H  -15.41100 39.32000 41.06500
H  -15.69600 40.99200 41.22600
H  -16.84000 38.77400 42.61400
H  -17.37800 40.43700 42.87900
H  -16.07500 39.82300 43.82100
H  -14.71800 34.80400 42.00800
H  -13.97500 35.08300 43.57600
H  -13.69400 33.62900 42.54800
H  -9.39300 33.38800 39.69900
H  -7.26800 31.57700 43.32000
H  -7.13500 32.97500 44.42900
H  -6.15500 32.91000 42.89700
Mg -12.11500 16.08900 42.28100
C  -9.29300 14.18100 41.64100
C  -10.78400 18.75000 40.38600
C  -15.21600 17.59500 42.13200
C  -13.73100 13.09100 43.26600
N  -10.25000 16.30600 41.07400
C  -9.24300 15.38900 40.90500
C  -8.09400 15.94000 40.19500
C  -8.47500 17.40200 39.80300
C  -9.96000 17.55300 40.42300
C  -7.48300 18.34000 40.41200
C  -7.69100 15.01300 39.03700
C  -6.19600 14.59500 38.85000
H  -5.47400 15.28000 37.63000
N  -12.82200 18.01700 41.63400
C  -12.10800 19.00100 40.97400
C  -12.92900 20.15600 40.79200
C  -14.23800 19.85800 41.30600
C  -14.16700 18.42200 41.72700
C  -12.40100 21.52300 40.11400
C  -15.36200 20.81700 41.45800
O  -15.14000 21.95000 41.16600
C  -16.69500 20.46900 41.84000
N  -14.22100 15.52100 42.75300
C  -15.30800 16.26200 42.55800
C  -16.67500 15.49300 42.71800
C  -16.12600 14.12100 43.17600
C  -14.55100 14.25200 43.08900
C  -17.86700 16.09200 43.55800
C  -16.59600 12.89900 42.28900
C  -16.90400 11.56100 43.01200
N  -11.58900 14.08600 42.62900
C  -12.30800 13.02700 43.07200
C  -11.43200 11.91600 43.37200
C  -10.13900 12.35200 42.85400
C  -10.35800 13.64000 42.35700
C  -11.89700 10.56700 43.72500
C  -8.83400 11.95600 42.63400
O  -8.18300 10.94800 42.90100
C  -8.23500 13.14800 41.82000
C  -7.00800 13.59100 42.49900
O  -6.94600 14.18300 43.52700
O  -5.85600 13.17800 41.79700
C  -4.63200 13.73300 42.34800
H  -10.35700 19.55000 39.77800
H  -16.20100 18.02200 41.93000
H  -14.23400 12.15400 43.51100
H  -7.23700 15.96000 40.86800
H  -8.66000 17.67600 38.76400
H  -6.97200 17.93800 41.28700
H  -8.04600 19.17500 40.82900
H  -6.76500 18.56800 39.62500
H  -7.92900 15.43500 38.06100
H  -8.23600 14.07600 39.14800
H  -6.05300 13.51600 38.79200
H  -5.72000 14.96900 39.75700
H  -12.75800 22.43100 40.59900
H  -12.56000 21.49100 39.03600
H  -11.33700 21.56000 40.34800
H  -17.40700 21.29400 41.80000
H  -16.68700 19.95100 42.79900
H  -17.14600 19.81200 41.09700
H  -17.02000 15.40700 41.68700
H  -16.44000 13.90400 44.19700
H  -18.35400 15.27000 44.08300
H  -18.46800 16.61200 42.81300
H  -17.64600 16.96100 44.17900
H  -15.85500 12.69800 41.51500
H  -17.48300 13.18300 41.72300
H  -17.98200 11.40400 43.03100
H  -16.60600 11.67600 44.05500
H  -16.50100 10.63500 42.60100
H  -11.06100 9.91000 43.48800
H  -12.80200 10.32000 43.17000
H  -12.36200 10.55900 44.71000
H  -7.97900 12.74200 40.84200
H  -4.68500 14.81300 42.20900
H  -3.70500 13.39700 41.88500
H  -4.46100 13.50300 43.39900

