158

Mg 17.23900 -1.34100 28.40200
C  16.16600 0.64400 30.97900
C  19.46500 -2.96400 30.65300
C  18.89400 -2.79700 25.84300
C  15.68200 0.76600 26.16600
N  17.79900 -1.18500 30.53700
C  17.08000 -0.32900 31.43300
C  17.53800 -0.67100 32.92500
C  18.74300 -1.70100 32.75700
C  18.71500 -1.93700 31.18500
C  20.11200 -1.23000 33.26600
C  16.30000 -1.15700 33.81400
C  16.30200 -0.83600 35.33500
H  17.63800 -0.79400 36.06300
N  18.78600 -2.87700 28.32300
C  19.53400 -3.45600 29.31500
C  20.37000 -4.54000 28.81000
C  20.18100 -4.55200 27.35400
C  19.29500 -3.37400 27.12500
C  21.29700 -5.30800 29.75900
C  20.74000 -5.54400 26.30600
O  20.42400 -5.41800 25.12300
C  21.64500 -6.68500 26.69800
N  17.29500 -0.99100 26.32300
C  18.04500 -1.78400 25.49700
C  17.76700 -1.39200 23.95400
C  16.63500 -0.28800 24.02400
C  16.48900 -0.20800 25.57800
C  19.07700 -0.89900 23.21100
C  15.35600 -0.66000 23.25800
C  14.09500 -1.22200 23.98700
N  16.10700 0.41600 28.49600
C  15.49100 1.13500 27.53300
C  14.73500 2.20000 28.15400
C  15.02800 2.07100 29.52300
C  15.90500 0.93400 29.63800
C  13.82400 3.24700 27.48400
C  14.67100 2.67400 30.77100
O  13.91500 3.55500 31.14500
C  15.33700 1.69300 31.78000
C  16.26000 2.55900 32.66700
O  17.20100 3.16700 32.29800
O  15.92100 2.52400 33.98900
C  16.83500 3.24100 34.92300
H  20.02900 -3.43800 31.46000
H  19.35400 -3.29100 24.98400
H  15.05600 1.42800 25.56400
H  17.85600 0.26300 33.38700
H  18.47200 -2.62400 33.26900
H  20.43600 -1.83600 34.11300
H  19.98800 -0.20000 33.60000
H  20.83400 -1.18800 32.45000
H  16.44000 -2.23800 33.81600
H  15.41100 -0.84400 33.26600
H  15.67300 -1.65800 35.67700
H  15.70000 0.07200 35.38200
H  22.33700 -5.26800 29.43400
H  20.94000 -6.33100 29.87400
H  21.29600 -4.80000 30.72300
H  22.02500 -6.68000 27.72000
H  22.51000 -6.70200 26.03400
H  20.94000 -7.50800 26.58900
H  17.39700 -2.29300 23.46500
H  16.97900 0.70000 23.72000
H  18.94300 0.08300 22.75700
H  19.35000 -1.67200 22.49200
H  19.85800 -0.76200 23.95900
H  15.58000 -1.31900 22.42000
H  15.13300 0.28300 22.76100
H  13.26700 -0.51400 24.02100
H  14.38100 -1.52600 24.99400
H  13.79700 -2.04700 23.34000
H  12.92600 3.17700 28.09800
H  13.57700 3.06100 26.43900
H  14.39900 4.16800 27.57900
H  14.57400 1.20700 32.38700
H  16.22300 3.83500 35.60200
H  17.50900 3.90600 34.38300
H  17.45100 2.59400 35.54800
Mg 35.97000 2.34500 30.40100
C  33.55200 3.42700 32.68300
C  38.32100 2.46700 32.94900
C  38.41300 1.83200 28.02400
C  33.75300 2.85500 27.82300
N  35.89500 2.80200 32.56700
C  34.79500 3.15400 33.30300
C  35.12700 3.17000 34.79200
C  36.78900 3.05800 34.73400
C  36.99200 2.70800 33.32400
C  37.48100 4.40000 35.11200
C  34.40700 2.03100 35.49600
C  34.19900 2.13800 36.99000
H  34.87800 3.24000 37.81400
N  38.05300 2.10600 30.46500
C  38.80800 2.16800 31.61300
C  40.13500 1.63200 31.33200
C  40.21800 1.49600 29.89700
C  38.85400 1.80900 29.37700
C  41.28500 1.45300 32.34900
C  41.46200 1.14300 29.03500
O  41.37200 1.00300 27.82300
C  42.86900 1.03900 29.63300
N  36.04800 2.30400 28.24800
C  37.17000 2.15500 27.52300
C  36.86500 2.11400 26.03300
C  35.35000 2.18400 25.95800
C  35.04600 2.41000 27.48600
C  37.61900 3.19800 25.19300
C  34.56000 0.86200 25.47500
C  33.35800 1.05000 24.53300
N  33.97400 2.88300 30.23600
C  33.21700 3.06000 29.09400
C  31.95600 3.53600 29.52800
C  31.99800 3.56600 30.92900
C  33.24200 3.28500 31.29300
C  30.73600 3.61200 28.66600
C  31.26400 3.87300 32.13100
O  30.12800 4.29100 32.31100
C  32.29100 3.77600 33.36600
C  32.24600 5.00800 34.11400
O  32.37900 6.11500 33.64100
O  32.17300 4.77600 35.41900
C  31.96400 6.08900 36.14200
H  39.13900 2.21900 33.62900
H  39.19700 1.70400 27.27600
H  32.97200 2.93500 27.06400
H  34.74300 4.10100 35.20900
H  37.24800 2.20500 35.23300
H  36.72200 5.18300 35.11900
H  38.10900 4.72700 34.28400
H  38.07200 4.24600 36.01600
H  35.00100 1.11700 35.45000
H  33.50600 1.74500 34.95400
H  34.63900 1.30800 37.54300
H  33.13200 2.24700 37.18500
H  41.80400 0.49800 32.26100
H  40.97300 1.73900 33.35300
H  41.99700 2.20600 32.01200
H  42.84600 0.24900 30.38300
H  43.28700 1.94300 30.07600
H  43.58700 0.77900 28.85500
H  37.32300 1.17200 25.73200
H  34.88600 3.07000 25.52500
H  36.91100 3.87300 24.71300
H  38.21200 2.67900 24.44000
H  38.17100 3.90600 25.81100
H  34.08700 0.42500 26.35500
H  35.29900 0.23300 24.97800
H  33.54800 0.93700 23.46600
H  32.99800 2.07600 24.61000
H  32.51600 0.44000 24.86100
H  30.54700 2.66900 28.15200
H  30.86100 4.39900 27.92200
H  29.85500 3.81700 29.27400
H  31.85800 2.91100 33.86800
H  31.01100 6.59300 35.98400
H  32.85500 6.68600 35.94900
H  32.00700 5.90900 37.21600

