158

Mg 5.75200 54.00500 40.44000
C  4.92300 50.44300 40.21900
C  8.71000 53.14600 38.92200
C  6.07700 57.18400 40.07500
C  2.46800 54.33800 41.68300
N  6.70500 51.94400 39.67700
C  6.18000 50.70800 39.65100
C  7.21000 49.69500 39.11300
C  8.53600 50.63100 38.95200
C  7.96900 52.04700 39.14100
C  9.60100 50.30900 40.01300
C  6.89000 49.19700 37.71400
C  6.14200 50.22600 36.76900
H  6.23900 50.13700 35.30700
N  7.22900 54.98200 39.62600
C  8.46900 54.47900 39.07900
C  9.27500 55.62700 38.85700
C  8.48100 56.76300 39.02600
C  7.21900 56.36200 39.58900
C  10.70500 55.46800 38.36900
C  8.99800 58.15800 38.77300
O  10.18500 58.38100 38.53800
C  8.22300 59.38900 38.96200
N  4.41500 55.56000 40.73100
C  4.85200 56.85800 40.63100
C  3.75500 57.88100 41.17000
C  2.60900 56.87200 41.55700
C  3.16300 55.50500 41.25400
C  4.35500 58.71800 42.32600
C  1.26200 57.18100 40.89000
C  -0.10900 56.88900 41.64900
N  4.00000 52.63300 40.91300
C  2.79000 52.99100 41.49700
C  1.98300 51.82600 41.73900
C  2.85600 50.78900 41.40000
C  4.01200 51.34000 40.76700
C  0.57400 51.78200 42.26400
C  3.01900 49.38300 41.28700
O  2.32600 48.48600 41.74000
C  4.32300 49.06200 40.50100
C  3.93700 48.15800 39.39100
O  3.28100 48.46300 38.37700
O  4.49800 46.94000 39.65100
C  4.36200 45.90300 38.57800
H  9.71100 53.02800 38.50100
H  6.30300 58.24800 39.98100
H  1.52800 54.54500 42.20000
H  7.45200 48.86100 39.77100
H  8.95600 50.70800 37.94900
H  9.53800 49.28000 40.36800
H  9.65600 51.10500 40.75500
H  10.51300 50.28400 39.41700
H  6.20600 48.37700 37.92900
H  7.79000 48.81500 37.23200
H  6.50300 51.24600 36.90600
H  5.08100 50.09300 36.97800
H  10.83700 56.01000 37.43200
H  11.07300 54.44500 38.28300
H  11.34800 55.88500 39.14500
H  8.79100 60.26700 38.65500
H  8.01500 59.46500 40.02900
H  7.36900 59.29800 38.29000
H  3.50900 58.47200 40.28800
H  2.39800 56.99300 42.62000
H  5.42300 58.85500 42.15800
H  4.10000 58.27500 43.28900
H  3.81000 59.66200 42.32600
H  1.26400 56.71200 39.90600
H  1.38600 58.19300 40.50200
H  -0.49900 57.86100 41.95300
H  -0.07800 56.23300 42.51900
H  -0.75500 56.37700 40.93600
H  -0.01500 52.26300 41.48300
H  0.36600 52.36500 43.16200
H  0.20500 50.78600 42.51100
H  5.00500 48.57800 41.19900
H  4.57300 46.22900 37.56000
H  3.36100 45.47000 38.57600
H  5.12100 45.18300 38.88400
Mg 9.98300 47.44800 25.33400
C  7.73100 47.82900 27.94600
C  12.25800 49.07800 27.17400
C  11.89200 47.36400 22.72600
C  7.11700 46.69400 23.26100
N  10.01300 48.18400 27.32900
C  9.00800 48.14700 28.30700
C  9.48500 48.56900 29.64400
C  10.78700 49.36900 29.30000
C  11.02100 48.82500 27.87600
C  10.78200 50.89600 29.53100
C  9.76900 47.31500 30.62300
C  9.89500 47.70200 32.09000
H  9.71300 46.58000 33.06800
N  11.90000 48.03400 24.95000
C  12.64200 48.73000 25.81900
C  14.01500 48.93600 25.22400
C  13.97900 48.39000 23.91900
C  12.56800 47.90500 23.82400
C  15.17200 49.50800 25.98300
C  15.01500 48.35000 22.83800
O  14.80700 47.90500 21.66800
C  16.37000 48.74900 23.23300
N  9.50000 47.16000 23.31800
C  10.56000 46.96900 22.42600
C  10.09600 46.27600 21.07600
C  8.57700 45.95000 21.37700
C  8.36500 46.61500 22.73100
C  10.27700 47.14700 19.77300
C  8.31500 44.42800 21.40900
C  8.83500 43.53800 22.52300
N  7.89700 47.23100 25.52300
C  6.84900 46.90900 24.66800
C  5.56700 46.97800 25.25900
C  5.90300 47.30300 26.56300
C  7.27500 47.43900 26.69200
C  4.12800 46.85400 24.61900
C  5.25900 47.48600 27.82300
O  4.08100 47.16800 28.09900
C  6.44300 47.77300 28.82000
C  6.34800 46.73200 29.92500
O  6.50600 45.49500 29.74400
O  6.16400 47.41000 31.13700
C  6.05300 46.58200 32.28800
H  12.98000 49.59200 27.81200
H  12.45100 47.26600 21.79300
H  6.36000 46.32600 22.56500
H  8.75900 49.18100 30.18000
H  11.59400 49.01800 29.94300
H  11.58800 51.18800 30.20300
H  9.80700 51.25000 29.86700
H  11.02200 51.47300 28.63800
H  10.71000 46.91300 30.24700
H  9.10500 46.46900 30.44800
H  9.15700 48.48300 32.27400
H  10.86900 48.12000 32.34500
H  14.91000 49.48100 27.04000
H  15.47200 50.51500 25.69200
H  16.09600 48.93000 25.99800
H  16.97400 48.69200 22.32700
H  16.82600 48.04200 23.92500
H  16.20600 49.77200 23.57200
H  10.66300 45.37500 20.84000
H  7.98400 46.31200 20.53700
H  11.09600 46.73500 19.18300
H  10.53900 48.15000 20.10900
H  9.43200 47.20500 19.08700
H  8.71700 44.00900 20.48700
H  7.24200 44.27600 21.29200
H  9.53500 42.81600 22.10100
H  8.02600 42.86300 22.80100
H  9.20900 44.20400 23.30000
H  3.90500 45.97700 24.01200
H  4.14500 47.70200 23.93500
H  3.40700 47.09300 25.40100
H  6.21800 48.71300 29.32400
H  5.29800 45.83100 32.05600
H  5.86800 47.11300 33.22200
H  7.06600 46.18500 32.35000

