158

Mg 36.23300 49.03300 25.40900
C  36.40900 46.96600 28.23000
C  34.78700 51.41400 27.49000
C  35.90400 50.95700 22.68900
C  37.22400 46.29400 23.44800
N  35.49300 49.06100 27.61600
C  35.96400 48.25600 28.55800
C  35.57600 48.74800 29.99900
C  34.91400 50.17500 29.68700
C  35.03000 50.19600 28.14400
C  33.43000 50.47300 30.20800
C  36.81600 48.85000 30.89600
C  36.57000 48.44700 32.35500
H  36.67300 49.52400 33.51000
N  35.56500 50.97100 25.16500
C  34.92400 51.77800 26.11400
C  34.60300 53.03800 25.39800
C  35.10500 52.95400 24.05400
C  35.51400 51.55000 23.91800
C  33.95000 54.18500 26.20500
C  34.99700 54.03900 23.02400
O  35.39100 53.84100 21.89800
C  34.35800 55.36900 23.33900
N  36.53900 48.64500 23.36800
C  36.29500 49.62000 22.47500
C  36.56600 48.97300 21.06700
C  37.23400 47.61300 21.32000
C  37.04000 47.52700 22.81100
C  35.35400 48.86200 20.11800
C  38.66000 47.57700 20.83800
C  39.11500 46.17100 20.34300
N  36.79000 46.99000 25.74300
C  37.14600 45.98300 24.81100
C  37.46900 44.72800 25.56500
C  37.10200 45.01400 26.90700
C  36.75500 46.39500 26.96800
C  38.03900 43.44100 24.89700
C  37.07700 44.53100 28.24600
O  37.48500 43.45000 28.70500
C  36.65100 45.80200 29.20200
C  35.45700 45.45200 30.02300
O  34.29400 45.46400 29.63100
O  35.91600 45.26600 31.32100
C  34.99600 44.79500 32.32900
H  34.44000 52.21900 28.14000
H  35.70500 51.53400 21.78300
H  37.52200 45.44700 22.82700
H  34.81900 48.03700 30.32800
H  35.57900 50.95400 30.06000
H  32.87100 49.65700 30.66500
H  32.88400 50.78200 29.31700
H  33.41000 51.42700 30.73600
H  37.31700 49.81100 31.01500
H  37.55100 48.12700 30.54200
H  37.31200 47.69800 32.63200
H  35.60900 47.95000 32.49600
H  33.00600 54.57500 25.82500
H  34.67100 54.99900 26.27200
H  33.68700 53.90100 27.22400
H  34.69300 56.06200 22.56700
H  34.88000 55.60300 24.26700
H  33.28300 55.33300 23.51300
H  37.24800 49.68900 20.60800
H  36.72100 46.78400 20.83100
H  34.64700 49.58800 20.52100
H  34.97800 47.85900 19.92000
H  35.71400 49.35200 19.21300
H  39.32100 47.93100 21.63000
H  38.82700 48.28700 20.02700
H  39.88000 45.80000 21.02400
H  39.61700 46.38400 19.39900
H  38.29900 45.46300 20.20100
H  38.79000 43.60200 24.12400
H  37.28900 42.75500 24.50400
H  38.47100 42.88300 25.72700
H  37.51400 46.01200 29.83500
H  34.33500 44.06900 31.85600
H  34.39200 45.60700 32.73600
H  35.59200 44.36400 33.13400
Mg -0.85500 33.66500 27.25800
C  -2.76200 32.14600 29.86800
C  0.60500 35.65700 29.64200
C  0.63600 35.42300 24.69700
C  -2.86700 31.97300 24.99600
N  -1.29700 33.99400 29.53800
C  -1.89300 33.16300 30.38900
C  -1.53100 33.54400 31.86100
C  -0.76400 34.87400 31.71500
C  -0.42800 34.91600 30.19000
C  -1.47200 36.19600 32.11300
C  -0.82800 32.41700 32.62800
C  -0.38400 32.69700 34.08800
H  -1.25100 31.97100 35.21100
N  0.49800 35.24300 27.22400
C  1.06100 35.89100 28.31400
C  2.07400 36.88900 27.86900
C  1.98400 36.87100 26.43400
C  1.01600 35.79400 26.02100
C  2.89300 37.75500 28.74100
C  2.61100 37.81200 25.43300
O  2.37700 37.72100 24.21700
C  3.52200 38.96800 25.88100
N  -1.15900 33.70800 25.15500
C  -0.34900 34.49700 24.29500
C  -0.71700 34.17100 22.82100
C  -1.74400 33.00100 22.98400
C  -2.01000 32.94500 24.48100
C  -1.22400 35.39400 22.07900
C  -1.23000 31.68400 22.41500
C  -0.00300 31.00600 22.90100
N  -2.38200 32.23300 27.35700
C  -3.20400 31.75000 26.36300
C  -4.13700 30.84300 26.88000
C  -3.95300 30.93400 28.28900
C  -2.95100 31.87500 28.53000
C  -5.16700 30.04700 26.09000
C  -4.31200 30.34500 29.58200
O  -5.07400 29.41300 29.79900
C  -3.59800 31.15200 30.69000
C  -4.66200 31.74500 31.54400
O  -5.56100 32.41200 31.10600
O  -4.42100 31.53300 32.88600
C  -5.37800 32.14700 33.78900
H  1.17100 36.25100 30.36300
H  1.15400 35.85100 23.83600
H  -3.56300 31.51500 24.29100
H  -2.46800 33.77400 32.36900
H  0.16000 34.81600 32.29000
H  -1.91500 36.64100 31.22200
H  -0.75100 36.91000 32.51300
H  -2.24400 36.00200 32.85800
H  0.11900 32.17100 32.14700
H  -1.45700 31.53100 32.54600
H  -0.49200 33.75800 34.31700
H  0.62700 32.38700 34.35500
H  3.92600 37.83300 28.40500
H  2.89100 37.38300 29.76600
H  2.49900 38.76800 28.66300
H  3.66700 39.65900 25.05100
H  4.47300 38.61700 26.28200
H  3.12600 39.53400 26.72400
H  0.11300 33.66900 22.32500
H  -2.71100 33.16800 22.51100
H  -0.92200 36.35800 22.48900
H  -2.30800 35.49200 22.14100
H  -0.86900 35.38600 21.04800
H  -1.02800 31.90500 21.36700
H  -2.09100 31.01700 22.45100
H  0.18200 31.47500 23.86700
H  0.87800 30.95200 22.26200
H  -0.48700 30.07600 23.19600
H  -4.63800 29.33500 25.45700
H  -5.59900 30.92200 25.60600
H  -5.80800 29.63100 26.86700
H  -3.02100 30.38400 31.20600
H  -4.85500 32.88900 34.39200
H  -5.71300 31.52800 34.62100
H  -6.26400 32.63100 33.37700

