158

Mg 36.97900 49.01700 24.99800
C  36.84300 47.18600 28.07800
C  36.22900 51.83800 26.74900
C  36.80500 50.70000 22.12200
C  37.41900 46.00200 23.29300
N  36.44200 49.41200 27.16600
C  36.53800 48.58500 28.19900
C  36.21600 49.26800 29.57000
C  35.73200 50.72800 29.11100
C  36.23800 50.69300 27.56500
C  34.21500 50.91800 29.18400
C  37.36700 49.31900 30.47600
C  37.02900 49.56600 31.98600
H  35.60500 49.63100 32.41200
N  36.57800 51.04500 24.56200
C  36.40000 52.09300 25.41800
C  36.40500 53.33400 24.71900
C  36.59100 52.99900 23.35100
C  36.66300 51.51200 23.28600
C  36.24800 54.67500 25.39500
C  36.56800 53.86100 22.12100
O  36.78600 53.54400 20.99100
C  36.36900 55.31400 22.25200
N  36.81900 48.40900 22.98700
C  36.89700 49.26300 21.95600
C  37.15200 48.64900 20.56400
C  37.42000 47.15300 21.07900
C  37.18300 47.16300 22.55700
C  36.02400 48.69300 19.50100
C  38.90100 46.68800 20.80300
C  39.10800 45.20700 20.32000
N  37.15800 47.03300 25.55300
C  37.32300 45.92600 24.70900
C  37.44700 44.76800 25.52400
C  37.28700 45.26700 26.86300
C  37.08700 46.60700 26.79200
C  37.62300 43.35100 25.04800
C  37.32500 44.84400 28.23800
O  37.47400 43.76400 28.77000
C  37.10500 46.08100 29.11700
C  35.99400 45.99800 30.18900
O  34.83800 45.80800 29.94700
O  36.48200 45.78700 31.50600
C  35.51600 45.24500 32.46000
H  35.95800 52.68200 27.38600
H  36.86800 51.15300 21.13100
H  37.43400 45.04000 22.77800
H  35.38800 48.64300 29.90300
H  36.19900 51.55900 29.64100
H  33.91000 51.79300 29.75700
H  33.68100 50.01400 29.47700
H  33.93900 50.93700 28.13000
H  37.97100 50.17400 30.17100
H  37.97700 48.44900 30.23400
H  37.51300 50.46500 32.36900
H  37.48700 48.74500 32.53800
H  36.26200 54.48700 26.46800
H  35.36500 55.24800 25.11000
H  37.10300 55.29600 25.13100
H  36.96600 55.69800 23.07900
H  35.32700 55.52900 22.49100
H  36.57800 55.79800 21.29800
H  38.10200 48.97500 20.14000
H  36.78700 46.32600 20.75700
H  36.36000 48.99200 18.50800
H  35.31400 49.45400 19.82700
H  35.43200 47.77800 19.52200
H  39.57100 46.83800 21.65000
H  39.24200 47.32300 19.98600
H  38.19900 44.68900 20.01400
H  39.53200 44.62500 21.13800
H  39.83600 45.19500 19.50900
H  37.72100 42.73300 25.94100
H  38.41500 43.33900 24.29800
H  36.64300 43.13900 24.62200
H  38.09900 46.02400 29.56300
H  35.13900 46.09100 33.03500
H  36.11000 44.60200 33.10900
H  34.66100 44.72800 32.02400
Mg 8.72200 48.14700 27.37400
C  6.76000 47.41200 30.19600
C  11.36500 48.40800 29.36000
C  10.36700 48.98600 24.51500
C  5.85100 47.59000 25.41200
N  8.97200 47.95000 29.52200
C  8.02200 47.68700 30.57800
C  8.72600 47.84900 31.99300
C  10.17200 48.17300 31.58800
C  10.17900 48.13100 30.07800
C  10.63800 49.45000 32.32500
C  8.49600 46.60800 32.91600
C  9.51200 46.49100 33.99000
H  9.14300 45.74700 35.30900
N  10.65000 48.52200 26.99800
C  11.62100 48.55300 27.92600
C  12.85400 48.75800 27.25000
C  12.65200 48.98100 25.83800
C  11.19700 48.84200 25.72900
C  14.18900 48.54800 27.98000
C  13.63400 49.14300 24.75200
O  13.38800 49.26300 23.56800
C  15.08900 49.03100 25.08300
N  8.07500 48.48600 25.31400
C  9.00800 48.89700 24.32900
C  8.39100 49.02200 22.93200
C  6.97000 48.33100 23.20300
C  6.91300 48.10900 24.73100
C  8.32100 50.53900 22.48300
C  6.63600 47.10700 22.20300
C  5.61800 47.50400 21.08800
N  6.65000 47.92400 27.70200
C  5.67400 47.58000 26.77800
C  4.46400 47.26000 27.51000
C  4.85000 47.14200 28.81600
C  6.19600 47.49600 28.88900
C  3.12700 47.05900 26.88300
C  4.29100 46.94600 30.15600
O  3.18100 46.59600 30.55500
C  5.57400 47.16100 31.09200
C  5.44900 45.91000 31.93600
O  5.92900 44.81000 31.65800
O  4.83100 46.22600 33.15600
C  4.78300 45.02600 34.06300
H  12.27500 48.60100 29.93200
H  10.83500 49.17200 23.54700
H  4.98500 47.32100 24.80500
H  8.31600 48.77100 32.40600
H  10.90700 47.41100 31.84400
H  11.69300 49.38100 32.59300
H  10.04300 49.70100 33.20200
H  10.65000 50.32400 31.67400
H  8.45800 45.70600 32.30500
H  7.57800 46.83300 33.45900
H  9.96400 47.47700 34.09600
H  10.32000 45.87900 33.59000
H  14.78700 49.44300 27.80900
H  14.72300 47.69900 27.55300
H  14.10700 48.49400 29.06500
H  15.38900 49.89700 25.67300
H  15.59200 49.14500 24.12300
H  15.20900 48.04300 25.52700
H  8.91500 48.39200 22.21300
H  6.24200 49.10700 22.96600
H  7.43000 50.63000 21.86300
H  9.20200 50.76300 21.88100
H  8.16900 51.21300 23.32600
H  6.37300 46.16700 22.68900
H  7.53100 46.84200 21.64000
H  4.92100 46.67600 20.95800
H  6.12200 47.74900 20.15300
H  4.93900 48.23900 21.52200
H  3.07400 46.75400 25.83800
H  2.53900 47.97400 26.94300
H  2.62800 46.37300 27.56700
H  5.33400 48.05800 31.66300
H  4.56200 45.45400 35.04000
H  5.73200 44.49500 34.13800
H  4.00000 44.31900 33.78600

