158

Mg 0.61200 7.53200 27.26400
C  0.81300 9.73000 29.96500
C  0.49400 4.94000 29.66400
C  0.32700 5.28800 24.81800
C  0.73000 10.19500 25.09500
N  0.74600 7.35100 29.59400
C  0.68500 8.41400 30.40800
C  0.44000 7.96000 31.89000
C  0.53900 6.39300 31.78100
C  0.63700 6.18300 30.28400
C  1.83600 5.79500 32.39400
C  -1.00400 8.38500 32.45200
C  -1.06800 8.45300 34.01100
H  0.15400 8.04100 34.83800
N  0.47100 5.38200 27.20700
C  0.29700 4.54200 28.31100
C  -0.01000 3.18500 27.82500
C  0.09100 3.26100 26.32600
C  0.27200 4.65000 26.06400
C  -0.37000 2.01300 28.76000
C  -0.05900 2.11100 25.38900
O  -0.16800 2.25700 24.17600
C  -0.17400 0.67400 25.93800
N  0.50200 7.74500 25.30500
C  0.47400 6.64300 24.41200
C  0.48900 7.17100 22.95500
C  0.28600 8.68700 23.09100
C  0.46300 8.90900 24.55600
C  1.77000 6.65500 22.22700
C  -1.08300 9.20700 22.54800
C  -0.99500 10.25100 21.44800
N  0.95700 9.51500 27.42800
C  0.91100 10.52200 26.45200
C  1.09800 11.80000 27.07400
C  1.06700 11.49500 28.47700
C  0.95900 10.11200 28.64400
C  1.19000 13.15500 26.41200
C  1.16100 12.15500 29.72400
O  1.43300 13.30200 29.93400
C  0.77800 10.97900 30.73400
C  1.78200 11.00400 31.85400
O  2.98900 10.72500 31.71800
O  1.18000 11.44400 32.99400
C  2.02500 11.50500 34.11800
H  0.29800 4.23400 30.47400
H  -0.00100 4.69400 23.96200
H  0.69400 11.02000 24.38100
H  1.29500 8.32900 32.45700
H  -0.28700 5.85400 32.24500
H  1.56500 4.87700 32.91500
H  2.30400 6.55600 33.01900
H  2.55600 5.44200 31.65500
H  -1.67000 7.62000 32.05500
H  -1.32600 9.35300 32.06800
H  -1.86900 7.80800 34.37300
H  -1.46900 9.43900 34.24800
H  -1.42300 1.78400 28.59600
H  -0.19000 2.30900 29.79300
H  0.16300 1.10100 28.49000
H  0.71700 0.54300 26.55200
H  -0.11300 0.01700 25.07100
H  -1.09100 0.56000 26.51500
H  -0.40700 6.75900 22.49000
H  1.18700 9.11800 22.65200
H  2.46200 6.15900 22.90700
H  2.29200 7.45800 21.70600
H  1.36500 5.96700 21.48500
H  -1.62100 9.56800 23.42400
H  -1.62000 8.33600 22.17200
H  -1.49400 9.92400 20.53500
H  0.03800 10.54800 21.27100
H  -1.57500 11.08800 21.83600
H  0.16800 13.34600 26.08200
H  1.83000 13.10000 25.53200
H  1.48900 13.92000 27.12800
H  -0.19900 11.16700 31.17900
H  2.47300 12.48900 34.26000
H  2.83600 10.77700 34.15600
H  1.39800 11.31500 34.98900
Mg 54.56200 24.26200 43.79100
C  52.15300 26.58400 42.88800
C  52.57500 21.74600 42.73900
C  57.43500 22.27800 43.55800
C  56.72200 26.96700 44.43800
N  52.59400 24.20800 42.88400
C  51.75200 25.26300 42.63700
C  50.28700 24.77700 42.39500
C  50.43200 23.22900 42.64600
C  51.91800 22.99200 42.82600
C  49.53800 22.67900 43.78600
C  49.55000 25.25400 41.08100
C  50.43800 25.70600 39.89000
H  50.49400 24.97800 38.51800
N  54.89500 22.21000 43.33200
C  53.91700 21.35900 42.98000
C  54.46600 20.03500 42.75600
C  55.88100 20.12900 43.08200
C  56.14500 21.58600 43.35800
C  53.63200 18.79100 42.32000
C  56.74700 18.99800 43.30000
O  56.48100 17.87600 42.87400
C  58.05400 19.27800 44.04200
N  56.80700 24.58400 43.80000
C  57.66500 23.59200 43.84500
C  59.01200 24.08600 44.30600
C  58.83000 25.61300 44.56200
C  57.40700 25.74100 44.17700
C  59.76600 23.26500 45.41700
C  59.85700 26.45700 43.63200
C  59.15900 27.04100 42.36300
N  54.54900 26.36300 43.59200
C  55.41900 27.32100 44.11000
C  54.80400 28.49400 44.27400
C  53.53300 28.35800 43.73900
C  53.44100 26.99300 43.33000
C  55.38600 29.61900 44.87000
C  52.28700 28.94900 43.50300
O  51.92000 30.11000 43.63300
C  51.37900 27.88600 42.82600
C  51.01700 28.38600 41.52000
O  51.78300 28.62000 40.65200
O  49.67000 28.59200 41.41300
C  49.16200 29.15000 40.20400
H  51.98200 20.85900 42.50800
H  58.38400 21.74700 43.46200
H  57.33900 27.69000 44.97700
H  49.68100 25.23700 43.17500
H  50.14300 22.69700 41.74000
H  50.07700 22.67800 44.73400
H  49.41700 21.63100 43.51100
H  48.58900 23.21400 43.76200
H  48.84600 26.07000 41.23800
H  48.86800 24.47700 40.73500
H  51.48300 25.73700 40.19800
H  50.08400 26.72100 39.71100
H  54.21200 18.33400 41.51800
H  52.71200 19.20200 41.90500
H  53.37600 18.14300 43.15800
H  58.51200 18.41100 44.51800
H  57.89300 20.02700 44.81800
H  58.74700 19.74600 43.34300
H  59.65800 23.99200 43.43300
H  58.91200 25.91800 45.60600
H  59.94100 24.00900 46.19500
H  60.75500 22.90700 45.13300
H  59.19700 22.40200 45.76300
H  60.62600 25.85400 43.14800
H  60.29600 27.23800 44.25300
H  58.91800 28.10200 42.42300
H  58.18600 26.60000 42.14400
H  59.73400 26.78500 41.47300
H  54.89800 30.53400 44.53600
H  56.44000 29.61200 44.59300
H  55.26600 29.47800 45.94500
H  50.44900 27.79200 43.38700
H  49.80600 30.00700 40.00600
H  48.20200 29.63500 40.38300
H  49.13400 28.49800 39.33100

