158

Mg 35.44300 3.51400 29.91400
C  33.18000 4.46800 32.51900
C  37.87600 3.40000 32.18200
C  37.55000 3.02400 27.30500
C  32.81700 4.09500 27.69200
N  35.48800 4.10300 32.11000
C  34.45400 4.22100 32.98600
C  34.92000 4.25300 34.46100
C  36.45800 4.03800 34.26600
C  36.61600 3.83400 32.75900
C  37.33900 5.19200 34.82500
C  34.10800 3.08800 35.25700
C  33.60300 3.45200 36.61800
H  34.29300 4.55100 37.40000
N  37.41200 3.24700 29.79300
C  38.29500 3.18300 30.85500
C  39.60300 2.78600 30.43000
C  39.51800 2.60800 28.96200
C  38.09100 2.90600 28.63100
C  40.80000 2.65000 31.38300
C  40.66700 2.21200 27.97900
O  40.53500 2.30400 26.77100
C  42.04300 1.87100 28.55900
N  35.25600 3.58600 27.80900
C  36.20400 3.27000 26.97500
C  35.68900 3.27900 25.51500
C  34.17300 3.48200 25.66400
C  34.03400 3.79100 27.13200
C  36.40700 4.24800 24.64400
C  33.32700 2.29400 25.20400
C  33.53900 1.04500 26.09000
N  33.40700 4.18600 30.06500
C  32.47900 4.30600 29.05400
C  31.18000 4.57300 29.65800
C  31.44800 4.81500 30.95400
C  32.81200 4.46600 31.17700
C  29.98200 4.74200 28.82800
C  30.82200 5.09300 32.21600
O  29.64800 5.45600 32.43800
C  31.93300 4.97100 33.34000
C  31.91000 6.25900 34.12700
O  32.36400 7.35100 33.74500
O  31.29600 6.08400 35.36300
C  31.36200 7.20000 36.27300
H  38.70600 3.31400 32.88700
H  38.15800 2.86100 26.41200
H  32.03600 4.15200 26.93100
H  34.75900 5.25200 34.86600
H  36.71600 3.08200 34.72200
H  37.93800 5.45500 33.95400
H  38.04900 4.76700 35.53500
H  36.75100 6.00400 35.25400
H  34.79800 2.24600 35.31100
H  33.26300 2.61400 34.75800
H  33.68000 2.49800 37.14000
H  32.55400 3.74000 36.54900
H  41.41100 1.76900 31.18500
H  40.46900 2.47800 32.40700
H  41.35100 3.57800 31.23200
H  42.57800 1.63600 27.64000
H  41.96600 1.00300 29.21400
H  42.32900 2.79700 29.05800
H  35.96500 2.33000 25.05500
H  33.77800 4.39400 25.21700
H  37.09300 3.60700 24.09000
H  37.08300 4.89300 25.20600
H  35.70500 4.74200 23.97200
H  33.61000 2.14300 24.16200
H  32.26200 2.52200 25.25600
H  33.74200 0.16700 25.47600
H  32.63100 0.94000 26.68200
H  34.37300 1.25700 26.75900
H  30.13900 4.32600 27.83300
H  29.83900 5.81100 28.67100
H  29.07900 4.32000 29.27000
H  31.65100 4.11400 33.95200
H  30.61400 7.91700 35.93400
H  32.36400 7.62000 36.18200
H  31.19200 6.82600 37.28300
Mg 49.77800 35.69400 28.04100
C  47.40300 34.34700 30.31900
C  49.87500 38.46300 30.01300
C  51.66100 37.22000 25.61200
C  49.00800 33.12900 25.79300
N  48.82700 36.21100 30.04500
C  48.00600 35.50000 30.87100
C  48.04500 36.19100 32.24300
C  48.30800 37.63200 31.79900
C  49.10400 37.46200 30.55800
C  47.06400 38.56500 31.56900
C  49.07300 35.48500 33.15200
C  48.69200 35.10700 34.63400
H  49.56300 35.69500 35.78200
N  50.77200 37.52400 27.87100
C  50.74000 38.45000 28.82200
C  51.54900 39.61900 28.44700
C  51.95200 39.35400 27.09700
C  51.44300 38.01400 26.78300
C  51.75300 40.80500 29.30800
C  52.57600 40.29000 26.01400
O  52.73500 39.96300 24.86000
C  53.01600 41.68800 26.50200
N  50.19400 35.29400 25.93100
C  51.13800 35.99500 25.24700
C  51.41600 35.38200 23.88700
C  50.78000 33.93100 24.08800
C  49.90600 34.11200 25.35400
C  50.75000 36.19700 22.69900
C  51.81200 32.79100 24.22000
C  51.81000 31.66500 23.13700
N  48.54900 34.03600 28.05900
C  48.38700 33.06200 27.05700
C  47.41900 32.10200 27.54800
C  46.96400 32.58900 28.75900
C  47.67500 33.77600 29.06300
C  46.82500 30.90400 26.82500
C  46.09700 32.22900 29.92700
O  45.32100 31.35800 30.16500
C  46.33100 33.44300 30.90700
C  46.60400 32.83300 32.21300
O  47.51200 32.12300 32.57000
O  45.63800 33.30100 33.12100
C  45.69900 32.61500 34.38100
H  49.95700 39.37800 30.60300
H  52.41800 37.64500 24.95000
H  48.87200 32.27400 25.12800
H  47.01400 36.09200 32.58500
H  48.95200 38.18900 32.47900
H  46.96400 39.36400 32.30400
H  46.07700 38.10700 31.50500
H  47.37300 39.18500 30.72700
H  50.02800 36.00700 33.21000
H  49.29700 34.54300 32.65100
H  48.53900 34.02800 34.64000
H  47.69200 35.48600 34.84600
H  52.68500 41.32400 29.08500
H  51.69000 40.62000 30.38000
H  50.91300 41.43600 29.01600
H  53.71800 41.69500 27.33600
H  52.10500 42.19100 26.82500
H  53.46600 42.24500 25.68000
H  52.50000 35.27800 23.83100
H  50.22600 33.68000 23.18400
H  50.06400 35.55100 22.15100
H  51.56400 36.51600 22.04900
H  50.34200 37.06500 23.21700
H  51.73400 32.51800 25.27200
H  52.77900 33.29200 24.17000
H  51.53500 30.70900 23.58100
H  52.80500 31.61200 22.69500
H  51.00200 31.85400 22.43000
H  46.27100 30.14400 27.37700
H  47.57600 30.44500 26.18100
H  46.23900 31.37300 26.03500
H  45.42100 34.04200 30.95600
H  45.53900 31.54100 34.47500
H  45.14300 33.21100 35.10400
H  46.67600 32.81000 34.82400

