158

Mg 17.65500 -0.28700 27.56600
C  16.80800 1.37800 30.61700
C  19.50600 -2.43800 29.43300
C  18.69100 -1.56300 24.70500
C  15.66400 2.07200 25.93300
N  18.28100 -0.34700 29.71700
C  17.67200 0.29300 30.77500
C  18.01400 -0.33000 32.14100
C  19.17600 -1.33500 31.73600
C  18.99600 -1.39500 30.21500
C  20.66300 -0.88300 31.92400
C  16.84700 -1.08000 32.83900
C  16.72200 -0.85900 34.33600
H  18.05300 -0.56100 35.09600
N  18.84300 -1.83200 27.15500
C  19.50100 -2.70100 28.03200
C  20.19000 -3.74100 27.27600
C  19.91300 -3.50300 25.92300
C  19.13700 -2.28200 25.85800
C  21.03500 -4.86400 27.98200
C  20.51000 -4.27200 24.77100
O  20.24100 -3.99900 23.60500
C  21.46800 -5.47600 24.97500
N  17.19500 0.16500 25.67000
C  17.89100 -0.42800 24.60200
C  17.79400 0.38500 23.36200
C  16.50800 1.27000 23.69500
C  16.44100 1.21200 25.22200
C  19.04300 1.18500 22.83000
C  15.11900 1.06100 22.95200
C  14.96600 1.97000 21.67100
N  16.54800 1.39400 28.12400
C  15.71400 2.26200 27.34500
C  15.03300 3.18700 28.16300
C  15.37000 2.82900 29.40800
C  16.39900 1.85900 29.37700
C  14.10600 4.28000 27.68000
C  15.08200 3.12300 30.88500
O  14.42600 4.03400 31.41600
C  15.99900 2.17800 31.63800
C  16.89300 3.05100 32.54900
O  17.99900 3.47500 32.23400
O  16.32200 3.27800 33.75600
C  17.05900 4.17100 34.65500
H  20.05100 -3.20900 29.98100
H  18.98100 -1.95000 23.72600
H  15.12800 2.75200 25.26700
H  18.27000 0.47800 32.82600
H  19.04300 -2.32100 32.18200
H  21.16800 -0.70600 30.97500
H  21.16900 -1.73800 32.37400
H  20.53500 -0.00900 32.56200
H  16.96200 -2.16300 32.82700
H  15.93200 -0.83600 32.29900
H  16.37700 -1.74500 34.86900
H  16.05400 -0.02100 34.53600
H  20.96000 -4.75900 29.06400
H  22.07800 -4.72800 27.69800
H  20.62000 -5.84400 27.74300
H  22.39100 -5.12300 25.43500
H  21.65200 -5.66600 23.91800
H  21.02600 -6.33700 25.47700
H  17.65300 -0.36200 22.58100
H  16.80100 2.30600 23.52500
H  19.99100 0.76700 23.16900
H  19.09500 2.26600 22.95700
H  19.24500 0.90600 21.79500
H  14.33900 1.26300 23.68700
H  14.97500 0.01000 22.70400
H  14.27100 2.80600 21.74600
H  14.59000 1.38900 20.82900
H  16.00700 2.25600 21.51700
H  14.11300 4.39500 26.59700
H  14.23500 5.22900 28.20000
H  13.13600 3.93200 28.03600
H  15.51400 1.53800 32.37500
H  17.11300 3.63400 35.60200
H  16.48000 5.08100 34.81700
H  18.07800 4.33900 34.30700
Mg 16.98000 51.57300 26.19800
C  18.83700 50.11100 28.90600
C  14.45800 52.15000 28.44200
C  15.20200 52.33500 23.65900
C  19.15700 49.74900 24.05600
N  16.65900 51.13300 28.36800
C  17.60200 50.67200 29.28700
C  17.14100 50.88300 30.69200
C  15.60700 51.19200 30.52100
C  15.55300 51.55100 29.05000
C  14.72100 50.01100 30.85500
C  18.01300 52.06800 31.27800
C  18.30300 51.91800 32.79000
H  17.30500 51.09500 33.65100
N  15.14200 52.33900 26.10400
C  14.28000 52.53500 27.10300
C  13.15900 53.23300 26.54000
C  13.32400 53.22800 25.07400
C  14.59600 52.66000 24.84800
C  12.00700 53.59600 27.39300
C  12.36100 53.75300 24.02800
O  12.65500 53.86300 22.85700
C  11.05300 54.11800 24.42700
N  17.01700 50.97700 24.16200
C  16.30500 51.58200 23.32000
C  16.58500 51.17000 21.83100
C  18.00000 50.63500 21.99600
C  18.11700 50.49000 23.51000
C  15.56100 50.17200 21.21700
C  19.12600 51.54000 21.39000
C  19.68800 51.13800 20.02600
N  18.76100 50.38600 26.32800
C  19.50000 49.65500 25.42800
C  20.62500 48.93700 26.06200
C  20.38600 49.12700 27.43400
C  19.24800 49.96700 27.55800
C  21.70100 48.18700 25.34200
C  20.90500 48.70600 28.74300
O  21.91800 48.09000 29.06400
C  19.88500 49.35800 29.70200
C  19.31000 48.33100 30.55100
O  18.30600 47.59200 30.35700
O  20.21100 48.21800 31.62200
C  20.10900 47.07900 32.55200
H  13.69400 52.35400 29.19600
H  14.80700 52.77800 22.74200
H  19.85800 49.35500 23.31700
H  17.25100 50.04200 31.37600
H  15.27000 52.08400 31.04900
H  13.92400 50.25700 31.55600
H  15.31600 49.17900 31.23200
H  14.31400 49.71900 29.88700
H  17.45100 52.97900 31.07200
H  18.93400 52.04600 30.69500
H  18.27900 52.95000 33.13800
H  19.28700 51.53300 33.05700
H  11.17000 52.94700 27.13600
H  11.78100 54.65500 27.27000
H  12.18100 53.48000 28.46200
H  10.96000 55.00500 25.05300
H  10.71300 53.27400 25.02700
H  10.39700 54.17100 23.55800
H  16.63000 52.13900 21.33500
H  17.98800 49.61200 21.62100
H  14.84700 49.88900 21.99000
H  16.10900 49.31000 20.83900
H  14.94300 50.73400 20.51600
H  19.95900 51.79800 22.04400
H  18.64000 52.48100 21.13300
H  19.45800 51.80300 19.19400
H  19.34900 50.13000 19.78800
H  20.77700 51.13700 20.07000
H  21.97900 48.95200 24.61600
H  21.26300 47.28200 24.92100
H  22.66700 47.91400 25.76600
H  20.45100 50.06800 30.30500
H  19.63300 46.26600 32.00300
H  19.46900 47.53800 33.30500
H  21.03200 46.69100 32.98200

