158

Mg 49.33500 45.46700 42.49400
C  45.84700 44.96600 42.14400
C  49.73900 41.89300 42.38300
C  52.69800 45.83400 42.24300
C  48.82600 48.90100 42.18200
N  48.07900 43.67400 42.05600
C  46.62600 43.71000 42.15100
C  45.94900 42.32700 42.28700
C  47.20600 41.44700 42.51400
C  48.45300 42.37000 42.28500
C  47.26800 40.71500 43.82300
C  45.01400 41.79300 41.13900
C  44.82200 42.65000 39.91100
H  44.71100 41.81400 38.61200
N  50.94100 44.02900 42.32400
C  50.93500 42.66100 42.35100
C  52.32800 42.21000 42.21100
C  53.20400 43.33600 42.09600
C  52.28700 44.48000 42.23100
C  52.63900 40.73400 42.20900
C  54.71600 43.26400 41.85500
O  55.23500 42.16800 41.72300
C  55.57000 44.43800 41.76400
N  50.59500 47.20600 42.22700
C  51.95500 47.07400 42.39300
C  52.64700 48.45800 42.45000
C  51.43500 49.44400 42.24000
C  50.19700 48.48500 42.19900
C  53.37000 48.64300 43.80700
C  51.44200 50.28200 40.92100
C  51.49500 51.83200 41.03000
N  47.77100 46.73800 42.19600
C  47.65600 48.10800 42.15100
C  46.18000 48.51200 42.04900
C  45.55600 47.25100 42.12900
C  46.47100 46.24100 42.18800
C  45.65000 49.85300 41.92000
C  44.26900 46.72000 42.17800
O  43.20600 47.31200 42.16000
C  44.40400 45.20800 42.26400
C  43.77700 44.70700 43.49600
O  42.99100 43.77100 43.57000
O  44.40900 45.32400 44.52800
C  43.91500 44.87900 45.84100
H  49.78600 40.82200 42.59200
H  53.75200 46.11400 42.27700
H  48.71200 49.98500 42.11400
H  45.48500 42.52000 43.25400
H  47.21500 40.67900 41.74100
H  46.28000 40.43000 44.18400
H  47.64400 41.41900 44.56600
H  48.02600 39.93200 43.82900
H  43.97400 41.61600 41.41200
H  45.36400 40.83300 40.75700
H  45.53600 43.47300 39.89200
H  43.80900 43.04100 40.00800
H  53.39800 40.37900 41.51200
H  51.73400 40.15600 42.02100
H  52.96000 40.38500 43.19100
H  55.33600 44.94800 40.83000
H  56.62400 44.16100 41.77600
H  55.37300 45.07100 42.63000
H  53.34000 48.56400 41.61600
H  51.34200 50.07100 43.12700
H  54.40700 48.58500 43.47500
H  53.30900 47.80300 44.49900
H  53.14500 49.61300 44.24900
H  50.57100 49.99700 40.33100
H  52.28900 49.98500 40.30100
H  52.47700 52.20100 40.73700
H  51.52500 52.24800 42.03700
H  50.76200 52.49500 40.56900
H  46.24100 50.62700 41.43000
H  45.46300 50.36300 42.86500
H  44.68200 49.82100 41.41900
H  43.83100 44.85700 41.40600
H  44.36200 45.42000 46.67500
H  44.10600 43.84900 46.14200
H  42.84700 45.09500 45.87100
Mg -11.88400 38.04800 42.27600
C  -9.79800 35.35500 41.15500
C  -9.50100 40.16400 41.27700
C  -14.05000 40.50400 42.66400
C  -14.41800 35.68900 42.71600
N  -9.96400 37.77400 41.14200
C  -9.28800 36.59400 40.94600
C  -7.94600 36.88000 40.44700
C  -7.73000 38.41400 40.74300
C  -9.14400 38.84700 41.19400
C  -6.69400 38.66900 41.89800
C  -7.91500 36.49500 38.89500
C  -6.99400 35.34500 38.52900
H  -5.95400 35.61200 37.41500
N  -11.80200 40.11100 41.89700
C  -10.70400 40.75100 41.51900
C  -11.03100 42.19400 41.53700
C  -12.36700 42.29400 42.04800
C  -12.83000 40.95800 42.16000
C  -9.92200 43.24800 41.30400
C  -13.03900 43.53700 42.45400
O  -12.53900 44.60700 42.16500
C  -14.39100 43.74100 43.15100
N  -13.85200 38.11000 42.58700
C  -14.58200 39.22900 42.88900
C  -16.09100 39.05200 43.31700
C  -16.13000 37.50500 43.23000
C  -14.70700 37.02700 42.86000
C  -16.62700 39.63700 44.67400
C  -17.19500 36.94500 42.18900
C  -18.42700 36.38400 42.71900
N  -12.03000 35.91900 42.20500
C  -13.14700 35.09600 42.36400
C  -12.77600 33.77100 42.22200
C  -11.43100 33.76300 41.73900
C  -11.07900 35.10200 41.70000
C  -13.71000 32.61400 42.40200
C  -10.30300 32.96700 41.25600
O  -10.09900 31.81700 41.21200
C  -9.11300 33.98500 40.94500
C  -8.06400 33.62600 41.88600
O  -8.26300 33.72400 43.07800
O  -6.79900 33.32700 41.25100
C  -5.59900 32.93700 42.06900
H  -8.71600 40.90500 41.11500
H  -14.87300 41.17300 42.92400
H  -15.08500 34.87300 43.00200
H  -7.27000 36.27300 41.05000
H  -7.26200 38.86600 39.86900
H  -5.77100 38.09500 41.81400
H  -6.98000 38.56300 42.94400
H  -6.39700 39.71200 41.79000
H  -7.55900 37.30600 38.25900
H  -8.89000 36.20400 38.50500
H  -7.66900 34.53100 38.26500
H  -6.49500 34.88700 39.38300
H  -9.64800 43.81500 42.19300
H  -10.31700 43.86000 40.49300
H  -9.00300 42.81000 40.91400
H  -14.53000 43.05200 43.98300
H  -15.09300 43.35200 42.41300
H  -14.65200 44.76600 43.41700
H  -16.69400 39.47400 42.51300
H  -16.44700 37.15500 44.21300
H  -17.09200 38.90100 45.33000
H  -17.33900 40.44000 44.48400
H  -15.71600 40.01300 45.14000
H  -16.75100 36.22200 41.50500
H  -17.55000 37.68700 41.47400
H  -18.62200 35.43900 42.21000
H  -19.27900 36.98800 42.40800
H  -18.41100 36.10900 43.77300
H  -14.75800 32.85500 42.22700
H  -13.46800 32.20200 43.38200
H  -13.50000 31.82800 41.67700
H  -8.79500 33.77200 39.92500
H  -5.89200 32.30900 42.91000
H  -4.89900 33.75300 42.24900
H  -5.00600 32.20900 41.51500

