158

Mg 17.27400 -1.18300 27.36500
C  16.13800 0.50600 30.25100
C  19.27000 -2.97400 29.45700
C  18.84100 -2.39500 24.62800
C  15.71200 1.26600 25.44800
N  17.61100 -1.18600 29.69200
C  17.06200 -0.46900 30.63400
C  17.61400 -0.67200 31.97800
C  18.62600 -1.84600 31.66400
C  18.52100 -2.03300 30.15100
C  20.08900 -1.59700 32.28500
C  16.56900 -1.03300 33.03400
C  16.53500 -0.13900 34.30000
H  17.83200 0.23100 34.87900
N  18.70300 -2.62300 27.05500
C  19.44500 -3.28800 28.05300
C  20.30300 -4.27400 27.40700
C  20.12900 -4.17800 26.01400
C  19.10900 -3.09300 25.79700
C  21.17300 -5.25800 28.21400
C  20.73600 -4.97100 24.85900
O  20.35000 -4.88300 23.70200
C  21.87500 -5.96100 25.23500
N  17.38700 -0.59500 25.39400
C  18.15200 -1.19900 24.45000
C  18.08200 -0.42000 23.04700
C  17.07800 0.70200 23.44700
C  16.69900 0.47500 24.89600
C  19.45700 -0.02000 22.32700
C  15.80500 0.72700 22.51700
C  16.12700 0.74600 20.99100
N  16.04800 0.50400 27.69400
C  15.41500 1.32000 26.84300
C  14.65400 2.28600 27.52600
C  14.89800 2.06700 28.88500
C  15.79600 0.92700 28.92500
C  14.02100 3.43300 26.91900
C  14.63600 2.56200 30.19500
O  13.98800 3.52700 30.54300
C  15.30800 1.51300 31.19300
C  16.13000 2.34400 32.13200
O  17.33600 2.50900 32.10900
O  15.26500 2.94600 32.99300
C  15.78100 4.11200 33.72100
H  19.91000 -3.54900 30.12900
H  19.51500 -2.59100 23.79200
H  15.30700 2.10400 24.87700
H  18.07700 0.26700 32.28200
H  18.28400 -2.79000 32.08800
H  20.48700 -2.39600 32.91000
H  19.88800 -0.73200 32.91700
H  20.78000 -1.30600 31.49400
H  16.58900 -2.07000 33.36800
H  15.62800 -0.81700 32.52800
H  16.01200 -0.79000 35.00100
H  16.11900 0.79000 33.91000
H  21.10300 -6.32100 27.98100
H  20.74900 -5.31700 29.21700
H  22.18400 -4.88100 28.36500
H  21.54100 -6.86800 25.73900
H  22.50000 -5.47500 25.98400
H  22.53300 -6.08400 24.37500
H  17.66900 -1.22600 22.44100
H  17.65000 1.61300 23.27100
H  20.26400 0.20000 23.02600
H  19.32500 0.85200 21.68700
H  19.86400 -0.92800 21.88300
H  15.21400 1.59200 22.82100
H  15.22900 -0.15700 22.79400
H  16.06100 -0.31500 20.74900
H  17.04300 1.30900 20.81400
H  15.27900 1.18300 20.46300
H  14.51500 3.76500 26.00500
H  14.03900 4.25000 27.64100
H  13.02200 3.14300 26.59600
H  14.53000 0.96000 31.71800
H  14.95000 4.80400 33.58500
H  16.61100 4.68600 33.31000
H  16.05000 3.92900 34.76200
Mg 45.23700 5.37300 48.80000
C  42.97200 7.83200 47.56400
C  42.87300 2.96000 47.79700
C  47.65500 2.98500 48.95000
C  47.72900 7.90800 48.84000
N  43.20200 5.45800 47.78300
C  42.52100 6.52600 47.35200
C  41.10300 6.14900 46.80200
C  41.12300 4.58200 46.91500
C  42.45100 4.30400 47.53200
C  39.89500 4.11400 47.76300
C  40.87600 6.62400 45.29300
C  39.56700 7.58200 45.16400
H  38.62700 7.33700 44.00700
N  45.20200 3.29200 48.64800
C  44.10000 2.50100 48.27600
C  44.52800 1.09200 48.36600
C  45.91900 1.14900 48.61500
C  46.30900 2.51400 48.77300
C  43.62500 -0.03000 48.09500
C  46.77000 -0.09400 48.81100
O  46.29800 -1.21700 48.63800
C  48.15100 -0.08200 49.28500
N  47.39000 5.45700 48.99200
C  48.16700 4.32500 49.08000
C  49.63400 4.64900 49.10400
C  49.64400 6.19600 49.08900
C  48.21400 6.54500 48.94600
C  50.41700 3.88700 50.15900
C  50.49300 6.76300 47.91900
C  51.29100 8.08800 48.24400
N  45.32300 7.44600 48.50400
C  46.41400 8.35600 48.61000
C  45.96600 9.64300 48.29700
C  44.59700 9.46800 47.99700
C  44.26600 8.12900 48.04200
C  46.86800 10.88300 48.34300
C  43.40700 10.20400 47.80900
O  43.19100 11.42100 47.88100
C  42.25000 9.14300 47.50700
C  41.17600 9.39300 48.60000
O  41.25400 8.85400 49.67100
O  40.13900 10.03800 47.99800
C  38.85800 10.03900 48.70800
H  42.03900 2.28000 47.60900
H  48.46200 2.25000 48.92900
H  48.56000 8.57900 49.06400
H  40.37500 6.56700 47.49700
H  41.12800 4.11400 45.93000
H  39.62300 3.15500 47.32400
H  39.04000 4.79100 47.74700
H  40.22600 3.86900 48.77200
H  40.97200 5.87900 44.50400
H  41.76300 7.23700 45.13100
H  39.93300 8.60700 45.10200
H  38.95800 7.53100 46.06700
H  43.38100 -0.50300 49.04600
H  44.09600 -0.74600 47.42200
H  42.70700 0.23300 47.57000
H  48.74000 0.42000 48.51700
H  48.55400 -1.04400 49.60200
H  48.23400 0.58700 50.14100
H  49.92900 4.33000 48.10400
H  49.89200 6.59500 50.07300
H  49.75200 3.17400 50.64600
H  50.89300 4.61300 50.81800
H  51.27200 3.33100 49.77300
H  49.92900 7.05300 47.03300
H  51.26700 6.03700 47.67000
H  50.80600 9.01800 47.94800
H  52.29800 7.93200 47.85500
H  51.48000 8.10700 49.31700
H  46.40500 11.54800 47.61500
H  47.88900 10.61600 48.06900
H  46.94700 11.26400 49.36200
H  41.79000 9.48300 46.58000
H  38.27000 10.90600 48.40400
H  38.97700 10.22000 49.77600
H  38.25100 9.15200 48.52700

