158

Mg 24.28400 -6.43300 47.47100
C  26.96700 -4.37900 46.55400
C  22.26200 -4.90700 45.14100
C  22.03200 -8.73900 48.06700
C  26.67500 -8.34100 49.38100
N  24.66600 -4.89100 46.02500
C  25.80600 -4.12500 45.83300
C  25.54500 -3.15900 44.59700
C  23.97400 -3.13400 44.51200
C  23.53100 -4.42000 45.29000
C  23.37500 -1.90800 45.15000
C  26.33300 -3.73100 43.34800
C  26.76500 -2.60100 42.47700
H  25.99600 -2.36100 41.20300
N  22.33000 -6.71300 46.76300
C  21.65300 -5.98300 45.85200
C  20.27800 -6.38100 45.80100
C  20.12800 -7.59400 46.70800
C  21.50900 -7.77400 47.18500
C  19.14900 -5.63300 45.06500
C  18.92200 -8.44700 46.86600
O  17.94200 -8.18600 46.21900
C  18.88500 -9.53200 47.79700
N  24.34400 -8.32000 48.43500
C  23.25800 -8.96700 48.67800
C  23.47000 -10.26100 49.61700
C  24.96400 -10.02600 50.18400
C  25.37300 -8.84900 49.24400
C  22.34500 -10.54500 50.65400
C  25.79700 -11.28700 50.36100
C  26.60500 -11.73500 49.14600
N  26.33500 -6.36700 48.04000
C  27.15400 -7.19900 48.77900
C  28.53500 -6.69900 48.72900
C  28.45200 -5.52300 47.97600
C  27.13900 -5.45500 47.47700
C  29.65900 -7.29800 49.49100
C  29.23300 -4.44100 47.50900
O  30.42800 -4.17900 47.71300
C  28.28300 -3.59200 46.50700
C  28.08800 -2.22000 46.93600
O  27.37400 -1.81100 47.86100
O  28.68300 -1.42500 45.98100
C  28.03100 -0.14300 45.91000
H  21.74200 -4.20400 44.48800
H  21.36900 -9.54400 48.39000
H  27.36200 -8.87400 50.04100
H  25.99800 -2.20400 44.86300
H  23.65400 -3.27400 43.48000
H  24.00700 -1.51700 45.94800
H  22.36300 -1.93700 45.55300
H  23.32000 -1.20500 44.31800
H  25.67600 -4.40800 42.80200
H  27.24000 -4.25800 43.64300
H  27.74900 -2.92900 42.14300
H  26.99000 -1.68900 43.02900
H  18.60500 -6.25700 44.35600
H  19.45900 -4.72200 44.55400
H  18.36300 -5.28300 45.73500
H  19.22700 -9.24900 48.79300
H  19.48200 -10.40800 47.54700
H  17.83800 -9.82400 47.87800
H  23.35900 -11.10100 48.93100
H  24.81800 -9.69800 51.21300
H  22.70900 -10.71300 51.66700
H  21.85000 -11.50900 50.53900
H  21.59800 -9.75100 50.68600
H  25.14600 -12.12500 50.60900
H  26.34600 -11.08600 51.28100
H  26.25200 -11.19600 48.26700
H  26.36600 -12.76100 48.86600
H  27.66600 -11.49800 49.22400
H  30.62200 -6.85400 49.23900
H  29.70500 -8.38200 49.39100
H  29.34600 -7.10900 50.51800
H  28.67200 -3.59300 45.48900
H  28.39800 0.42500 46.76400
H  26.95000 -0.21100 45.78800
H  28.32600 0.30900 44.96300
Mg 47.71500 44.00700 42.38500
C  44.35500 43.07200 42.58800
C  48.46200 40.62500 41.84000
C  50.86000 44.92500 41.52300
C  46.66400 47.43200 42.19500
N  46.45400 42.02900 42.19700
C  45.08800 41.89400 42.34900
C  44.70600 40.41000 42.18700
C  46.10600 39.66500 42.18100
C  47.10900 40.82700 42.12200
C  46.22200 38.77800 43.39200
C  43.72200 39.98300 41.12900
C  43.76100 40.61600 39.68100
H  44.13700 39.69500 38.49400
N  49.45100 42.88900 41.79400
C  49.55700 41.51200 41.67300
C  50.89300 41.16700 41.43100
C  51.54300 42.40500 41.20900
C  50.60200 43.51600 41.45600
C  51.30700 39.72600 41.30000
C  52.98500 42.46100 40.88500
O  53.71800 41.47600 40.63900
C  53.76800 43.76800 40.76200
N  48.64900 45.91500 42.06100
C  49.94800 46.01300 41.80100
C  50.35200 47.52800 41.79500
C  48.96600 48.21900 41.45600
C  48.02600 47.16400 42.05100
C  51.06700 48.18600 42.92500
C  48.65500 48.44200 39.86900
C  48.19900 49.84700 39.49200
N  45.95700 45.07300 42.52900
C  45.64700 46.48500 42.43000
C  44.27200 46.67100 42.64200
C  43.74100 45.39500 42.69100
C  44.76800 44.46600 42.62100
C  43.63400 48.03200 42.76600
C  42.50100 44.65900 42.86300
O  41.38700 45.12300 42.96600
C  42.87000 43.12600 42.87900
C  42.50700 42.59600 44.23100
O  42.07500 41.43400 44.44000
O  42.96300 43.42800 45.18900
C  42.95100 42.96300 46.61100
H  48.60300 39.55400 41.67900
H  51.85200 45.15000 41.12600
H  46.44100 48.49400 42.31400
H  44.22300 40.16500 43.13300
H  46.29000 39.04200 41.30500
H  47.14700 38.21500 43.26200
H  45.25300 38.30700 43.55600
H  46.37500 39.44800 44.23800
H  42.70700 40.22300 41.44700
H  43.80600 38.90000 41.04700
H  44.38000 41.51100 39.61700
H  42.75100 40.98100 39.49500
H  51.99400 39.56100 40.47100
H  50.52300 39.02100 41.02300
H  51.75800 39.26700 42.18000
H  53.53300 44.24900 39.81300
H  54.79700 43.41600 40.83300
H  53.66200 44.34700 41.68000
H  51.02000 47.68600 40.94800
H  48.73900 49.09100 42.06900
H  52.09600 48.39800 42.63500
H  50.93700 47.56900 43.81400
H  50.75900 49.22700 43.02900
H  47.78100 47.82900 39.64900
H  49.41600 48.03200 39.20500
H  47.57500 50.42100 40.17800
H  47.48700 49.78100 38.66900
H  49.01300 50.54600 39.30100
H  43.82400 48.49400 41.79800
H  44.07500 48.58400 43.59600
H  42.56500 47.83900 42.84900
H  42.26700 42.54700 42.17800
H  42.51100 42.01300 46.91600
H  42.30100 43.66900 47.12700
H  43.96000 42.94600 47.02400

