158

Mg -1.59700 17.46200 27.63200
C  -1.93700 14.89600 29.95300
C  -2.43600 19.76000 30.17800
C  -1.42400 20.07400 25.41700
C  -1.80600 15.22200 25.07300
N  -2.03300 17.35600 29.83100
C  -2.04500 16.17200 30.63200
C  -2.08200 16.59700 32.13400
C  -2.41000 18.08800 32.06200
C  -2.35300 18.42900 30.58600
C  -3.64500 18.65300 32.91300
C  -0.78800 16.20500 32.80200
C  -0.16400 17.07700 33.94000
H  0.20700 16.33200 35.21200
N  -1.86800 19.59100 27.80400
C  -2.26600 20.31300 28.93400
C  -2.45600 21.69700 28.63900
C  -2.03700 21.80300 27.24900
C  -1.64900 20.48600 26.78100
C  -2.97900 22.62900 29.73800
C  -2.00500 23.09100 26.37900
O  -1.50600 23.20700 25.25600
C  -2.50600 24.36900 27.04300
N  -1.51600 17.55600 25.49000
C  -1.40500 18.73300 24.83000
C  -1.28300 18.45600 23.33300
C  -1.14600 16.88900 23.23400
C  -1.62800 16.50000 24.62800
C  -2.38400 19.04500 22.33700
C  0.23900 16.37200 22.89700
C  1.37700 16.75700 23.90100
N  -1.65800 15.39600 27.45500
C  -1.75500 14.66600 26.31800
C  -1.87700 13.32100 26.72900
C  -1.95000 13.32800 28.11500
C  -1.81000 14.66100 28.57700
C  -1.92100 12.07500 25.91800
C  -1.99000 12.50000 29.33200
O  -1.94500 11.27400 29.51200
C  -1.96100 13.51200 30.50500
C  -0.84100 13.09000 31.31200
O  0.28300 13.49500 31.11500
O  -1.28400 12.28900 32.35700
C  -0.24900 11.76400 33.16600
H  -2.46300 20.43700 31.03500
H  -1.18000 20.80400 24.64300
H  -1.69700 14.43700 24.32200
H  -2.96100 16.07500 32.51200
H  -1.67500 18.82100 32.39300
H  -4.45600 18.80100 32.20000
H  -3.53500 19.55600 33.51400
H  -3.95200 17.92200 33.66100
H  0.10300 16.19100 32.17400
H  -0.94400 15.18600 33.15600
H  -0.48200 18.07300 34.24900
H  0.83100 17.25000 33.53100
H  -2.86500 23.66300 29.41100
H  -2.48700 22.54300 30.70700
H  -4.01400 22.37600 29.96600
H  -3.44400 24.27200 27.59000
H  -2.64500 25.23800 26.40000
H  -1.84100 24.49600 27.89700
H  -0.29900 18.84700 23.07200
H  -1.78500 16.44400 22.47100
H  -3.30500 18.58800 22.69600
H  -2.02500 18.71900 21.36000
H  -2.51200 20.12700 22.37200
H  0.53600 16.65500 21.88700
H  -0.02300 15.32000 22.78500
H  1.00000 16.70600 24.92200
H  1.74500 17.75800 23.67900
H  2.26800 16.13200 23.84500
H  -1.50600 12.20100 24.91800
H  -2.96500 11.86800 25.68400
H  -1.40500 11.21700 26.34800
H  -2.88900 13.36100 31.05500
H  0.04600 10.83500 32.67700
H  -0.65100 11.68600 34.17600
H  0.61200 12.41800 33.30300
Mg 48.87900 45.44400 44.34800
C  45.68200 45.98900 42.90300
C  48.99400 42.34000 43.04500
C  52.12000 45.47500 45.26400
C  48.78700 48.98800 45.32000
N  47.51600 44.43600 42.86900
C  46.20000 44.66600 42.69800
C  45.48500 43.48400 42.07000
C  46.46900 42.25100 42.45300
C  47.71800 43.06400 42.81800
C  46.12100 41.37300 43.70700
C  45.14100 43.63700 40.56000
C  43.69400 43.34000 40.23300
H  43.50600 42.14800 39.21700
N  50.29600 44.06800 44.19700
C  50.19400 42.85300 43.69500
C  51.46100 42.13500 43.80700
C  52.42800 43.00600 44.37100
C  51.66100 44.27700 44.61500
C  51.50700 40.65800 43.33600
C  53.84000 42.66300 44.71300
O  54.23800 41.47500 44.51600
C  54.83000 43.63100 45.27400
N  50.25600 47.05600 45.16500
C  51.53300 46.69300 45.57600
C  52.27100 47.90600 46.22400
C  51.09800 48.96200 46.37300
C  50.00200 48.30700 45.52600
C  53.00600 47.45400 47.51300
C  51.45900 50.41700 45.95700
C  51.11400 51.42600 47.06500
N  47.47600 47.16500 44.21900
C  47.53100 48.44300 44.71900
C  46.35700 49.12100 44.33000
C  45.60300 48.11400 43.61600
C  46.34000 47.02200 43.56300
C  45.91100 50.50400 44.70500
C  44.30700 47.86900 43.02000
O  43.40200 48.67500 42.94300
C  44.31900 46.50500 42.48200
C  43.16600 45.78300 43.03400
O  43.00000 45.40800 44.15400
O  42.32300 45.39300 42.00400
C  41.01900 44.78700 42.40800
H  48.87100 41.29900 42.74000
H  53.20100 45.50900 45.41600
H  48.85800 50.03700 45.61600
H  44.56900 43.36700 42.64800
H  46.50700 41.56100 41.61000
H  46.87700 41.36900 44.49300
H  46.11800 40.34000 43.35900
H  45.11800 41.49400 44.11500
H  45.85400 43.05500 39.97500
H  45.26800 44.69500 40.33000
H  43.06200 44.16400 39.90100
H  43.19200 42.99100 41.13500
H  51.20900 40.76100 42.29300
H  50.68000 40.10100 43.77700
H  52.48100 40.17100 43.35800
H  54.37900 44.09200 46.15300
H  54.96300 44.48700 44.61200
H  55.82400 43.21200 45.42900
H  53.02000 48.26000 45.51500
H  50.74400 48.96100 47.40400
H  54.08800 47.33300 47.46000
H  52.62800 46.47100 47.79400
H  52.71600 48.04600 48.38100
H  50.90700 50.74300 45.07600
H  52.54400 50.46500 45.86100
H  50.67800 52.29900 46.57900
H  52.04300 51.57000 47.61700
H  50.35400 50.99400 47.71500
H  44.93500 50.73500 44.27700
H  46.58400 51.27700 44.33500
H  45.89600 50.65600 45.78400
H  44.31500 46.42600 41.39500
H  40.59800 45.11600 43.35800
H  41.09200 43.71400 42.58500
H  40.22300 44.87600 41.66800

