158

Mg 50.50600 46.12900 41.68500
C  47.42400 47.57700 40.79200
C  49.24500 42.99200 40.46300
C  53.63000 44.69500 41.99600
C  51.72000 49.22600 42.44900
N  48.54700 45.36400 40.79800
C  47.45500 46.18100 40.49500
C  46.32800 45.36700 39.81500
C  46.85800 43.90200 40.12300
C  48.34800 44.07300 40.53000
C  46.13500 43.17500 41.31300
C  46.20800 45.72600 38.33000
C  44.87800 45.69200 37.69800
H  44.86000 44.61100 36.54900
N  51.28400 44.16900 41.15100
C  50.58600 43.06500 40.72300
C  51.54400 41.93300 40.56600
C  52.83800 42.45200 40.87200
C  52.61600 43.82100 41.39900
C  51.11000 40.52600 40.09300
C  54.15200 41.77700 40.76300
O  54.22100 40.61200 40.52400
C  55.39400 42.48100 40.88400
N  52.41900 46.84600 42.03000
C  53.47600 46.07100 42.29300
C  54.69200 47.00800 42.68500
C  54.05200 48.36400 43.10400
C  52.66000 48.16300 42.43000
C  55.68800 46.28000 43.68500
C  54.88300 49.56600 42.62900
C  54.94100 50.69000 43.69600
N  49.80000 48.06400 41.73000
C  50.38400 49.24800 41.98200
C  49.50600 50.35800 41.86300
C  48.29300 49.73000 41.42200
C  48.51800 48.33500 41.29900
C  49.72000 51.77900 42.12500
C  46.95000 49.98000 40.87200
O  46.37500 51.03800 40.68700
C  46.39100 48.63300 40.34500
C  44.99400 48.37400 40.87400
O  44.66300 47.78600 41.91000
O  44.07900 48.80400 39.91100
C  42.74000 48.21600 40.00100
H  48.73800 42.10800 40.07100
H  54.60800 44.29300 42.26900
H  52.01800 50.20400 42.83300
H  45.36400 45.51400 40.30400
H  46.76900 43.25900 39.24700
H  45.36300 42.47300 40.99700
H  45.63800 44.00000 41.82300
H  46.88100 42.67500 41.93000
H  46.83000 44.95500 37.87300
H  46.64200 46.66200 37.97900
H  44.64000 46.66400 37.26600
H  44.04700 45.56600 38.39300
H  51.70600 39.66400 40.39200
H  51.04500 40.46300 39.00700
H  50.18400 40.24800 40.59600
H  55.64200 42.52000 41.94400
H  55.32400 43.50300 40.51200
H  56.05000 41.92000 40.21800
H  55.33700 47.08700 41.81000
H  54.02500 48.36200 44.19300
H  55.99400 46.88100 44.54200
H  56.62600 46.10500 43.15900
H  55.26600 45.33700 44.03100
H  54.63000 49.90900 41.62500
H  55.90900 49.20500 42.57000
H  55.96600 51.00400 43.89200
H  54.67100 50.25300 44.65700
H  54.23700 51.50200 43.51400
H  49.86200 51.87800 43.20100
H  48.80100 52.32600 41.91100
H  50.63300 52.08400 41.61500
H  46.27900 48.67800 39.26100
H  42.12700 49.09900 39.81900
H  42.42400 47.78400 40.95000
H  42.46900 47.51100 39.21400
Mg -12.91700 16.26300 41.74800
C  -10.16400 14.29000 41.03100
C  -11.40000 18.92500 40.16100
C  -15.96600 17.86700 41.59500
C  -14.60000 13.39000 42.75000
N  -11.00500 16.54800 40.62500
C  -10.00800 15.60900 40.49500
C  -8.74800 16.24800 39.90700
C  -9.14300 17.73100 39.70000
C  -10.54200 17.78600 40.30400
C  -8.19500 18.72900 40.48000
C  -8.08100 15.56400 38.68100
C  -6.60100 15.18700 38.83300
H  -5.59300 15.82200 37.78900
N  -13.56500 18.18000 41.24600
C  -12.81500 19.08700 40.49900
C  -13.55900 20.26500 40.31300
C  -14.90200 20.01900 40.90200
C  -14.83300 18.64100 41.28900
C  -13.00300 21.53400 39.61800
C  -15.97400 20.93400 41.08300
O  -15.85600 22.04800 40.58700
C  -17.25400 20.67300 41.91100
N  -15.03000 15.70300 42.15300
C  -16.09000 16.46200 41.90400
C  -17.46100 15.81100 42.21300
C  -16.92400 14.37200 42.61400
C  -15.45200 14.47500 42.50700
C  -18.26400 16.59800 43.26200
C  -17.58700 13.22200 41.91200
C  -18.59900 12.39400 42.74500
N  -12.48700 14.20800 42.06800
C  -13.23900 13.15200 42.49700
C  -12.44900 11.94400 42.46400
C  -11.28200 12.37400 41.95000
C  -11.32300 13.73300 41.64700
C  -12.91000 10.59400 42.86700
C  -9.93000 11.87400 41.54000
O  -9.41900 10.75700 41.55000
C  -9.13600 13.11400 41.02900
C  -7.84200 13.50800 41.69800
O  -7.80100 14.20000 42.71200
O  -6.78500 12.87700 41.10100
C  -5.48000 13.30800 41.64200
H  -10.90800 19.75600 39.64900
H  -16.94800 18.32700 41.46600
H  -15.09600 12.42400 42.86900
H  -8.03800 16.11300 40.72300
H  -9.13500 17.99100 38.64100
H  -8.84600 19.53500 40.81900
H  -7.41500 19.17900 39.86600
H  -7.80400 18.32300 41.41300
H  -8.15500 16.05000 37.70900
H  -8.65000 14.65500 38.48700
H  -6.66900 14.13400 38.56000
H  -6.25600 15.44100 39.83600
H  -13.73500 22.22900 39.20600
H  -12.21800 21.27000 38.90900
H  -12.42700 22.18500 40.27600
H  -17.91600 20.00000 41.36500
H  -17.70400 21.64700 42.10300
H  -17.16900 20.14400 42.86100
H  -18.00300 15.69700 41.27400
H  -17.01400 14.08600 43.66200
H  -17.94600 17.57400 43.62900
H  -18.54500 15.99900 44.12800
H  -19.16700 16.85900 42.71000
H  -16.76300 12.59300 41.57400
H  -18.19400 13.66000 41.12000
H  -18.34100 11.44500 43.21400
H  -19.40100 12.01800 42.11000
H  -18.99700 13.00500 43.55600
H  -13.04000 9.95400 41.99400
H  -13.91100 10.62600 43.29800
H  -12.09200 10.23100 43.48900
H  -8.84500 13.06400 39.98000
H  -5.49800 14.37800 41.85200
H  -4.76600 13.04800 40.86100
H  -5.17500 12.73300 42.51600

