158

Mg 51.40600 45.73500 41.88700
C  48.68500 47.02600 40.29200
C  50.48000 42.47800 41.06500
C  54.72000 44.67800 42.41000
C  52.64600 48.97700 42.47500
N  49.73600 44.84900 40.79700
C  48.68900 45.62600 40.35900
C  47.61300 44.67200 39.91600
C  48.10900 43.19900 40.28600
C  49.52900 43.46900 40.81800
C  47.28500 42.36300 41.27400
C  47.26100 44.91800 38.37600
C  45.78800 44.68000 38.11200
H  45.31700 43.40400 37.35200
N  52.47300 43.74800 41.85400
C  51.88700 42.61900 41.43700
C  52.85800 41.56600 41.40900
C  54.11900 42.14600 41.82700
C  53.83800 43.54300 42.08100
C  52.48700 40.05700 41.07400
C  55.34400 41.33900 42.02400
O  55.30200 40.13100 41.71400
C  56.52400 41.98600 42.62700
N  53.40100 46.71100 42.17600
C  54.46500 46.05300 42.59900
C  55.59400 46.97400 43.02200
C  54.93900 48.30000 43.23800
C  53.56700 48.00100 42.57800
C  56.47800 46.50100 44.17900
C  55.66000 49.57800 42.62600
C  56.10100 50.65600 43.70400
N  50.78300 47.60800 41.47500
C  51.39900 48.79400 41.84600
C  50.54000 49.87400 41.39000
C  49.42000 49.21900 40.84400
C  49.64900 47.85100 40.89400
C  50.85700 51.35700 41.38100
C  48.17700 49.40900 40.14100
O  47.60500 50.44100 39.74300
C  47.64900 47.95800 39.69600
C  46.22200 47.87500 40.16700
O  45.77700 47.69200 41.26700
O  45.45400 47.89500 39.08600
C  44.03700 47.76400 39.32600
H  50.18900 41.43900 40.89600
H  55.79200 44.47300 42.35600
H  52.92200 49.97400 42.82300
H  46.79600 44.99000 40.56300
H  48.13400 42.71500 39.31000
H  46.40000 42.93300 41.55800
H  47.86100 42.23700 42.19100
H  46.95000 41.43500 40.81100
H  47.78900 44.14600 37.81600
H  47.52300 45.88500 37.94700
H  45.45100 45.55200 37.55200
H  45.26600 44.76100 39.06500
H  52.84400 39.48000 41.92700
H  52.94400 39.63900 40.17800
H  51.42800 39.90000 40.86900
H  56.25400 42.66000 43.43900
H  56.94400 42.54800 41.79300
H  57.33400 41.29400 42.86000
H  56.28000 46.90000 42.17800
H  54.70700 48.47900 44.28800
H  56.46500 47.29500 44.92500
H  57.48900 46.32200 43.81300
H  56.05000 45.55000 44.49700
H  55.02200 50.11000 41.91900
H  56.55200 49.20900 42.12000
H  55.60900 51.58400 43.41100
H  57.18400 50.69400 43.82100
H  55.69800 50.31600 44.65800
H  50.25900 51.89200 40.64300
H  51.92100 51.47600 41.17400
H  50.66300 51.75800 42.37600
H  47.73900 47.91200 38.61000
H  43.47800 47.36000 38.48200
H  43.62500 48.76800 39.43100
H  43.66100 47.14500 40.14100
Mg 26.94200 52.10200 25.86400
C  25.21400 53.28200 28.60500
C  29.38000 50.81900 27.67900
C  28.54100 51.08900 22.96600
C  24.51600 53.83300 23.87600
N  27.16800 52.02300 27.90300
C  26.39500 52.54000 28.91100
C  27.13000 52.39600 30.25100
C  28.51100 51.82500 29.96600
C  28.36300 51.47900 28.43600
C  29.82300 52.63600 30.42800
C  26.28300 51.60500 31.31000
C  25.80800 52.43700 32.53600
H  26.64300 52.44200 33.81300
N  28.79500 51.10700 25.37400
C  29.61800 50.64000 26.33800
C  30.72600 49.90800 25.70300
C  30.52800 50.00800 24.32300
C  29.29000 50.74000 24.16700
C  31.85700 49.32800 26.56100
C  31.37700 49.44300 23.18300
O  31.16800 49.62600 21.99300
C  32.54100 48.59000 23.49100
N  26.70100 52.62700 23.79200
C  27.41300 51.91900 22.81000
C  26.99500 52.32800 21.39200
C  25.63300 52.99400 21.66600
C  25.61800 53.21900 23.19400
C  28.07400 53.28900 20.92900
C  24.51100 52.11100 21.10900
C  23.72600 51.12100 22.03900
N  25.22800 53.26800 26.10600
C  24.32000 53.88400 25.22800
C  23.15800 54.34800 25.86500
C  23.48300 54.14800 27.21800
C  24.74200 53.48000 27.33400
C  21.96500 55.03100 25.25800
C  23.01600 54.38500 28.53700
O  21.91800 54.81000 28.87900
C  24.10700 53.93700 29.48200
C  24.49700 54.99500 30.43000
O  25.33300 55.80900 30.21400
O  23.67200 54.99000 31.50300
C  23.90100 55.95500 32.57100
H  30.16200 50.47800 28.36000
H  28.92500 50.69300 22.02300
H  23.71200 54.26100 23.27300
H  27.30300 53.42600 30.56200
H  28.51800 50.83900 30.42900
H  29.57600 53.57200 30.93100
H  30.51700 52.74800 29.59500
H  30.32900 52.05200 31.19700
H  26.72400 50.67600 31.67100
H  25.29900 51.48100 30.85700
H  24.80100 52.11200 32.79800
H  25.69100 53.46200 32.18500
H  31.56900 48.35900 26.96700
H  31.99700 49.93800 27.45400
H  32.83000 49.27800 26.07300
H  33.23800 49.19800 24.06700
H  32.97900 48.19600 22.57400
H  32.20300 47.81900 24.18400
H  27.04600 51.50600 20.67800
H  25.54000 53.95300 21.15600
H  28.59100 53.74700 21.77300
H  27.67000 54.15300 20.40100
H  28.77700 52.73500 20.30800
H  24.89200 51.47500 20.31000
H  23.77000 52.76300 20.64700
H  24.21900 51.12700 23.01200
H  23.76900 50.15200 21.54300
H  22.71300 51.49900 22.17800
H  21.19600 54.33000 24.93300
H  22.32700 55.64600 24.43400
H  21.57300 55.71400 26.01100
H  23.78000 53.09500 30.09300
H  23.46800 56.93500 32.37400
H  24.96000 56.09700 32.78800
H  23.35100 55.47700 33.38200

