158

Mg 2.59600 -1.13700 43.52000
C  6.00800 -0.47700 42.89400
C  1.77800 1.88200 41.89000
C  -0.55000 -2.21900 43.13000
C  3.52100 -4.16800 44.96200
N  3.77200 0.41100 42.34000
C  5.15600 0.49400 42.29800
C  5.60500 1.75400 41.55800
C  4.24300 2.63000 41.47000
C  3.21300 1.60700 41.96200
C  4.27300 4.02400 42.21400
C  6.24500 1.35000 40.14900
C  7.33800 2.25000 39.59900
H  7.03300 2.77500 38.16200
N  0.83500 -0.34500 42.59400
C  0.72100 0.99700 42.08700
C  -0.63700 1.14700 41.69400
C  -1.33200 -0.14500 41.86100
C  -0.34300 -0.99200 42.56300
C  -1.06100 2.38800 41.07200
C  -2.69600 -0.53500 41.34100
O  -3.38100 0.31800 40.89800
C  -3.24600 -1.92100 41.34900
N  1.65200 -3.10200 43.82700
C  0.31700 -3.11500 43.87100
C  -0.20900 -4.22600 44.76300
C  1.16700 -4.74900 45.48100
C  2.17800 -4.00000 44.68000
C  -1.33100 -3.87400 45.72500
C  1.46300 -6.28300 45.46800
C  2.30200 -6.78400 46.69000
N  4.35200 -2.10400 44.07200
C  4.56200 -3.36200 44.56000
C  5.98400 -3.67100 44.66200
C  6.56100 -2.51200 44.07900
C  5.53000 -1.58900 43.68900
C  6.73700 -4.85500 45.25800
C  7.86100 -1.93600 43.66700
O  8.96800 -2.35000 43.71500
C  7.51300 -0.52200 42.97500
C  7.96600 0.63700 43.80600
O  7.31800 1.28800 44.64800
O  9.23500 0.96300 43.31200
C  9.84800 1.96100 44.21500
H  1.53500 2.89900 41.57400
H  -1.60200 -2.50500 43.19900
H  3.82800 -5.09400 45.45200
H  6.35800 2.31900 42.10800
H  3.98300 2.70000 40.41400
H  3.94600 4.70000 41.42400
H  5.26100 4.22700 42.62900
H  3.58200 3.93800 43.05200
H  5.44700 1.36700 39.40700
H  6.66900 0.34600 40.17600
H  8.23700 1.63800 39.52400
H  7.52000 3.08400 40.27700
H  -0.86400 2.39600 40.00000
H  -0.57600 3.27200 41.48700
H  -2.12800 2.52200 41.25000
H  -3.99000 -1.97900 40.55400
H  -3.58800 -2.20700 42.34400
H  -2.42600 -2.59400 41.09900
H  -0.65600 -4.92800 44.05900
H  1.22700 -4.38900 46.50800
H  -1.26400 -4.33500 46.71000
H  -2.27800 -4.14100 45.25600
H  -1.28900 -2.81600 45.98500
H  2.03800 -6.53100 44.57600
H  0.60900 -6.94300 45.31500
H  1.61200 -7.49200 47.14900
H  2.39900 -6.05200 47.49200
H  3.24500 -7.28500 46.47000
H  6.66400 -5.79300 44.70800
H  6.40200 -5.06800 46.27300
H  7.80300 -4.64900 45.35100
H  7.98600 -0.43300 41.99700
H  10.12300 1.59200 45.20400
H  9.12400 2.76100 44.36900
H  10.82300 2.23100 43.80900
Mg 25.92800 0.64200 29.00900
C  27.87700 0.14400 31.96400
C  23.16200 0.87700 30.94200
C  24.17900 0.59400 26.11800
C  28.86300 0.04700 27.19300
N  25.64300 0.51400 31.27400
C  26.55300 0.40900 32.21900
C  25.75200 0.69300 33.52900
C  24.28200 0.89800 33.11500
C  24.35900 0.79000 31.66600
C  23.33800 -0.31600 33.60900
C  26.35800 1.95400 34.29300
C  26.96200 1.75400 35.63900
H  26.34400 2.54600 36.88200
N  23.93600 0.67400 28.58800
C  22.94200 0.87800 29.53900
C  21.62500 0.88800 28.86000
C  21.88400 0.68700 27.42400
C  23.37000 0.57300 27.34600
C  20.35000 1.18300 29.62700
C  20.90900 0.65700 26.27000
O  21.34800 0.66200 25.10500
C  19.43400 0.74700 26.52400
N  26.46900 0.39100 26.87200
C  25.55800 0.56600 25.84800
C  26.18100 0.35800 24.49000
C  27.77800 0.39700 24.86700
C  27.72400 0.21000 26.41800
C  25.76100 -0.91000 23.68500
C  28.47300 1.80000 24.65800
C  28.31400 2.32300 23.21700
N  27.96200 0.27900 29.40800
C  28.98100 0.05100 28.56100
C  30.15000 -0.20600 29.32500
C  29.78000 -0.12600 30.68900
C  28.41300 0.08900 30.64800
C  31.49500 -0.53300 28.77700
C  30.29400 -0.12400 32.06800
O  31.42300 -0.22300 32.45000
C  28.98100 0.02000 33.02800
C  28.80900 -1.16000 33.95300
O  28.25300 -2.20300 33.67900
O  29.33800 -0.92100 35.19600
C  29.38500 -2.06400 36.16600
H  22.20700 0.88000 31.47200
H  23.65000 0.72000 25.17100
H  29.81000 -0.17100 26.69400
H  25.80900 -0.26900 34.03800
H  23.81500 1.80000 33.51000
H  23.65500 -0.80500 34.53000
H  23.30000 -1.11800 32.87300
H  22.36500 0.12700 33.82200
H  25.59300 2.73100 34.31400
H  27.06800 2.46200 33.64100
H  27.91800 2.24900 35.47300
H  27.04800 0.69500 35.88200
H  20.67700 1.78000 30.47800
H  19.92500 0.22900 29.93900
H  19.58200 1.70500 29.05600
H  18.98900 0.63300 25.53500
H  19.25500 1.77100 26.85200
H  18.99000 0.04800 27.23200
H  25.99600 1.17700 23.79500
H  28.30500 -0.50300 24.54900
H  24.97100 -0.63200 22.98700
H  25.26300 -1.65800 24.30100
H  26.52300 -1.36700 23.05400
H  29.51900 1.87300 24.95700
H  28.01200 2.46500 25.38700
H  29.34700 2.40500 22.87700
H  27.87200 3.31800 23.27200
H  27.75900 1.58800 22.63400
H  31.27200 -0.98900 27.81300
H  32.09100 -1.13400 29.46400
H  32.07000 0.37300 28.58300
H  28.95500 0.86000 33.72200
H  30.39100 -2.01500 36.58300
H  29.32000 -3.07000 35.75100
H  28.59700 -1.98600 36.91500

