158

Mg 25.59900 1.64200 29.02200
C  27.74100 1.24000 31.89200
C  22.98500 2.08200 31.10300
C  23.64400 1.69000 26.31700
C  28.33100 0.65400 27.05500
N  25.39900 1.39900 31.22800
C  26.37700 1.54700 32.25300
C  25.78700 1.74200 33.61700
C  24.21100 1.80000 33.35000
C  24.15400 1.81100 31.82300
C  23.32900 0.60300 33.91100
C  26.28200 3.03900 34.25200
C  26.79100 2.87700 35.67100
H  26.31800 3.83500 36.75900
N  23.54200 1.78900 28.76700
C  22.64400 1.99800 29.76500
C  21.34900 2.26200 29.19000
C  21.49900 2.15500 27.70600
C  22.92500 1.84200 27.58100
C  20.18400 2.70700 30.13900
C  20.42200 2.27300 26.62100
O  20.66300 2.15200 25.43800
C  19.03600 2.60000 27.06700
N  25.88400 1.11800 27.02100
C  24.99900 1.34400 26.06100
C  25.64900 1.37300 24.64300
C  27.04400 0.84900 24.99400
C  27.12000 0.84800 26.44100
C  24.66800 0.72400 23.58900
C  28.11000 1.79400 24.30000
C  28.63100 3.05200 25.01400
N  27.68900 1.20100 29.33800
C  28.61300 0.77100 28.40600
C  29.89500 0.60800 29.06200
C  29.61100 0.75900 30.45200
C  28.26800 1.06800 30.56800
C  31.21700 0.43400 28.53900
C  30.09800 0.65300 31.80000
O  31.12800 0.32000 32.30300
C  28.91800 1.03200 32.79400
C  28.77200 -0.10300 33.82400
O  28.13500 -1.12100 33.72300
O  29.47700 0.27500 34.95900
C  29.42400 -0.77700 36.03100
H  22.16700 2.36300 31.76900
H  23.02200 1.95600 25.45900
H  29.16300 0.22900 26.48900
H  25.92100 0.86700 34.25400
H  23.75500 2.65600 33.84800
H  23.89100 -0.11400 34.51000
H  22.85200 0.01900 33.12400
H  22.66800 0.99400 34.68600
H  25.51500 3.81100 34.19600
H  27.18200 3.36300 33.72900
H  27.86900 3.04000 35.69500
H  26.62900 1.84500 35.98000
H  19.37700 3.28300 29.68700
H  20.42800 3.40500 30.94000
H  19.77300 1.89400 30.73700
H  18.84500 1.89400 27.87500
H  18.31300 2.60800 26.25100
H  19.13200 3.65500 27.32200
H  25.59100 2.44200 24.43700
H  27.16600 -0.17100 24.63000
H  24.26300 1.44200 22.87600
H  23.87700 0.24200 24.16300
H  25.21200 -0.03000 23.02000
H  27.61300 2.23700 23.43700
H  28.89700 1.08500 24.04100
H  29.67700 2.96800 25.31100
H  28.03400 3.24800 25.90400
H  28.44300 3.92000 24.38200
H  31.31700 0.55100 27.45900
H  31.61500 -0.50800 28.91600
H  31.82600 1.23300 28.96100
H  29.26900 1.94600 33.27200
H  30.44300 -0.85300 36.41200
H  28.95700 -1.73700 35.80800
H  28.96800 -0.31600 36.90600
Mg 17.11200 51.96700 25.81300
C  18.82000 50.45000 28.48400
C  14.82000 53.20600 28.14400
C  15.30400 53.05000 23.28900
C  19.33600 50.39400 23.62200
N  16.89600 51.87800 28.00600
C  17.69600 51.14700 28.87800
C  17.22200 51.36400 30.35100
C  15.80500 51.93500 30.14800
C  15.79600 52.32400 28.65500
C  14.73800 50.93200 30.40200
C  18.23500 52.33200 31.11100
C  18.39600 52.24000 32.63300
H  17.22400 51.68100 33.48800
N  15.35300 53.10300 25.72500
C  14.60100 53.53700 26.79900
C  13.57200 54.43900 26.27200
C  13.66800 54.40900 24.82800
C  14.77700 53.45100 24.53100
C  12.60000 55.15000 27.11700
C  12.82500 55.14800 23.77600
O  13.00100 55.14800 22.55800
C  11.78500 56.07000 24.34700
N  17.26400 51.61600 23.72400
C  16.34400 52.17900 22.87300
C  16.67400 51.90300 21.41000
C  18.14500 51.28300 21.49200
C  18.32500 51.15000 23.05700
C  15.64300 51.17900 20.53600
C  19.21000 52.23700 20.82500
C  20.68600 51.82200 20.69000
N  18.74600 50.69700 25.96700
C  19.50500 50.11100 24.98900
C  20.55100 49.34000 25.61600
C  20.39700 49.47200 27.00300
C  19.24400 50.32300 27.18800
C  21.68600 48.72700 24.91800
C  20.89800 49.13400 28.29400
O  21.87200 48.51600 28.64100
C  19.95500 49.82700 29.29400
C  19.56000 48.76900 30.27500
O  18.89800 47.77300 29.99700
O  19.93000 49.01000 31.55700
C  19.16800 48.16100 32.57100
H  14.07100 53.44400 28.90200
H  14.65600 53.50200 22.53600
H  20.07700 50.00000 22.92400
H  17.18200 50.40200 30.86300
H  15.61900 52.77100 30.82200
H  13.81500 51.50900 30.46400
H  14.79300 50.45400 31.38100
H  14.63400 50.31400 29.51000
H  18.01400 53.37000 30.86300
H  19.18000 52.08500 30.62700
H  18.54100 53.25100 33.01400
H  19.31000 51.67700 32.82400
H  12.49300 56.20700 26.87200
H  12.90400 55.27000 28.15700
H  11.68400 54.56400 27.18800
H  11.11400 55.70600 25.12600
H  11.14700 56.19200 23.47200
H  12.31000 56.99600 24.58100
H  16.80600 52.93500 21.08500
H  18.25100 50.33800 20.95800
H  16.08900 50.65600 19.68900
H  14.95600 51.88700 20.07400
H  15.10200 50.40600 21.08200
H  19.20100 53.10500 21.48400
H  18.81700 52.53100 19.85200
H  21.01100 52.17100 19.71000
H  20.93200 50.78400 20.91600
H  21.23100 52.34700 21.47500
H  22.15500 49.28000 24.10400
H  21.32900 47.71200 24.74400
H  22.42100 48.69200 25.72300
H  20.53500 50.60600 29.78900
H  19.15800 47.07200 32.52400
H  18.14000 48.52300 32.58800
H  19.66500 48.37300 33.51800

