158

Mg 8.24300 3.99400 27.39300
C  9.55900 2.25000 30.29500
C  6.15900 5.68200 29.36400
C  6.79100 5.10500 24.65700
C  10.06000 1.66000 25.43500
N  7.86000 3.90100 29.63900
C  8.61600 3.30800 30.59600
C  8.30700 3.91900 31.95400
C  7.12300 4.87500 31.75100
C  7.07000 4.87300 30.12400
C  5.77400 4.53600 32.46200
C  9.68800 4.44700 32.69000
C  9.56200 5.41100 33.93700
H  10.23100 5.00400 35.26200
N  6.80600 5.36200 27.03200
C  6.03200 5.94400 27.98900
C  5.17800 6.99300 27.33300
C  5.42300 6.93800 25.97100
C  6.38800 5.73000 25.81600
C  4.24600 7.90400 28.10800
C  4.86900 7.71400 24.75000
O  5.26100 7.54300 23.55600
C  3.72400 8.53700 25.00300
N  8.30100 3.31500 25.39300
C  7.65100 4.03200 24.44400
C  7.83700 3.45300 23.09000
C  9.09400 2.53400 23.29900
C  9.13000 2.49100 24.81200
C  6.59000 2.66200 22.52900
C  10.39100 3.08800 22.68300
C  11.36400 3.91100 23.47900
N  9.44100 2.23000 27.72300
C  10.12400 1.40500 26.85100
C  10.76700 0.30400 27.65400
C  10.60500 0.65700 28.98100
C  9.75000 1.77400 28.97600
C  11.64900 -0.77400 27.00800
C  11.05200 0.24200 30.29000
O  11.89000 -0.57100 30.56200
C  10.35200 1.27100 31.24400
C  9.63100 0.55900 32.35500
O  8.59900 0.02200 32.16300
O  10.28100 0.58500 33.54700
C  9.68700 -0.03600 34.71900
H  5.58800 6.30400 30.05700
H  6.28500 5.45400 23.75500
H  10.47200 0.97800 24.68900
H  7.84800 3.13300 32.55300
H  7.42600 5.90000 31.96600
H  5.04200 4.08500 31.79200
H  5.28700 5.43400 32.84400
H  5.83400 3.79400 33.25800
H  10.34800 4.79400 31.89600
H  10.14200 3.51600 33.03200
H  8.50100 5.43200 34.18800
H  9.81200 6.45900 33.77400
H  4.19400 8.96000 27.84400
H  4.47300 7.92000 29.17400
H  3.26300 7.43700 28.05200
H  3.39000 8.96500 24.05700
H  4.06700 9.40400 25.56800
H  2.82400 8.01100 25.32000
H  8.11400 4.29300 22.45300
H  8.88000 1.51600 22.97400
H  5.67800 2.85000 23.09600
H  6.82600 1.60300 22.42100
H  6.33400 3.26600 21.65800
H  10.05900 3.66600 21.82100
H  10.96300 2.21200 22.37600
H  12.21800 3.24300 23.58500
H  10.82500 4.35500 24.31700
H  11.73600 4.69500 22.82000
H  11.59400 -0.82600 25.92100
H  11.35600 -1.70400 27.49600
H  12.71700 -0.62700 27.17200
H  11.07200 1.90600 31.76100
H  8.92000 -0.77300 34.48000
H  9.13700 0.73000 35.26600
H  10.49300 -0.44000 35.33200
Mg 48.16200 25.08400 28.27800
C  49.33100 27.51100 30.69400
C  47.46200 23.14900 30.96900
C  47.71300 22.72900 26.04300
C  49.95200 27.02100 25.79300
N  48.33700 25.36200 30.62300
C  48.72000 26.49000 31.32700
C  48.55400 26.23500 32.79100
C  48.13500 24.72200 32.87200
C  48.01000 24.37100 31.38900
C  49.11300 23.81500 33.66000
C  47.55800 27.19700 33.42700
C  47.67100 27.36000 34.95000
H  46.40900 27.64500 35.74600
N  47.39800 23.26300 28.42200
C  47.16900 22.54900 29.64500
C  46.59800 21.23500 29.35200
C  46.62600 21.20200 27.91000
C  47.27600 22.41200 27.37800
C  46.16100 20.23900 30.45200
C  46.13700 20.12100 26.98400
O  46.37200 20.12300 25.77500
C  45.54200 18.97500 27.65500
N  48.83000 24.90300 26.28200
C  48.31400 23.86900 25.52700
C  48.78000 23.95800 24.05200
C  49.20700 25.47900 23.96500
C  49.38200 25.80300 25.42100
C  49.93700 22.98700 23.70100
C  48.20400 26.52200 23.31500
C  48.75200 27.90600 22.91100
N  49.35600 26.89000 28.14400
C  49.92100 27.53700 27.06600
C  50.55000 28.74700 27.49900
C  50.22300 28.86000 28.87600
C  49.55900 27.65200 29.24100
C  51.45400 29.61100 26.63100
C  50.38800 29.66000 30.04900
O  50.88100 30.78100 30.07800
C  49.77200 28.88100 31.30400
C  50.89300 28.76400 32.28000
O  51.83600 27.96300 32.20000
O  50.61800 29.45200 33.48700
C  51.37200 29.07000 34.71100
H  47.09900 22.49100 31.76200
H  47.38800 21.97300 25.32500
H  50.40900 27.63900 25.01800
H  49.51700 26.40400 33.27200
H  47.14100 24.58100 33.29700
H  49.77600 24.34900 34.34000
H  49.73800 23.26100 32.96000
H  48.44400 23.17000 34.23000
H  46.56700 26.76300 33.29200
H  47.62900 28.15400 32.90800
H  48.42600 28.13100 35.10500
H  48.21600 26.44900 35.19600
H  46.17600 20.65000 31.46200
H  46.69000 19.28600 30.45400
H  45.11800 19.95300 30.31900
H  44.63700 19.15100 28.23600
H  46.23100 18.28700 28.14200
H  45.02000 18.46200 26.84700
H  47.95500 23.68500 23.39500
H  50.17000 25.50600 23.45500
H  50.13500 22.32700 24.54500
H  50.79600 23.61600 23.46500
H  49.60500 22.30300 22.92000
H  47.39800 26.65900 24.03600
H  47.69600 26.02200 22.49000
H  48.37100 28.67000 23.58800
H  48.46700 28.24500 21.91500
H  49.83500 27.84800 22.80200
H  51.97700 28.97900 25.91300
H  52.07900 30.15000 27.34300
H  50.80700 30.30200 26.09000
H  49.02500 29.58700 31.66800
H  51.25200 27.98900 34.78300
H  50.97700 29.46900 35.64500
H  52.36900 29.50300 34.62600

