158

Mg 29.42100 57.92800 40.43100
C  26.48800 56.05400 39.41700
C  31.34900 55.42700 39.09300
C  31.94800 59.89500 41.00200
C  27.15400 60.59300 41.07000
N  28.87500 56.02700 39.22800
C  27.70500 55.39000 39.02800
C  27.88100 53.96300 38.62700
C  29.38900 53.81200 38.52500
C  29.95100 55.21900 39.02000
C  30.02200 52.57600 39.22500
C  27.15900 53.40700 37.21300
C  26.88400 54.41400 36.11600
H  27.77900 54.34900 34.83900
N  31.41700 57.71800 40.19500
C  32.03800 56.63700 39.51100
C  33.40500 56.88800 39.37200
C  33.64000 58.14000 39.89300
C  32.36700 58.67600 40.44800
C  34.43200 55.90700 38.73200
C  35.04100 58.80500 40.11300
O  36.03900 58.25500 39.63500
C  35.19900 60.12700 40.83400
N  29.51800 60.01600 41.03700
C  30.73900 60.59100 41.25700
C  30.62200 62.10300 41.64200
C  29.11400 62.18000 41.80000
C  28.55000 60.85600 41.22600
C  31.36200 62.59300 42.97600
C  28.48100 63.45300 41.22400
C  27.45600 64.19000 42.14400
N  27.28000 58.32700 40.27000
C  26.57400 59.40100 40.68200
C  25.14200 59.11600 40.76500
C  25.10100 57.73000 40.36500
C  26.41400 57.35700 39.98600
C  24.15300 60.03800 41.39700
C  24.21800 56.57700 40.17500
O  23.04800 56.45700 40.40300
C  25.10600 55.43300 39.54100
C  25.00300 54.29800 40.49200
O  25.45800 54.39800 41.66200
O  24.49000 53.16400 39.88500
C  24.70900 51.91700 40.66000
H  31.95600 54.57900 38.76800
H  32.72400 60.62600 41.24200
H  26.45300 61.39800 41.30000
H  27.48300 53.36200 39.44500
H  29.65800 53.66700 37.47800
H  30.71800 53.00100 39.94900
H  30.55900 51.89400 38.56600
H  29.21200 52.08200 39.76200
H  26.19400 52.93700 37.40300
H  27.89200 52.70700 36.81000
H  26.84800 55.45600 36.43400
H  25.92800 54.15000 35.66300
H  34.96400 56.37000 37.90100
H  33.85600 55.10600 38.26700
H  35.12000 55.48900 39.46700
H  34.80800 61.01900 40.34500
H  36.27500 60.28500 40.89300
H  34.94100 60.18100 41.89200
H  31.02600 62.59500 40.75700
H  28.88900 62.06600 42.86000
H  31.91500 61.77900 43.44300
H  30.67400 63.08300 43.66500
H  32.13100 63.26300 42.59100
H  27.88000 63.30800 40.32700
H  29.27200 64.15300 40.95300
H  26.48900 64.40800 41.69300
H  27.86200 65.13900 42.49500
H  27.23800 63.61800 43.04600
H  24.60100 60.74000 42.10000
H  23.44300 59.50900 42.03100
H  23.48700 60.56300 40.71200
H  24.78200 55.15200 38.53900
H  24.35100 52.02500 41.68300
H  25.78400 51.78400 40.78800
H  24.20400 51.15000 40.07300
Mg 17.12100 50.91700 26.12300
C  18.79100 49.91900 29.02900
C  14.64100 52.09100 28.00200
C  15.70800 51.81700 23.23000
C  19.81900 49.57100 24.32500
N  16.73000 50.73700 28.32000
C  17.54600 50.38700 29.32000
C  16.95400 50.69700 30.72700
C  15.48700 51.14700 30.38500
C  15.53600 51.26700 28.80600
C  14.37000 50.18500 30.84400
C  17.87800 51.81200 31.46100
C  18.18500 51.50900 32.99500
H  17.29600 50.55100 33.77800
N  15.45700 51.84900 25.72300
C  14.57900 52.32700 26.64000
C  13.59800 53.20200 25.99100
C  13.88000 53.12000 24.58200
C  15.01300 52.19200 24.46100
C  12.45800 53.90000 26.75900
C  13.27600 53.87800 23.36600
O  13.65800 53.71000 22.21900
C  12.12800 54.84100 23.68000
N  17.65700 50.59700 24.03200
C  16.88800 51.09200 23.01600
C  17.51000 50.78400 21.62100
C  18.82700 50.13500 22.06400
C  18.75800 50.08400 23.55800
C  16.54800 50.03300 20.71100
C  20.07000 50.92400 21.54900
C  20.28800 52.36500 22.11000
N  18.90500 50.02200 26.49000
C  19.91800 49.48600 25.68900
C  20.98600 48.82600 26.47000
C  20.54300 49.02500 27.77700
C  19.29600 49.73900 27.74900
C  22.25400 48.17600 25.94600
C  20.96600 48.75800 29.11600
O  21.97900 48.19500 29.46400
C  19.86400 49.38300 30.05400
C  19.31500 48.21800 30.97200
O  18.55100 47.38500 30.50700
O  19.75000 48.24900 32.28900
C  19.48900 46.95800 32.95200
H  13.79400 52.53100 28.53100
H  15.26600 52.21800 22.31500
H  20.70700 49.29900 23.75100
H  16.88000 49.78000 31.31100
H  15.25500 52.18100 30.63900
H  14.37900 49.90200 31.89700
H  14.40500 49.34900 30.14500
H  13.48900 50.81300 30.71200
H  17.37400 52.77200 31.35000
H  18.75200 51.88500 30.81400
H  18.11000 52.48200 33.47900
H  19.21800 51.18000 33.11200
H  11.54000 54.02900 26.18600
H  12.73200 54.90500 27.08100
H  12.07700 53.24300 27.54100
H  12.34300 55.60600 24.42700
H  11.18700 54.38100 23.98200
H  11.95000 55.41300 22.76900
H  17.56500 51.72300 21.07000
H  18.94100 49.16500 21.57900
H  16.78300 49.18400 20.06900
H  15.94900 50.59900 19.99800
H  15.72200 49.66200 21.31800
H  19.83600 51.01900 20.48900
H  21.02000 50.40800 21.69000
H  21.33200 52.50400 22.38900
H  19.70200 52.50500 23.01800
H  19.88300 53.07400 21.38800
H  22.71700 48.74700 25.14100
H  21.83700 47.22400 25.61800
H  23.04700 48.04300 26.68200
H  20.33000 50.14800 30.67500
H  19.83200 46.11400 32.35300
H  18.47600 46.77900 33.31300
H  20.04000 46.85100 33.88700

