158

Mg -0.26300 7.68300 26.00700
C  0.64100 9.43800 28.92800
C  -0.56500 4.72400 27.70900
C  -0.48200 6.07900 23.06600
C  0.47100 10.73500 24.14000
N  0.11700 7.15900 28.00400
C  0.30300 8.07300 29.03700
C  0.05800 7.40800 30.42600
C  -0.16500 5.87500 30.06400
C  -0.29500 5.89400 28.49200
C  0.85600 4.83100 30.65700
C  -1.07300 8.16400 31.29300
C  -0.74600 8.42300 32.76000
H  0.40700 7.69800 33.53400
N  -0.56500 5.69500 25.47200
C  -0.65400 4.61700 26.30500
C  -0.97000 3.42800 25.59700
C  -0.96100 3.81500 24.23900
C  -0.62800 5.25700 24.19300
C  -1.20900 2.07200 26.28200
C  -1.24900 2.93200 23.01500
O  -1.29800 3.33800 21.82600
C  -1.61100 1.43600 23.10100
N  0.01000 8.33400 23.91100
C  -0.25000 7.45400 22.90900
C  -0.12400 8.14900 21.53300
C  0.10600 9.63800 21.93000
C  0.17400 9.58500 23.46300
C  0.97000 7.48700 20.64500
C  -1.00600 10.62600 21.33900
C  -2.17500 10.98900 22.24000
N  0.24200 9.68500 26.41800
C  0.56000 10.79300 25.54200
C  0.77800 11.93500 26.36500
C  0.78200 11.52400 27.78500
C  0.56700 10.09000 27.73400
C  1.00200 13.35300 25.89800
C  1.04500 11.92200 29.12300
O  1.25700 13.02300 29.59200
C  0.95000 10.58600 29.93800
C  2.22500 10.36000 30.52400
O  3.16000 9.84100 29.93900
O  2.23200 10.87600 31.80700
C  3.52500 10.84300 32.51300
H  -0.87000 3.86600 28.31100
H  -0.63100 5.52000 22.14000
H  0.70200 11.62300 23.54900
H  1.00500 7.54200 30.95000
H  -1.16300 5.66000 30.44500
H  1.28400 4.21500 29.86500
H  0.38600 4.14300 31.36000
H  1.60000 5.28400 31.31200
H  -1.93500 7.49900 31.23000
H  -1.52300 9.04500 30.83500
H  -1.62400 8.15700 33.35000
H  -0.49100 9.47500 32.89000
H  -1.86500 2.07300 27.15200
H  -0.28700 1.58100 26.59500
H  -1.70200 1.35900 25.62200
H  -2.47100 1.22600 23.73800
H  -0.69000 0.98400 23.46900
H  -1.72200 0.99900 22.10900
H  -1.03600 8.04300 20.94500
H  1.08100 10.03200 21.64400
H  1.80400 8.18300 20.55500
H  0.55600 7.58500 19.64100
H  1.24300 6.47200 20.93500
H  -1.24900 10.21300 20.36000
H  -0.45600 11.52700 21.06400
H  -3.10500 10.93200 21.67400
H  -2.13400 12.03700 22.53700
H  -2.31400 10.36100 23.11900
H  0.08100 13.93300 25.83200
H  1.29400 13.43800 24.85100
H  1.65200 13.81100 26.64300
H  0.16200 10.72800 30.67800
H  3.70400 11.82700 32.94700
H  4.32800 10.51800 31.85200
H  3.39900 10.08900 33.29000
Mg 49.70200 45.44500 42.57600
C  46.21900 45.30700 41.37000
C  49.55300 42.06400 42.33500
C  52.83800 45.67700 42.83900
C  49.19600 48.82300 42.46700
N  48.01700 43.91000 41.89800
C  46.79100 44.05200 41.41600
C  46.06400 42.75400 41.15400
C  47.10400 41.71400 41.70500
C  48.26900 42.58900 42.00200
C  46.56000 40.98900 43.06300
C  45.59300 42.53100 39.70600
C  46.67300 42.78000 38.66600
H  46.12700 43.43400 37.35100
N  51.09100 43.98000 42.71300
C  50.83800 42.64600 42.50800
C  52.08600 41.99100 42.58300
C  53.16400 43.00200 42.74600
C  52.41400 44.29300 42.78800
C  52.13300 40.41100 42.67500
C  54.59300 42.80000 42.86200
O  55.03900 41.62000 42.97500
C  55.69300 43.95900 42.89300
N  50.92200 47.05400 42.48800
C  52.21200 46.93000 42.84400
C  52.84200 48.30300 42.92500
C  51.56800 49.25200 43.17000
C  50.48500 48.32600 42.63800
C  53.77600 48.44400 44.17700
C  51.66500 50.63500 42.38700
C  51.14100 51.78800 43.30100
N  48.07400 46.87800 42.07000
C  48.04300 48.19600 42.05800
C  46.75500 48.76000 41.61300
C  46.05900 47.56500 41.33900
C  46.85400 46.47500 41.74400
C  46.48600 50.17500 41.49300
C  44.71100 47.18800 40.96100
O  43.72700 47.84200 40.62100
C  44.71800 45.68600 41.02300
C  43.65300 45.11700 41.95200
O  42.49600 44.92300 41.68200
O  44.25500 44.96600 43.15100
C  43.42200 44.47600 44.27500
H  49.60200 41.00000 42.09500
H  53.88000 45.68500 43.16300
H  49.04300 49.90000 42.55600
H  45.17000 42.74000 41.77800
H  47.35100 40.90600 41.01600
H  45.48200 40.83500 43.09700
H  46.88700 41.58200 43.91700
H  46.97500 39.98100 43.06300
H  44.72700 43.17800 39.56900
H  45.26100 41.51100 39.51200
H  47.06800 41.81000 38.36600
H  47.54600 43.34100 39.00000
H  52.83900 40.20500 41.87000
H  51.18400 39.90500 42.49700
H  52.48700 40.22400 43.68900
H  55.59200 44.53900 41.97600
H  56.63200 43.41500 42.79100
H  55.69100 44.44400 43.86900
H  53.32500 48.51200 41.97000
H  51.33500 49.27600 44.23400
H  54.48000 47.62100 44.29700
H  53.27600 48.53000 45.14200
H  54.44700 49.26600 43.93000
H  51.00100 50.50300 41.53300
H  52.67500 50.82000 42.02200
H  50.13000 51.97400 42.94100
H  51.74100 52.68600 43.15600
H  51.09300 51.59400 44.37200
H  45.65600 50.20300 40.78700
H  47.32800 50.65300 40.99400
H  46.24900 50.64300 42.44900
H  44.44600 45.32600 40.03000
H  43.90400 43.54700 44.57900
H  42.38800 44.20900 44.05600
H  43.41900 45.02000 45.21900

