158

Mg 44.04400 42.32700 26.09300
C  43.07900 44.62800 28.64000
C  45.29300 40.36900 28.48300
C  45.09900 40.45100 23.75500
C  43.38400 44.98000 23.77500
N  44.02400 42.56900 28.34800
C  43.65100 43.49600 29.22700
C  43.87900 43.09200 30.71100
C  44.85300 41.88200 30.49300
C  44.74400 41.55200 28.98700
C  46.31100 42.07300 31.02000
C  42.46200 42.80000 31.34500
C  42.11200 43.28200 32.73500
H  43.28700 43.47900 33.79900
N  44.99100 40.52800 26.11500
C  45.37900 39.84000 27.20700
C  45.81800 38.56000 26.80400
C  45.76100 38.53100 25.38100
C  45.22500 39.84200 25.01800
C  46.20500 37.45900 27.69600
C  46.27500 37.53600 24.42300
O  46.08800 37.63100 23.17800
C  46.97700 36.33600 24.89900
N  44.40600 42.78000 24.08000
C  44.80500 41.77200 23.35400
C  44.79400 42.13900 21.82800
C  44.13100 43.55400 21.83500
C  44.01500 43.79900 23.34000
C  46.11200 42.04800 21.11200
C  42.76300 43.57400 21.07100
C  41.72600 42.64600 21.63400
N  43.31500 44.37800 26.17800
C  43.11000 45.27100 25.15100
C  42.54900 46.53700 25.64800
C  42.53100 46.28800 27.00800
C  43.02200 44.97600 27.28400
C  42.05700 47.74300 24.88600
C  42.18700 46.87000 28.28800
O  41.63000 47.92600 28.52000
C  42.49400 45.82000 29.38900
C  43.38300 46.41500 30.49700
O  44.60300 46.66400 30.46500
O  42.59700 46.71400 31.54900
C  43.23800 47.15600 32.77400
H  45.74300 39.76300 29.27200
H  45.13800 39.73900 22.92800
H  43.12200 45.73200 23.02800
H  44.34500 43.95900 31.18000
H  44.47800 40.97600 30.96900
H  46.42000 43.10200 31.36400
H  47.02500 42.00600 30.20000
H  46.55000 41.39500 31.83900
H  42.24500 41.74100 31.20100
H  41.77600 43.32900 30.68500
H  41.39200 42.63400 33.23600
H  41.64900 44.26800 32.72600
H  47.25500 37.22700 27.51500
H  45.51300 36.62500 27.57900
H  46.21400 37.81300 28.72700
H  47.85400 36.56000 25.50700
H  47.10600 35.60500 24.10100
H  46.22500 35.77600 25.45500
H  44.08400 41.51200 21.28900
H  44.86800 44.19700 21.35400
H  46.10000 41.24200 20.37800
H  46.93800 41.97200 21.82000
H  46.25200 42.95100 20.51900
H  42.87100 43.41200 19.99800
H  42.40800 44.59900 21.17300
H  42.17600 41.91700 22.30800
H  41.28400 42.02400 20.85500
H  40.93600 43.22500 22.11300
H  42.02700 47.40400 23.85000
H  42.86200 48.45500 25.06600
H  41.07300 48.14900 25.12200
H  41.54700 45.45900 29.79100
H  44.01400 47.86200 32.47600
H  43.67200 46.39200 33.42000
H  42.45600 47.59800 33.39100
Mg 37.52300 50.22400 25.24700
C  38.03500 48.22400 28.18400
C  35.94400 52.52700 27.32200
C  37.08500 51.97100 22.62300
C  38.65100 47.43700 23.33000
N  37.05900 50.33400 27.51500
C  37.58700 49.51400 28.48400
C  37.29000 49.99500 29.88200
C  36.57400 51.35700 29.57600
C  36.51300 51.39400 28.05800
C  35.26000 51.56700 30.37300
C  38.53300 50.19700 30.77900
C  38.43700 49.54500 32.21500
H  37.15700 50.00000 33.02000
N  36.60700 51.97100 24.89700
C  36.01400 52.78800 25.87100
C  35.46800 53.94000 25.22500
C  35.68500 53.74900 23.82800
C  36.43500 52.49700 23.71600
C  34.78000 55.02900 26.03000
C  35.10100 54.61200 22.73600
O  35.32100 54.36900 21.56000
C  34.11000 55.76400 22.96600
N  37.77000 49.71300 23.32500
C  37.63500 50.69700 22.35700
C  38.16400 50.25700 20.93600
C  38.98400 48.99800 21.30000
C  38.35300 48.68300 22.73800
C  36.92500 50.04000 19.92700
C  40.55700 49.19500 21.32300
C  41.25900 48.30300 20.25400
N  38.17400 48.26200 25.62800
C  38.55200 47.24700 24.73800
C  38.83500 46.02500 25.49500
C  38.70500 46.39800 26.85600
C  38.29900 47.77500 26.84800
C  39.27500 44.76400 24.90800
C  38.80700 45.95700 28.22400
O  39.17300 44.87700 28.60300
C  38.40300 47.15100 29.08400
C  37.22600 46.54500 29.62300
O  36.19800 46.29200 28.99100
O  37.43300 46.32700 30.93800
C  36.38300 45.74800 31.65000
H  35.58800 53.27300 28.03500
H  36.98400 52.63100 21.75900
H  39.13600 46.70400 22.68300
H  36.71400 49.29200 30.48400
H  37.17900 52.21600 29.86700
H  34.80800 50.66500 30.78700
H  34.53900 52.14600 29.79600
H  35.64000 52.11700 31.23300
H  38.89800 51.21700 30.89600
H  39.39900 49.77700 30.26700
H  39.31900 49.85600 32.77400
H  38.57300 48.46600 32.14300
H  34.64900 54.85100 27.09800
H  33.76200 55.03000 25.64100
H  35.31300 55.97700 25.95000
H  33.16700 55.38000 23.35600
H  33.80800 56.26500 22.04600
H  34.48600 56.48000 23.69600
H  38.74900 51.07200 20.51100
H  38.75000 48.11700 20.70300
H  36.03200 50.41000 20.43200
H  36.82500 48.97400 19.71800
H  36.98600 50.50200 18.94200
H  40.94500 49.05400 22.33200
H  40.80200 50.23100 21.08900
H  41.95700 49.00400 19.79900
H  40.68500 47.78700 19.48400
H  41.85900 47.53300 20.74000
H  40.04100 44.19200 25.43100
H  39.48300 44.85000 23.84100
H  38.46400 44.06800 25.12200
H  39.09700 47.45700 29.86700
H  35.69900 45.20600 30.99700
H  35.74900 46.50800 32.10800
H  36.78100 44.97900 32.31200

