158

Mg 41.07200 42.13000 27.64700
C  39.97500 44.55000 30.12000
C  41.61500 39.97300 30.11300
C  42.39700 40.16900 25.26500
C  40.51700 44.64200 25.26200
N  41.01500 42.41000 29.89600
C  40.37500 43.36400 30.63600
C  40.42100 42.97900 32.14100
C  41.00300 41.44000 32.02700
C  41.22200 41.25700 30.56900
C  42.30700 41.25400 32.86900
C  39.10100 43.17400 32.95200
C  38.90600 42.13100 34.17500
H  38.24800 42.57300 35.41700
N  41.93800 40.31100 27.69800
C  42.07100 39.54600 28.81400
C  42.57700 38.23000 28.43900
C  42.89300 38.31000 27.04500
C  42.37400 39.64100 26.56400
C  42.99100 37.19800 29.44400
C  43.54200 37.30400 26.11400
O  43.73000 37.50500 24.91500
C  44.07400 36.02400 26.66500
N  41.40800 42.41000 25.50500
C  41.84700 41.38500 24.77600
C  41.96800 41.85200 23.32300
C  41.10000 43.18800 23.30900
C  40.95600 43.48500 24.75300
C  43.43400 41.96900 22.83900
C  39.76900 43.05900 22.49400
C  38.87200 41.92700 23.03200
N  40.50900 44.11400 27.61400
C  40.26400 44.97800 26.60100
C  39.85700 46.26400 27.14100
C  39.56200 46.04300 28.46800
C  40.07600 44.82300 28.73900
C  39.57200 47.63500 26.43200
C  39.03600 46.68600 29.60500
O  38.57200 47.79200 29.75300
C  39.30800 45.74400 30.75600
C  40.23300 46.46000 31.69800
O  41.38800 46.75200 31.38700
O  39.69600 46.61500 32.93700
C  40.64200 47.11100 33.90200
H  41.71800 39.24800 30.92300
H  42.96400 39.51900 24.59600
H  40.35200 45.35000 24.44700
H  41.08900 43.65600 32.67200
H  40.17500 40.82800 32.38300
H  43.18700 41.37000 32.23700
H  42.41200 40.26100 33.30700
H  42.35900 41.92300 33.72700
H  38.25400 43.21600 32.26800
H  39.04600 44.19800 33.32100
H  39.79600 41.57400 34.46800
H  38.37800 41.33300 33.65300
H  42.86000 37.63100 30.43600
H  44.01300 36.81900 29.46700
H  42.34100 36.32900 29.34300
H  44.96600 36.37700 27.18100
H  44.25200 35.42200 25.77400
H  43.43800 35.34100 27.22800
H  41.50900 41.13800 22.63900
H  41.69000 44.05200 23.00100
H  43.43900 41.49900 21.85500
H  44.13500 41.51100 23.53600
H  43.74200 42.99100 22.61700
H  40.00600 42.76600 21.47100
H  39.18700 43.97800 22.55900
H  38.19900 41.56900 22.25300
H  38.18100 42.30700 23.78400
H  39.43800 41.13800 23.52800
H  39.78300 47.57500 25.36400
H  40.23000 48.39600 26.85100
H  38.56500 48.00300 26.62500
H  38.32500 45.45000 31.12400
H  40.95200 48.14100 33.72000
H  41.54200 46.51100 33.76600
H  40.45900 46.88600 34.95200
Mg -8.79100 18.39800 42.90500
C  -5.40400 17.59800 42.62000
C  -8.11400 21.62300 42.07700
C  -12.13100 18.88700 42.66200
C  -9.40900 14.94200 43.10100
N  -6.98300 19.43200 42.60700
C  -5.70700 18.97500 42.49800
C  -4.68100 20.09200 42.25900
C  -5.60500 21.38400 42.48600
C  -7.02600 20.80600 42.42300
C  -5.29600 22.23800 43.77500
C  -4.03300 20.07900 40.84300
C  -5.05000 20.13400 39.60500
H  -4.80300 19.07500 38.54200
N  -10.02600 20.06300 42.44400
C  -9.52800 21.32500 42.09900
C  -10.68800 22.15600 41.93200
C  -11.86700 21.36400 42.01600
C  -11.38200 20.01500 42.37800
C  -10.45700 23.61400 41.53100
C  -13.28900 21.83500 41.65800
O  -13.54000 22.97500 41.30700
C  -14.40100 20.86300 41.49200
N  -10.53900 17.06400 42.71000
C  -11.81900 17.54300 42.82300
C  -12.85500 16.39300 42.83600
C  -12.00800 15.13400 42.74600
C  -10.56100 15.75600 42.85000
C  -14.00200 16.54500 43.92500
C  -12.29200 14.18500 41.57500
C  -13.26600 13.07500 41.99300
N  -7.66400 16.55900 42.93300
C  -8.04600 15.21200 42.99000
C  -6.83300 14.37600 43.12400
C  -5.80100 15.29600 42.95700
C  -6.34500 16.59300 42.83600
C  -6.76600 12.91700 43.37400
C  -4.36300 15.41600 43.07800
O  -3.53700 14.49700 43.28300
C  -4.02500 16.91900 42.87900
C  -3.36500 17.34900 44.10600
O  -2.55400 18.25400 44.21300
O  -3.96400 16.72100 45.20600
C  -3.40500 17.09900 46.50500
H  -8.01100 22.69100 41.87600
H  -13.20800 18.93500 42.83400
H  -9.73900 13.91900 43.29500
H  -3.99600 20.12900 43.10500
H  -5.44200 22.03400 41.62700
H  -4.53000 21.76700 44.39000
H  -6.16100 22.34700 44.42900
H  -4.99100 23.23800 43.46900
H  -3.42800 19.17800 40.73900
H  -3.30700 20.89200 40.84600
H  -4.98700 21.07900 39.06600
H  -6.06000 20.01600 39.99600
H  -9.74300 23.67900 40.71100
H  -9.98000 24.16600 42.34000
H  -11.38000 24.17300 41.37800
H  -14.88100 20.41300 42.36200
H  -14.04000 20.06600 40.84300
H  -15.25100 21.36400 41.02800
H  -13.31900 16.63300 41.87900
H  -12.00100 14.58200 43.68600
H  -14.16800 15.54300 44.32000
H  -14.98300 16.75900 43.50200
H  -13.76400 17.17600 44.78100
H  -11.41900 13.59800 41.29200
H  -12.58100 14.71200 40.66600
H  -12.98300 12.09100 41.62000
H  -14.25200 13.30600 41.58800
H  -13.09400 12.92300 43.05900
H  -5.86300 12.36000 43.12400
H  -7.51800 12.38600 42.79100
H  -6.96200 12.63600 44.40900
H  -3.32800 17.07800 42.05700
H  -3.78400 16.41800 47.26700
H  -3.70000 18.06400 46.91900
H  -2.31900 17.01300 46.50600

