158

Mg 47.61600 17.15100 28.50200
C  45.57000 17.03500 31.23600
C  49.80000 19.08900 30.25200
C  49.37800 17.83000 25.59000
C  44.95800 15.68300 26.55000
N  47.54000 18.07100 30.38000
C  46.73700 17.77900 31.41500
C  47.22300 18.42600 32.76100
C  48.37600 19.33800 32.27100
C  48.55700 18.88200 30.83000
C  48.08900 20.88600 32.57500
C  47.77900 17.24500 33.65900
C  47.47200 17.45900 35.20100
H  46.93600 18.75700 35.72400
N  49.42300 18.20500 27.97600
C  50.22200 18.80700 28.93400
C  51.43400 19.28700 28.35400
C  51.28800 18.92800 26.92100
C  50.00600 18.31300 26.80000
C  52.58600 20.00600 29.08000
C  52.22700 19.26200 25.85800
O  52.00500 19.03600 24.67000
C  53.58700 19.85800 26.16800
N  47.09000 16.98600 26.38000
C  48.03000 17.30100 25.39800
C  47.54700 16.87000 23.98600
C  46.29400 15.96200 24.39200
C  46.10900 16.20900 25.85600
C  47.22200 18.09800 23.03200
C  46.47600 14.37700 23.99400
C  45.43800 13.84600 22.92700
N  45.66800 16.46300 28.74700
C  44.69800 15.83400 27.94400
C  43.57700 15.45800 28.73300
C  43.85600 15.81800 30.00600
C  45.06300 16.54600 30.01800
C  42.37500 14.69700 28.34100
C  43.31000 15.91100 31.29000
O  42.14300 15.67400 31.64200
C  44.42100 16.64100 32.16700
C  43.84100 17.66900 33.04700
O  43.45200 18.81300 32.74700
O  43.52100 16.95300 34.21200
C  42.55300 17.53400 35.15000
H  50.44000 19.76900 30.81700
H  49.90200 17.93300 24.63700
H  44.12500 15.16200 26.07300
H  46.45400 19.02600 33.24700
H  49.26900 19.16900 32.87300
H  48.96000 21.22600 33.13500
H  47.18500 21.01700 33.16900
H  48.07200 21.60500 31.75600
H  48.85100 17.10500 33.52400
H  47.20300 16.35100 33.41800
H  48.42100 17.27100 35.70300
H  46.74500 16.69200 35.47100
H  52.38100 20.25500 30.12100
H  53.04700 20.87800 28.61600
H  53.36100 19.23900 29.04600
H  54.13000 19.20200 26.84800
H  53.39100 20.90100 26.42000
H  54.14100 19.86100 25.23000
H  48.33500 16.26600 23.53600
H  45.41800 16.23700 23.80500
H  46.18700 18.16200 22.69500
H  47.90600 18.08900 22.18400
H  47.39400 19.07600 23.48200
H  46.39100 13.71900 24.85900
H  47.44900 14.34600 23.50300
H  44.50000 13.50300 23.36300
H  45.74400 13.10400 22.18900
H  45.28000 14.75800 22.35200
H  42.76300 13.69900 28.13600
H  41.76100 15.12600 27.55000
H  41.85000 14.54300 29.28400
H  44.92900 15.86400 32.73700
H  43.16800 18.13300 35.82200
H  42.04500 16.78700 35.75900
H  41.79800 18.10700 34.61200
Mg 27.13200 51.46100 25.80500
C  25.10600 52.29100 28.49900
C  29.58500 50.56500 27.90100
C  28.91600 50.62700 23.02800
C  24.70800 52.99000 23.70000
N  27.36900 51.50800 27.95600
C  26.30700 51.69300 28.88900
C  26.80900 51.36100 30.34100
C  28.38800 51.21300 30.09400
C  28.47300 51.12300 28.59200
C  29.31100 52.19700 30.77900
C  26.03800 50.20300 30.97800
C  25.21600 50.38200 32.26600
H  25.99700 50.84700 33.48800
N  28.96600 50.64600 25.51300
C  29.84100 50.35600 26.54100
C  31.06600 49.79200 25.95200
C  30.89900 49.79700 24.50100
C  29.51100 50.34600 24.33700
C  32.28000 49.38900 26.72400
C  31.88700 49.38900 23.51500
O  31.66300 49.42600 22.30600
C  33.22100 48.99100 23.80600
N  26.86700 51.69000 23.73100
C  27.71400 51.36600 22.74500
C  27.21200 51.57300 21.32200
C  25.81900 52.19700 21.52200
C  25.76700 52.33000 23.06100
C  28.14400 52.42600 20.40400
C  24.56800 51.39900 21.00400
C  23.46500 52.35600 20.40200
N  25.33400 52.45500 26.03400
C  24.47200 52.97800 25.10400
C  23.34800 53.61000 25.76100
C  23.55200 53.36400 27.11100
C  24.76900 52.62600 27.19600
C  22.23900 54.40100 25.10100
C  23.13000 53.70200 28.45000
O  22.12500 54.34000 28.78800
C  23.99600 52.81900 29.41200
C  24.51000 53.84300 30.40000
O  25.49100 54.52900 30.27600
O  23.61900 53.83000 31.49000
C  24.02200 54.62000 32.60800
H  30.38300 50.32100 28.60600
H  29.49300 50.37400 22.13600
H  23.92400 53.31800 23.01400
H  26.57700 52.31200 30.82100
H  28.68900 50.22000 30.42700
H  29.83600 52.80500 30.04300
H  30.07400 51.64100 31.32400
H  28.81800 52.91300 31.43700
H  26.69000 49.36600 31.23200
H  25.34500 49.86500 30.20800
H  24.52200 49.58800 32.54200
H  24.57100 51.23500 32.05500
H  32.29500 48.30800 26.86100
H  32.23400 49.69000 27.77100
H  33.14000 49.86900 26.25700
H  33.41200 48.05500 24.33100
H  33.59400 49.88600 24.30200
H  33.76100 48.87100 22.86700
H  27.05900 50.58300 20.89100
H  25.76700 53.23700 21.20300
H  28.79700 52.97000 21.08600
H  27.55100 53.09700 19.78300
H  28.62300 51.58000 19.91100
H  23.99600 50.93000 21.80400
H  24.86800 50.66100 20.26000
H  22.52700 52.26400 20.94900
H  23.24500 51.92700 19.42500
H  23.79200 53.39500 20.34900
H  21.23400 54.13400 25.42800
H  22.34600 54.40700 24.01600
H  22.26700 55.42100 25.48500
H  23.55000 51.96100 29.91500
H  24.79400 54.13600 33.20700
H  23.13000 54.70500 33.22800
H  24.35900 55.62000 32.33400

