158

Mg 40.11100 10.50000 30.02800
C  42.02100 11.39100 32.90700
C  37.89900 8.99800 32.26500
C  38.65000 9.08100 27.39800
C  42.79400 11.72300 28.07100
N  40.06600 10.10400 32.31200
C  40.87600 10.70700 33.27400
C  40.28000 10.59900 34.68400
C  38.99400 9.70100 34.40400
C  38.96600 9.62600 32.86900
C  38.81800 8.35600 35.22200
C  39.92400 12.02600 35.28300
C  39.45700 12.14200 36.74700
H  40.24700 12.99900 37.75700
N  38.56400 9.10900 29.90300
C  37.69800 8.74800 30.92500
C  36.66000 7.94300 30.34800
C  36.90000 7.87900 28.93300
C  38.07000 8.73900 28.66600
C  35.73900 7.03500 31.15000
C  36.06100 7.25700 27.80300
O  36.35600 7.32000 26.63700
C  34.91200 6.35300 28.23500
N  40.61800 10.46000 28.02300
C  39.70500 9.94600 27.11200
C  40.12200 10.25400 25.68500
C  41.41300 11.17100 25.89600
C  41.67700 11.12700 27.40100
C  40.23800 8.91300 24.77400
C  41.23000 12.53000 25.30500
C  40.10000 13.40900 25.91000
N  41.97300 11.40100 30.37900
C  42.89700 11.87700 29.47000
C  44.03600 12.47600 30.15300
C  43.60900 12.34600 31.49200
C  42.42600 11.65400 31.60300
C  45.31800 13.00400 29.52200
C  44.13300 12.57700 32.82400
O  45.16900 13.03200 33.20600
C  43.13800 11.99500 33.78800
C  43.75300 10.99800 34.65400
O  43.78900 9.78600 34.46800
O  44.26800 11.59200 35.75200
C  44.90100 10.79500 36.73700
H  37.12300 8.54200 32.88200
H  38.11400 8.90700 26.46300
H  43.52500 12.25900 27.46200
H  40.98700 10.22800 35.42500
H  38.10300 10.27600 34.65700
H  37.79000 8.15700 35.52500
H  39.40300 8.41500 36.13900
H  39.24900 7.53900 34.64500
H  39.28100 12.56900 34.59000
H  40.86400 12.57300 35.20100
H  39.31400 11.17500 37.22900
H  38.43900 12.46600 36.53100
H  35.76000 6.01800 30.75700
H  34.71100 7.35000 30.97400
H  36.00600 6.89300 32.19700
H  34.29300 6.15000 27.36100
H  34.29100 6.79000 29.01700
H  35.28900 5.38300 28.55900
H  39.37400 10.88000 25.19700
H  42.21800 10.73300 25.30600
H  39.97000 7.99900 25.30500
H  41.24800 8.73000 24.40700
H  39.52300 9.01800 23.95800
H  41.03500 12.41000 24.23900
H  42.14100 13.07200 25.55400
H  40.52300 14.35900 26.23600
H  39.46900 12.98100 26.68900
H  39.47100 13.71000 25.07200
H  45.10300 13.17100 28.46600
H  46.14100 12.31100 29.69700
H  45.60600 13.94100 29.99900
H  42.88100 12.82200 34.45000
H  45.20000 11.40900 37.58700
H  45.87000 10.46900 36.35800
H  44.28100 9.93500 36.98900
Mg 43.47700 42.54500 26.35700
C  42.44700 44.54400 28.89400
C  44.91500 40.50400 28.67800
C  44.83600 40.77200 23.82900
C  42.52100 44.95500 23.99200
N  43.53000 42.52700 28.57900
C  42.89900 43.34600 29.44700
C  43.03800 42.99200 30.93900
C  44.16300 41.81700 30.74000
C  44.20900 41.56500 29.25300
C  45.54900 42.19800 31.36400
C  41.66800 42.45900 31.61500
C  41.78000 41.92900 33.01900
H  40.93600 42.59000 34.12300
N  44.47800 40.72100 26.32400
C  45.10300 40.15200 27.30900
C  45.71100 38.95100 26.87200
C  45.50300 38.83700 25.43500
C  44.90100 40.14000 25.11300
C  46.44300 37.96200 27.81800
C  45.87000 37.74900 24.35900
O  45.52900 37.75400 23.18000
C  46.54000 36.43900 24.91900
N  43.77400 42.87700 24.27500
C  44.31500 41.94000 23.39900
C  44.29500 42.37000 21.98200
C  43.32200 43.56400 22.00100
C  43.19000 43.83100 23.48100
C  45.71100 42.71900 21.62800
C  42.04900 43.35500 21.12600
C  40.77500 42.70700 21.74600
N  42.68500 44.41000 26.41000
C  42.36900 45.29300 25.37600
C  41.84400 46.50500 25.88600
C  41.88200 46.23900 27.30800
C  42.33800 44.96300 27.53900
C  41.32900 47.69500 25.13300
C  41.40800 46.85500 28.55100
O  40.98600 48.00400 28.78600
C  41.75600 45.72400 29.59300
C  42.64100 46.35900 30.56300
O  43.86000 46.49500 30.46100
O  41.84300 46.84400 31.65900
C  42.60400 47.42100 32.81900
H  45.26700 39.88400 29.50500
H  45.20800 40.12900 23.02800
H  42.20400 45.68400 23.24300
H  43.44500 43.76700 31.58900
H  43.79900 40.88600 31.17400
H  45.64400 43.24300 31.65800
H  46.33000 42.13300 30.60700
H  45.82000 41.55100 32.19900
H  41.25400 41.62100 31.05400
H  40.98600 43.30200 31.72400
H  42.78400 41.90600 33.44200
H  41.57900 40.86300 32.90800
H  47.34400 37.61400 27.31400
H  45.77300 37.10700 27.91500
H  46.63000 38.19500 28.86600
H  47.53700 36.70600 25.26900
H  46.67100 35.71900 24.11100
H  45.86400 36.07200 25.69200
H  43.89000 41.56900 21.36200
H  43.87700 44.42200 21.62400
H  46.07600 43.72800 21.81600
H  45.83300 42.63600 20.54800
H  46.38600 42.01100 22.10900
H  42.29100 42.84400 20.19400
H  41.86900 44.38500 20.81800
H  39.96400 43.43500 21.72600
H  40.98700 42.47400 22.78900
H  40.47800 41.75100 21.31500
H  41.70100 47.63100 24.11100
H  41.62000 48.54200 25.75400
H  40.23900 47.65900 25.13300
H  40.77000 45.40100 29.92700
H  43.66300 47.59800 32.63100
H  42.51200 46.77900 33.69500
H  41.97400 48.30300 32.93100

