158

Mg 48.28900 34.02400 26.61400
C  45.76500 32.89600 28.94000
C  48.40700 37.00800 28.39100
C  50.00600 35.33700 24.03900
C  47.16000 31.43000 24.49500
N  47.27100 34.76900 28.42800
C  46.52300 33.97500 29.36300
C  46.62900 34.58600 30.70400
C  47.12200 36.06900 30.44200
C  47.55700 35.97900 28.92600
C  46.08600 37.15400 30.64300
C  47.60300 33.77300 31.57800
C  47.63300 33.86400 33.10700
H  46.67100 34.75500 33.88900
N  49.10100 35.89900 26.27500
C  49.06800 36.97400 27.11600
C  49.87600 38.04800 26.60200
C  50.39400 37.55600 25.39800
C  49.88800 36.17300 25.21100
C  49.90800 39.42800 27.26700
C  51.32200 38.33200 24.41100
O  51.60200 37.91100 23.33200
C  51.91300 39.71600 24.76000
N  48.41100 33.56500 24.47100
C  49.45600 34.14300 23.74300
C  49.71300 33.34300 22.43100
C  48.79400 32.08600 22.61600
C  48.14800 32.33500 23.95700
C  49.49900 34.09300 21.12800
C  49.56700 30.75800 22.42800
C  50.22600 30.45900 21.05500
N  46.90500 32.42900 26.66200
C  46.57800 31.38100 25.79800
C  45.60000 30.46900 26.30900
C  45.29300 30.99000 27.56700
C  46.06500 32.25700 27.73200
C  45.02400 29.29400 25.73100
C  44.55800 30.76000 28.72100
O  43.74100 29.88000 28.94900
C  44.76100 32.04500 29.62500
C  44.96700 31.67100 31.13000
O  45.76700 30.88800 31.56700
O  43.96000 32.22200 31.81000
C  43.94600 31.93100 33.23600
H  48.53000 37.91900 28.98100
H  50.79400 35.61200 23.33400
H  46.82800 30.59600 23.87200
H  45.76400 34.67600 31.36200
H  47.97100 36.27900 31.09200
H  45.25000 36.74500 31.21100
H  45.67200 37.62400 29.75000
H  46.52300 38.00500 31.16500
H  48.58500 34.06100 31.20400
H  47.42100 32.71400 31.39100
H  48.62200 34.08800 33.50600
H  47.57400 32.85400 33.51400
H  50.76100 39.43300 27.94500
H  49.01200 39.79600 27.76700
H  49.90200 40.16500 26.46400
H  52.32500 39.60900 25.76300
H  51.18400 40.51000 24.59900
H  52.81900 39.88100 24.17600
H  50.75400 33.02100 22.46200
H  48.11500 32.12600 21.76400
H  48.73900 33.68100 20.46400
H  50.47100 34.00500 20.64200
H  49.25800 35.14900 21.25000
H  48.81400 29.97500 22.51600
H  50.37900 30.70800 23.15300
H  50.03900 31.38400 20.51000
H  49.81600 29.55500 20.60500
H  51.30500 30.33300 21.15000
H  44.47000 28.67400 26.43700
H  45.76600 28.58200 25.36900
H  44.43900 29.68800 24.90000
H  43.76200 32.48000 29.65300
H  44.90600 32.18700 33.68500
H  43.76300 30.89300 33.51400
H  43.13400 32.53200 33.64600
Mg 35.60500 49.28700 25.65200
C  36.05000 47.23000 28.48400
C  34.24300 51.56600 27.79500
C  34.47200 50.76000 22.84900
C  36.42200 46.41100 23.69700
N  35.28400 49.39000 27.86900
C  35.62200 48.47600 28.79500
C  35.58300 49.05400 30.27600
C  34.68000 50.32600 29.95100
C  34.80700 50.46700 28.44200
C  33.17900 50.24600 30.33700
C  37.01600 49.42300 30.84600
C  37.31400 49.26000 32.37700
H  36.09700 49.24000 33.31000
N  34.57200 51.01100 25.40600
C  34.12700 51.84200 26.40500
C  33.66600 53.07100 25.76500
C  33.59600 52.84100 24.34800
C  34.27300 51.53500 24.13100
C  33.50800 54.41200 26.53500
C  33.06700 53.65700 23.21900
O  33.31800 53.35800 22.07500
C  32.47400 55.02800 23.57400
N  35.46100 48.66700 23.59700
C  35.06800 49.51100 22.65300
C  35.24100 48.93900 21.24700
C  35.98500 47.52200 21.55300
C  36.00400 47.54300 23.04300
C  33.95200 48.85000 20.40000
C  37.34500 47.39300 20.87300
C  37.55900 46.38900 19.84300
N  36.19400 47.28200 25.93700
C  36.47600 46.25300 25.10200
C  36.96100 45.09000 25.80400
C  36.80300 45.45100 27.14000
C  36.32100 46.78900 27.13900
C  37.35900 43.80400 25.24500
C  36.90800 44.97900 28.52200
O  37.31100 43.93100 28.92300
C  36.46500 46.10800 29.41900
C  35.36500 45.55800 30.24500
O  34.24500 45.33700 29.88200
O  35.84800 45.32200 31.53000
C  34.92400 45.08000 32.61900
H  33.78600 52.27100 28.49300
H  34.18000 51.33600 21.96800
H  36.67800 45.61400 22.99600
H  34.96800 48.38600 30.87900
H  35.02800 51.20300 30.49800
H  32.96100 51.14500 30.91300
H  32.94200 49.38000 30.95600
H  32.40500 50.47500 29.60400
H  37.25200 50.43100 30.50500
H  37.71500 48.71700 30.39600
H  37.78000 50.23500 32.52200
H  37.96300 48.39100 32.47900
H  33.87600 54.37900 27.56000
H  32.50300 54.83000 26.59100
H  33.86600 55.26900 25.96400
H  33.21300 55.70700 23.99800
H  31.59100 54.95500 24.20900
H  32.14100 55.46100 22.63100
H  35.83000 49.62300 20.63700
H  35.26700 46.77300 21.22100
H  33.99800 49.66900 19.68200
H  33.08500 48.94000 21.05500
H  33.88300 47.91600 19.84300
H  38.09700 47.20400 21.64000
H  37.34000 48.34700 20.34700
H  38.21300 46.71600 19.03500
H  36.63600 46.09800 19.34000
H  38.04900 45.55500 20.34600
H  37.50600 43.82700 24.16500
H  36.62400 43.06100 25.55500
H  38.34700 43.54200 25.62300
H  37.15200 46.49500 30.17200
H  35.56000 44.82600 33.46700
H  34.20900 44.31000 32.32700
H  34.33600 45.97200 32.83500

