158

Mg 49.28000 44.55000 42.43800
C  46.24400 45.06500 40.67900
C  49.67800 41.58800 40.70600
C  52.62200 44.60400 43.07900
C  49.08800 47.88400 43.45900
N  48.13300 43.51500 40.80200
C  46.84100 43.85300 40.37100
C  46.40900 42.79200 39.34200
C  47.26400 41.59200 39.62100
C  48.42200 42.25500 40.45300
C  46.67900 40.37800 40.38200
C  46.47800 43.32400 37.90700
C  45.28900 43.08700 36.92900
H  45.27800 43.81300 35.60800
N  50.92800 43.26600 41.91600
C  50.86100 42.06300 41.29100
C  52.16800 41.33600 41.44100
C  53.00800 42.16000 42.18000
C  52.24000 43.40500 42.43800
C  52.43200 39.88800 40.93700
C  54.37100 41.74200 42.61800
O  54.75600 40.65900 42.20800
C  55.39400 42.58700 43.12600
N  50.69200 46.01500 43.15000
C  51.97800 45.78300 43.45400
C  52.66200 46.97800 44.21200
C  51.46900 48.04500 44.36400
C  50.34500 47.31300 43.62100
C  53.33500 46.57100 45.52100
C  51.72800 49.43800 43.66100
C  51.12600 50.66100 44.35700
N  47.87200 46.14200 42.36000
C  47.92900 47.43200 42.76000
C  46.74500 48.14900 42.47100
C  46.07000 47.28000 41.64800
C  46.77100 46.07200 41.61500
C  46.50000 49.53400 42.92000
C  44.94600 47.12700 40.75900
O  44.12700 47.97800 40.48700
C  44.91500 45.72400 40.16200
C  43.59900 45.12900 40.68200
O  42.70000 44.88400 39.94000
O  43.53000 45.02500 42.07000
C  42.24800 44.84800 42.64300
H  49.89100 40.55600 40.42100
H  53.65500 44.46300 43.40300
H  48.96800 48.84500 43.96200
H  45.39300 42.40400 39.40000
H  47.66300 41.19500 38.68700
H  46.90000 40.36000 41.44900
H  46.99300 39.44000 39.92400
H  45.60800 40.30200 40.19500
H  47.31300 42.84300 37.39800
H  46.60200 44.40300 37.80800
H  44.38000 43.21900 37.51700
H  45.31700 42.00300 36.81900
H  53.32700 39.83300 40.31600
H  51.68900 39.57300 40.20500
H  52.49600 39.23300 41.80600
H  55.11800 42.93000 44.12300
H  55.63600 43.43900 42.49100
H  56.30200 41.99400 43.23900
H  53.49700 47.34100 43.61300
H  51.25800 48.12600 45.43000
H  53.04700 47.20300 46.36100
H  54.41000 46.56500 45.34400
H  53.04200 45.56600 45.82700
H  51.41000 49.39700 42.61900
H  52.81700 49.46200 43.68200
H  51.79800 51.45900 44.67300
H  50.70400 50.37900 45.32100
H  50.38200 51.10400 43.69500
H  46.35100 50.28600 42.14500
H  47.30900 49.81300 43.59500
H  45.55500 49.46000 43.45900
H  44.83500 45.81600 39.07800
H  42.30000 44.20000 43.51800
H  41.51600 44.38200 41.98300
H  41.91000 45.87100 42.80300
Mg 48.17600 34.31400 26.58100
C  46.31300 32.90100 29.09700
C  48.77400 37.13800 28.56200
C  49.32900 35.94700 23.92900
C  47.31000 31.63400 24.50800
N  47.62600 34.87400 28.52500
C  47.00700 34.07600 29.44900
C  47.22700 34.63600 30.91100
C  47.56900 36.14600 30.65000
C  47.98300 36.05400 29.14200
C  46.43800 37.20100 30.84800
C  48.32400 33.81400 31.57700
C  48.21500 33.82200 33.11300
H  47.04200 34.38400 33.95800
N  48.94600 36.26800 26.34000
C  49.15600 37.22000 27.20200
C  49.95200 38.26900 26.65900
C  50.12800 37.98100 25.29700
C  49.44200 36.67700 25.13000
C  50.31700 39.41200 27.48300
C  50.81200 38.78000 24.22600
O  50.93300 38.41700 23.06100
C  51.50200 40.05200 24.60100
N  48.15700 33.98900 24.44900
C  48.81200 34.71900 23.53300
C  48.97500 34.04500 22.17900
C  48.67400 32.52900 22.53400
C  48.01400 32.69500 23.91200
C  48.17300 34.59000 20.93700
C  49.89500 31.57900 22.50600
C  50.14400 30.78000 21.20400
N  47.08700 32.63100 26.73600
C  46.73400 31.67500 25.74500
C  45.89900 30.69300 26.38900
C  45.66200 31.18200 27.68000
C  46.39600 32.36700 27.76300
C  45.22100 29.55500 25.80000
C  44.95500 30.87400 28.87900
O  44.15000 29.95000 29.18400
C  45.26600 32.07000 29.87000
C  45.84000 31.36000 31.05100
O  46.87300 30.68700 31.04400
O  44.96600 31.41600 32.12400
C  45.31300 30.73400 33.37800
H  49.01200 37.82100 29.37900
H  49.77900 36.47600 23.08700
H  47.18000 30.77300 23.84900
H  46.26400 34.60900 31.42200
H  48.36100 36.41100 31.35000
H  45.65600 36.98200 31.57600
H  45.86000 37.26200 29.92600
H  46.92500 38.15200 31.06300
H  49.33200 34.22200 31.50600
H  48.45900 32.78100 31.25500
H  49.04900 34.30700 33.62000
H  48.12800 32.79800 33.47600
H  49.85000 40.22200 26.92300
H  51.37100 39.60800 27.29100
H  50.06800 39.42700 28.54400
H  51.96300 40.60800 23.78500
H  52.27500 39.92000 25.35800
H  50.71300 40.73500 24.91500
H  50.01200 34.15800 21.86300
H  47.87400 32.16300 21.89000
H  47.12300 34.75800 21.17700
H  48.20200 33.86900 20.12100
H  48.72600 35.48200 20.64400
H  49.73200 30.91000 23.35100
H  50.72800 32.25800 22.68700
H  50.30300 31.41900 20.33600
H  49.30100 30.11100 21.03100
H  51.08300 30.28800 21.45700
H  45.90500 28.73800 26.02900
H  45.09100 29.63100 24.72100
H  44.23800 29.43200 26.25700
H  44.33100 32.61400 30.01000
H  46.30500 30.99400 33.74700
H  45.23400 29.65000 33.29500
H  44.50400 30.93500 34.08000

