158

Mg 17.45900 -2.49800 27.18800
C  16.57300 -0.51500 30.03100
C  19.13100 -4.44500 29.36000
C  18.32300 -4.04000 24.47600
C  15.80200 -0.06300 25.22200
N  17.93900 -2.38700 29.55900
C  17.39400 -1.60300 30.47000
C  17.64600 -1.98900 31.90100
C  18.59000 -3.25100 31.59700
C  18.57100 -3.39500 30.10900
C  19.97200 -3.19000 32.31700
C  16.37300 -2.23900 32.78700
C  16.28200 -1.44400 34.03800
H  17.57500 -0.93800 34.84700
N  18.51400 -4.11000 26.94600
C  19.14200 -4.80400 27.90000
C  19.95800 -5.80900 27.29300
C  19.63000 -5.75400 25.91100
C  18.71900 -4.65400 25.72700
C  20.87000 -6.65000 28.15100
C  20.09400 -6.65300 24.82200
O  19.75200 -6.59200 23.63100
C  20.85400 -7.89200 25.13800
N  16.96600 -2.14200 25.04100
C  17.54300 -2.94000 24.13700
C  17.21700 -2.41300 22.69900
C  16.31800 -1.16900 23.00600
C  16.37800 -1.09400 24.50900
C  18.53700 -2.11100 21.92700
C  14.79200 -1.39500 22.52400
C  14.39500 -0.63300 21.28200
N  16.32000 -0.70600 27.51700
C  15.74800 0.15600 26.61900
C  15.14100 1.25700 27.26800
C  15.34100 1.05000 28.63400
C  16.05100 -0.18000 28.73800
C  14.54700 2.48800 26.62900
C  15.25400 1.58500 29.97200
O  14.65000 2.62600 30.28300
C  15.90300 0.60500 30.96200
C  16.86100 1.51400 31.71900
O  17.97400 1.79700 31.31300
O  16.21000 2.00700 32.81400
C  16.93300 3.05500 33.51800
H  19.64500 -5.09900 30.06700
H  18.84700 -4.52500 23.65000
H  15.26700 0.66600 24.60800
H  18.10900 -1.09000 32.31000
H  17.98200 -4.08100 31.95800
H  20.73400 -2.88100 31.60300
H  20.29300 -4.17800 32.64800
H  20.03000 -2.50800 33.16500
H  16.15000 -3.29600 32.93300
H  15.54000 -1.86600 32.19200
H  15.59200 -2.00300 34.67000
H  15.70900 -0.54700 33.80600
H  21.87700 -6.80700 27.76300
H  20.59900 -7.70400 28.20700
H  21.09100 -6.42000 29.19300
H  20.28700 -8.56400 25.78300
H  21.80100 -7.62600 25.60700
H  21.06800 -8.39600 24.19500
H  16.75800 -3.22400 22.13400
H  16.66000 -0.21600 22.60300
H  18.62300 -2.69300 21.00900
H  19.38800 -2.35000 22.56500
H  18.63000 -1.05200 21.68600
H  14.08600 -0.98900 23.24800
H  14.49600 -2.43300 22.37400
H  15.27200 -0.34500 20.70200
H  13.95400 0.29600 21.64400
H  13.70900 -1.16900 20.62700
H  13.47400 2.36700 26.48100
H  14.90000 2.67100 25.61400
H  14.77100 3.34300 27.26600
H  15.19300 0.25100 31.70900
H  17.11500 3.85800 32.80400
H  17.87900 2.65100 33.87900
H  16.28900 3.43400 34.31200
Mg 46.81700 35.71000 28.82100
C  44.98300 33.41100 30.99300
C  47.19200 37.74900 31.33900
C  48.06400 37.81900 26.62200
C  46.07400 33.44000 26.23700
N  46.29900 35.50900 30.93000
C  45.74500 34.46200 31.64000
C  45.69700 34.79300 33.11400
C  46.11500 36.30000 33.12900
C  46.60600 36.52300 31.71300
C  44.93600 37.30000 33.54100
C  46.81800 33.98000 33.84200
C  46.93700 33.94500 35.36100
H  46.07200 34.86600 36.24600
N  47.63700 37.48300 28.99300
C  47.74500 38.19800 30.16900
C  48.38100 39.49700 29.89800
C  48.68500 39.55500 28.52400
C  48.16100 38.26300 27.98000
C  48.70500 40.55900 30.86000
C  49.41300 40.50600 27.66900
O  49.72400 40.38900 26.50800
C  49.97300 41.81400 28.16500
N  47.01600 35.66900 26.67200
C  47.50600 36.65700 26.03700
C  47.33900 36.46200 24.56600
C  47.08000 34.94900 24.44800
C  46.63300 34.62600 25.89300
C  46.26200 37.41200 23.97500
C  48.38300 34.14800 24.12000
C  48.35700 33.34700 22.80500
N  45.74500 33.84500 28.58900
C  45.58000 33.01100 27.48100
C  44.74300 31.84600 27.81400
C  44.49300 31.96600 29.20500
C  45.16900 33.12300 29.63700
C  44.23800 30.70100 26.93100
C  43.77400 31.44200 30.41000
O  43.11600 30.41100 30.45000
C  43.94800 32.43400 31.58000
C  44.25200 31.85500 32.91100
O  45.20400 31.03400 33.08800
O  43.41600 32.31300 33.94100
C  43.70600 31.81200 35.27100
H  47.40800 38.37500 32.20800
H  48.61600 38.47100 25.94200
H  45.96000 32.67500 25.46600
H  44.75900 34.71100 33.66400
H  46.96700 36.43100 33.79600
H  44.16900 36.75700 34.09300
H  44.53500 37.97200 32.78300
H  45.34700 37.94200 34.32000
H  47.80400 34.24500 33.46100
H  46.70800 32.94600 33.51500
H  47.97300 34.27100 35.46400
H  47.01900 32.92200 35.72700
H  49.75600 40.83300 30.96000
H  48.58300 40.27500 31.90500
H  48.06300 41.42100 30.67600
H  49.23700 42.35400 28.76200
H  50.04300 42.47200 27.29900
H  50.81900 41.47700 28.76300
H  48.26300 36.83300 24.12400
H  46.28700 34.57100 23.80200
H  45.54700 37.65100 24.76200
H  45.75000 36.93400 23.14000
H  46.72900 38.38000 23.79300
H  48.49400 33.34100 24.84400
H  49.22300 34.84100 24.05500
H  48.11200 32.30400 23.00900
H  49.35000 33.31400 22.35500
H  47.62300 33.79700 22.13700
H  44.48000 29.64700 27.06500
H  44.55500 30.95600 25.92000
H  43.15700 30.80600 27.02600
H  42.94900 32.87000 31.60100
H  43.14700 32.49700 35.90900
H  44.77200 31.84600 35.49800
H  43.26300 30.84900 35.52400

