158

Mg -0.23600 7.66900 27.12300
C  0.88300 9.95000 29.53200
C  -0.41700 5.15900 29.32700
C  -1.06800 5.55600 24.61200
C  0.61600 10.11400 24.58900
N  0.07200 7.58500 29.17500
C  0.50100 8.67700 29.98500
C  0.27900 8.28200 31.46400
C  0.09900 6.69300 31.31600
C  -0.10900 6.44700 29.86300
C  1.16600 5.85900 32.01000
C  -0.97100 9.03200 32.11700
C  -1.03300 9.11100 33.69900
H  0.14100 8.62400 34.58700
N  -0.81900 5.61900 26.96300
C  -0.79000 4.74200 28.02800
C  -1.28400 3.44600 27.60900
C  -1.40700 3.50900 26.24700
C  -1.07200 4.92600 25.86500
C  -1.56200 2.22700 28.55000
C  -1.61000 2.36100 25.21800
O  -1.47500 2.58900 24.02500
C  -1.93700 1.00000 25.70000
N  -0.02700 7.78900 24.88400
C  -0.61600 6.79000 24.14800
C  -0.86300 7.15500 22.69900
C  -0.33500 8.61500 22.62200
C  0.12100 8.89900 24.09300
C  -0.18000 6.19800 21.77000
C  -1.18300 9.78300 22.03600
C  -0.45300 10.94500 21.26900
N  0.71000 9.56300 27.01400
C  0.92300 10.44700 25.96300
C  1.43800 11.74300 26.52400
C  1.33700 11.57700 27.89300
C  0.93800 10.26600 28.19200
C  1.77900 12.95500 25.76000
C  1.48300 12.34200 29.04600
O  1.67600 13.55300 29.27800
C  1.21700 11.29900 30.21800
C  2.31400 11.29300 31.16300
O  3.32500 10.63500 31.03000
O  2.01700 12.05600 32.27900
C  2.88600 11.92900 33.50700
H  -0.60600 4.43200 30.12000
H  -1.46500 4.86800 23.86300
H  0.82200 10.90900 23.86800
H  1.20000 8.44100 32.02700
H  -0.81600 6.36000 31.80600
H  0.58200 5.27000 32.71700
H  1.95200 6.44400 32.48800
H  1.49000 5.05800 31.34500
H  -1.77500 8.35400 31.83100
H  -1.29700 9.98400 31.69800
H  -1.96700 8.61100 33.95500
H  -0.99200 10.18900 33.85400
H  -1.68800 2.63300 29.55300
H  -0.78700 1.48800 28.75500
H  -2.49400 1.71200 28.31600
H  -2.15700 0.30800 24.88700
H  -2.79500 1.13400 26.35900
H  -1.01300 0.63000 26.14600
H  -1.92400 7.27600 22.48100
H  0.62800 8.63700 22.11200
H  0.36300 5.41300 22.29400
H  0.44800 6.76100 21.07900
H  -1.00500 5.77200 21.19900
H  -1.71900 10.16400 22.90500
H  -1.92500 9.29900 21.40000
H  -0.76500 10.85000 20.22900
H  0.62000 10.82500 21.41900
H  -0.67300 11.85600 21.82500
H  1.24100 13.76600 26.25100
H  1.40500 12.81600 24.74500
H  2.83500 13.22500 25.75700
H  0.25800 11.58300 30.65000
H  3.86700 11.50000 33.30400
H  2.31900 11.42800 34.29100
H  3.11100 12.94300 33.83700
Mg 7.86900 2.62200 28.49000
C  9.50600 1.26500 31.43700
C  6.15800 4.78000 30.75900
C  5.94600 3.57100 25.93100
C  9.37000 0.15200 26.67100
N  7.79900 2.81200 30.88000
C  8.65300 2.28900 31.80400
C  8.64600 2.95900 33.24600
C  7.39300 3.95000 32.92800
C  7.09700 3.91200 31.42000
C  6.11500 3.70400 33.86600
C  9.96200 3.64200 33.65100
C  10.43900 3.26300 35.10200
H  9.56500 3.61100 36.36300
N  6.34000 3.98300 28.39800
C  5.74600 4.74200 29.42000
C  4.69600 5.57200 28.81300
C  4.79900 5.43600 27.43300
C  5.74100 4.37200 27.14600
C  3.73800 6.37200 29.60500
C  3.88200 6.07000 26.34200
O  3.92200 5.73700 25.17400
C  2.78300 7.13700 26.78400
N  7.77500 2.02400 26.56700
C  6.84300 2.48200 25.72200
C  7.01800 1.80900 24.32900
C  8.30700 0.81900 24.55000
C  8.49500 0.99500 26.00800
C  5.69600 1.06100 23.86600
C  9.67200 1.19400 23.77200
C  10.69900 2.05700 24.49200
N  9.22900 0.99400 28.88300
C  9.71100 0.08400 27.99800
C  10.50000 -0.86900 28.71600
C  10.49200 -0.45300 30.08300
C  9.71300 0.71100 30.14600
C  11.18500 -2.03800 28.13500
C  10.92100 -0.74500 31.44900
O  11.53000 -1.69400 31.89200
C  10.41200 0.41600 32.39800
C  9.59900 -0.35100 33.44000
O  8.45800 -0.75200 33.27100
O  10.39200 -0.56100 34.54100
C  9.76600 -1.14400 35.75800
H  5.66600 5.58200 31.31300
H  5.40000 3.94700 25.06300
H  9.77400 -0.69800 26.11700
H  8.33900 2.17000 33.93100
H  7.67200 4.97700 33.16500
H  6.23700 2.73600 34.35200
H  5.25200 3.68400 33.20200
H  6.05200 4.56900 34.52700
H  9.90800 4.73000 33.62500
H  10.66300 3.34600 32.87100
H  11.25400 3.95100 35.32700
H  10.82100 2.24500 35.17400
H  3.74400 5.90600 30.59000
H  2.72800 6.20800 29.23000
H  4.05100 7.41200 29.70000
H  1.80900 6.69100 26.98500
H  2.67200 7.72500 25.87300
H  3.11800 7.91700 27.46700
H  7.25700 2.57200 23.58700
H  8.05600 -0.22000 24.33300
H  4.90300 1.12800 24.61000
H  5.69500 -0.00500 23.63900
H  5.33800 1.70500 23.06300
H  9.33500 1.75800 22.90200
H  10.13400 0.25300 23.47200
H  11.44900 1.54700 25.09700
H  10.40300 2.93900 25.06000
H  11.24300 2.52000 23.66800
H  12.12900 -1.77400 27.66000
H  10.45400 -2.30600 27.37300
H  11.15400 -2.86500 28.84500
H  11.31600 0.85600 32.81700
H  10.51100 -1.80100 36.20700
H  8.83400 -1.64700 35.50200
H  9.54700 -0.41500 36.53800

