158

Mg 2.05900 -1.16300 43.67400
C  5.52100 -0.33600 43.04500
C  1.19700 1.74700 42.13400
C  -1.04200 -2.37000 43.41600
C  3.24300 -4.20500 44.83300
N  3.23000 0.51400 42.77000
C  4.57600 0.64000 42.55800
C  5.02600 1.96300 41.91300
C  3.63700 2.71500 41.93800
C  2.57900 1.55800 42.25600
C  3.52100 3.93100 42.92100
C  5.66500 1.87400 40.46100
C  6.91100 2.68700 40.11900
H  6.93100 3.61000 38.94400
N  0.27900 -0.35100 43.02000
C  0.11300 0.86300 42.40500
C  -1.23200 1.01400 42.05100
C  -1.94000 -0.10200 42.49800
C  -0.92900 -1.06500 43.01600
C  -1.81800 2.17300 41.43600
C  -3.46200 -0.30000 42.44700
O  -4.20400 0.49700 41.91200
C  -4.18200 -1.45100 43.06700
N  1.26200 -3.08000 43.96800
C  -0.04600 -3.29700 43.93800
C  -0.42400 -4.74600 44.43200
C  0.98600 -5.26000 44.96300
C  1.91500 -4.17400 44.48100
C  -1.67200 -4.83500 45.32800
C  1.34300 -6.64400 44.23400
C  2.00900 -7.70400 45.21600
N  4.00300 -2.12100 43.97900
C  4.28700 -3.28300 44.57900
C  5.69400 -3.34100 44.82500
C  6.23100 -2.25500 44.21600
C  5.16600 -1.55300 43.71500
C  6.45300 -4.36500 45.64600
C  7.48700 -1.53900 43.96100
O  8.65200 -1.72200 44.30500
C  7.03800 -0.42700 43.02100
C  7.75200 0.85300 43.34800
O  8.45400 1.42700 42.53500
O  7.48100 1.35100 44.57100
C  7.93000 2.72900 44.82900
H  0.94900 2.75200 41.78700
H  -2.10900 -2.60400 43.40400
H  3.49800 -5.15200 45.31300
H  5.61000 2.42400 42.71000
H  3.22300 3.06100 40.99100
H  4.51200 4.19000 43.29400
H  2.81900 3.71200 43.72600
H  3.18100 4.79700 42.35500
H  4.94500 2.14700 39.69000
H  5.92400 0.82200 40.34600
H  7.69700 1.96700 39.89400
H  7.11300 3.32600 40.97900
H  -2.53000 1.88800 40.66200
H  -1.14600 2.84600 40.90400
H  -2.22100 2.73700 42.27600
H  -5.21900 -1.16700 43.24500
H  -3.79400 -1.71000 44.05200
H  -4.04700 -2.28100 42.37400
H  -0.56700 -5.21900 43.46000
H  1.08700 -5.24400 46.04800
H  -1.38100 -5.43400 46.19100
H  -2.56100 -5.26000 44.86400
H  -1.92200 -3.85000 45.72100
H  2.04100 -6.45100 43.41900
H  0.48700 -7.08000 43.72000
H  1.45800 -8.64400 45.17900
H  2.15400 -7.34300 46.23400
H  2.98400 -7.95900 44.80200
H  5.95100 -5.32200 45.50700
H  6.31100 -3.98900 46.65900
H  7.52500 -4.45700 45.47100
H  7.41600 -0.71900 42.04000
H  7.36400 3.37600 44.16000
H  8.98100 2.87800 44.58000
H  7.65600 3.08400 45.82300
Mg 5.26500 54.96200 41.43200
C  4.92000 51.57000 41.77000
C  8.12600 54.48400 39.54200
C  5.27700 58.16200 40.45000
C  2.01600 55.39300 42.80600
N  6.26700 53.25000 40.59700
C  5.98000 51.96400 40.92700
C  7.09000 51.04100 40.46600
C  8.25500 51.99100 40.02000
C  7.53600 53.32000 40.07400
C  9.55600 52.07400 40.90900
C  6.50800 50.17700 39.23800
C  5.33300 50.72600 38.36300
H  5.44600 51.09600 36.86800
N  6.50800 56.17900 40.14200
C  7.67500 55.80500 39.52300
C  8.34500 56.96800 38.92500
C  7.56300 58.05100 39.40800
C  6.40200 57.51300 40.05200
C  9.66600 56.90800 38.13100
C  8.00900 59.48700 39.24800
O  9.02700 59.77600 38.64600
C  7.33100 60.56100 39.92900
N  3.79500 56.44500 41.40300
C  4.06800 57.75000 41.01300
C  2.98100 58.76800 41.42100
C  1.79000 57.84900 41.90200
C  2.60300 56.50600 42.14300
C  3.29700 59.86400 42.55000
C  0.69200 57.57900 40.82800
C  -0.62600 56.88900 41.30700
N  3.85100 53.78100 42.47100
C  2.60800 54.07200 42.90200
C  1.99100 52.89700 43.41600
C  2.89000 51.82700 43.09900
C  4.02100 52.44000 42.40400
C  0.65000 52.80900 44.03000
C  3.24200 50.38900 43.16800
O  2.72900 49.48300 43.70700
C  4.52400 50.23300 42.33500
C  4.22100 49.18200 41.37400
O  3.35000 49.20400 40.55000
O  4.95100 48.08100 41.64900
C  4.74800 46.87700 40.79700
H  9.08000 54.25400 39.06300
H  5.29700 59.19000 40.08200
H  1.02600 55.60600 43.21400
H  7.49600 50.30000 41.15400
H  8.69700 51.83300 39.03700
H  9.61300 52.88500 41.63500
H  10.46100 52.13400 40.30500
H  9.57200 51.25800 41.63200
H  6.35900 49.15800 39.59500
H  7.27500 50.16900 38.46400
H  5.01700 51.70000 38.73600
H  4.45500 50.09700 38.51200
H  9.38200 57.04400 37.08700
H  10.07700 55.91400 38.30600
H  10.43600 57.53500 38.58200
H  6.40700 60.73500 39.37800
H  7.94900 61.44600 39.77700
H  7.13600 60.27300 40.96300
H  2.76900 59.31700 40.50300
H  1.37400 58.18300 42.85200
H  2.96200 60.84800 42.22100
H  4.34000 59.94000 42.85500
H  2.69900 59.72400 43.45000
H  1.16700 56.83200 40.19200
H  0.48800 58.47800 40.24700
H  -1.37900 57.52600 40.84300
H  -0.73700 56.98900 42.38600
H  -0.76400 55.85700 40.98400
H  0.23000 53.81300 43.97600
H  0.61000 52.46000 45.06200
H  0.00600 52.08700 43.52800
H  5.39500 49.84000 42.85900
H  3.76400 46.47300 41.03200
H  5.58200 46.19000 40.94300
H  4.77000 47.00900 39.71500

