158

Mg 47.23600 35.53100 28.45900
C  45.54600 33.65500 31.10000
C  47.36900 38.08200 30.70000
C  48.03900 37.44400 25.89300
C  46.49600 32.88200 26.25200
N  46.42200 35.85100 30.71700
C  46.03900 34.88800 31.55300
C  46.24100 35.35800 33.00200
C  46.35200 36.93600 32.72600
C  46.83500 36.97000 31.36500
C  45.02700 37.64600 32.95500
C  47.39400 34.75400 33.75100
C  47.22600 34.67500 35.31100
H  46.00600 35.44900 35.90500
N  47.67300 37.49800 28.25700
C  47.77100 38.39600 29.36300
C  48.36000 39.64000 28.89100
C  48.60300 39.43800 27.49400
C  48.20000 38.09700 27.16300
C  48.68800 40.78800 29.73300
C  49.34300 40.43700 26.50500
O  49.64200 40.11200 25.41100
C  49.76200 41.82900 26.96000
N  47.19300 35.18900 26.35900
C  47.61200 36.18000 25.52400
C  47.43000 35.70000 24.05500
C  47.16200 34.24000 24.19800
C  47.00500 34.07700 25.69400
C  46.28000 36.54400 23.47300
C  48.20300 33.25000 23.60100
C  47.54500 32.15700 22.73200
N  46.37000 33.58900 28.61900
C  46.20100 32.63700 27.64900
C  45.64800 31.42600 28.26100
C  45.35100 31.76900 29.56600
C  45.73700 33.13800 29.72300
C  45.23100 30.24300 27.55000
C  44.77900 31.30200 30.85800
O  44.27000 30.20000 31.08300
C  44.84100 32.46600 31.82800
C  45.46500 31.99100 33.08200
O  46.65500 31.69800 33.20300
O  44.50900 31.66300 34.07900
C  44.99400 31.12500 35.35400
H  47.42900 39.00700 31.27700
H  48.29500 38.13600 25.08800
H  46.23700 32.03300 25.61700
H  45.38200 35.00600 33.57300
H  47.12000 37.40400 33.34300
H  45.07200 38.10900 33.94100
H  44.18200 36.95900 32.97900
H  44.97900 38.44200 32.21100
H  48.24600 35.38200 33.49200
H  47.74200 33.77200 33.43100
H  48.10700 35.19100 35.69200
H  47.20100 33.63800 35.64500
H  48.05700 41.63300 29.45700
H  49.76100 40.97700 29.76200
H  48.54800 40.63000 30.80300
H  49.06900 42.34000 27.62700
H  49.93600 42.40500 26.05100
H  50.72900 41.68800 27.44200
H  48.34700 35.97400 23.53400
H  46.23400 33.91700 23.72600
H  46.04100 37.21700 24.29500
H  45.33400 36.01700 23.34600
H  46.64300 37.01100 22.55700
H  48.76500 32.70200 24.35700
H  48.96900 33.68800 22.96100
H  46.55000 32.42700 22.37700
H  47.53100 31.20200 23.25600
H  48.15000 32.03700 21.83300
H  46.05100 29.94300 26.89800
H  44.34200 30.37300 26.93200
H  45.05300 29.36200 28.16600
H  43.78900 32.62700 32.06000
H  45.95000 31.56100 35.64500
H  45.04400 30.04700 35.50600
H  44.27800 31.49800 36.08600
Mg 40.72000 41.38000 27.83700
C  39.60100 44.12300 29.99600
C  41.32800 39.56100 30.53900
C  41.58000 39.17700 25.73300
C  40.39700 43.93200 25.26500
N  40.49600 41.83600 29.98200
C  39.90400 42.88400 30.63000
C  39.90300 42.61700 32.19900
C  40.55900 41.18800 32.38100
C  40.80200 40.77600 30.86800
C  41.71100 41.13800 33.43000
C  38.49700 42.84100 32.90700
C  38.09700 42.09100 34.21900
H  37.65500 42.83300 35.45900
N  41.29200 39.53800 28.03000
C  41.67300 38.94100 29.27300
C  42.23600 37.59900 29.00800
C  42.35000 37.52200 27.59100
C  41.70100 38.76000 27.07900
C  42.66400 36.63200 30.08700
C  42.97600 36.38500 26.82800
O  43.02900 36.42200 25.63000
C  43.56700 35.22100 27.52400
N  40.93700 41.51600 25.80800
C  41.23500 40.42400 25.12100
C  41.09800 40.65600 23.67600
C  40.54500 42.15000 23.47300
C  40.53600 42.56000 24.94700
C  42.57400 40.46100 23.10900
C  39.11200 42.13100 22.87900
C  38.12100 41.20300 23.48100
N  40.36500 43.61700 27.64000
C  40.23900 44.44900 26.53800
C  39.83800 45.76500 26.91200
C  39.50800 45.67700 28.26200
C  39.81900 44.35400 28.63600
C  39.69700 46.89900 26.03900
C  38.96000 46.44300 29.40900
O  38.50600 47.58200 29.49700
C  38.99300 45.39100 30.60200
C  39.76400 46.03600 31.73100
O  40.97800 46.29700 31.75400
O  38.80800 46.38400 32.68900
C  39.34200 47.00700 33.95700
H  41.47600 38.93800 31.42300
H  41.88000 38.50000 24.93100
H  40.27600 44.59300 24.40500
H  40.65900 43.35900 32.45400
H  39.77100 40.50500 32.69900
H  42.72400 40.93500 33.08200
H  41.55600 40.58300 34.35500
H  41.89000 42.16700 33.74100
H  37.72800 42.63100 32.16400
H  38.34800 43.87800 33.20700
H  39.01700 41.69100 34.64400
H  37.39200 41.32600 33.89200
H  42.58700 37.19700 31.01600
H  43.69000 36.27900 29.98300
H  41.99000 35.78400 30.20800
H  44.42100 35.51200 28.13500
H  44.04000 34.60500 26.75900
H  42.81300 34.64000 28.05500
H  40.45700 39.88600 23.24600
H  41.10700 42.64400 22.68100
H  42.85200 41.41600 22.66400
H  42.49400 39.67000 22.36300
H  43.30200 40.13000 23.85000
H  39.15300 41.87300 21.82100
H  38.70600 43.14000 22.95700
H  38.55300 40.77900 24.38800
H  37.57400 40.57800 22.77400
H  37.35100 41.84000 23.91600
H  38.70300 47.01600 25.60800
H  40.34700 46.94900 25.16500
H  39.81800 47.81400 26.61800
H  37.99200 45.11700 30.93800
H  39.34700 46.30100 34.78800
H  38.63900 47.77700 34.27600
H  40.36000 47.39000 33.88400

