158

Mg 0.00200 43.94800 25.80700
C  2.42000 43.51700 28.21100
C  -2.37600 42.95100 28.06400
C  -2.12800 43.94000 23.18700
C  2.59400 44.60700 23.53900
N  0.06000 43.26200 27.91700
C  1.10900 43.31400 28.69600
C  0.69800 43.24200 30.10300
C  -0.78400 42.85100 30.05400
C  -1.09000 43.00000 28.59000
C  -1.02300 41.43800 30.59300
C  1.05200 44.49200 30.98200
C  1.28000 44.32100 32.47800
H  0.98300 42.90300 33.05500
N  -2.01700 43.52600 25.60800
C  -2.83700 43.11000 26.65500
C  -4.05800 42.77900 26.12200
C  -4.04900 43.04500 24.71900
C  -2.69500 43.53500 24.40700
C  -5.16300 42.21500 27.01500
C  -5.14500 42.78200 23.67100
O  -5.04000 43.09700 22.50500
C  -6.38600 42.07300 24.06600
N  0.21100 44.38200 23.66400
C  -0.85000 44.29200 22.81800
C  -0.41800 44.59700 21.37200
C  1.13800 44.76100 21.47200
C  1.35000 44.68400 23.02100
C  -0.88800 43.57800 20.27700
C  1.64300 46.06600 20.80300
C  1.31600 47.36900 21.50800
N  2.04500 43.98000 25.80100
C  2.96100 44.26900 24.81400
C  4.36600 44.07300 25.31100
C  4.20200 43.73900 26.68200
C  2.78900 43.78500 26.91300
C  5.66000 44.32300 24.54700
C  4.84700 43.30400 27.87700
O  6.03500 42.99200 28.05100
C  3.72400 43.30800 28.98700
C  3.68700 42.03100 29.77800
O  3.61400 40.85400 29.36600
O  4.26200 42.34100 30.98500
C  4.57800 41.15700 31.83600
H  -3.15900 42.69000 28.77900
H  -2.86600 43.89200 22.38400
H  3.49700 44.87400 22.98600
H  1.35300 42.48400 30.53400
H  -1.41400 43.54100 30.61500
H  -0.14500 40.81900 30.77800
H  -1.65600 40.84400 29.93300
H  -1.55100 41.62800 31.52700
H  0.30000 45.26800 30.84300
H  1.98600 44.96500 30.67800
H  0.57200 45.03500 32.90000
H  2.32100 44.54700 32.70900
H  -5.53600 41.29000 26.57600
H  -5.97800 42.93800 27.03200
H  -4.83200 41.97000 28.02400
H  -6.21700 41.02900 24.33300
H  -6.99800 41.89500 23.18300
H  -6.86700 42.62300 24.87500
H  -0.91800 45.53600 21.13800
H  1.66900 43.89000 21.08700
H  -1.28600 44.12700 19.42400
H  -1.53100 42.76900 20.62500
H  -0.02100 43.03700 19.89700
H  1.19000 46.07600 19.81200
H  2.69700 46.10900 20.53000
H  1.19800 47.21200 22.58100
H  0.33900 47.60100 21.08500
H  1.90000 48.25500 21.25900
H  5.54400 45.36800 24.26200
H  6.00000 43.61300 23.79300
H  6.41400 44.25500 25.33100
H  3.83300 44.21000 29.59000
H  3.84500 40.36700 31.67000
H  4.29600 41.25100 32.88500
H  5.59800 40.80600 31.68100
Mg -5.31400 24.97500 26.52500
C  -3.86100 26.99600 29.02200
C  -6.52900 22.73600 28.94500
C  -6.90700 23.46700 24.04100
C  -4.20900 27.50000 24.19100
N  -5.28100 24.99500 28.67100
C  -4.61400 25.87900 29.54100
C  -4.90300 25.50600 31.02700
C  -5.65700 24.08800 30.91000
C  -5.86100 23.89300 29.38200
C  -4.81600 22.98300 31.67100
C  -5.82300 26.61400 31.73900
C  -5.49700 26.88600 33.15200
H  -6.53000 26.45400 34.18500
N  -6.41600 23.30600 26.46700
C  -6.84500 22.48500 27.54000
C  -7.64400 21.40500 27.05600
C  -7.69900 21.59000 25.61500
C  -6.92300 22.84800 25.31200
C  -8.28000 20.36500 27.80700
C  -8.46300 20.74000 24.53900
O  -8.53700 21.12300 23.37900
C  -9.14800 19.50200 24.88200
N  -5.53100 25.42100 24.43100
C  -6.25500 24.60200 23.67300
C  -6.41600 25.14900 22.21600
C  -5.76200 26.60700 22.39400
C  -5.19100 26.58400 23.81400
C  -5.63500 24.39300 21.08500
C  -6.81200 27.75200 22.19500
C  -6.55800 28.75700 21.12000
N  -4.09800 26.81900 26.48000
C  -3.70200 27.65500 25.50400
C  -2.83800 28.71400 25.99900
C  -2.91600 28.55000 27.41500
C  -3.74900 27.37100 27.65800
C  -2.13200 29.64500 25.10100
C  -2.55300 29.08300 28.68800
O  -1.90000 30.05200 28.98100
C  -3.08700 28.11500 29.80100
C  -1.99300 27.53300 30.69400
O  -1.21100 26.62000 30.49400
O  -2.09200 28.21900 31.84900
C  -1.21000 27.68600 32.89000
H  -6.79700 22.06400 29.76300
H  -7.45600 23.01300 23.21300
H  -3.93100 28.31400 23.51700
H  -3.94100 25.25800 31.47500
H  -6.60100 24.20800 31.44100
H  -5.10300 22.92600 32.72100
H  -3.74000 22.98700 31.50000
H  -5.07100 22.02500 31.21900
H  -6.88200 26.44900 31.53900
H  -5.55100 27.56900 31.29000
H  -5.32200 27.93800 33.38000
H  -4.56100 26.47500 33.53100
H  -9.36000 20.32000 27.67100
H  -7.98600 20.56900 28.83700
H  -7.89400 19.41900 27.42700
H  -9.94200 19.82000 25.55800
H  -8.36100 18.87200 25.29700
H  -9.64300 19.07900 24.00800
H  -7.47300 25.17600 21.95000
H  -4.96300 26.81100 21.68100
H  -6.13500 23.43900 20.91400
H  -4.62100 24.10600 21.36300
H  -5.68000 25.09600 20.25300
H  -6.95600 28.38100 23.07400
H  -7.78000 27.33300 21.92100
H  -6.91100 28.36700 20.16500
H  -5.51000 29.04100 21.02900
H  -7.23900 29.59000 21.29700
H  -2.55600 30.63900 25.24200
H  -2.07700 29.28000 24.07600
H  -1.11700 29.61400 25.49600
H  -3.71100 28.70300 30.47400
H  -0.13100 27.60300 32.76600
H  -1.58100 26.66500 32.98700
H  -1.44900 28.13600 33.85400

