158

Mg -2.09800 34.50300 26.50400
C  -3.36100 32.80900 29.31100
C  -0.41200 36.60100 28.54200
C  -0.91400 36.14400 23.71800
C  -4.06000 32.43000 24.46600
N  -1.97600 34.62700 28.63400
C  -2.54100 33.89500 29.63600
C  -2.14700 34.34800 30.98100
C  -1.24600 35.59200 30.75200
C  -1.26100 35.65700 29.18500
C  -1.51000 37.02500 31.43200
C  -1.60200 33.16600 31.82200
C  -0.66300 33.46200 33.06400
H  -1.08600 32.95700 34.48900
N  -0.82300 36.15300 26.16800
C  -0.14800 36.88600 27.15700
C  0.64600 37.92700 26.49700
C  0.43000 37.86400 25.13600
C  -0.45600 36.68500 24.94300
C  1.54400 38.84200 27.28200
C  0.95400 38.79800 24.01600
O  0.71000 38.64400 22.85700
C  1.78200 39.91500 24.36500
N  -2.45100 34.32500 24.43400
C  -1.83100 35.09800 23.47300
C  -2.16100 34.54700 22.05800
C  -3.19100 33.45200 22.26400
C  -3.24700 33.40600 23.82700
C  -2.49200 35.60800 20.87700
C  -2.83900 32.16800 21.45800
C  -1.81800 31.13500 22.07800
N  -3.44600 32.84700 26.75900
C  -4.09300 32.10500 25.84700
C  -4.72000 30.98800 26.56700
C  -4.48100 31.22400 27.91800
C  -3.71600 32.41400 27.99900
C  -5.49800 29.91900 25.97900
C  -4.90500 30.81500 29.26400
O  -5.58100 29.87300 29.75900
C  -4.17300 31.85500 30.22300
C  -5.30900 32.71000 30.91500
O  -6.17000 33.33500 30.37200
O  -5.11800 32.73400 32.27200
C  -6.00000 33.45000 33.18500
H  0.09200 37.29600 29.21700
H  -0.51600 36.74100 22.89500
H  -4.49600 31.69700 23.78500
H  -3.10100 34.61100 31.44000
H  -0.26100 35.39900 31.17600
H  -1.88200 37.68100 30.64500
H  -0.63500 37.41100 31.95300
H  -2.25700 36.99100 32.22600
H  -1.16900 32.31900 31.29100
H  -2.46900 32.66000 32.24700
H  -0.41600 34.52300 33.08100
H  0.25700 32.93500 32.80800
H  1.48200 38.65900 28.35500
H  1.28200 39.88200 27.08800
H  2.59500 38.70300 27.02900
H  2.09000 40.34500 23.41200
H  2.68000 39.80500 24.97300
H  1.08500 40.66600 24.73900
H  -1.23400 34.01500 21.84400
H  -4.08600 34.00100 21.97000
H  -2.86300 36.55200 21.27500
H  -3.08600 35.14400 20.09000
H  -1.52500 35.73500 20.39000
H  -2.39300 32.50100 20.52100
H  -3.81800 31.77700 21.17900
H  -1.25600 31.59800 22.88900
H  -1.11100 30.80600 21.31700
H  -2.39800 30.26900 22.39700
H  -6.52500 30.27000 25.87500
H  -5.54100 29.09500 26.69100
H  -5.05600 29.68100 25.01200
H  -3.47100 31.23400 30.77800
H  -6.87800 33.77800 32.62800
H  -5.41900 34.29300 33.55900
H  -6.21300 32.75200 33.99500
Mg -12.59100 16.80400 41.34200
C  -9.76800 14.81400 40.81600
C  -10.91000 19.43700 39.97600
C  -15.34000 18.50000 41.26100
C  -14.32100 13.75600 42.13600
N  -10.51500 17.15400 40.46200
C  -9.58900 16.11700 40.37300
C  -8.32300 16.69000 39.78200
C  -8.59000 18.25500 39.52600
C  -10.09500 18.32500 39.99000
C  -7.78000 19.29000 40.32100
C  -7.92400 15.93700 38.46100
C  -6.51800 15.28600 38.38100
H  -5.69100 15.64200 37.12200
N  -13.07200 18.75900 40.79700
C  -12.20000 19.68300 40.29000
C  -12.91300 20.95300 39.97500
C  -14.27800 20.75400 40.40500
C  -14.30800 19.30200 40.83700
C  -12.24900 22.08300 39.35300
C  -15.43000 21.69900 40.49900
O  -15.37300 22.83600 40.08000
C  -16.69200 21.35200 41.15000
N  -14.61200 16.09900 41.47000
C  -15.59300 17.14700 41.55000
C  -16.96900 16.58900 41.91200
C  -16.49000 15.11400 42.37400
C  -15.09500 14.93500 41.90500
C  -17.70800 17.44700 42.95800
C  -17.48000 14.00600 41.90200
C  -18.36200 13.23900 42.93700
N  -12.18900 14.73500 41.48900
C  -12.98400 13.62500 41.76300
C  -12.19300 12.46300 41.69300
C  -10.89100 12.83400 41.30700
C  -10.95800 14.21100 41.19800
C  -12.54200 11.07000 41.99300
C  -9.54200 12.29700 41.07200
O  -8.99500 11.18200 41.32000
C  -8.76100 13.65800 40.73800
C  -7.62500 13.83500 41.79900
O  -7.72900 13.77000 43.02500
O  -6.41200 14.17000 41.19100
C  -5.18300 14.28900 42.06000
H  -10.36700 20.30500 39.59400
H  -16.29400 19.02800 41.19800
H  -14.77500 12.82100 42.47000
H  -7.59200 16.74200 40.58900
H  -8.53500 18.46600 38.45800
H  -7.26000 19.87400 39.56100
H  -7.04400 18.86400 41.00200
H  -8.36000 20.00000 40.91000
H  -8.07600 16.62100 37.62700
H  -8.68600 15.19900 38.21000
H  -6.55700 14.19700 38.38800
H  -5.91100 15.55500 39.24500
H  -11.63300 21.85100 38.48400
H  -11.41100 22.37800 39.98400
H  -12.78300 23.01400 39.16500
H  -16.57300 20.87400 42.12300
H  -17.28600 20.69700 40.51300
H  -17.25700 22.27500 41.28400
H  -17.49200 16.52700 40.95700
H  -16.73400 15.17900 43.43400
H  -18.01500 16.79900 43.77900
H  -18.60500 17.87700 42.51300
H  -17.02100 18.22200 43.29700
H  -16.82700 13.37800 41.29600
H  -18.20000 14.49100 41.24400
H  -18.20200 12.19100 42.68600
H  -19.37500 13.63300 42.86200
H  -17.96700 13.44000 43.93300
H  -13.29600 10.81500 41.24800
H  -13.01700 11.08200 42.97300
H  -11.77300 10.30300 41.89800
H  -8.23100 13.50900 39.79800
H  -4.63900 13.35100 42.17600
H  -5.40700 14.68600 43.05000
H  -4.48100 15.01800 41.65600

