158

Mg 7.27400 3.39800 27.14600
C  8.69100 1.79800 29.90500
C  5.59800 5.55200 29.30500
C  5.55700 4.51500 24.52300
C  8.53900 0.77300 25.07700
N  7.26100 3.68800 29.35600
C  7.87800 2.92300 30.24800
C  7.56100 3.38000 31.67000
C  6.52700 4.60600 31.57200
C  6.42600 4.61500 29.99100
C  5.25500 4.26300 32.31300
C  8.88600 3.82500 32.39100
C  8.73500 4.47400 33.75700
H  9.78100 4.23600 34.88900
N  5.89100 4.89100 26.95200
C  5.40600 5.71200 27.92300
C  4.47300 6.65400 27.30500
C  4.39500 6.31900 25.89800
C  5.32800 5.23600 25.72400
C  3.80500 7.72300 28.06200
C  3.42500 6.83600 24.79300
O  3.47200 6.37000 23.65300
C  2.45700 7.96300 25.12400
N  7.18800 2.77400 25.12800
C  6.34800 3.42400 24.22600
C  6.48500 2.84600 22.73000
C  7.55300 1.71900 22.97100
C  7.79800 1.76800 24.47100
C  5.08300 2.38100 22.15800
C  8.75800 1.93000 22.09300
C  9.24500 0.68700 21.34700
N  8.42100 1.64600 27.36900
C  8.91300 0.68400 26.44300
C  9.65300 -0.30800 27.16000
C  9.59100 0.13100 28.54700
C  8.81000 1.28200 28.56900
C  10.44000 -1.46100 26.54500
C  10.02900 -0.25100 29.82900
O  10.61600 -1.23700 30.24100
C  9.47100 0.85200 30.78300
C  8.55800 0.06400 31.65000
O  7.57900 -0.53300 31.33400
O  9.06100 0.10800 32.95000
C  8.35300 -0.54300 33.95900
H  5.09800 6.23000 30.00000
H  5.17700 4.86000 23.55900
H  9.12900 0.08100 24.47300
H  7.11600 2.54700 32.21500
H  6.98300 5.54000 31.90000
H  5.24400 3.24100 32.69200
H  4.39700 4.32600 31.64400
H  5.18100 4.93500 33.16800
H  9.28900 4.52300 31.65700
H  9.65400 3.05300 32.44500
H  7.74000 4.18900 34.09800
H  8.68600 5.54700 33.57100
H  3.89400 8.69200 27.57200
H  4.14600 7.96800 29.06800
H  2.76900 7.49600 28.31100
H  1.99100 8.35700 24.22100
H  3.01100 8.78900 25.57100
H  1.67700 7.73100 25.85000
H  6.95900 3.65000 22.16800
H  7.04700 0.85800 22.53400
H  4.39700 2.36800 23.00500
H  5.05500 1.44100 21.60700
H  4.63300 3.12500 21.49900
H  9.61300 2.15700 22.73000
H  8.73900 2.76700 21.39500
H  8.55600 -0.15800 21.35200
H  10.18100 0.30100 21.75200
H  9.43200 0.96400 20.31000
H  9.70300 -2.10500 26.06400
H  10.85600 -1.92100 27.44100
H  11.15000 -1.00300 25.85700
H  10.31400 1.28100 31.32500
H  7.62300 0.18600 34.31100
H  9.08900 -0.69200 34.75000
H  7.82100 -1.45300 33.68500
Mg 49.32700 46.58700 43.42700
C  45.96900 47.22600 42.35600
C  49.14800 43.51200 42.24000
C  52.66400 46.42600 43.74900
C  49.41900 50.00300 44.42500
N  47.71600 45.51400 42.40100
C  46.38900 45.91600 42.05200
C  45.64900 44.73300 41.54300
C  46.65100 43.47400 41.58400
C  47.93300 44.19800 42.11600
C  46.32500 42.20000 42.27800
C  44.96000 45.00700 40.17700
C  45.79400 45.65000 39.00000
H  45.92400 44.89800 37.62700
N  50.79400 45.11700 43.05300
C  50.45500 43.86400 42.59200
C  51.63700 43.07600 42.68800
C  52.68100 43.86500 43.16800
C  52.08900 45.21900 43.33200
C  51.69000 41.61000 42.21100
C  54.10400 43.39200 43.41000
O  54.42800 42.27500 43.18800
C  55.14000 44.24600 44.07000
N  50.83200 48.03300 43.91200
C  52.13100 47.71900 44.07900
C  52.97400 48.95000 44.31900
C  51.90900 50.08500 44.54300
C  50.68200 49.34100 44.34500
C  53.87600 48.65500 45.51300
C  52.01700 51.22400 43.48600
C  51.74300 52.67200 44.00900
N  48.03500 48.26500 43.39300
C  48.15000 49.60000 43.87800
C  46.90300 50.34700 43.86800
C  46.07100 49.41800 43.19300
C  46.75600 48.21100 42.96000
C  46.72900 51.77900 44.26500
C  44.75100 49.32900 42.63000
O  43.83600 50.16400 42.48400
C  44.57500 47.84700 42.21000
C  43.54000 47.10600 43.08800
O  43.53900 46.95700 44.30000
O  42.44500 46.58200 42.38400
C  41.71300 45.43500 43.01000
H  49.06900 42.43800 42.06400
H  53.74900 46.34100 43.83800
H  49.28500 51.02900 44.77500
H  44.87100 44.62300 42.29800
H  46.94200 43.19600 40.57100
H  46.31700 41.42300 41.51400
H  45.37000 42.35700 42.77900
H  47.07800 41.88900 43.00300
H  44.05200 45.58400 40.35200
H  44.54700 44.12400 39.69000
H  46.81800 45.73300 39.36500
H  45.31700 46.59700 38.74900
H  52.25500 41.50800 41.28500
H  50.73200 41.26900 41.81800
H  52.01900 40.91500 42.98300
H  54.66700 44.67200 44.95500
H  55.52600 45.00600 43.39100
H  55.97400 43.58600 44.30700
H  53.64500 49.10400 43.47400
H  51.96900 50.48900 45.55400
H  54.87000 49.04600 45.29400
H  54.18000 47.63300 45.73900
H  53.51200 49.17100 46.40100
H  51.25300 51.04500 42.72900
H  52.96300 51.05900 42.97000
H  51.09200 53.14000 43.27100
H  52.62500 53.31000 43.95100
H  51.42400 52.74300 45.04900
H  45.68600 52.09200 44.21100
H  47.30000 52.33000 43.51700
H  46.83400 52.07400 45.30900
H  44.13200 47.77700 41.21700
H  42.22700 45.01600 43.87500
H  41.47300 44.71100 42.23200
H  40.72800 45.73200 43.37100

