158

Mg 41.41500 8.81100 30.33800
C  43.25600 10.01700 32.92500
C  39.01300 7.69400 32.54800
C  39.82800 7.27700 27.79900
C  44.21300 9.43600 28.22300
N  41.32100 8.61000 32.50200
C  42.05600 9.41500 33.31900
C  41.34200 9.72900 34.62200
C  40.11900 8.70800 34.59900
C  40.16200 8.30000 33.10000
C  40.24300 7.50200 35.54200
C  40.98900 11.20800 34.72200
C  40.31100 11.59300 35.98700
H  41.02600 12.03000 37.31500
N  39.57900 7.85500 30.14600
C  38.78800 7.44900 31.18800
C  37.64500 6.76500 30.61600
C  37.71400 6.85700 29.22900
C  39.05600 7.32200 28.99500
C  36.53700 6.28000 31.57000
C  36.70700 6.37500 28.18100
O  36.92500 6.29900 26.97000
C  35.32500 5.96900 28.70600
N  41.97200 8.37300 28.30200
C  41.10200 7.68600 27.50000
C  41.85600 7.60400 26.08700
C  43.08600 8.47800 26.25700
C  43.09600 8.79200 27.67300
C  42.19900 6.11500 25.79700
C  43.20900 9.58700 25.20200
C  42.50500 10.95500 25.41700
N  43.41500 9.57700 30.48500
C  44.44400 9.87800 29.58200
C  45.47300 10.58500 30.25100
C  45.11500 10.64000 31.62300
C  43.85200 9.97400 31.70200
C  46.75300 11.09200 29.56700
C  45.49300 11.07400 32.89100
O  46.45400 11.66200 33.38900
C  44.32500 10.67000 33.82700
C  44.76300 9.52900 34.76400
O  44.49900 8.30800 34.68900
O  45.57700 10.14600 35.66900
C  45.78700 9.19400 36.74000
H  38.30900 7.55800 33.37200
H  39.32600 6.79900 26.95500
H  45.10600 9.82300 27.72900
H  42.08200 9.52900 35.39700
H  39.11600 9.08200 34.80500
H  39.60800 7.57700 36.42500
H  41.29100 7.38200 35.81700
H  39.82100 6.61700 35.06600
H  40.43700 11.47500 33.82100
H  41.86700 11.85200 34.66700
H  39.76600 10.69500 36.27700
H  39.46300 12.24500 35.77400
H  36.07100 7.22300 31.85700
H  36.95100 5.84200 32.47800
H  35.87000 5.55600 31.10100
H  34.63600 5.95800 27.86200
H  35.00500 6.76000 29.38400
H  35.40000 4.98800 29.17400
H  41.29500 7.99100 25.23700
H  44.00200 7.88700 26.27500
H  41.89800 6.06300 24.75100
H  41.84700 5.44900 26.58500
H  43.26900 5.92600 25.70700
H  42.93100 9.33900 24.17800
H  44.26700 9.84400 25.15400
H  43.22700 11.76600 25.32200
H  42.03400 10.96100 26.40000
H  41.74200 11.12300 24.65600
H  46.56800 11.22000 28.50100
H  47.58400 10.39000 29.63200
H  47.06300 12.08900 29.88300
H  43.93200 11.56000 34.31700
H  44.92300 8.91100 37.34000
H  46.50700 9.68900 37.39300
H  46.25300 8.30700 36.31100
Mg -12.58200 37.30800 42.29900
C  -10.11400 34.86000 41.49700
C  -10.66500 39.58700 40.60000
C  -15.26100 39.29000 42.24500
C  -14.55800 34.65200 43.55500
N  -10.60900 37.21400 41.17100
C  -9.84700 36.09700 40.92300
C  -8.48500 36.53200 40.35100
C  -8.52800 38.11400 40.29200
C  -10.04100 38.28100 40.64000
C  -7.57200 38.92200 41.25200
C  -8.28600 35.81600 39.03900
C  -6.96000 35.01500 38.84400
H  -6.04700 35.57100 37.79400
N  -12.96500 39.22900 41.62400
C  -12.00400 40.00100 40.89700
C  -12.59700 41.26800 40.61100
C  -13.93800 41.10100 40.97500
C  -14.13600 39.84600 41.68400
C  -11.87700 42.34200 39.88900
C  -14.91100 42.08900 40.60800
O  -14.62700 43.08600 39.95100
C  -16.36600 41.97100 40.85300
N  -14.63200 37.00600 42.76300
C  -15.50700 37.99900 42.79700
C  -16.92700 37.47800 43.25800
C  -16.59200 36.05600 43.83100
C  -15.15400 35.85800 43.36200
C  -17.68000 38.35700 44.26700
C  -17.53300 34.84500 43.46100
C  -17.79900 33.85400 44.60700
N  -12.38200 35.22100 42.56300
C  -13.22900 34.29900 43.19500
C  -12.62700 32.99400 43.30700
C  -11.38000 33.18800 42.62200
C  -11.30900 34.51200 42.18400
C  -13.22900 31.71200 43.87000
C  -10.26300 32.49000 42.16900
O  -10.00100 31.26000 42.32000
C  -9.32400 33.54600 41.46600
C  -7.98200 33.51800 42.12300
O  -7.08900 32.83900 41.73100
O  -8.03200 34.33300 43.29500
C  -6.75700 34.66100 43.86200
H  -10.02300 40.28500 40.05700
H  -16.12400 39.95900 42.27700
H  -15.07200 33.85900 44.10100
H  -7.80500 36.19500 41.13400
H  -8.46300 38.50200 39.27600
H  -8.17500 39.39100 42.03000
H  -7.07800 39.63100 40.58900
H  -6.86100 38.26900 41.75700
H  -8.29800 36.55300 38.23600
H  -9.04300 35.07700 38.77800
H  -7.09200 33.95100 38.64700
H  -6.43400 34.98900 39.79800
H  -12.03700 43.35600 40.25500
H  -12.12600 42.29400 38.82800
H  -10.79000 42.26400 39.89500
H  -16.71600 40.98100 40.56000
H  -16.95000 42.77200 40.39800
H  -16.53200 41.93700 41.92900
H  -17.57200 37.34200 42.38900
H  -16.33100 36.07000 44.88900
H  -18.59900 38.78400 43.86500
H  -16.92200 39.13000 44.39300
H  -18.01400 37.75400 45.11100
H  -17.08400 34.31500 42.62100
H  -18.44500 35.31800 43.09800
H  -17.16900 34.04200 45.47700
H  -17.63600 32.86600 44.17800
H  -18.85200 33.93500 44.87900
H  -12.72700 30.92100 43.31300
H  -14.28100 31.84200 43.61800
H  -13.03200 31.55700 44.93100
H  -9.05300 33.25100 40.45200
H  -6.53300 35.72600 43.80600
H  -5.90400 34.23900 43.33000
H  -6.77500 34.22900 44.86300

