158

Mg 47.13000 16.27100 27.05100
C  45.05000 15.88300 29.84900
C  49.43600 17.87000 29.10400
C  48.86900 17.13600 24.30300
C  44.72700 14.85600 24.98800
N  47.21300 16.85300 29.26600
C  46.26200 16.51200 30.22200
C  46.78300 16.90100 31.63500
C  48.09500 17.68100 31.29800
C  48.33000 17.40700 29.81000
C  47.98200 19.17100 31.63700
C  46.93300 15.66400 32.60100
C  46.15400 15.71900 33.92800
H  45.98900 17.15200 34.53200
N  48.97400 17.18700 26.75200
C  49.85400 17.68600 27.72700
C  51.07200 18.11800 27.11300
C  50.92800 17.87400 25.75000
C  49.51600 17.36700 25.49900
C  52.25100 18.67500 27.84700
C  51.91000 18.20700 24.61400
O  51.69600 17.90800 23.46300
C  53.09700 19.01300 24.81000
N  46.79200 16.09600 24.97600
C  47.64200 16.56700 24.09400
C  47.13600 16.35300 22.70900
C  46.06400 15.35600 22.87400
C  45.82200 15.39800 24.35100
C  46.80600 17.69100 21.91900
C  46.13700 13.90500 22.23600
C  44.76600 13.21900 21.94500
N  45.32100 15.50100 27.34000
C  44.49000 14.86600 26.37800
C  43.28900 14.31000 27.09200
C  43.50700 14.79300 28.43500
C  44.73600 15.43100 28.55800
C  41.91800 13.66600 26.66000
C  42.87400 14.66200 29.75000
O  41.75900 14.27000 30.13500
C  43.86900 15.40200 30.73900
C  43.05500 16.43000 31.43400
O  42.49900 17.39400 30.97500
O  43.10400 16.20700 32.82900
C  42.14900 17.05500 33.49700
H  50.16600 18.30300 29.79000
H  49.30700 17.46000 23.35700
H  44.00700 14.33000 24.35800
H  45.89800 17.45100 31.95400
H  48.87800 17.24800 31.92000
H  47.11700 19.20400 32.30000
H  47.90700 19.78800 30.74300
H  48.82100 19.38400 32.29900
H  47.95800 15.34700 32.79500
H  46.51800 14.74100 32.19800
H  46.79200 15.14300 34.59800
H  45.17900 15.24200 33.83300
H  52.44500 19.59700 27.29800
H  53.10600 18.00000 27.88300
H  51.88900 18.99200 28.82500
H  52.90900 20.00000 25.23300
H  53.52800 19.07200 23.81000
H  53.89600 18.55700 25.39400
H  47.90400 15.84700 22.12500
H  45.12700 15.75600 22.48300
H  45.78900 17.74800 21.53100
H  47.41300 17.75900 21.01700
H  46.99600 18.57000 22.53500
H  46.63100 13.28600 22.98500
H  46.83500 13.96100 21.40100
H  44.85100 12.94000 20.89500
H  43.94100 13.87600 22.22000
H  44.69300 12.28500 22.50200
H  42.01700 12.58200 26.59300
H  41.65400 13.97600 25.64900
H  41.22700 14.00200 27.43200
H  44.20900 14.76000 31.55200
H  41.17300 16.57500 33.43600
H  41.95700 18.08500 33.19600
H  42.38400 17.06900 34.56100
Mg 47.17000 24.69000 27.62900
C  47.92600 26.92200 30.19000
C  46.15400 22.53500 29.90400
C  46.55700 22.58100 25.06300
C  48.78900 26.82100 25.36600
N  47.25400 24.63300 29.93500
C  47.44300 25.72600 30.71000
C  46.93700 25.44900 32.14000
C  46.35100 23.99800 31.92900
C  46.58000 23.67000 30.53000
C  46.91900 22.91100 32.96800
C  46.10000 26.44700 32.83500
C  45.07100 25.95400 33.84600
H  44.79200 26.97700 34.91000
N  46.34600 22.81200 27.51100
C  46.10200 22.07300 28.56500
C  45.48600 20.82800 28.07800
C  45.54900 20.88600 26.70900
C  46.15800 22.09500 26.32500
C  44.85800 19.77100 29.01000
C  44.97900 19.91400 25.66600
O  44.95700 20.14000 24.42100
C  44.39900 18.61700 26.09500
N  47.70800 24.55700 25.57900
C  47.31600 23.61400 24.66000
C  47.72200 23.91800 23.16700
C  48.12900 25.39600 23.32500
C  48.28900 25.57400 24.85500
C  48.90000 23.08200 22.55200
C  47.04100 26.30600 22.72100
C  47.35100 27.79700 22.63700
N  48.16100 26.43500 27.70100
C  48.73000 27.20300 26.73700
C  49.10600 28.53700 27.30700
C  48.77300 28.46500 28.65500
C  48.25000 27.11500 28.84200
C  49.75600 29.73300 26.60400
C  48.76300 29.19400 29.86800
O  49.15900 30.33800 30.06100
C  48.15500 28.20900 30.95500
C  49.23800 28.16500 32.01200
O  50.38100 27.62800 31.95400
O  48.67200 28.59500 33.19700
C  49.51000 28.63300 34.37700
H  45.62100 21.87300 30.59000
H  46.33600 21.99200 24.17000
H  49.35300 27.47400 24.69700
H  47.85500 25.44500 32.72700
H  45.28900 23.99600 32.17700
H  46.17600 22.55700 33.68300
H  47.79300 23.36500 33.43500
H  47.17400 22.02700 32.38400
H  45.62500 26.94600 31.99000
H  46.80700 27.11800 33.32300
H  45.35400 25.00400 34.29900
H  44.12400 25.92800 33.30600
H  43.78600 19.86400 28.83600
H  45.20900 19.86200 30.03800
H  45.19500 18.77400 28.72700
H  43.56000 18.85900 26.74800
H  45.17500 18.07800 26.63800
H  44.11200 18.09800 25.18000
H  46.80400 23.80400 22.59100
H  49.10900 25.50600 22.86300
H  49.10000 22.16600 23.10800
H  49.86700 23.57600 22.64500
H  48.64900 22.95600 21.49900
H  46.28200 26.37800 23.50100
H  46.64700 25.95700 21.76600
H  47.28500 28.15100 23.66500
H  46.81600 28.37500 21.88300
H  48.43200 27.89100 22.53100
H  49.50900 29.74500 25.54200
H  50.82900 29.68800 26.78800
H  49.27800 30.61200 27.03500
H  47.25400 28.62300 31.40800
H  48.94200 28.07500 35.12100
H  49.69000 29.68700 34.59100
H  50.41400 28.02900 34.29000

