158

Mg 43.79200 4.51400 47.85600
C  41.62900 7.20000 47.23100
C  41.26000 2.36900 47.52600
C  46.05000 2.11600 47.65100
C  46.54100 6.91200 47.82400
N  41.68300 4.70100 47.36000
C  41.01800 5.90200 47.23400
C  39.48700 5.65500 47.10600
C  39.31200 4.11000 47.40100
C  40.77800 3.71300 47.61600
C  38.36300 3.70300 48.58400
C  39.05500 6.06700 45.64300
C  37.82900 6.93600 45.45900
H  37.10900 6.85000 44.11800
N  43.64900 2.51000 47.58100
C  42.51800 1.82400 47.53900
C  42.83100 0.38900 47.55300
C  44.26600 0.27300 47.41800
C  44.74000 1.67600 47.54700
C  41.70400 -0.63200 47.62200
C  45.01800 -1.04500 47.30900
O  44.45000 -2.12400 47.31100
C  46.50400 -1.00800 47.08600
N  45.94200 4.49600 47.66500
C  46.58000 3.34000 47.76800
C  48.14600 3.54300 47.84100
C  48.31100 5.11300 47.75000
C  46.81800 5.55400 47.74700
C  48.81900 2.87300 49.10100
C  49.01000 5.62900 46.47000
C  50.42200 6.07500 46.63000
N  44.07900 6.65400 47.73600
C  45.24000 7.47100 47.66500
C  44.78100 8.86800 47.53300
C  43.38600 8.86100 47.49200
C  42.98900 7.46800 47.44200
C  45.67200 10.04700 47.29900
C  42.16900 9.61700 47.31300
O  42.07000 10.84900 47.33000
C  40.96600 8.52800 47.06900
C  39.92100 8.81400 48.05900
O  39.89900 8.40400 49.18100
O  38.84000 9.49500 47.46000
C  37.72500 9.82800 48.38400
H  40.42300 1.66900 47.49000
H  46.86400 1.39300 47.73300
H  47.33400 7.66200 47.85000
H  38.99400 6.26500 47.86300
H  38.92900 3.62200 46.50400
H  37.61900 2.96000 48.29700
H  37.73900 4.53700 48.90500
H  38.94500 3.37400 49.44500
H  38.75100 5.15200 45.13600
H  39.88300 6.52400 45.10200
H  38.19200 7.96300 45.41700
H  37.12400 6.78000 46.27500
H  40.83200 -0.31300 48.19300
H  42.21000 -1.40300 48.20400
H  41.35200 -1.10400 46.70500
H  46.86800 -0.40100 46.25800
H  46.85500 -1.99000 46.76900
H  47.09000 -0.78300 47.97800
H  48.58400 3.17200 46.91400
H  48.63600 5.64600 48.64300
H  49.59100 2.13200 48.89400
H  48.03100 2.51400 49.76300
H  49.29500 3.70900 49.61400
H  48.42900 6.40900 45.97700
H  49.03700 4.86500 45.69200
H  50.83800 5.78200 45.66500
H  50.97900 5.55000 47.40600
H  50.60600 7.13700 46.79100
H  46.37500 9.83100 46.49400
H  46.16900 10.34600 48.22200
H  44.95000 10.83100 47.07100
H  40.41100 8.74500 46.15700
H  37.61300 9.02800 49.11600
H  36.80300 10.18100 47.92200
H  38.10500 10.70000 48.91500
Mg 17.25900 52.61900 25.68300
C  18.58600 51.08000 28.59000
C  14.72400 53.89300 27.68900
C  15.73600 53.64800 22.87900
C  19.68300 50.97800 23.76400
N  16.70800 52.44200 27.93900
C  17.42300 51.81600 28.92600
C  16.75800 51.95100 30.26400
C  15.44500 52.70400 29.90900
C  15.60400 53.01000 28.38800
C  14.05500 51.99900 30.37200
C  17.61100 52.53800 31.37500
C  17.69800 51.88800 32.80100
H  16.45900 51.00100 33.09900
N  15.52800 53.54000 25.36300
C  14.56100 53.92800 26.33400
C  13.43700 54.65200 25.64900
C  13.71500 54.56600 24.26300
C  15.01200 53.82600 24.09700
C  12.29700 55.30900 26.44200
C  13.00900 55.20900 23.16800
O  13.41100 55.11600 22.01100
C  11.82700 56.07900 23.49500
N  17.56900 52.16500 23.59300
C  16.91600 52.88200 22.70700
C  17.56800 52.87400 21.27500
C  18.80300 51.96700 21.60600
C  18.68600 51.65400 23.06900
C  16.72000 52.25500 20.13300
C  20.18100 52.66600 21.18500
C  21.43800 51.82100 20.95000
N  18.89500 51.36200 26.08000
C  19.78700 50.79500 25.18700
C  20.79200 49.95400 25.95200
C  20.33600 50.02300 27.28300
C  19.19400 50.90200 27.27900
C  21.93600 49.20500 25.30900
C  20.58200 49.56900 28.66500
O  21.43800 48.80200 29.08100
C  19.47500 50.29800 29.58100
C  18.83900 49.17300 30.37500
O  17.88100 48.47500 30.04500
O  19.54700 49.01700 31.56300
C  19.13800 47.88700 32.37200
H  13.98500 54.42700 28.28900
H  15.23500 53.93800 21.95300
H  20.54300 50.58400 23.21900
H  16.48100 50.91000 30.43400
H  15.30700 53.69000 30.35300
H  14.32200 51.02300 30.77600
H  13.42100 51.85900 29.49700
H  13.54600 52.54700 31.16500
H  17.08800 53.47700 31.55300
H  18.63400 52.77700 31.08500
H  17.82000 52.61200 33.60600
H  18.55700 51.22300 32.88800
H  11.28600 55.04800 26.12800
H  12.29700 56.39600 26.36300
H  12.44900 55.21600 27.51700
H  11.04500 55.46400 23.94100
H  11.41100 56.48800 22.57400
H  12.09700 56.92000 24.13200
H  17.71700 53.91700 20.99500
H  18.83800 50.94400 21.22900
H  16.02500 51.46300 20.41400
H  17.32800 51.78300 19.36100
H  16.00300 52.99200 19.77100
H  20.58600 53.22000 22.03200
H  19.94300 53.35800 20.37700
H  21.74100 51.98700 19.91600
H  21.31400 50.73900 20.99500
H  22.22300 52.10800 21.64900
H  22.16700 48.24900 25.78000
H  22.85800 49.69700 25.62100
H  21.93800 49.16800 24.22000
H  19.96700 51.01900 30.23300
H  18.10800 47.87500 32.72900
H  19.93500 47.89800 33.11500
H  19.37900 47.09100 31.66700

