158

Mg 0.62900 43.10100 24.95000
C  2.60300 42.77900 27.91200
C  -1.97800 41.99300 26.61900
C  -0.89900 42.91400 21.98100
C  3.67300 43.85200 23.25700
N  0.35300 42.65100 27.04100
C  1.23500 42.72000 28.11500
C  0.47200 42.60300 29.43400
C  -0.94800 42.14700 28.96600
C  -0.89200 42.25300 27.45900
C  -1.35600 40.73500 29.55200
C  0.57500 43.90400 30.33200
C  0.95500 43.54700 31.82600
H  0.58000 42.18000 32.40100
N  -1.27200 42.44300 24.38200
C  -2.21800 42.06800 25.21500
C  -3.40400 41.80700 24.42800
C  -3.12200 42.22400 23.09200
C  -1.70700 42.55600 23.09800
C  -4.61000 41.12100 24.97900
C  -4.00500 42.31400 21.86200
O  -3.64800 42.76800 20.79400
C  -5.46800 41.84000 22.00100
N  1.30200 43.31500 22.97900
C  0.44500 43.23100 21.95100
C  1.05600 43.79100 20.60600
C  2.47300 44.16000 21.08800
C  2.48600 43.76600 22.52200
C  0.96000 42.70800 19.48900
C  2.88900 45.66500 20.82600
C  4.37200 45.94100 20.47200
N  2.77400 43.23900 25.48500
C  3.85400 43.49700 24.64600
C  5.08300 43.43200 25.43200
C  4.63400 43.06800 26.74800
C  3.22000 42.98700 26.68800
C  6.47300 43.76000 25.05000
C  5.07200 42.79600 28.08600
O  6.24500 42.75200 28.53200
C  3.72600 42.76400 28.89000
C  3.87200 41.50700 29.68500
O  3.60900 40.36400 29.28300
O  4.23800 41.85800 30.95400
C  4.41700 40.68500 31.83600
H  -2.87100 41.69300 27.17200
H  -1.28000 43.00000 20.96100
H  4.57400 43.94000 22.64600
H  1.01200 41.80000 29.93500
H  -1.60800 42.90600 29.38600
H  -2.03100 40.96300 30.37700
H  -0.42600 40.30500 29.92300
H  -1.86300 40.10400 28.82200
H  -0.31300 44.53100 30.25600
H  1.44900 44.43500 29.95400
H  0.61500 44.29900 32.53800
H  2.03900 43.45700 31.89400
H  -5.55600 41.66000 25.01100
H  -4.47900 40.93600 26.04600
H  -4.72400 40.14800 24.50200
H  -5.43200 40.75000 22.02500
H  -6.02200 42.18700 21.12900
H  -5.93400 42.24600 22.89900
H  0.63100 44.75400 20.32300
H  3.22500 43.51400 20.63500
H  1.90000 42.18500 19.31200
H  0.78800 43.22200 18.54300
H  0.22800 41.93100 19.70600
H  2.72400 46.10600 21.80900
H  2.24800 46.08800 20.05100
H  4.83300 46.46900 21.30700
H  4.50300 46.53200 19.56500
H  4.88200 44.98600 20.34100
H  6.52200 44.27700 24.09200
H  7.12300 42.88600 25.07300
H  6.80700 44.43000 25.84300
H  3.64200 43.59600 29.58900
H  3.65200 39.90900 31.83700
H  4.42400 41.07800 32.85300
H  5.32600 40.09700 31.71000
Mg -11.70100 16.68300 41.30500
C  -8.86600 14.86800 40.83900
C  -10.28300 19.38200 39.73700
C  -14.79200 18.17000 41.27600
C  -13.40200 13.73300 42.26100
N  -9.88200 16.92300 40.09700
C  -8.76300 16.13800 40.27800
C  -7.47600 16.76600 39.70000
C  -8.02200 18.18300 39.26500
C  -9.50500 18.23400 39.82400
C  -7.09500 19.41300 39.76600
C  -6.87000 15.98400 38.45600
C  -5.44800 16.36200 38.20400
H  -5.18400 16.81300 36.79400
N  -12.37900 18.63100 40.75900
C  -11.66000 19.53600 40.08800
C  -12.46600 20.69900 39.78800
C  -13.74500 20.49500 40.43200
C  -13.72500 19.05000 40.87300
C  -11.98500 21.90900 38.91200
C  -14.84300 21.49900 40.41400
O  -14.72100 22.59400 39.86200
C  -16.26500 21.22600 41.02100
N  -13.78400 16.04700 41.51200
C  -14.89600 16.86600 41.47200
C  -16.16600 16.12300 41.76600
C  -15.75400 14.69000 42.13200
C  -14.21600 14.79500 41.99700
C  -17.17200 16.82800 42.70700
C  -16.47600 13.57000 41.40800
C  -17.44100 12.54900 42.21900
N  -11.23300 14.63400 41.55200
C  -12.00000 13.61700 42.08500
C  -11.09800 12.49400 42.24500
C  -9.87800 12.94900 41.80800
C  -9.99800 14.26000 41.35900
C  -11.54100 11.10900 42.65900
C  -8.47100 12.49900 41.54600
O  -7.94200 11.40600 41.61100
C  -7.75700 13.77400 40.97000
C  -6.79200 14.20100 42.05700
O  -7.06300 14.80400 43.04600
O  -5.46600 13.92000 41.76300
C  -4.56900 14.05200 42.86400
H  -9.79400 20.15600 39.14200
H  -15.76800 18.64400 41.40100
H  -13.80800 12.77900 42.60500
H  -6.73200 16.93400 40.47900
H  -7.99500 18.39500 38.19600
H  -7.18300 20.18200 38.99800
H  -6.11100 18.98300 39.95200
H  -7.54800 19.98000 40.58000
H  -7.55600 16.24200 37.64900
H  -7.01300 14.91300 38.59600
H  -4.87600 15.45200 38.38800
H  -5.11300 17.09900 38.93300
H  -12.19400 22.85400 39.41300
H  -12.62300 21.85900 38.03000
H  -10.90700 21.98000 38.76700
H  -16.78200 22.18400 40.97200
H  -16.13000 20.93100 42.06200
H  -16.81000 20.47500 40.44800
H  -16.59400 16.10500 40.76400
H  -16.00600 14.52000 43.17900
H  -16.78500 17.79600 43.02700
H  -17.59800 16.18000 43.47300
H  -18.12700 17.02000 42.21900
H  -15.75600 13.20000 40.67800
H  -17.20200 14.08400 40.77800
H  -18.48300 12.70500 41.93800
H  -17.18500 12.59500 43.27700
H  -17.13700 11.57500 41.83500
H  -11.89100 10.64400 41.73700
H  -12.28000 11.01200 43.45400
H  -10.66700 10.65400 43.12500
H  -7.18800 13.42800 40.10600
H  -4.44900 15.12800 42.98800
H  -3.57200 13.73200 42.56100
H  -4.85900 13.55300 43.78800

