158

Mg 17.06300 -1.15500 27.68400
C  16.32500 1.12000 30.34200
C  18.74400 -3.19600 29.87600
C  17.91700 -2.93500 24.99800
C  15.34700 1.18600 25.57900
N  17.43800 -1.03800 29.88400
C  17.11700 0.01300 30.69500
C  17.66800 -0.34600 32.10500
C  18.58800 -1.62200 31.91200
C  18.22000 -2.01400 30.47700
C  20.07100 -1.33400 32.29600
C  16.58500 -0.35000 33.21400
C  16.91600 0.26100 34.57000
H  18.42900 0.44700 34.98700
N  18.28400 -2.80400 27.49800
C  18.79700 -3.53300 28.50200
C  19.41200 -4.73400 27.91900
C  19.19400 -4.74200 26.47400
C  18.44400 -3.45400 26.25800
C  20.12100 -5.70000 28.79300
C  19.56400 -5.67600 25.36100
O  19.23300 -5.45200 24.16500
C  20.27800 -7.05300 25.68000
N  16.83800 -0.82200 25.57500
C  17.27600 -1.70400 24.62600
C  17.05500 -1.20200 23.19700
C  16.11900 0.10100 23.38400
C  15.98000 0.11200 24.92200
C  18.35600 -0.97900 22.45400
C  14.64700 0.00900 22.73000
C  14.41700 1.06800 21.55100
N  15.98000 0.74300 27.86500
C  15.28200 1.49700 26.99800
C  14.64400 2.60500 27.57700
C  15.09000 2.54500 28.91100
C  15.85900 1.37200 29.05000
C  13.72000 3.70000 26.97400
C  15.03600 3.22500 30.19900
O  14.60800 4.33000 30.45400
C  15.72800 2.24500 31.23100
C  16.66700 3.03600 32.05400
O  17.78400 3.39300 31.74500
O  16.07500 3.43200 33.20400
C  16.90500 4.28200 34.08100
H  19.21800 -3.88500 30.57800
H  18.10700 -3.41200 24.03400
H  14.83200 1.88800 24.92000
H  18.25000 0.56400 32.24600
H  18.32200 -2.38400 32.64500
H  20.32900 -0.29700 32.51100
H  20.67300 -1.51000 31.40400
H  20.30500 -2.07900 33.05600
H  16.38400 -1.38300 33.49900
H  15.62400 0.07600 32.92400
H  16.44300 -0.37200 35.32100
H  16.35100 1.19200 34.51400
H  20.48400 -6.51500 28.16700
H  19.56300 -6.10400 29.63700
H  21.01200 -5.18700 29.15500
H  20.06000 -7.61500 26.58800
H  21.33800 -6.80000 25.65000
H  19.99400 -7.74000 24.88400
H  16.46800 -2.04100 22.82400
H  16.66900 0.98900 23.07300
H  18.18000 -0.04400 21.92100
H  18.42500 -1.82600 21.77200
H  19.11800 -0.93800 23.23200
H  13.92600 0.11700 23.54000
H  14.42300 -0.97300 22.31400
H  14.21100 0.54400 20.61800
H  15.16500 1.85900 21.49500
H  13.53600 1.61500 21.88900
H  12.72500 3.44500 26.60800
H  14.31800 4.02400 26.12200
H  13.63800 4.52200 27.68500
H  14.88100 1.91900 31.83600
H  16.24600 4.56800 34.90100
H  17.20600 5.28000 33.76000
H  17.80300 3.83900 34.51100
Mg -12.77100 38.88600 41.84700
C  -10.67200 35.97300 41.47800
C  -10.07200 40.72400 40.71600
C  -14.68100 41.65000 42.19200
C  -15.43800 36.84200 42.20900
N  -10.66700 38.35700 40.90900
C  -10.04100 37.13000 40.94600
C  -8.59700 37.24100 40.45300
C  -8.39000 38.74400 40.40500
C  -9.75900 39.33800 40.71300
C  -7.39300 39.29000 41.40700
C  -8.54600 36.59000 39.00200
C  -7.46700 35.51300 38.83500
H  -7.14000 34.85700 37.43200
N  -12.41600 40.91400 41.47100
C  -11.28300 41.47900 40.98200
C  -11.45100 42.91100 40.97300
C  -12.74400 43.23100 41.47100
C  -13.39000 41.92200 41.69400
C  -10.37700 43.83200 40.50600
C  -13.23500 44.66900 41.76700
O  -12.53800 45.64000 41.45400
C  -14.54500 44.97400 42.38700
N  -14.76100 39.21200 42.13500
C  -15.29600 40.37800 42.55500
C  -16.72300 40.19900 43.16500
C  -17.04800 38.66800 42.82600
C  -15.65900 38.18000 42.38100
C  -16.82600 40.73000 44.64200
C  -18.16000 38.52600 41.68400
C  -17.74500 38.62100 40.19400
N  -13.04900 36.83200 41.82300
C  -14.21700 36.15500 42.00200
C  -13.96700 34.70700 42.17800
C  -12.56600 34.59700 41.98600
C  -12.02200 35.91000 41.75700
C  -14.97700 33.67700 42.48600
C  -11.45200 33.69200 41.98900
O  -11.36400 32.55500 42.38200
C  -10.08700 34.54800 41.64100
C  -9.17200 34.40000 42.72000
O  -9.35300 34.61100 43.86200
O  -8.06500 33.73500 42.17400
C  -6.93300 33.66900 43.08300
H  -9.13900 41.23400 40.46600
H  -15.39500 42.45500 42.37600
H  -16.29700 36.19300 42.39100
H  -7.91700 36.68400 41.09800
H  -8.12900 39.06700 39.39700
H  -7.86600 39.77500 42.26100
H  -6.78500 40.00000 40.84700
H  -6.71100 38.52300 41.77400
H  -8.45100 37.24000 38.13200
H  -9.55000 36.17800 38.90600
H  -7.82400 34.70400 39.47300
H  -6.56100 35.90300 39.29800
H  -10.20900 44.68300 41.16700
H  -10.63100 44.19700 39.51100
H  -9.44300 43.28900 40.36500
H  -14.77000 44.45700 43.31900
H  -15.25900 44.79600 41.58300
H  -14.57900 45.99400 42.77000
H  -17.45400 40.80600 42.63100
H  -17.30900 38.08600 43.70900
H  -16.91900 39.86400 45.29700
H  -17.53800 41.52000 44.88300
H  -15.84300 41.18400 44.76400
H  -18.94700 39.27400 41.78600
H  -18.65300 37.56000 41.79100
H  -17.71800 37.59200 39.83700
H  -16.85800 39.19500 39.92700
H  -18.49600 39.11800 39.57900
H  -15.62300 33.93200 43.32600
H  -14.64500 32.69000 42.81000
H  -15.68500 33.34700 41.72500
H  -9.71100 34.16200 40.69400
H  -6.49000 32.67400 43.02800
H  -7.09800 33.87200 44.14100
H  -6.19400 34.42100 42.80500

