158

Mg 56.42000 24.89700 44.74900
C  53.70000 26.92700 43.57100
C  54.81000 22.23800 43.42500
C  59.16000 23.25700 45.05100
C  58.12500 27.97900 45.47900
N  54.56800 24.64000 43.53300
C  53.58200 25.58000 43.17800
C  52.28000 24.87400 42.93600
C  52.57500 23.43400 43.29500
C  54.10100 23.43500 43.42000
C  51.88700 22.79100 44.57200
C  51.92500 25.00100 41.46000
C  50.58400 24.47500 41.03600
H  50.68000 23.24900 40.10800
N  56.90400 22.98400 44.28600
C  56.14400 21.99300 43.69400
C  56.87200 20.70500 43.69300
C  58.08600 20.92000 44.41400
C  58.15300 22.43700 44.61100
C  56.36000 19.44600 43.03000
C  59.23500 19.98800 44.62100
O  59.08800 18.76300 44.34000
C  60.47700 20.39600 45.20700
N  58.41300 25.57600 45.12000
C  59.34300 24.64100 45.17500
C  60.72000 25.29900 45.50700
C  60.40200 26.85300 45.57900
C  58.88900 26.82900 45.34500
C  61.32400 24.84700 46.81900
C  61.20000 27.71100 44.51100
C  62.42400 28.56100 45.01700
N  55.98100 26.96200 44.69000
C  56.75200 28.05900 45.18100
C  55.87000 29.21300 45.16800
C  54.67800 28.83200 44.54800
C  54.81200 27.47500 44.25600
C  56.27300 30.55400 45.60200
C  53.37900 29.25900 44.07100
O  52.93000 30.38300 44.08700
C  52.62800 28.09300 43.45500
C  52.19500 28.54800 42.09700
O  52.86600 29.16900 41.29900
O  50.90900 28.18500 41.86100
C  50.18500 28.70100 40.64500
H  54.13300 21.45400 43.08000
H  60.16800 22.83600 45.06000
H  58.79200 28.79400 45.76900
H  51.43900 25.31100 43.47400
H  52.31300 22.78500 42.46000
H  51.16700 23.56200 44.84700
H  52.60500 22.62200 45.37500
H  51.47300 21.84200 44.23100
H  52.70500 24.53800 40.85600
H  51.96200 26.03700 41.12300
H  50.01300 25.21200 40.47200
H  49.91400 24.14900 41.83200
H  57.19100 18.78700 42.78100
H  55.86500 19.85900 42.15000
H  55.58700 19.05300 43.69000
H  61.15700 20.82200 44.46800
H  61.01500 19.53300 45.59800
H  60.34100 21.02800 46.08400
H  61.31300 24.98500 44.64800
H  60.52000 27.29700 46.56700
H  62.09200 24.11500 46.57000
H  60.55300 24.41300 47.45500
H  61.94800 25.64700 47.21900
H  60.54500 28.49100 44.12300
H  61.51300 27.06000 43.69500
H  62.36700 29.55600 44.57700
H  63.35000 28.03000 44.79300
H  62.34400 28.57800 46.10400
H  56.11300 30.58400 46.68000
H  55.53300 31.18100 45.10600
H  57.25400 30.89700 45.27200
H  51.68500 27.97500 43.98900
H  50.82400 28.63900 39.76400
H  49.83800 29.73000 40.74000
H  49.34800 28.01200 40.53300
Mg 28.35600 57.85300 41.43600
C  25.58600 55.83100 40.48900
C  30.44800 55.60100 39.92900
C  30.89300 60.07700 41.64900
C  25.98100 60.34600 42.39800
N  27.96900 55.86200 40.41900
C  26.80800 55.23100 40.05700
C  27.10100 53.90700 39.30400
C  28.68200 53.94700 39.06400
C  29.07400 55.18900 39.92500
C  29.37000 52.59900 39.54500
C  26.28200 53.82700 37.91500
C  26.52800 55.02000 36.92700
H  26.91200 54.66900 35.47600
N  30.41500 57.76100 40.99200
C  31.08300 56.78800 40.40400
C  32.56000 57.09900 40.35800
C  32.72100 58.36700 40.94700
C  31.31800 58.79300 41.19600
C  33.48300 56.13100 39.95900
C  34.05200 59.03400 41.19500
O  35.08800 58.53000 40.76300
C  34.19900 60.27800 42.02900
N  28.43200 60.02200 41.91400
C  29.61800 60.68300 42.00100
C  29.37500 62.12800 42.34500
C  27.90200 62.12900 42.83300
C  27.40000 60.77900 42.35000
C  30.40500 62.92200 43.25500
C  27.05200 63.36900 42.54500
C  26.37000 64.14400 43.68000
N  26.18200 58.07000 41.60400
C  25.41100 59.12900 42.02700
C  23.98600 58.74700 42.06400
C  24.03100 57.39000 41.54900
C  25.33500 57.07000 41.13800
C  22.89700 59.54900 42.73000
C  23.16400 56.29000 41.20200
O  21.98000 56.07100 41.46900
C  24.07000 55.26100 40.43000
C  23.90900 53.91900 40.97900
O  23.46300 52.97300 40.37700
O  24.30100 53.91500 42.25800
C  24.36000 52.61900 42.90800
H  31.02500 54.88600 39.33900
H  31.71800 60.78700 41.73800
H  25.19600 60.96900 42.83100
H  26.75100 53.00900 39.81400
H  29.05200 54.16700 38.06300
H  29.76400 52.04100 38.69600
H  28.75200 51.93500 40.14900
H  30.21200 52.87300 40.18000
H  25.20200 53.91900 38.03200
H  26.43900 52.88600 37.38700
H  27.30300 55.65600 37.35500
H  25.59400 55.56300 36.77800
H  34.36900 56.04400 40.58700
H  33.80500 56.43800 38.96400
H  33.04700 55.14800 39.77900
H  33.67700 60.11500 42.97200
H  33.79800 61.16600 41.54000
H  35.25100 60.41100 42.28200
H  29.50800 62.68200 41.41500
H  27.87700 61.93700 43.90500
H  31.19400 62.20200 43.47200
H  30.04100 63.29400 44.21300
H  30.83700 63.75000 42.69300
H  26.25800 63.15100 41.83000
H  27.67300 64.12800 42.07000
H  26.45300 63.65200 44.64900
H  25.31600 64.19600 43.40600
H  26.79400 65.13400 43.84800
H  23.17400 59.64400 43.78000
H  21.97800 59.02500 42.46600
H  22.72800 60.55000 42.33100
H  23.67300 55.27400 39.41500
H  24.68900 51.88900 42.16800
H  23.37500 52.36700 43.30100
H  25.01000 52.66600 43.78200

