158

Mg 16.07200 -2.00500 27.73000
C  15.07800 0.35100 30.21500
C  18.00100 -3.48500 30.14800
C  17.13400 -3.94200 25.25200
C  14.34000 0.18600 25.31500
N  16.44300 -1.58900 29.92900
C  15.92500 -0.60900 30.75200
C  16.51800 -0.67200 32.13800
C  17.70900 -1.68500 32.00800
C  17.41600 -2.25200 30.57200
C  19.20100 -1.23000 32.31300
C  15.44200 -1.13100 33.11700
C  15.31400 -0.49500 34.51000
H  16.47200 0.35800 35.05000
N  17.28700 -3.62600 27.68700
C  17.95600 -4.12800 28.76300
C  18.62600 -5.31500 28.29100
C  18.49600 -5.36900 26.88000
C  17.61500 -4.32600 26.49800
C  19.42900 -6.07700 29.28700
C  19.20700 -6.33100 25.98400
O  18.89400 -6.33900 24.78900
C  20.36600 -7.13600 26.52600
N  15.99400 -1.83800 25.68800
C  16.50000 -2.78400 24.82100
C  16.24800 -2.35900 23.34000
C  15.32200 -1.14900 23.43700
C  15.22600 -0.89400 24.94900
C  17.59400 -2.08300 22.50100
C  13.92500 -1.35400 22.76200
C  13.63500 -0.36700 21.61500
N  14.92500 -0.20200 27.71900
C  14.25800 0.55300 26.66300
C  13.63200 1.66100 27.29000
C  13.85400 1.53000 28.66800
C  14.65000 0.40900 28.84400
C  13.06800 2.79200 26.49000
C  13.61500 2.28800 29.84200
O  12.86600 3.25800 30.04900
C  14.33500 1.47600 30.95400
C  15.17900 2.38600 31.72100
O  16.35000 2.49900 31.63100
O  14.40100 3.07800 32.56100
C  14.85500 4.11500 33.56300
H  18.78000 -3.84000 30.82600
H  17.53800 -4.50000 24.40400
H  13.93900 0.87400 24.56700
H  16.93200 0.31400 32.35100
H  17.44500 -2.57200 32.58400
H  19.68900 -1.70000 33.16700
H  18.99000 -0.19300 32.57700
H  19.92500 -1.26000 31.49900
H  15.62300 -2.20000 33.22800
H  14.53000 -0.94700 32.54800
H  15.02300 -1.19100 35.29600
H  14.44800 0.15100 34.36600
H  20.51000 -5.93100 29.28100
H  19.13500 -7.12200 29.19600
H  19.16900 -5.81000 30.31100
H  21.16400 -6.45700 26.82500
H  20.79000 -7.66600 25.67300
H  19.96000 -7.87400 27.21800
H  15.73700 -3.17100 22.82100
H  15.87500 -0.33400 22.97100
H  18.46200 -2.42800 23.06300
H  17.89300 -1.04200 22.37300
H  17.53200 -2.63800 21.56500
H  13.19800 -1.09000 23.52900
H  13.70900 -2.41300 22.61900
H  13.14400 -0.82500 20.75700
H  14.54500 0.00100 21.14100
H  13.04900 0.46300 22.01000
H  12.00000 2.58000 26.43600
H  13.58700 2.96700 25.54700
H  13.24800 3.80100 26.85900
H  13.65400 0.98800 31.65100
H  15.63300 4.74300 33.12800
H  15.08000 3.78600 34.57700
H  14.00100 4.76500 33.75800
Mg 17.11200 50.99400 26.56000
C  19.12200 49.67300 29.04400
C  14.82000 51.94100 28.85500
C  15.32100 52.29600 24.00800
C  19.42600 49.69000 24.27500
N  16.94400 50.76200 28.65600
C  17.93400 50.29500 29.50100
C  17.60200 50.56300 30.96600
C  16.05900 50.95100 30.86200
C  15.91800 51.29600 29.36700
C  15.04700 49.88200 31.34900
C  18.55200 51.65000 31.55100
C  18.91700 51.44200 33.02700
H  17.88300 50.76800 33.99000
N  15.37500 52.04100 26.39800
C  14.58100 52.32500 27.46800
C  13.38700 53.12800 27.04500
C  13.57300 53.25700 25.66900
C  14.76900 52.48300 25.25000
C  12.42800 53.61300 28.00300
C  12.72300 54.00600 24.72200
O  13.00400 54.25700 23.59200
C  11.34700 54.42000 25.07700
N  17.31200 50.90600 24.50700
C  16.47600 51.59500 23.66400
C  16.80600 51.35600 22.19900
C  18.18100 50.70100 22.22400
C  18.35400 50.37000 23.73300
C  15.82000 50.61600 21.32100
C  19.26600 51.55100 21.55100
C  20.19600 52.42500 22.45300
N  18.84600 49.88200 26.59600
C  19.67900 49.44300 25.61400
C  20.85600 48.73200 26.14700
C  20.64000 48.80400 27.50800
C  19.48300 49.57200 27.72000
C  21.82000 48.02400 25.28300
C  21.22100 48.41500 28.68600
O  22.27900 47.83200 28.86600
C  20.27300 48.93000 29.79600
C  19.86900 47.78100 30.65100
O  19.26400 46.83100 30.14900
O  20.07700 48.01900 31.99900
C  19.48700 46.96500 32.86100
H  14.14400 52.43800 29.55300
H  14.67400 52.65800 23.20600
H  20.26300 49.33100 23.67100
H  17.63200 49.61700 31.50500
H  15.78100 51.86800 31.38200
H  14.53100 49.41000 30.51200
H  14.36200 50.32100 32.07500
H  15.56900 49.03200 31.78700
H  18.06600 52.60900 31.37400
H  19.50700 51.82400 31.05600
H  19.11200 52.39000 33.52800
H  19.91500 51.00800 33.09400
H  11.93100 54.49500 27.59900
H  12.89200 53.91300 28.94200
H  11.75500 52.78100 28.21100
H  11.35100 55.46700 25.38100
H  10.94800 53.81300 25.89000
H  10.72700 54.38700 24.18100
H  16.96500 52.33700 21.75000
H  18.18600 49.76400 21.66700
H  14.99600 50.22700 21.92000
H  16.22800 49.80400 20.71900
H  15.36800 51.30100 20.60300
H  18.87400 51.89900 20.59500
H  19.99300 50.76100 21.36600
H  19.82200 52.50100 23.47400
H  20.27600 53.45400 22.10100
H  21.23300 52.09900 22.53400
H  22.24600 47.11600 25.71000
H  22.58200 48.71800 24.93000
H  21.18100 47.65300 24.48100
H  20.75700 49.65600 30.44900
H  18.43500 46.91900 32.57900
H  19.49800 47.39900 33.86100
H  19.99700 46.00200 32.85700

