158

Mg 17.23600 -2.45400 28.16700
C  16.07200 -0.60500 30.81900
C  19.03300 -4.54600 30.20500
C  18.37100 -4.09400 25.46300
C  15.68600 -0.17000 25.89500
N  17.48600 -2.56100 30.25000
C  16.82300 -1.73300 31.18300
C  17.26200 -2.12500 32.64500
C  18.23400 -3.35900 32.47600
C  18.26200 -3.52300 30.87400
C  19.62500 -3.11100 33.10700
C  16.05600 -2.42300 33.59900
C  15.75800 -1.47400 34.80600
H  16.99300 -0.90400 35.53200
N  18.50800 -4.10700 27.86900
C  19.07700 -4.89500 28.80600
C  19.87100 -5.99600 28.24500
C  19.59900 -5.93500 26.80200
C  18.82200 -4.69500 26.66800
C  20.69400 -6.84800 29.09800
C  20.10800 -6.75100 25.67900
O  19.73000 -6.59700 24.54700
C  21.04200 -8.01500 25.97400
N  16.99800 -2.20500 25.99300
C  17.69600 -2.93000 25.16000
C  17.67200 -2.41100 23.72700
C  16.68400 -1.17300 23.84700
C  16.41700 -1.18800 25.34900
C  19.13700 -2.14700 23.12700
C  15.33300 -1.33200 23.11100
C  14.77200 -0.03500 22.52800
N  16.07300 -0.67300 28.25600
C  15.54400 0.09000 27.28600
C  14.78200 1.15700 27.93800
C  15.01100 0.96500 29.29800
C  15.81600 -0.16600 29.44100
C  13.83100 2.08800 27.37200
C  14.66900 1.43700 30.57200
O  13.94000 2.38600 30.92200
C  15.41400 0.50300 31.65400
C  16.42900 1.30900 32.53600
O  17.60500 1.12700 32.44700
O  15.84100 2.29800 33.23500
C  16.84300 3.24800 33.81700
H  19.59700 -5.17600 30.89600
H  18.66900 -4.65600 24.57600
H  15.27700 0.51200 25.14700
H  17.75200 -1.28300 33.13500
H  17.84300 -4.30600 32.84800
H  19.66700 -2.26900 33.79700
H  20.48700 -3.12400 32.44000
H  19.87000 -4.00600 33.67800
H  16.03700 -3.48700 33.83800
H  15.22100 -2.32000 32.90500
H  15.12500 -2.07500 35.45900
H  15.19700 -0.63100 34.40100
H  19.96900 -7.54800 29.51400
H  21.14500 -6.28200 29.91300
H  21.48400 -7.32200 28.51600
H  21.13800 -8.57500 25.04400
H  20.51200 -8.44100 26.82600
H  21.97700 -7.57800 26.32400
H  17.23900 -3.27700 23.22500
H  17.16800 -0.30400 23.40200
H  19.58100 -3.00000 22.61400
H  19.78300 -1.93900 23.98000
H  19.25100 -1.29400 22.45900
H  14.53800 -1.75100 23.72900
H  15.49000 -2.10100 22.35500
H  15.51400 0.75800 22.61600
H  13.82400 0.20500 23.00900
H  14.65400 -0.14400 21.44900
H  14.18300 3.05000 27.00100
H  13.18500 2.50000 28.14800
H  13.17500 1.62000 26.63900
H  14.69400 -0.04100 32.26400
H  17.50700 3.62400 33.03800
H  17.42700 2.71000 34.56300
H  16.43200 4.18600 34.19000
Mg -0.23800 44.63400 25.58200
C  1.59600 43.92100 28.34700
C  -2.87000 42.87800 26.94400
C  -1.66300 44.60700 22.56400
C  2.65300 45.97300 24.13500
N  -0.49000 43.18000 27.36900
C  0.24900 43.43000 28.44500
C  -0.47900 42.98200 29.77300
C  -1.83800 42.45000 29.15400
C  -1.78600 42.84300 27.69300
C  -2.07000 40.84900 29.33100
C  -0.73400 44.22800 30.76400
C  -0.88000 43.82300 32.27500
H  -1.46900 42.42900 32.67400
N  -2.07300 43.87400 24.86600
C  -3.00400 43.22200 25.60400
C  -4.21200 43.17700 24.76300
C  -3.89600 43.74000 23.49100
C  -2.47500 44.12200 23.57500
C  -5.54900 42.49200 25.21500
C  -4.77100 43.97600 22.23800
O  -4.32900 44.31800 21.15800
C  -6.26600 43.71600 22.26900
N  0.28800 45.38600 23.73800
C  -0.40700 45.26900 22.60300
C  0.14500 46.06200 21.45500
C  1.34900 46.69200 22.09500
C  1.47300 45.95000 23.41300
C  0.43200 45.17400 20.18500
C  1.24900 48.17500 22.48200
C  0.26500 49.07300 21.74200
N  1.75400 44.86000 26.03200
C  2.82900 45.36000 25.36300
C  3.98300 45.34900 26.17000
C  3.61200 44.77000 27.37900
C  2.19700 44.48600 27.22000
C  5.40200 45.87500 25.75200
C  4.03400 44.30600 28.64100
O  5.10000 44.26600 29.24500
C  2.71000 43.89200 29.33500
C  2.86100 42.50300 29.94000
O  3.33900 41.48700 29.40500
O  2.40700 42.57800 31.24100
C  2.51400 41.26000 31.96600
H  -3.72300 42.49600 27.50900
H  -2.06700 44.60200 21.54900
H  3.40100 46.60700 23.65400
H  0.09300 42.24700 30.33800
H  -2.78700 42.84500 29.51700
H  -3.01800 40.58300 29.79900
H  -1.46300 40.33500 30.07600
H  -1.78300 40.32900 28.41700
H  -1.72000 44.53600 30.41500
H  0.04300 44.98400 30.65400
H  -1.51300 44.52700 32.81600
H  0.12500 43.91100 32.68700
H  -6.33600 43.24100 25.12800
H  -5.46700 42.15000 26.24700
H  -5.62100 41.58800 24.61000
H  -6.79800 44.04900 21.37800
H  -6.64300 44.28500 23.12000
H  -6.47000 42.66500 22.47100
H  -0.67500 46.77800 21.39000
H  2.29500 46.57200 21.56800
H  0.20900 44.13800 20.44000
H  1.50400 45.22100 19.98900
H  -0.13600 45.48100 19.30700
H  2.19900 48.68000 22.30800
H  1.06600 48.22000 23.55600
H  0.14400 48.69900 20.72500
H  0.75600 50.04500 21.71000
H  -0.68900 49.09700 22.27000
H  5.81100 45.43500 24.84300
H  6.08500 45.73800 26.59100
H  5.28200 46.94100 25.55900
H  2.54100 44.67000 30.08000
H  2.15700 40.42500 31.36300
H  2.11300 41.22600 32.97900
H  3.59000 41.11900 32.07000

