158

Mg 47.04800 25.87500 28.23200
C  47.98800 27.97800 30.93300
C  46.22500 23.42400 30.54100
C  46.28400 23.89700 25.62300
C  48.46800 28.25300 25.99500
N  46.83300 25.89100 30.44600
C  47.34600 26.84000 31.34400
C  47.12700 26.33200 32.78000
C  46.61100 24.90300 32.64500
C  46.56800 24.65800 31.08500
C  47.45100 23.72700 33.53100
C  46.22200 27.27500 33.63700
C  46.81300 27.88500 34.89100
H  45.80300 28.06200 36.01900
N  46.43400 23.91700 28.14900
C  46.02400 23.06800 29.17300
C  45.54600 21.82400 28.61300
C  45.55000 21.95300 27.19300
C  46.08500 23.29700 26.95100
C  45.03400 20.63400 29.41000
C  45.22400 20.90400 26.07100
O  45.28700 21.12900 24.88000
C  44.76300 19.49900 26.45400
N  47.25100 26.10100 26.10200
C  46.88900 25.09100 25.24400
C  47.11900 25.55000 23.75800
C  47.72900 27.00900 23.86100
C  47.77700 27.19200 25.39200
C  47.91300 24.56900 22.89000
C  46.94700 28.12400 23.20800
C  47.62300 29.39800 22.52400
N  48.00700 27.64700 28.36800
C  48.58800 28.50700 27.38100
C  49.21500 29.63500 28.00700
C  49.05400 29.47100 29.34500
C  48.28100 28.29400 29.58300
C  50.00000 30.71300 27.38200
C  49.41600 30.07000 30.62100
O  50.17600 30.98600 30.90100
C  48.74100 29.04100 31.66300
C  49.87400 28.58100 32.49100
O  50.63800 27.70700 32.27600
O  49.78900 29.19900 33.70300
C  50.82200 28.91200 34.76600
H  46.11800 22.62100 31.27300
H  46.13700 23.22900 24.77200
H  48.99000 28.88700 25.27500
H  48.10100 26.21300 33.25400
H  45.58200 24.91600 33.00500
H  48.39900 24.20000 33.78900
H  47.56900 22.80300 32.96500
H  46.90100 23.44200 34.42800
H  45.30400 26.80800 33.99400
H  45.98500 28.16900 33.06000
H  47.16900 28.89900 34.70700
H  47.60600 27.21500 35.22300
H  43.95200 20.59200 29.28700
H  45.29900 20.84300 30.44600
H  45.62400 19.77200 29.09700
H  43.77400 19.46900 26.91000
H  45.57000 19.13300 27.08900
H  44.81700 18.91000 25.53800
H  46.13700 25.61700 23.29000
H  48.77300 26.91400 23.56400
H  47.35400 24.28000 22.00000
H  48.04000 23.64500 23.45400
H  48.85100 25.01700 22.56300
H  46.26700 28.60500 23.91200
H  46.41300 27.69300 22.36100
H  48.63800 29.16200 22.20500
H  47.59000 30.27200 23.17500
H  47.06600 29.62000 21.61300
H  50.94400 30.80500 27.91900
H  49.42800 31.64000 27.33600
H  50.18400 30.37800 26.36100
H  48.12100 29.67900 32.29200
H  51.60300 28.34800 34.25600
H  50.29100 28.28100 35.48000
H  51.21100 29.81800 35.23200
Mg 49.82400 47.41400 42.42300
C  46.39300 47.97800 41.44900
C  49.75000 44.40400 40.72400
C  53.15900 47.16200 42.86000
C  49.99200 50.87100 43.33500
N  48.25200 46.38700 41.07300
C  46.88700 46.74900 40.96500
C  46.21300 45.68600 40.10700
C  47.30100 44.51100 40.00700
C  48.52100 45.17300 40.67100
C  46.85300 43.05500 40.47500
C  45.56000 46.18500 38.77700
C  44.03200 45.95500 38.63700
H  43.49600 45.81400 37.23700
N  51.24600 45.93800 41.97000
C  51.00300 44.73800 41.30500
C  52.14400 43.88600 41.33500
C  53.22200 44.78200 41.86400
C  52.57100 46.05600 42.26100
C  52.25500 42.48100 40.61700
C  54.64100 44.28900 41.92500
O  54.96100 43.16500 41.64500
C  55.63000 45.15600 42.55600
N  51.37900 48.93800 42.86800
C  52.64500 48.47900 43.19800
C  53.59200 49.75800 43.52200
C  52.53200 50.94000 43.72300
C  51.21600 50.21700 43.35700
C  54.50100 49.56100 44.82000
C  52.82300 52.21300 42.76700
C  54.11200 52.90700 42.95000
N  48.45600 49.08300 42.44100
C  48.70000 50.38800 42.91600
C  47.42700 51.11700 42.85100
C  46.41600 50.17600 42.46000
C  47.15500 48.96300 42.07500
C  47.32900 52.56700 43.18600
C  45.04100 50.02800 42.11600
O  44.10600 50.83100 42.13300
C  44.95500 48.60900 41.44700
C  44.00300 47.77000 42.30000
O  43.97600 47.77200 43.50900
O  43.24000 46.85800 41.56200
C  42.36900 45.88700 42.27600
H  49.68000 43.38500 40.33700
H  54.23900 47.19300 43.01800
H  50.05500 51.89200 43.71500
H  45.39800 45.23700 40.67400
H  47.53000 44.49100 38.94200
H  46.61800 42.42100 39.62000
H  45.96300 43.15500 41.09800
H  47.63100 42.71500 41.15800
H  46.04800 45.71400 37.92300
H  45.78900 47.24900 38.72800
H  43.41300 46.76000 39.03200
H  43.85400 45.02000 39.16900
H  51.36100 42.28800 40.02400
H  52.18000 41.66700 41.33800
H  53.19200 42.24600 40.11100
H  55.70100 45.94800 41.81000
H  56.59700 44.65500 42.61500
H  55.43800 45.46000 43.58500
H  54.14700 50.03100 42.62500
H  52.22200 51.14100 44.74800
H  54.58100 48.49000 45.01000
H  54.17200 50.08600 45.71700
H  55.46600 49.91800 44.46000
H  52.00000 52.91900 42.87700
H  52.67800 51.96100 41.71700
H  54.96100 52.31800 43.29600
H  53.98300 53.81500 43.53800
H  54.46400 53.13100 41.94300
H  47.59000 53.20200 42.33900
H  47.95600 52.92100 44.00500
H  46.30500 52.92100 43.30000
H  44.45600 48.80100 40.49700
H  43.01100 45.15600 42.76900
H  41.63800 45.42100 41.61500
H  41.75900 46.39300 43.02400

