158

Mg 1.48900 7.47700 25.79200
C  1.83900 9.69000 28.38800
C  1.93800 4.83300 27.90200
C  0.82700 5.61800 23.19500
C  1.75500 10.32700 23.57500
N  2.08200 7.31600 27.82800
C  2.01700 8.35200 28.80700
C  2.08000 7.81500 30.25500
C  2.23500 6.25800 30.01300
C  1.99000 6.11700 28.47700
C  3.55400 5.56200 30.46100
C  0.82000 8.19800 31.11700
C  1.07800 8.82700 32.53000
H  2.05000 8.08700 33.47100
N  1.46800 5.47100 25.59700
C  1.78900 4.50100 26.55700
C  1.64500 3.20800 25.93000
C  1.12900 3.38500 24.59300
C  1.03600 4.87200 24.47600
C  2.10200 1.99100 26.64400
C  0.86200 2.31400 23.48900
O  0.55800 2.64500 22.34400
C  0.97300 0.83300 23.76400
N  1.45400 7.87100 23.63200
C  1.11700 6.91900 22.84600
C  0.86400 7.40100 21.44200
C  1.21600 8.96500 21.43500
C  1.39200 9.08800 23.00700
C  1.63100 6.60300 20.39100
C  0.06900 9.84500 20.96800
C  0.33000 10.88300 19.82500
N  1.73700 9.62700 25.91600
C  1.79200 10.57900 24.96600
C  1.89000 11.95200 25.66000
C  1.85400 11.55900 27.02600
C  1.82700 10.18400 27.08500
C  2.03000 13.26200 24.96100
C  1.90900 12.12100 28.32400
O  1.95600 13.33400 28.64600
C  1.89200 10.94100 29.35100
C  3.18300 10.91700 30.12600
O  4.25000 10.47600 29.70600
O  3.04500 11.48300 31.31000
C  4.28500 11.39700 32.06600
H  2.19200 4.06400 28.63400
H  0.69500 4.94200 22.34700
H  1.93900 11.13200 22.86000
H  3.02500 8.17200 30.66400
H  1.49200 5.72800 30.60900
H  4.22600 6.18700 31.04900
H  4.16900 5.28200 29.60600
H  3.29600 4.67100 31.03300
H  0.15600 7.36500 31.34900
H  0.12700 8.80800 30.53700
H  0.15900 8.92900 33.10700
H  1.50600 9.81700 32.37800
H  2.77000 1.41300 26.00700
H  1.19500 1.41200 26.81900
H  2.48300 2.27900 27.62400
H  0.13300 0.61400 24.42300
H  1.95900 0.68200 24.20400
H  1.04600 0.20000 22.88000
H  -0.21500 7.33000 21.30800
H  2.14900 9.21200 20.92800
H  2.57600 7.08800 20.14400
H  1.02900 6.27500 19.54300
H  1.96200 5.63300 20.76200
H  -0.31900 10.45100 21.78700
H  -0.79300 9.22800 20.71500
H  0.23700 10.41000 18.84700
H  1.39100 11.10300 19.94000
H  -0.35500 11.72300 19.94500
H  3.03100 13.26000 24.53000
H  1.84300 14.08800 25.64700
H  1.31400 13.31900 24.14100
H  0.98700 11.05500 29.94800
H  4.18500 12.14700 32.85100
H  5.15300 11.79600 31.54200
H  4.51900 10.36100 32.31400
Mg -2.06500 34.57400 26.89400
C  -3.18400 32.47600 29.51800
C  -0.33800 36.54300 29.27600
C  -1.15400 36.75200 24.42700
C  -4.12700 32.91700 24.71400
N  -1.90600 34.54400 29.05500
C  -2.38600 33.55100 29.94100
C  -2.00300 33.84300 31.46200
C  -1.14500 35.16500 31.33000
C  -1.15000 35.51600 29.77700
C  -1.47700 36.28700 32.35000
C  -1.43400 32.58700 32.20700
C  -0.61100 32.81100 33.48500
H  -1.03500 32.12800 34.81200
N  -0.84300 36.26300 26.86100
C  -0.20100 36.86200 27.91500
C  0.73900 37.86700 27.43300
C  0.50300 37.99200 26.00000
C  -0.51400 36.96000 25.70700
C  1.72300 38.68900 28.34200
C  1.13400 38.89800 24.96500
O  0.89000 38.95600 23.75100
C  2.12600 39.89000 25.42700
N  -2.72500 34.96300 24.99600
C  -2.10400 35.78600 24.08900
C  -2.77400 35.79000 22.69100
C  -3.63700 34.49500 22.75300
C  -3.47900 34.06800 24.28000
C  -3.46200 37.13200 22.29300
C  -3.33100 33.50600 21.63500
C  -2.06800 32.69300 21.73400
N  -3.34100 32.96300 27.00600
C  -4.03900 32.35500 26.01000
C  -4.53300 31.12300 26.48600
C  -4.38800 31.10900 27.90300
C  -3.58100 32.26500 28.13200
C  -5.15100 30.05900 25.69600
C  -4.60700 30.49800 29.23300
O  -5.26500 29.44000 29.58100
C  -3.83100 31.36300 30.19000
C  -4.84100 31.68700 31.25300
O  -5.59800 32.63600 31.27100
O  -4.98400 30.69000 32.18800
C  -5.99900 30.81400 33.21400
H  0.08900 37.22400 30.01600
H  -0.95600 37.49500 23.65100
H  -4.70300 32.35600 23.97500
H  -2.92100 34.13500 31.97100
H  -0.12900 34.87800 31.60200
H  -2.10400 36.04800 33.20900
H  -1.98500 37.04900 31.75900
H  -0.56600 36.70700 32.77600
H  -0.78300 32.02900 31.53400
H  -2.24900 31.90800 32.45400
H  -0.60200 33.88200 33.68900
H  0.43400 32.55500 33.31100
H  2.76400 38.68400 28.01900
H  1.62900 38.20000 29.31200
H  1.44500 39.74000 28.42400
H  1.72400 40.67300 26.07000
H  2.62800 40.47000 24.65400
H  2.87900 39.28500 25.93300
H  -1.89200 35.59600 22.08100
H  -4.67800 34.78200 22.60000
H  -2.71000 37.62800 21.67800
H  -3.59800 37.77700 23.16100
H  -4.38500 36.91200 21.75700
H  -3.46100 34.02900 20.68800
H  -4.21600 32.87000 21.67200
H  -1.75400 32.95200 22.74600
H  -1.31500 33.04000 21.02700
H  -2.26200 31.62600 21.62300
H  -4.67200 29.95000 24.72300
H  -6.22800 30.21800 25.63800
H  -4.97600 29.11800 26.21700
H  -3.08600 30.71200 30.65000
H  -6.87800 31.43100 33.03200
H  -5.45000 31.31400 34.01200
H  -6.24400 29.83200 33.61900

