158

Mg 49.87700 35.33900 27.32800
C  47.75800 34.11300 29.70000
C  49.98400 38.47000 29.10200
C  51.62200 36.69900 24.79700
C  48.88100 32.77500 25.17100
N  49.10400 36.10500 29.23200
C  48.33300 35.35600 30.07300
C  48.25700 36.10800 31.46500
C  48.55800 37.58200 31.11500
C  49.30900 37.39900 29.77200
C  47.34800 38.55900 31.13400
C  49.27700 35.44500 32.49600
C  48.65600 34.92300 33.76800
H  49.10000 35.74400 35.04400
N  50.87400 37.26500 27.08700
C  50.79300 38.32000 27.89500
C  51.52700 39.45700 27.23500
C  52.14800 38.91900 26.05500
C  51.56800 37.56700 25.91800
C  51.64600 40.85100 27.88900
C  53.13400 39.57600 25.13400
O  53.65800 38.90200 24.24000
C  53.50300 40.94500 25.43400
N  49.97900 34.96000 25.13700
C  50.94200 35.59600 24.42400
C  51.26300 34.85100 23.10400
C  50.47900 33.49400 23.29000
C  49.73100 33.75800 24.64700
C  50.95700 35.68700 21.88100
C  51.27000 32.19200 23.45300
C  51.76900 31.65000 22.01800
N  48.69900 33.62100 27.40500
C  48.32000 32.75200 26.44800
C  47.28700 31.82400 26.99300
C  47.04200 32.31000 28.27300
C  47.94900 33.43900 28.49600
C  46.72700 30.67200 26.17600
C  46.25700 32.15000 29.50500
O  45.47400 31.29400 29.90800
C  46.66200 33.41200 30.42100
C  46.99700 32.79400 31.72200
O  48.07400 32.21700 31.97200
O  45.88500 32.93300 32.51400
C  45.93000 32.28200 33.84100
H  50.05000 39.46900 29.53800
H  52.26000 37.01500 23.96900
H  48.69200 31.81300 24.69000
H  47.26400 35.91500 31.87200
H  49.27100 38.07100 31.78000
H  46.39400 38.09300 31.38200
H  47.13400 38.96200 30.14400
H  47.61300 39.34500 31.84000
H  50.01500 36.20400 32.75600
H  49.74300 34.61300 31.96800
H  49.10000 33.93400 33.88200
H  47.57400 34.79100 33.77600
H  52.49800 40.93900 28.56400
H  50.72700 40.99600 28.45700
H  51.58700 41.58300 27.08300
H  54.43700 40.94900 24.87300
H  53.79300 40.92400 26.48400
H  52.65500 41.53000 25.07500
H  52.32500 34.71900 23.31400
H  49.79000 33.22500 22.48900
H  51.79200 35.99300 21.25000
H  50.32000 36.55100 22.07500
H  50.41100 34.99500 21.24000
H  50.71100 31.42300 23.98500
H  52.06000 32.29700 24.19700
H  51.34600 30.66200 21.83700
H  52.85700 31.58500 21.98900
H  51.38600 32.30300 21.23400
H  46.08500 31.08600 25.39900
H  46.08200 30.00100 26.74500
H  47.54000 30.01900 25.85900
H  45.79300 34.06100 30.52500
H  45.65500 33.07400 34.53800
H  46.92100 31.93700 34.13600
H  45.20400 31.49100 33.65000
Mg -12.58000 16.24900 41.17700
C  -9.69300 14.30400 40.91000
C  -10.84600 18.93600 39.93300
C  -15.46500 17.83800 40.66700
C  -14.29700 13.33300 41.88400
N  -10.45300 16.53100 40.50400
C  -9.45700 15.58100 40.40700
C  -8.18400 16.26700 40.00500
C  -8.62700 17.84000 39.89100
C  -10.07500 17.76600 40.19800
C  -7.89200 18.96600 40.64600
C  -7.50100 15.68900 38.72500
C  -5.91600 15.83700 38.69000
H  -5.29300 16.55200 37.51800
N  -13.08400 18.15800 40.48700
C  -12.26400 19.16200 40.09200
C  -13.06400 20.35900 39.74000
C  -14.40100 20.08200 40.04900
C  -14.36400 18.62700 40.42800
C  -12.38600 21.67700 39.29200
C  -15.57800 21.15700 40.07100
O  -15.32500 22.29600 39.83000
C  -17.02500 20.78700 40.39000
N  -14.60000 15.68300 41.21900
C  -15.64000 16.55000 41.03500
C  -17.00300 15.88100 41.20700
C  -16.69500 14.45500 41.62400
C  -15.13000 14.46900 41.53200
C  -18.03000 16.69300 42.15800
C  -17.33000 13.37000 40.76100
C  -18.24300 12.50500 41.61600
N  -12.11800 14.22200 41.57900
C  -12.90700 13.17900 41.88300
C  -12.14500 12.02700 42.24200
C  -10.82800 12.40600 41.92100
C  -10.88600 13.75500 41.33400
C  -12.59900 10.80300 42.95700
C  -9.36600 11.95800 41.88800
O  -8.77500 10.89600 42.03300
C  -8.68500 13.20700 41.09300
C  -7.54000 13.67100 41.94800
O  -7.62400 14.14700 43.04300
O  -6.38500 13.36500 41.29300
C  -5.19500 14.01200 41.89300
H  -10.27700 19.78800 39.55300
H  -16.36200 18.29600 40.24400
H  -14.88700 12.48000 42.22500
H  -7.50300 16.12700 40.84500
H  -8.60100 18.11700 38.83700
H  -6.93600 18.58700 41.00800
H  -8.47400 19.26000 41.51900
H  -7.64700 19.83000 40.02800
H  -7.88800 16.26800 37.88600
H  -7.86500 14.66600 38.63200
H  -5.39900 14.90300 38.90700
H  -5.63700 16.43400 39.55800
H  -11.97900 22.28300 40.10200
H  -13.05600 22.25700 38.65800
H  -11.47400 21.63000 38.69700
H  -17.64900 20.48100 39.55000
H  -17.47900 21.69300 40.79200
H  -17.10800 20.08900 41.22200
H  -17.44800 15.92900 40.21300
H  -17.01200 14.32200 42.65800
H  -17.51500 17.57200 42.54600
H  -18.31100 16.09200 43.02300
H  -18.94700 17.03400 41.67600
H  -16.51100 12.71600 40.46100
H  -17.92700 13.67000 39.90000
H  -18.65700 13.02400 42.48100
H  -17.72600 11.61200 41.96600
H  -19.03400 12.20300 40.93000
H  -13.59000 10.87600 43.40600
H  -11.87900 10.40800 43.67500
H  -12.60800 10.00300 42.21600
H  -8.39900 12.77600 40.13400
H  -5.30100 15.09400 41.80800
H  -4.24200 13.78200 41.41700
H  -5.15200 13.84300 42.96900

