158

Mg 0.62800 7.92000 27.54900
C  1.23900 10.10800 30.21100
C  0.68300 5.25000 29.70500
C  0.69000 5.76200 24.92700
C  0.92100 10.58700 25.33700
N  1.04500 7.74900 29.69400
C  1.17600 8.75200 30.62900
C  0.77200 8.27100 31.95900
C  1.02400 6.67900 31.87500
C  0.81800 6.54900 30.32400
C  2.44800 6.22600 32.36500
C  -0.75300 8.61800 32.31800
C  -0.89900 9.24400 33.75400
H  0.09600 8.98000 34.92200
N  0.72300 5.75800 27.37900
C  0.71500 4.86700 28.34800
C  0.66500 3.48100 27.81000
C  0.67000 3.62100 26.37000
C  0.66600 5.08400 26.13400
C  0.70400 2.12200 28.68200
C  0.60000 2.58300 25.26900
O  0.54400 2.81100 24.07600
C  0.56800 1.20800 25.68200
N  0.82500 8.13100 25.44400
C  0.78000 7.12300 24.55000
C  0.70000 7.59900 23.07600
C  0.57300 9.16400 23.29900
C  0.75200 9.33100 24.80300
C  1.82600 7.16500 22.12400
C  -0.85100 9.61500 22.90200
C  -0.92400 10.03700 21.51200
N  0.90500 9.97100 27.67600
C  1.00800 10.93000 26.72300
C  1.19500 12.17400 27.32600
C  1.24100 11.94400 28.68800
C  1.19700 10.54400 28.82900
C  1.35800 13.42900 26.60000
C  1.41800 12.59200 29.97800
O  1.54200 13.78100 30.30600
C  1.33300 11.44200 31.06000
C  2.57100 11.45300 31.90000
O  3.68300 11.00600 31.61400
O  2.25400 12.02700 33.14700
C  3.21700 11.93600 34.22100
H  0.64200 4.40700 30.39900
H  0.57500 5.17200 24.01600
H  0.97700 11.41800 24.63100
H  1.47800 8.75800 32.63200
H  0.27300 6.07900 32.38800
H  3.04600 7.01900 32.81400
H  3.00900 5.83500 31.51600
H  2.41200 5.50700 33.18400
H  -1.33800 7.70000 32.27200
H  -1.17100 9.29800 31.57500
H  -1.83400 8.83400 34.13500
H  -1.13700 10.30100 33.64100
H  1.10000 2.38000 29.66500
H  1.32400 1.28900 28.35400
H  -0.32400 1.81600 28.87600
H  1.45700 0.95800 26.26200
H  0.48000 0.63100 24.76200
H  -0.36400 0.97200 26.19600
H  -0.21200 7.08100 22.78100
H  1.36900 9.70700 22.78900
H  2.66200 6.81900 22.73200
H  2.25800 7.92500 21.47300
H  1.51900 6.28100 21.56500
H  -1.24000 10.38200 23.57300
H  -1.47600 8.73400 23.04200
H  -0.01000 10.43800 21.07200
H  -1.55500 10.92500 21.55300
H  -1.33000 9.31200 20.80700
H  2.15300 13.39600 25.85400
H  1.58200 14.22400 27.31100
H  0.40500 13.67000 26.13000
H  0.54900 11.60100 31.80000
H  4.23000 11.69600 33.90000
H  2.91600 11.21900 34.98500
H  3.40500 12.94800 34.57700
Mg 40.57300 9.22500 29.77600
C  42.56800 10.56200 32.41600
C  38.23300 8.41100 32.15700
C  39.01100 7.42700 27.32600
C  43.20700 9.73800 27.55000
N  40.52400 9.39500 32.06100
C  41.38300 10.06600 32.86600
C  40.86400 10.03400 34.34200
C  39.49000 9.24600 34.24200
C  39.37700 9.01900 32.71500
C  39.35600 7.93400 34.95100
C  40.92300 11.47700 34.94700
C  40.08200 11.66300 36.31300
H  40.85400 12.12200 37.53600
N  38.79300 8.27300 29.71200
C  37.91300 8.03200 30.83200
C  36.65800 7.53100 30.28200
C  36.87200 7.23200 28.88600
C  38.32400 7.58500 28.56200
C  35.38700 7.29000 31.17000
C  35.82200 6.85200 27.82800
O  35.98600 6.80200 26.63500
C  34.45200 6.76300 28.25000
N  41.06400 8.55100 27.75300
C  40.29900 7.82600 26.93100
C  40.78300 7.87900 25.45600
C  41.90300 9.04100 25.52000
C  42.10500 9.08200 27.02100
C  41.24000 6.47700 24.87700
C  41.61500 10.39500 24.88100
C  42.84700 11.24300 24.42200
N  42.50200 10.00700 29.94000
C  43.41000 10.24400 28.90300
C  44.62500 10.88800 29.50900
C  44.29800 11.09900 30.86100
C  43.01100 10.49100 31.06700
C  45.78300 11.29100 28.66500
C  44.74000 11.70100 32.07000
O  45.81300 12.25600 32.32000
C  43.62800 11.24500 33.17600
C  44.33200 10.39100 34.16400
O  44.78500 9.29000 33.92600
O  44.37700 11.05700 35.32400
C  44.94900 10.46000 36.56100
H  37.51900 8.16900 32.94800
H  38.54700 6.82200 26.54400
H  43.98700 9.99900 26.83200
H  41.61000 9.43200 34.86200
H  38.60500 9.80700 34.54200
H  38.47900 8.09700 35.57700
H  40.25200 7.80500 35.55800
H  39.15200 7.00000 34.42700
H  40.36700 12.04400 34.20000
H  41.94100 11.76800 35.20300
H  39.68600 10.68300 36.58200
H  39.19600 12.27100 36.12700
H  34.36200 7.47200 30.84800
H  35.57400 7.97900 31.99300
H  35.51100 6.34100 31.69100
H  33.75700 6.54800 27.43800
H  34.20300 7.73400 28.67700
H  34.28300 6.04700 29.05500
H  39.91800 8.19700 24.87500
H  42.82700 8.64500 25.10000
H  42.23800 6.54400 24.44300
H  40.72300 6.04500 24.02100
H  41.19900 5.84100 25.76100
H  41.12500 11.05300 25.59900
H  41.01800 10.34700 23.97000
H  43.74700 10.62900 24.44500
H  42.89200 12.07200 25.12700
H  42.79700 11.75700 23.46200
H  46.38400 10.41600 28.41800
H  46.37300 11.98900 29.25900
H  45.49700 11.86400 27.78300
H  43.30700 12.17500 33.64600
H  45.87100 10.91400 36.92500
H  44.97300 9.37600 36.67200
H  44.27700 10.82400 37.33800

