158

Mg 8.98700 3.97900 27.99400
C  10.34200 2.22200 30.67800
C  7.13700 5.80700 30.18200
C  7.67700 5.37700 25.33600
C  10.51400 1.46700 25.87900
N  8.75000 3.98500 30.20800
C  9.44600 3.22600 31.10600
C  9.18800 3.73100 32.57700
C  7.98700 4.78900 32.35800
C  8.02100 4.98700 30.82500
C  6.62900 4.23100 32.85500
C  10.50000 4.25800 33.39100
C  10.76600 3.71900 34.74400
H  11.10200 4.77500 35.82400
N  7.74800 5.43300 27.79900
C  7.04900 6.00200 28.81100
C  6.28100 7.11400 28.22100
C  6.58500 7.17000 26.79800
C  7.35300 5.89600 26.54200
C  5.51900 8.18100 28.98500
C  6.28700 8.21700 25.77700
O  6.71900 8.15900 24.63300
C  5.39500 9.46000 26.14900
N  8.97200 3.39300 25.90900
C  8.40800 4.21900 25.00200
C  8.68400 3.77500 23.55200
C  9.63000 2.54200 23.69400
C  9.72100 2.39900 25.24100
C  7.38700 3.54700 22.71000
C  10.99200 2.57100 22.99700
C  11.44200 1.29400 22.27100
N  10.15700 2.21000 28.15000
C  10.72900 1.31000 27.28100
C  11.37900 0.21500 27.96000
C  11.35900 0.55600 29.31800
C  10.64400 1.73500 29.36800
C  12.13000 -0.98000 27.32500
C  11.87300 0.18500 30.63500
O  12.62700 -0.74700 30.95300
C  11.17400 1.21700 31.58600
C  10.39000 0.38800 32.48700
O  9.27700 -0.07300 32.20500
O  11.04900 0.30400 33.68000
C  10.36900 -0.35300 34.76900
H  6.41800 6.32000 30.82400
H  7.33300 5.85400 24.41600
H  10.91800 0.68900 25.22900
H  8.76900 2.92800 33.18400
H  8.09000 5.72800 32.90300
H  6.48600 4.70600 33.82600
H  6.64600 3.15000 32.98800
H  5.76300 4.52900 32.26400
H  10.38000 5.33700 33.48900
H  11.41500 3.94800 32.88800
H  11.67700 3.13700 34.61200
H  9.96000 3.11900 35.16700
H  4.63800 8.38900 28.37800
H  6.04300 9.12900 29.11100
H  5.08200 7.93600 29.95400
H  4.37500 9.20500 26.43600
H  5.28500 9.98800 25.20200
H  5.83600 10.12500 26.89200
H  9.17900 4.65000 23.13100
H  9.00800 1.71600 23.34900
H  6.59100 4.13800 23.16400
H  7.11100 2.53100 22.42500
H  7.68300 4.04700 21.78800
H  11.77300 2.90200 23.68100
H  10.91800 3.30200 22.19200
H  12.12300 1.50600 21.44700
H  10.55700 0.76900 21.91100
H  11.85500 0.65900 23.05400
H  12.13200 -1.83100 28.00600
H  13.04800 -0.65500 26.83500
H  11.48600 -1.34600 26.52600
H  12.01800 1.70600 32.07300
H  11.01800 -0.85900 35.48400
H  9.62600 -1.08900 34.46200
H  9.90600 0.42800 35.37200
Mg 24.24000 -6.82200 46.05900
C  26.53200 -4.37900 45.21000
C  21.88400 -5.29000 43.94000
C  22.15200 -9.42100 46.51400
C  26.81200 -8.56500 47.90700
N  24.26400 -5.09000 44.63400
C  25.30300 -4.21200 44.46100
C  24.93100 -3.07400 43.54200
C  23.37900 -3.31800 43.35700
C  23.14800 -4.67700 43.88500
C  22.47200 -2.15400 44.00100
C  25.77300 -3.13800 42.18000
C  26.70000 -2.00100 41.95600
H  26.85000 -1.32400 40.58400
N  22.21600 -7.26500 45.37400
C  21.47400 -6.53200 44.54200
C  20.27600 -7.26400 44.24800
C  20.25400 -8.45100 45.03200
C  21.51100 -8.43100 45.69700
C  19.19200 -6.71300 43.27300
C  19.17800 -9.44900 45.11400
O  18.22600 -9.36500 44.39100
C  19.08700 -10.60700 46.05600
N  24.54000 -8.78000 46.99700
C  23.41400 -9.62800 47.03400
C  23.83300 -10.97900 47.78200
C  25.32100 -10.67400 48.27400
C  25.64600 -9.26800 47.65900
C  22.77200 -11.46400 48.84700
C  26.37700 -11.62700 47.64600
C  27.36000 -12.22900 48.73000
N  26.26800 -6.54600 46.60900
C  27.12600 -7.31100 47.34500
C  28.36200 -6.51000 47.38600
C  28.14500 -5.42200 46.60800
C  26.87700 -5.48500 46.10700
C  29.63900 -6.94500 47.97600
C  28.74700 -4.19700 46.09200
O  29.86600 -3.76700 46.33600
C  27.76600 -3.55600 45.17000
C  27.55400 -2.16800 45.61800
O  26.87600 -1.75700 46.54000
O  28.13300 -1.31600 44.69800
C  27.97000 0.13300 44.86300
H  21.05200 -4.79800 43.43200
H  21.47200 -10.26900 46.61900
H  27.53100 -9.08200 48.54600
H  25.02900 -2.10400 44.02800
H  23.19700 -3.35300 42.28200
H  21.79500 -2.52800 44.76900
H  21.98000 -1.64000 43.17600
H  22.99800 -1.32300 44.47000
H  25.21400 -3.26600 41.25400
H  26.39800 -4.03100 42.18600
H  27.66900 -2.30800 42.34900
H  26.44600 -1.22900 42.68200
H  19.48500 -7.15200 42.32000
H  19.13600 -5.62400 43.25000
H  18.20900 -7.13400 43.48300
H  18.03400 -10.75300 46.29400
H  19.59100 -10.50300 47.01700
H  19.55500 -11.50100 45.64400
H  23.87900 -11.74000 47.00300
H  25.38900 -10.43800 49.33600
H  22.16300 -12.29600 48.49600
H  22.00000 -10.70200 48.95300
H  23.21000 -11.53500 49.84300
H  26.93900 -11.10700 46.87000
H  25.88200 -12.48200 47.18400
H  27.22600 -13.29900 48.89100
H  27.29200 -11.72200 49.69200
H  28.38400 -12.07500 48.39000
H  29.42600 -7.19500 49.01600
H  30.15900 -5.99300 48.08300
H  30.13100 -7.77500 47.46900
H  28.18400 -3.57800 44.16400
H  26.96200 0.39000 44.53800
H  28.52800 0.73700 44.14700
H  28.09200 0.52300 45.87400

