158

Mg -1.42200 17.17100 26.59800
C  -1.82400 15.11800 29.44600
C  -1.99600 19.87900 28.54700
C  -1.78900 18.83300 23.74600
C  -1.46300 14.17200 24.66100
N  -1.69300 17.38900 28.74100
C  -1.67900 16.46200 29.71700
C  -1.69500 17.14600 31.07700
C  -2.09500 18.61900 30.75200
C  -1.94800 18.64600 29.26100
C  -3.59900 18.99500 31.12900
C  -0.25500 16.98900 31.61600
C  0.06700 17.81500 32.91100
H  -0.05900 17.15600 34.30800
N  -1.65000 19.15600 26.20500
C  -1.85700 20.13400 27.17200
C  -2.01800 21.43500 26.42900
C  -2.21700 21.09500 25.05400
C  -1.87600 19.61600 24.94000
C  -2.19500 22.73300 27.21700
C  -2.58100 21.91400 23.95300
O  -2.62100 21.53600 22.77800
C  -3.00600 23.24200 24.23100
N  -1.37400 16.65600 24.51000
C  -1.50000 17.51100 23.54200
C  -1.48400 16.93100 22.07100
C  -1.33000 15.39700 22.42300
C  -1.40600 15.38200 23.94700
C  -2.68100 17.33500 21.12300
C  -0.08700 14.71800 21.87100
C  0.39200 15.09700 20.40100
N  -1.52600 15.08600 26.92800
C  -1.51800 14.02500 26.07900
C  -1.68800 12.73100 26.83700
C  -1.84100 13.18600 28.16300
C  -1.70900 14.63000 28.13600
C  -1.70000 11.41200 26.23700
C  -2.10700 12.69300 29.48300
O  -2.35900 11.55100 29.89800
C  -2.12200 13.93200 30.41900
C  -1.12500 13.67000 31.43000
O  0.05300 13.51400 31.19000
O  -1.72400 13.51100 32.65700
C  -0.86500 12.95000 33.68500
H  -2.15600 20.78500 29.13400
H  -1.86700 19.29200 22.75800
H  -1.42400 13.23800 24.09600
H  -2.42000 16.74000 31.78200
H  -1.33800 19.33900 31.06200
H  -3.97500 18.28000 31.86100
H  -4.24900 19.19900 30.27800
H  -3.45200 19.92400 31.67900
H  0.48200 17.09100 30.81900
H  -0.29500 15.92600 31.85100
H  -0.73200 18.55300 32.97800
H  1.01500 18.35100 32.86400
H  -3.26500 22.92500 27.30500
H  -1.90400 23.64100 26.69000
H  -1.90200 22.74400 28.26700
H  -3.29800 23.81500 23.35100
H  -2.16000 23.82500 24.59200
H  -3.83300 23.20200 24.94100
H  -0.56000 17.21200 21.56600
H  -2.18900 14.90700 21.96500
H  -3.28500 16.47400 20.83700
H  -2.32300 17.84800 20.23000
H  -3.27000 18.16800 21.50700
H  -0.31300 13.65500 21.78700
H  0.79000 14.82300 22.51000
H  1.26300 15.74700 20.48300
H  -0.42100 15.52600 19.81500
H  0.60700 14.13500 19.93700
H  -0.98100 10.94600 26.91000
H  -1.33600 11.41300 25.21000
H  -2.72300 11.04600 26.32300
H  -3.07900 14.01900 30.93300
H  -0.70400 13.75400 34.40400
H  0.08100 12.52000 33.35500
H  -1.20500 12.09200 34.26500
Mg 9.56100 48.07000 26.18000
C  7.74300 48.25100 29.23100
C  12.41600 49.04600 27.77900
C  11.16700 47.99400 23.19400
C  6.54500 47.57800 24.54400
N  10.00900 48.61300 28.28700
C  9.15400 48.50600 29.32500
C  9.95400 48.86700 30.67300
C  11.23000 49.56300 30.14200
C  11.24300 49.06900 28.67200
C  11.27600 51.10700 30.11300
C  10.22000 47.63600 31.57700
C  10.03500 47.95400 33.10000
H  10.14200 46.76600 34.08300
N  11.54200 48.37300 25.64800
C  12.61500 48.74800 26.39700
C  13.77500 48.72700 25.60400
C  13.44300 48.37000 24.26300
C  11.93800 48.19800 24.33800
C  15.18600 48.99300 26.18700
C  14.36400 48.16100 23.01900
O  13.96100 47.87700 21.88500
C  15.80000 48.37200 23.18500
N  8.92800 48.05400 24.13400
C  9.76800 48.05800 23.05500
C  9.08400 47.77200 21.67400
C  7.68800 47.25500 22.21600
C  7.69500 47.59400 23.77800
C  8.89400 49.06200 20.80700
C  7.36800 45.77400 21.93000
C  6.51100 45.35400 20.72200
N  7.53600 47.85200 26.73000
C  6.42400 47.73200 25.90900
C  5.29500 47.45700 26.77100
C  5.74400 47.85200 28.05000
C  7.12400 47.95600 27.99900
C  3.98600 46.90400 26.39500
C  5.33900 47.95000 29.43300
O  4.24400 47.94700 29.97900
C  6.65700 48.11000 30.29500
C  6.77800 46.78900 30.96100
O  6.91500 45.69700 30.36000
O  6.57600 46.89300 32.30500
C  6.38000 45.60000 32.97600
H  13.27400 49.49800 28.28200
H  11.65300 47.75600 22.24500
H  5.63400 47.17400 24.09800
H  9.53000 49.66300 31.28500
H  12.14100 49.09200 30.51100
H  12.04600 51.57300 30.72900
H  10.34300 51.56200 30.44400
H  11.51800 51.37400 29.08400
H  11.23900 47.27400 31.43800
H  9.42100 46.91200 31.41800
H  8.98400 48.24300 33.13500
H  10.68400 48.73700 33.49200
H  15.09900 49.15900 27.26100
H  15.80800 49.77800 25.75700
H  15.81100 48.11600 26.02200
H  16.06200 49.25200 23.77400
H  16.22500 48.51200 22.19100
H  16.12300 47.48600 23.73300
H  9.54300 46.95700 21.11500
H  6.93600 47.89400 21.75200
H  9.70900 49.02000 20.08500
H  9.02700 49.84000 21.55900
H  7.92000 49.20800 20.33900
H  7.00300 45.43200 22.89800
H  8.30900 45.26500 21.71900
H  6.21100 46.28400 20.23800
H  5.64400 44.72600 20.92600
H  7.14800 44.88800 19.97100
H  3.93000 46.40100 25.43000
H  3.19500 47.65300 26.36800
H  3.74800 46.15300 27.14800
H  6.61000 48.91400 31.03000
H  6.12000 45.91100 33.98800
H  7.26300 44.96200 32.95800
H  5.46900 45.16100 32.56900

