158

Mg 24.69000 -5.22700 46.18300
C  26.63400 -2.80200 44.58200
C  22.05000 -4.55500 44.23600
C  23.42000 -8.27300 46.97200
C  27.72700 -6.32400 47.79800
N  24.51400 -3.95600 44.50600
C  25.35400 -2.98200 44.06300
C  24.67000 -2.03400 42.96500
C  23.14400 -2.44200 43.16700
C  23.21400 -3.71100 43.99500
C  22.30000 -1.27300 43.68500
C  25.27500 -2.49400 41.63400
C  25.68500 -1.29700 40.72900
H  25.13300 -1.26200 39.27900
N  22.91300 -6.15800 45.81500
C  21.92000 -5.72400 45.02300
C  20.78500 -6.58900 45.05600
C  21.18300 -7.66300 45.81600
C  22.56700 -7.40700 46.29200
C  19.55000 -6.30900 44.26600
C  20.28000 -8.75300 46.29100
O  19.13900 -8.81000 45.84300
C  20.67200 -9.92300 47.24700
N  25.39900 -7.02600 47.45000
C  24.71700 -8.14400 47.44900
C  25.49900 -9.27500 48.12100
C  26.89700 -8.69100 48.48900
C  26.67200 -7.24500 47.87400
C  24.83100 -10.02000 49.32200
C  28.21600 -9.43900 47.87500
C  28.20700 -10.98800 47.86500
N  26.69200 -4.57500 46.37100
C  27.77400 -5.11600 47.04300
C  28.96800 -4.25600 46.81100
C  28.55800 -3.34800 45.83000
C  27.18400 -3.59100 45.53800
C  30.28100 -4.33300 47.44400
C  28.98600 -2.36500 45.00100
O  30.09600 -1.95100 44.83100
C  27.79200 -1.87900 44.12600
C  27.45100 -0.47500 44.34100
O  27.03600 -0.11900 45.43700
O  27.79100 0.30100 43.25200
C  27.88400 1.74400 43.40100
H  21.19400 -4.28100 43.61700
H  23.17000 -9.33400 47.02500
H  28.66200 -6.68600 48.23000
H  24.76700 -0.99600 43.28400
H  22.67300 -2.73600 42.23000
H  22.87300 -0.44700 44.10700
H  21.56100 -1.48700 44.45700
H  21.63100 -0.96700 42.88100
H  24.55400 -3.10300 41.08900
H  26.18900 -3.02900 41.89400
H  26.77100 -1.20700 40.74500
H  25.21000 -0.40000 41.12700
H  19.01400 -7.23100 44.04100
H  19.74800 -5.72500 43.36700
H  18.73700 -5.84800 44.82600
H  19.75600 -10.49100 47.41100
H  21.03300 -9.54700 48.20500
H  21.38800 -10.65100 46.86500
H  25.68700 -9.94700 47.28400
H  26.97000 -8.52200 49.56300
H  24.87900 -11.07200 49.04100
H  23.79900 -9.67900 49.41300
H  25.32300 -9.93500 50.29100
H  29.07300 -9.15600 48.48500
H  28.38800 -9.20300 46.82500
H  28.78400 -11.49700 48.63700
H  28.66300 -11.29600 46.92400
H  27.15600 -11.26400 47.95600
H  30.79400 -5.24400 47.13600
H  30.25400 -4.47100 48.52500
H  30.88400 -3.44900 47.23300
H  28.01700 -1.92100 43.06100
H  27.86900 2.05100 44.44700
H  27.06600 2.26900 42.90900
H  28.85200 2.08700 43.03500
Mg 50.17600 45.66400 42.28100
C  47.06900 46.41400 40.77600
C  49.72500 42.40500 40.91400
C  53.47900 45.10200 42.42900
C  50.66900 49.06800 42.87700
N  48.48800 44.50000 41.00700
C  47.33300 45.07300 40.49200
C  46.53700 44.07000 39.66400
C  47.31100 42.70800 40.03800
C  48.64800 43.17600 40.68700
C  46.44900 41.79500 41.00100
C  46.51900 44.50500 38.23200
C  45.16400 44.39900 37.46900
H  45.17500 43.91200 36.00400
N  51.46200 43.98600 41.89600
C  51.06100 42.75500 41.42800
C  52.18100 41.89100 41.49400
C  53.27000 42.63600 42.02200
C  52.73600 43.94800 42.13900
C  52.18100 40.33100 41.21900
C  54.61700 42.06800 42.31100
O  54.96100 40.94500 41.97900
C  55.60900 42.92900 42.96900
N  51.83500 46.97000 42.67800
C  53.12300 46.44200 42.65500
C  54.19300 47.56900 42.87600
C  53.26400 48.83200 43.09600
C  51.83000 48.27700 42.92500
C  55.17000 47.27700 44.04300
C  53.65900 50.11000 42.23600
C  54.66800 51.03600 42.91600
N  49.11500 47.43100 41.97500
C  49.45200 48.72700 42.27100
C  48.32100 49.59500 41.90400
C  47.38300 48.73800 41.29500
C  47.90800 47.39100 41.37300
C  48.27700 51.00200 42.02500
C  46.20100 48.70300 40.54600
O  45.42800 49.58900 40.12100
C  45.95300 47.25400 40.31600
C  44.69700 46.84200 40.89800
O  44.52600 46.59200 42.08900
O  43.67600 46.75500 39.96100
C  42.39200 46.38700 40.45000
H  49.57100 41.35300 40.66600
H  54.56500 45.07900 42.31900
H  50.86700 50.12700 43.05100
H  45.53600 44.01100 40.09100
H  47.44700 42.00000 39.22000
H  46.52400 40.76700 40.64700
H  45.41900 42.14200 41.07600
H  46.84500 41.73700 42.01500
H  47.23300 43.86700 37.71200
H  46.90300 45.51900 38.11200
H  44.62500 45.34600 37.49600
H  44.60000 43.65600 38.03200
H  52.64000 40.27000 40.23300
H  51.17100 39.92900 41.13700
H  52.74000 39.71100 41.92000
H  56.42900 42.42000 43.47600
H  55.13000 43.53900 43.73500
H  55.97200 43.64600 42.23200
H  54.68300 47.61000 41.90300
H  53.22400 49.15500 44.13700
H  54.93600 47.75500 44.99400
H  56.21600 47.31900 43.73900
H  55.01800 46.22500 44.28600
H  52.79400 50.62300 41.81700
H  54.15100 49.72500 41.34200
H  54.31100 52.04800 43.10400
H  55.51700 51.23200 42.26100
H  55.14200 50.73500 43.85000
H  47.94000 51.35000 43.00200
H  47.61600 51.52300 41.33300
H  49.31000 51.24700 41.77600
H  45.72100 47.18000 39.25400
H  42.00400 47.06300 41.21100
H  42.27700 45.42300 40.94600
H  41.70500 46.40400 39.60400

