158

Mg 43.88000 3.14200 47.88800
C  41.63700 5.65900 47.03600
C  41.29300 0.83400 47.61600
C  46.09200 0.58300 47.90000
C  46.43700 5.45200 47.52500
N  41.82000 3.27500 47.39100
C  41.11000 4.34300 47.07100
C  39.61600 4.11700 46.94100
C  39.46500 2.64200 47.32700
C  40.95600 2.24700 47.55200
C  38.66000 2.44900 48.69800
C  39.11500 4.38000 45.51500
C  37.73900 5.08400 45.35800
H  37.71500 6.19900 44.24000
N  43.65500 0.93600 47.99100
C  42.48800 0.25600 47.86100
C  42.86100 -1.14900 48.02800
C  44.29700 -1.26900 48.18600
C  44.76500 0.09600 48.05100
C  41.87300 -2.26500 47.85100
C  45.07700 -2.52300 48.42200
O  44.53700 -3.66300 48.46400
C  46.56100 -2.52200 48.71600
N  45.99900 2.97700 47.60700
C  46.70700 1.82300 47.77600
C  48.20000 2.08000 47.88200
C  48.27900 3.67100 47.69200
C  46.79300 4.08400 47.63500
C  48.69600 1.77400 49.26300
C  49.09600 4.14400 46.44300
C  48.60600 3.83400 45.05900
N  44.10700 5.16200 47.40400
C  45.16800 5.98300 47.47500
C  44.77200 7.36700 47.38100
C  43.35500 7.29700 47.23700
C  43.04800 5.89200 47.19200
C  45.69900 8.48200 47.49400
C  42.08300 8.05800 47.09800
O  41.76100 9.24300 47.16900
C  40.91000 6.97600 46.87600
C  39.90600 7.27700 47.87700
O  40.06500 7.03000 49.09500
O  38.81100 7.85700 47.31900
C  37.87300 8.41300 48.34400
H  40.43500 0.17500 47.46500
H  46.92600 -0.10400 48.05700
H  47.25400 6.17600 47.56200
H  39.12900 4.79600 47.64100
H  38.95300 2.03900 46.57700
H  39.29200 2.43100 49.58600
H  38.23500 1.44600 48.72000
H  37.83100 3.14100 48.85000
H  38.99300 3.45300 44.95500
H  39.85900 4.87200 44.88800
H  37.38600 5.51600 46.29400
H  37.13000 4.22200 45.08500
H  40.90000 -1.77300 47.86500
H  41.94200 -3.00000 48.65300
H  42.08900 -2.77400 46.91100
H  47.03100 -2.54300 47.73200
H  46.77100 -3.46100 49.22700
H  46.90300 -1.67100 49.30500
H  48.72100 1.51900 47.10600
H  48.58300 4.24600 48.56700
H  49.08200 0.76000 49.35900
H  47.92600 1.91300 50.02200
H  49.53800 2.43800 49.46200
H  50.06800 3.65400 46.49500
H  49.18300 5.22200 46.57300
H  48.36200 4.79500 44.60500
H  47.73000 3.18600 45.06500
H  49.34400 3.29700 44.46300
H  46.42800 8.57400 48.29900
H  45.01300 9.32600 47.43300
H  46.13100 8.68000 46.51300
H  40.42900 7.06300 45.90100
H  38.23000 9.37600 48.70900
H  37.60600 7.69800 49.12200
H  36.90400 8.62500 47.89100
Mg 46.81900 44.45400 42.18400
C  43.38800 43.51400 42.09700
C  47.62200 41.03100 42.00200
C  49.93900 45.25400 41.76100
C  45.75500 47.79600 41.76100
N  45.58800 42.51100 41.91700
C  44.20000 42.38700 41.97100
C  43.72000 40.92900 41.90000
C  45.05300 40.08200 42.01300
C  46.22800 41.23000 41.91200
C  45.23400 39.10500 43.23600
C  42.84400 40.60900 40.59000
C  43.11000 41.46300 39.29700
H  43.20300 40.60600 38.01000
N  48.56600 43.26900 41.91200
C  48.72800 41.95400 42.03200
C  50.12800 41.67400 41.93300
C  50.85300 42.87100 41.69800
C  49.77500 43.86400 41.79500
C  50.62000 40.27600 42.02000
C  52.33700 42.92600 41.42400
O  53.04700 41.91900 41.56400
C  52.97300 44.19100 40.92100
N  47.76900 46.25500 41.78300
C  49.12100 46.38100 41.82600
C  49.49100 47.81100 41.81200
C  48.12600 48.63100 41.84100
C  47.14000 47.46200 41.77700
C  50.41800 48.23500 43.04500
C  47.93500 49.65600 40.65000
C  47.49700 50.98400 41.11600
N  44.97000 45.50900 41.98700
C  44.69000 46.84100 41.83300
C  43.28500 47.09000 41.93400
C  42.70800 45.82600 42.06600
C  43.79400 44.87600 42.05000
C  42.53100 48.40300 41.93400
C  41.48500 45.11900 42.31600
O  40.33500 45.46900 42.45900
C  41.90900 43.65300 42.35000
C  41.54800 43.01200 43.53400
O  40.77800 42.06000 43.65300
O  42.03200 43.76900 44.58500
C  41.98600 43.13900 45.90300
H  47.90500 39.98200 42.11200
H  50.97800 45.59000 41.76800
H  45.38900 48.82400 41.70800
H  43.25800 40.63000 42.84100
H  45.10300 39.40500 41.16000
H  46.29100 39.17400 43.49300
H  45.05500 38.08300 42.90400
H  44.61200 39.21900 44.12300
H  41.85400 40.82400 40.99300
H  42.85400 39.54100 40.37100
H  44.02500 42.03700 39.44100
H  42.31400 42.16100 39.03900
H  51.11600 40.07900 41.07000
H  49.86700 39.49600 42.14000
H  51.39500 40.23800 42.78600
H  52.16200 44.61000 40.32600
H  53.71700 43.96600 40.15800
H  53.33000 44.83300 41.72600
H  50.03800 47.93600 40.87800
H  47.94500 49.13300 42.79200
H  51.32000 48.61600 42.56700
H  50.70300 47.43300 43.72700
H  49.98900 49.01500 43.67400
H  47.13400 49.30600 39.99900
H  48.80700 49.74000 40.00300
H  46.60400 51.30400 40.57900
H  48.32400 51.64900 40.86900
H  47.19300 51.07100 42.15900
H  41.90100 48.48600 42.82000
H  42.00600 48.47000 40.98100
H  43.26200 49.21100 41.96900
H  41.44300 43.15900 41.49700
H  40.94000 42.92300 46.12200
H  42.53600 43.80100 46.57100
H  42.55200 42.21200 45.99200

