158

Mg 17.57000 -1.23700 28.63900
C  16.27600 0.66300 31.13000
C  19.20800 -3.14300 30.79500
C  19.05500 -2.74000 26.01700
C  16.07800 1.08100 26.35300
N  17.84800 -1.10200 30.76500
C  17.11600 -0.39500 31.57800
C  17.40900 -0.80600 33.03600
C  18.46000 -1.89600 32.89400
C  18.59500 -2.04000 31.38900
C  19.77400 -1.54400 33.54200
C  16.10600 -1.16200 33.79300
C  15.99300 -0.77200 35.23200
H  17.31300 -0.29400 36.00300
N  18.86000 -2.79500 28.41400
C  19.38500 -3.48500 29.49500
C  20.15200 -4.61100 29.04800
C  20.15200 -4.52600 27.60400
C  19.31700 -3.27300 27.29400
C  20.65300 -5.69300 29.95000
C  20.78800 -5.48200 26.58300
O  20.68300 -5.27900 25.38200
C  21.47500 -6.73000 27.07900
N  17.38800 -1.05800 26.37400
C  18.15800 -1.79200 25.60100
C  18.06200 -1.26800 24.17300
C  17.01000 -0.08200 24.21700
C  16.72500 -0.00600 25.73100
C  19.43100 -0.89400 23.50700
C  15.66700 -0.26000 23.37900
C  14.34000 -0.84100 23.98800
N  16.33600 0.49300 28.64900
C  15.83000 1.36700 27.71600
C  15.01400 2.45000 28.30000
C  15.16300 2.18300 29.70900
C  15.96000 1.02300 29.82900
C  14.26300 3.46700 27.55300
C  14.82900 2.69000 31.01000
O  14.10900 3.55300 31.39700
C  15.58900 1.74600 31.91700
C  16.46100 2.60100 32.78600
O  17.57900 3.01100 32.41900
O  15.85400 2.91800 33.96300
C  16.52800 3.88800 34.73300
H  19.69800 -3.67400 31.61400
H  19.47700 -3.19900 25.12000
H  15.70200 1.74300 25.57100
H  17.79900 0.07900 33.53800
H  18.28100 -2.85500 33.38100
H  20.01100 -2.19300 34.38600
H  19.66700 -0.56200 34.00200
H  20.53900 -1.49400 32.76700
H  16.06800 -2.23800 33.62000
H  15.26900 -0.71200 33.26100
H  15.63800 -1.71200 35.65400
H  15.26300 0.02000 35.39800
H  20.25300 -6.66100 29.64800
H  20.51300 -5.46400 31.00600
H  21.74200 -5.73500 29.96800
H  22.21100 -6.33100 27.77800
H  21.94300 -7.16200 26.19300
H  20.68300 -7.36300 27.48000
H  17.53900 -2.06000 23.63600
H  17.42400 0.86300 23.86500
H  20.28700 -1.03000 24.16800
H  19.38800 0.11700 23.10100
H  19.56700 -1.63600 22.72000
H  15.91900 -1.01100 22.63000
H  15.44200 0.73200 22.98700
H  13.55700 -0.08400 23.95600
H  14.42100 -1.10900 25.04200
H  13.95000 -1.66800 23.39400
H  13.63100 3.90600 28.32500
H  13.67700 2.97300 26.77800
H  14.97400 4.17300 27.12400
H  14.81600 1.32200 32.55700
H  16.72700 4.72100 34.05800
H  17.51200 3.56100 35.06700
H  15.89000 4.40100 35.45300
Mg 30.18400 57.96100 41.16400
C  27.49500 56.50300 39.52300
C  32.24000 55.67600 39.75500
C  32.72700 60.08100 41.65400
C  27.92500 60.56000 41.99100
N  29.91100 56.35100 39.79500
C  28.72400 55.85000 39.33200
C  28.93700 54.54300 38.57900
C  30.41300 54.17100 39.02300
C  30.89300 55.46300 39.74600
C  30.69300 52.90600 39.85000
C  28.69300 54.68100 37.00800
C  27.73800 53.61900 36.36400
H  26.83100 54.21500 35.23300
N  32.31800 57.92400 40.77600
C  32.93600 56.81700 40.22700
C  34.32500 57.05400 40.15000
C  34.58100 58.38700 40.73500
C  33.20500 58.84500 41.07400
C  35.12100 56.06000 39.53600
C  35.88100 59.06600 40.91500
O  36.93300 58.60800 40.40600
C  35.99500 60.34900 41.60700
N  30.33200 60.01600 41.79300
C  31.47100 60.62200 42.01100
C  31.32500 62.06000 42.53500
C  29.82800 62.19900 42.82100
C  29.31700 60.83200 42.16700
C  32.28300 62.40000 43.70900
C  29.22100 63.47000 42.14200
C  27.97400 64.05900 42.84500
N  28.09600 58.28600 41.10400
C  27.33100 59.37200 41.51600
C  25.87600 59.23700 41.19800
C  25.92200 58.12800 40.30700
C  27.26400 57.60400 40.29500
C  24.79200 60.12700 41.44300
C  25.12500 57.26900 39.48500
O  23.90800 57.30000 39.19700
C  26.14800 56.15100 38.99100
C  25.76800 54.79100 39.53400
O  26.09000 54.23200 40.57000
O  25.02200 54.27100 38.56200
C  24.26000 53.02700 38.75800
H  32.83400 54.80400 39.47700
H  33.49100 60.84900 41.79000
H  27.20900 61.32300 42.30400
H  28.28800 53.78300 39.01400
H  31.03000 54.01000 38.13900
H  31.53100 52.38300 39.38900
H  29.80500 52.32700 40.10400
H  31.02800 53.24500 40.83000
H  29.64800 54.51000 36.51000
H  28.19700 55.62300 36.77200
H  27.00900 53.22400 37.07100
H  28.27100 52.78000 35.91800
H  34.76000 55.95700 38.51300
H  35.08200 55.12900 40.10200
H  36.19700 56.21700 39.46400
H  35.63500 61.09000 40.89300
H  37.03800 60.49700 41.88600
H  35.39100 60.28100 42.51200
H  31.65700 62.69400 41.71300
H  29.56600 62.20600 43.87900
H  31.88600 63.11400 44.43100
H  33.17300 62.78600 43.21300
H  32.57200 61.53200 44.30200
H  28.93600 63.36200 41.09600
H  29.92700 64.30100 42.14300
H  28.14500 65.06800 43.22200
H  27.58400 63.33800 43.56300
H  27.13400 64.05100 42.14900
H  24.72500 60.92100 40.70000
H  25.08200 60.51400 42.42000
H  23.84400 59.59100 41.39500
H  26.25500 56.11900 37.90600
H  24.83500 52.37200 39.41300
H  24.00100 52.52700 37.82500
H  23.32400 53.18700 39.29400

