158

Mg 17.09100 -0.63300 27.67000
C  15.84400 1.23200 30.26700
C  19.07200 -2.39700 29.86800
C  18.70100 -2.09000 24.89500
C  15.43100 1.53300 25.34200
N  17.43100 -0.46600 29.78800
C  16.81700 0.27400 30.68900
C  17.18000 -0.19000 32.13600
C  18.29400 -1.23900 31.88500
C  18.21700 -1.42300 30.39500
C  19.71300 -0.84400 32.46100
C  15.95000 -0.59100 32.95300
C  15.73900 0.17500 34.32600
H  16.92000 0.78000 35.14800
N  18.59300 -2.09200 27.43300
C  19.24800 -2.68800 28.52300
C  20.15000 -3.71900 27.97000
C  20.05000 -3.66800 26.53300
C  19.06500 -2.60800 26.19400
C  20.88500 -4.69500 28.78400
C  20.58000 -4.64100 25.55500
O  20.18100 -4.69700 24.40000
C  21.74300 -5.69800 25.93800
N  17.02500 -0.38500 25.44700
C  17.85200 -1.06200 24.57700
C  17.71800 -0.57600 23.15300
C  16.69000 0.57900 23.23500
C  16.28400 0.57500 24.75600
C  19.13700 -0.14100 22.55100
C  15.47200 0.42400 22.21800
C  15.05500 1.79500 21.52200
N  15.88100 1.01900 27.64900
C  15.27700 1.76400 26.70900
C  14.52500 2.86100 27.34200
C  14.73900 2.70000 28.75700
C  15.57500 1.54100 28.88300
C  13.77600 3.85500 26.61600
C  14.42300 3.20700 30.09100
O  13.83200 4.20700 30.49900
C  15.13200 2.28900 31.12700
C  16.02500 3.04500 32.07300
O  17.20400 3.38200 31.88900
O  15.26800 3.45900 33.17300
C  15.75000 4.55200 34.03500
H  19.56000 -2.96000 30.66700
H  19.23800 -2.52800 24.05100
H  15.02500 2.22900 24.60500
H  17.62700 0.68200 32.61300
H  17.96400 -2.22200 32.22200
H  20.51100 -0.76600 31.72200
H  19.96700 -1.71700 33.06200
H  19.69500 0.10100 33.00400
H  15.82600 -1.66300 33.10700
H  15.16600 -0.28300 32.26100
H  15.31700 -0.66200 34.88300
H  14.96000 0.87500 34.02500
H  20.26400 -5.57300 28.96600
H  20.98600 -4.17000 29.73300
H  21.93400 -4.84700 28.52700
H  21.21000 -6.40700 26.57100
H  22.48500 -5.40200 26.67900
H  22.23900 -6.17900 25.09400
H  17.41600 -1.43600 22.55500
H  17.22600 1.50700 23.03800
H  19.94000 -0.11400 23.28800
H  19.10400 0.82400 22.04600
H  19.44900 -0.80900 21.74800
H  14.59000 0.01400 22.70900
H  15.80800 -0.18800 21.38100
H  15.71600 2.64700 21.68200
H  14.07200 2.07300 21.90200
H  14.88600 1.73100 20.44800
H  12.87500 3.43700 26.16600
H  14.36900 4.35700 25.85300
H  13.48300 4.63700 27.31700
H  14.37000 1.82700 31.75500
H  16.30800 4.20500 34.90400
H  14.82900 5.10300 34.22800
H  16.36700 5.14000 33.35400
Mg -10.96700 39.60900 40.82500
C  -9.82400 36.44500 39.65300
C  -7.95600 40.96800 39.85700
C  -12.42000 42.55200 41.14500
C  -14.00000 38.02000 41.88700
N  -9.17900 38.76700 39.63200
C  -8.91900 37.46700 39.46200
C  -7.44200 37.25900 39.07100
C  -6.79600 38.66000 39.48100
C  -8.03800 39.50400 39.63800
C  -5.89900 38.67500 40.74800
C  -7.08800 36.80400 37.61600
C  -8.09100 37.23200 36.54200
H  -8.66600 36.12900 35.70200
N  -10.25800 41.54600 40.71000
C  -9.04700 41.85200 40.15600
C  -8.96300 43.32400 40.06500
C  -10.29300 43.83000 40.31500
C  -11.07600 42.63000 40.74500
C  -7.68400 43.96200 39.80000
C  -10.74500 45.23200 40.05700
O  -9.88900 46.03900 39.65500
C  -12.21600 45.62000 40.07400
N  -12.86500 40.21100 41.56400
C  -13.22500 41.52000 41.57500
C  -14.68100 41.60600 42.05400
C  -15.08800 40.24100 42.53700
C  -13.91700 39.40300 41.89000
C  -15.00300 42.82800 43.02500
C  -16.48600 39.88000 41.93100
C  -17.58200 39.61900 42.98800
N  -11.77400 37.63100 40.83700
C  -13.00200 37.14100 41.33700
C  -12.97100 35.64300 41.11100
C  -11.76500 35.36300 40.40800
C  -11.08100 36.60000 40.29300
C  -14.06000 34.75900 41.59000
C  -10.93700 34.31700 39.85500
O  -11.10300 33.09400 39.82500
C  -9.57500 34.98400 39.47400
C  -8.59500 34.52500 40.44100
O  -8.49700 34.76800 41.68400
O  -7.72000 33.65900 39.76700
C  -6.80200 32.85500 40.64500
H  -6.97400 41.29900 39.51500
H  -13.02800 43.44400 41.30900
H  -14.92800 37.50700 42.14900
H  -7.01900 36.52000 39.75200
H  -6.05900 38.98400 38.74600
H  -5.65400 37.63200 40.95000
H  -6.49400 39.13200 41.53900
H  -5.02600 39.31800 40.63300
H  -6.82000 35.74800 37.59000
H  -6.09600 37.12800 37.30100
H  -7.49400 37.79100 35.82200
H  -8.96100 37.76100 36.92900
H  -7.77000 45.04200 39.91100
H  -7.25900 43.77000 38.81500
H  -7.02100 43.57000 40.57100
H  -12.70600 45.79400 41.03200
H  -12.71500 44.85700 39.47600
H  -12.25500 46.60200 39.60100
H  -15.13600 41.79000 41.08100
H  -14.92200 40.21400 43.61400
H  -15.10500 43.73400 42.42700
H  -14.13600 42.99300 43.66500
H  -15.85300 42.59000 43.66500
H  -16.36700 38.93100 41.41000
H  -16.76500 40.61300 41.17300
H  -17.14200 39.73300 43.97900
H  -18.04500 38.63300 43.02300
H  -18.41100 40.31300 42.85400
H  -14.74300 35.20900 42.31100
H  -13.68700 33.86100 42.08200
H  -14.84100 34.45700 40.89100
H  -9.34200 34.68800 38.45200
H  -5.77000 32.99000 40.32300
H  -6.95100 31.77600 40.59200
H  -6.65300 33.32700 41.61600

