158

Mg -1.66300 16.68400 27.16500
C  -2.00200 14.39900 29.78600
C  -2.70200 19.13800 29.27900
C  -1.81900 18.74100 24.53000
C  -1.44200 14.01300 25.04500
N  -2.08600 16.74700 29.32000
C  -2.00600 15.75800 30.24300
C  -2.06200 16.28700 31.71900
C  -2.40300 17.83800 31.50700
C  -2.43900 17.87200 29.92400
C  -3.71800 18.38000 32.13300
C  -0.77700 15.97600 32.54700
C  -0.44900 17.01300 33.65900
H  0.26700 16.48000 34.96700
N  -2.01800 18.72700 26.95800
C  -2.44500 19.59400 27.96200
C  -2.55200 20.94400 27.41000
C  -2.10000 20.82300 26.05400
C  -1.97000 19.37900 25.77500
C  -2.93500 22.16600 28.31600
C  -1.91100 21.86600 24.92200
O  -1.43100 21.57200 23.83600
C  -2.36700 23.31000 25.07400
N  -1.74800 16.40900 25.05800
C  -1.69400 17.39000 24.17400
C  -1.60400 16.93000 22.72600
C  -1.53900 15.42700 22.86700
C  -1.49100 15.26100 24.41300
C  -2.75500 17.44100 21.73500
C  -0.54500 14.61200 22.04300
C  0.88000 14.65300 22.68300
N  -1.71700 14.60200 27.30300
C  -1.53500 13.63600 26.34900
C  -1.57800 12.35300 26.87600
C  -1.80200 12.59000 28.25200
C  -1.90200 13.94300 28.48700
C  -1.50700 11.03100 26.17900
C  -1.98700 11.96000 29.52100
O  -2.00000 10.76300 29.91200
C  -2.22600 13.12600 30.54600
C  -1.49400 12.89900 31.79100
O  -0.32700 12.57000 31.74300
O  -2.22900 13.02800 32.96800
C  -1.48500 12.67700 34.22400
H  -2.74800 19.91700 30.04200
H  -1.91500 19.38400 23.65400
H  -1.12200 13.13200 24.48400
H  -2.82200 15.79500 32.32600
H  -1.54700 18.41800 31.85300
H  -4.30100 18.85400 31.34400
H  -3.42700 19.17500 32.81900
H  -4.37800 17.65700 32.61200
H  -0.00200 15.89000 31.78400
H  -0.97500 15.10400 33.17000
H  -1.45700 17.35000 33.90200
H  0.04300 17.83500 33.14000
H  -3.97700 22.18500 28.63900
H  -2.64300 23.05200 27.75200
H  -2.31000 22.12600 29.20800
H  -1.74800 23.74200 25.86100
H  -3.35900 23.17900 25.50700
H  -2.37200 23.73900 24.07200
H  -0.68200 17.38600 22.36500
H  -2.57600 15.14300 22.68300
H  -3.51400 16.70300 21.47400
H  -2.29800 17.60600 20.76000
H  -3.21500 18.32600 22.17400
H  -0.58500 15.10500 21.07100
H  -0.87600 13.57800 21.94800
H  1.60800 15.02000 21.95900
H  1.14000 13.62800 22.94800
H  0.96600 15.28600 23.56600
H  -1.84400 11.01900 25.14300
H  -2.07300 10.28200 26.73300
H  -0.44900 10.76800 26.16000
H  -3.27400 13.25700 30.81400
H  -2.26200 12.33900 34.91000
H  -0.97400 13.52100 34.68800
H  -0.85900 11.82200 33.97200
Mg 17.19800 -2.42900 28.14300
C  16.39300 -0.19400 30.80600
C  19.16800 -4.08900 30.29000
C  18.59000 -3.86000 25.59900
C  15.69200 0.04400 26.02100
N  17.87900 -1.98600 30.28300
C  17.21400 -1.25300 31.24700
C  17.52500 -1.70500 32.64900
C  18.64400 -2.76300 32.36700
C  18.52100 -3.00600 30.85400
C  20.04800 -2.32900 32.81900
C  16.30300 -2.22000 33.48400
C  16.24200 -1.67200 34.92200
H  17.49200 -1.03900 35.58200
N  18.56800 -3.97500 27.97000
C  19.18100 -4.54500 28.96700
C  19.82600 -5.77200 28.48700
C  19.75700 -5.69000 27.06600
C  18.94600 -4.48000 26.83800
C  20.42300 -6.87000 29.35600
C  20.19800 -6.64000 25.98200
O  19.87700 -6.46600 24.81000
C  20.85600 -8.03400 26.33000
N  17.10800 -1.98500 26.14600
C  17.83400 -2.70400 25.26000
C  17.64200 -2.23800 23.74200
C  16.68100 -1.08400 23.96000
C  16.39800 -1.00600 25.44100
C  19.04700 -1.69300 23.13100
C  15.39200 -1.05200 23.08100
C  14.12500 -1.56900 23.63300
N  16.11700 -0.51400 28.31800
C  15.46000 0.29400 27.38400
C  14.85100 1.36200 28.03100
C  15.19700 1.23000 29.36500
C  15.99600 0.09500 29.48300
C  13.95000 2.52100 27.45500
C  15.05400 1.84000 30.63400
O  14.44800 2.90200 31.01100
C  15.67300 0.85000 31.65800
C  16.59500 1.69100 32.53700
O  17.69000 2.22900 32.31800
O  15.88100 1.98500 33.63600
C  16.30300 3.08600 34.44800
H  19.76200 -4.70100 30.97200
H  19.00300 -4.29100 24.68400
H  15.23600 0.76900 25.34400
H  17.78900 -0.79800 33.19300
H  18.43300 -3.69600 32.88900
H  20.20000 -1.30000 33.14400
H  20.70400 -2.57600 31.98400
H  20.40300 -3.01100 33.59200
H  16.27400 -3.30300 33.60600
H  15.44000 -2.03500 32.84400
H  16.00800 -2.44100 35.65800
H  15.43100 -0.94900 34.84800
H  20.56700 -6.59000 30.39900
H  21.40100 -7.06400 28.91300
H  19.71000 -7.69200 29.28500
H  20.17000 -8.62300 26.93900
H  21.84800 -7.86000 26.74800
H  20.98200 -8.61100 25.41400
H  17.15700 -3.03800 23.18300
H  17.19400 -0.13800 23.78400
H  18.92100 -0.76700 22.57100
H  19.36400 -2.35100 22.32200
H  19.93300 -1.62800 23.76200
H  15.54300 -1.72500 22.23700
H  15.18600 -0.07600 22.64100
H  14.34900 -2.45800 24.22300
H  13.39200 -1.81800 22.86600
H  13.70300 -0.91600 24.39800
H  12.93200 2.28400 27.14500
H  14.53300 3.02400 26.68400
H  13.86100 3.32200 28.18900
H  14.90700 0.40600 32.29400
H  15.99200 4.03500 34.01200
H  17.39300 3.09200 34.43800
H  15.80500 2.95300 35.40800

