158

Mg 26.20600 51.28700 25.83900
C  23.97700 52.32800 28.27900
C  28.40900 50.38300 28.42300
C  28.40700 50.33900 23.56200
C  24.01100 52.28400 23.36200
N  26.19600 51.42700 28.15200
C  25.14600 51.89600 28.93000
C  25.60100 51.87200 30.42700
C  27.12800 51.46400 30.36100
C  27.22600 50.97700 28.94200
C  28.03100 52.65900 30.70100
C  24.75700 50.87700 31.26500
C  23.93400 51.47000 32.35700
H  23.79200 50.63000 33.60300
N  28.04500 50.32300 25.95300
C  28.76300 50.04100 27.09800
C  30.01800 49.44900 26.81800
C  30.06600 49.40200 25.37000
C  28.75300 50.01300 24.86300
C  31.06700 48.84700 27.83800
C  31.21600 48.86800 24.47600
O  31.15800 48.87400 23.18200
C  32.53200 48.32000 25.10400
N  26.21900 51.27200 23.70800
C  27.26900 50.88800 22.99600
C  27.06200 51.08400 21.47300
C  25.59700 51.67800 21.47100
C  25.17200 51.63200 22.92400
C  28.23000 51.94600 20.82000
C  24.59000 50.96200 20.53600
C  24.72700 51.32500 19.03800
N  24.32100 52.12800 25.74700
C  23.53800 52.43600 24.68500
C  22.28900 52.99300 25.20500
C  22.38700 52.95400 26.61100
C  23.67600 52.40500 26.88300
C  21.18100 53.63300 24.37700
C  21.69900 53.34000 27.90600
O  20.52800 53.76900 28.16900
C  22.72700 52.82000 28.99300
C  23.07900 54.05500 29.73000
O  24.11400 54.71400 29.55700
O  22.22100 54.20000 30.80500
C  22.73000 55.25800 31.64300
H  29.08800 50.06800 29.21800
H  29.06000 50.08200 22.72500
H  23.48200 52.86300 22.60200
H  25.53000 52.89800 30.79000
H  27.33300 50.60600 31.00200
H  28.95300 52.65800 30.11900
H  28.23000 52.38800 31.73800
H  27.52800 53.62300 30.62600
H  25.20900 49.95600 31.63300
H  24.01300 50.44400 30.59700
H  22.93200 51.73500 32.02000
H  24.45300 52.36200 32.70800
H  31.50700 47.88300 27.58200
H  30.70400 48.79800 28.86500
H  31.92000 49.52500 27.87700
H  33.20900 47.99100 24.31500
H  32.30600 47.48800 25.77000
H  33.00600 49.16500 25.60400
H  27.03100 50.09500 21.01500
H  25.68400 52.72500 21.18200
H  28.80700 52.32500 21.66400
H  27.87900 52.63500 20.05200
H  28.92300 51.19500 20.44200
H  23.54500 51.12500 20.80000
H  24.72700 49.88900 20.67400
H  23.91600 52.02100 18.82500
H  24.66200 50.40200 18.46100
H  25.71200 51.74500 18.83200
H  21.35800 54.67700 24.11900
H  20.26000 53.51300 24.94800
H  21.08200 52.99600 23.49800
H  22.36600 52.13100 29.75700
H  23.43700 54.81600 32.34600
H  21.96000 55.62600 32.32200
H  23.19100 56.14000 31.20000
Mg -11.34100 17.04100 43.34000
C  -7.87300 17.48000 43.39300
C  -11.74100 20.44700 43.30300
C  -14.64600 16.48400 43.23400
C  -10.75000 13.63800 42.55300
N  -9.91500 18.80500 43.24600
C  -8.58900 18.69500 43.35200
C  -7.93400 20.09500 43.41600
C  -9.22000 21.06900 43.58100
C  -10.38400 20.04400 43.36100
C  -9.28600 21.87800 44.85500
C  -7.08100 20.35800 42.08300
C  -5.66600 20.98500 42.22100
H  -5.22800 21.64400 40.93200
N  -12.98500 18.26500 43.21200
C  -12.95000 19.63200 43.16500
C  -14.28700 20.08100 43.11800
C  -15.18900 18.96100 43.03400
C  -14.29100 17.82200 43.11300
C  -14.69800 21.53700 43.32300
C  -16.69200 19.07700 43.01400
O  -17.29700 20.19100 42.98000
C  -17.49900 17.78100 42.84200
N  -12.49200 15.34900 42.83200
C  -13.79400 15.34500 43.06600
C  -14.38000 13.90100 43.09400
C  -13.21700 13.06000 42.53400
C  -12.07700 14.08400 42.51900
C  -14.90900 13.43700 44.48900
C  -13.63000 12.42700 41.09300
C  -12.84000 11.23500 40.58600
N  -9.68100 15.80500 42.99800
C  -9.64300 14.46300 42.70000
C  -8.24800 14.02500 42.76100
C  -7.53900 15.19600 43.07800
C  -8.47100 16.27100 43.14200
C  -7.68600 12.67300 42.68100
C  -6.19800 15.73200 43.28200
O  -5.16500 15.15300 43.22800
C  -6.32600 17.28900 43.58000
C  -5.99300 17.43100 45.07000
O  -6.45000 16.81500 46.00600
O  -5.05200 18.48400 45.17800
C  -4.96500 19.07600 46.56200
H  -11.86500 21.53000 43.36800
H  -15.67300 16.11500 43.25100
H  -10.67600 12.56800 42.34800
H  -7.22300 20.19800 44.23600
H  -9.24200 21.71000 42.69900
H  -9.53200 21.29700 45.74300
H  -9.95100 22.73400 44.73700
H  -8.27600 22.28300 44.93000
H  -7.60500 21.15800 41.55900
H  -6.95300 19.58800 41.32200
H  -4.93300 20.22000 42.47600
H  -5.63600 21.60300 43.11900
H  -13.95400 22.26800 43.00700
H  -15.03800 21.77800 44.33100
H  -15.48600 21.61200 42.57400
H  -17.21100 17.35200 41.88200
H  -18.55600 18.04100 42.79300
H  -17.41600 17.11000 43.69700
H  -15.23500 13.91600 42.41800
H  -13.05100 12.26000 43.25500
H  -15.96800 13.32100 44.25500
H  -14.79700 14.18100 45.27800
H  -14.63300 12.45000 44.86100
H  -13.60700 13.17800 40.30300
H  -14.64600 12.05300 41.21800
H  -12.56300 11.34200 39.53700
H  -13.40500 10.30400 40.62100
H  -11.84500 11.15400 41.02300
H  -8.28800 12.06900 43.36100
H  -6.64000 12.69800 42.98500
H  -7.90600 12.33600 41.66700
H  -5.73700 17.85200 42.85600
H  -5.80800 18.86800 47.22200
H  -5.05300 20.16200 46.54800
H  -4.00700 18.92600 47.05800

