158

Mg 0.34700 7.36500 26.45000
C  0.69900 9.61800 29.11200
C  0.25500 4.94200 28.77700
C  -0.08700 5.21700 23.96100
C  0.63900 10.04200 24.24600
N  0.47600 7.35200 28.69400
C  0.47900 8.36700 29.57500
C  0.36000 7.90800 31.03200
C  0.58200 6.33500 30.84700
C  0.49000 6.18600 29.33400
C  1.81200 5.78500 31.56100
C  -0.95200 8.25000 31.68600
C  -0.86900 8.44100 33.24800
H  0.40200 8.11600 34.01300
N  0.18500 5.34100 26.34600
C  0.14100 4.51600 27.39700
C  -0.21000 3.18900 26.95800
C  -0.07100 3.10900 25.55700
C  -0.00100 4.59100 25.20000
C  -0.60600 2.07400 27.99300
C  -0.26200 2.03300 24.62900
O  -0.16400 2.19300 23.43200
C  -0.52400 0.74000 25.09500
N  0.34300 7.54400 24.43200
C  -0.00300 6.54700 23.56600
C  -0.16300 7.07200 22.15800
C  -0.30400 8.52900 22.45000
C  0.28100 8.74700 23.79700
C  1.18500 6.79600 21.40000
C  -1.86100 8.90800 22.53300
C  -2.27300 10.13900 21.68100
N  0.79700 9.44200 26.58100
C  0.93100 10.41100 25.61700
C  1.15800 11.70800 26.19800
C  1.04700 11.51100 27.61900
C  0.81800 10.09800 27.73600
C  1.35200 12.93000 25.40700
C  1.02500 12.04700 28.88700
O  1.34400 13.16000 29.23000
C  0.81000 10.90300 29.90700
C  1.86700 10.98400 30.90300
O  3.06000 10.81000 30.71000
O  1.39200 11.50900 32.08000
C  2.44100 11.83500 33.12800
H  -0.06600 4.23800 29.54800
H  -0.23500 4.52900 23.12500
H  0.62500 10.88500 23.55300
H  1.16200 8.29000 31.66300
H  -0.28500 5.83000 31.27300
H  2.47800 6.57400 31.91100
H  2.41000 5.13800 30.92000
H  1.48900 5.20400 32.42500
H  -1.75500 7.52500 31.55300
H  -1.32700 9.19200 31.28700
H  -1.69500 7.98500 33.79400
H  -1.04100 9.49800 33.45300
H  0.12100 1.26600 27.92700
H  -1.60100 1.78400 27.65500
H  -0.64900 2.31600 29.05500
H  -1.38800 0.77200 25.75900
H  0.35300 0.43600 25.66700
H  -0.67600 -0.02700 24.33600
H  -1.07200 6.63100 21.74800
H  0.34100 9.17300 21.85100
H  0.95100 6.12600 20.57200
H  1.85300 6.16700 21.98800
H  1.83700 7.64400 21.19000
H  -2.17100 9.13900 23.55200
H  -2.41800 8.02400 22.22400
H  -3.15600 9.75700 21.16900
H  -1.50000 10.46000 20.98200
H  -2.53500 10.98500 22.31600
H  1.47400 13.79400 26.06000
H  0.44300 13.03100 24.81300
H  2.14000 12.82900 24.66100
H  -0.16600 11.04700 30.37100
H  3.00000 12.70200 32.77600
H  3.01200 10.93800 33.37000
H  1.81800 12.10900 33.97900
Mg 46.90700 16.79400 28.37600
C  44.88000 16.25400 31.16600
C  49.06200 18.50800 30.29700
C  48.58000 17.59200 25.58400
C  44.54600 15.08900 26.43900
N  46.94800 17.34800 30.46100
C  46.09600 16.90200 31.45100
C  46.52900 17.43100 32.81200
C  47.83900 18.13400 32.43300
C  47.97500 17.96400 30.99000
C  48.05800 19.57700 32.90100
C  46.71200 16.25200 33.85700
C  46.24800 16.63900 35.25600
H  46.09300 18.14600 35.67900
N  48.56000 17.93100 27.91100
C  49.36500 18.47200 28.91800
C  50.50900 19.14200 28.27000
C  50.40500 18.90900 26.88700
C  49.13000 18.13800 26.71300
C  51.57700 19.92700 29.05800
C  51.19400 19.41100 25.68700
O  50.85200 19.39400 24.49400
C  52.47600 20.17900 25.99500
N  46.49500 16.55500 26.31100
C  47.39600 16.91000 25.36600
C  46.97100 16.30000 23.93700
C  45.50700 15.70300 24.31300
C  45.57700 15.67400 25.81600
C  46.82900 17.38600 22.84700
C  45.31800 14.23700 23.66500
C  46.14800 13.01200 24.23200
N  45.13900 15.76900 28.69700
C  44.23400 15.20800 27.78300
C  43.09400 14.78200 28.56200
C  43.32400 15.10200 29.88600
C  44.52900 15.79600 29.89900
C  41.89400 14.10600 27.97800
C  42.74300 15.13800 31.18800
O  41.62100 14.90900 31.53000
C  43.77200 15.88300 32.11900
C  43.07400 17.03000 32.76000
O  42.91900 18.13800 32.31200
O  42.46400 16.61700 33.91700
C  41.66100 17.64400 34.67400
H  49.83200 18.95800 30.92700
H  49.16100 17.76900 24.67600
H  43.78900 14.57900 25.84000
H  45.73500 18.13800 33.05700
H  48.75300 17.69400 32.83200
H  48.00000 20.22400 32.02600
H  48.98200 19.74100 33.45600
H  47.19200 19.82600 33.51500
H  47.78500 16.08700 33.94500
H  46.38600 15.24800 33.58500
H  46.89400 16.25000 36.04300
H  45.23600 16.25700 35.39000
H  51.61100 20.99800 28.85600
H  52.52300 19.49400 28.73200
H  51.54100 19.84800 30.14500
H  52.23700 21.17900 26.35800
H  52.94500 20.38300 25.03300
H  53.12500 19.52600 26.57800
H  47.67500 15.49500 23.72700
H  44.63200 16.32200 24.11700
H  47.57100 18.16600 23.01600
H  45.84400 17.82900 22.69700
H  47.14300 17.06500 21.85400
H  45.68800 14.33300 22.64500
H  44.27100 13.96600 23.52800
H  46.85300 13.34000 24.99600
H  46.73400 12.70200 23.36700
H  45.50700 12.19300 24.55900
H  41.94200 14.42100 26.93500
H  41.01500 14.55900 28.43600
H  41.86900 13.02300 28.09900
H  44.14700 15.15000 32.83300
H  40.77100 17.90300 34.10100
H  42.19200 18.58600 34.80900
H  41.42700 17.23000 35.65500

