158

Mg 35.70100 48.25900 24.98700
C  36.10800 46.41800 27.99400
C  34.11900 50.81500 26.76900
C  35.22800 49.76100 22.15900
C  36.79700 45.43000 23.20000
N  35.12600 48.51900 27.16600
C  35.50800 47.67600 28.20000
C  35.23800 48.41000 29.53000
C  34.39000 49.65000 29.06900
C  34.42900 49.65700 27.56600
C  32.96600 49.55800 29.60200
C  36.55700 48.87700 30.18700
C  36.61600 48.58500 31.68400
H  35.26500 48.67500 32.42400
N  34.82800 50.11600 24.48700
C  34.32400 51.05900 25.36600
C  33.87900 52.29200 24.55500
C  34.34200 52.04400 23.18600
C  34.84600 50.60600 23.18900
C  33.30400 53.53600 25.12800
C  34.28800 52.92300 21.88300
O  34.77100 52.63000 20.82200
C  33.36100 54.10000 21.91200
N  35.69300 47.59300 22.97700
C  35.53400 48.43300 22.01600
C  35.84800 47.82100 20.65900
C  36.72500 46.65600 21.07000
C  36.41000 46.52600 22.52600
C  34.58300 47.42900 19.79800
C  38.26000 46.81100 20.67100
C  39.16600 47.49700 21.70900
N  36.36800 46.31400 25.42300
C  36.84900 45.31200 24.62400
C  37.22700 44.15000 25.40700
C  37.01800 44.57800 26.75800
C  36.43000 45.88400 26.69000
C  37.64800 42.77400 24.85000
C  37.01700 44.16600 28.17200
O  37.40200 43.15300 28.68200
C  36.41900 45.34000 29.01900
C  35.19400 44.90400 29.70100
O  34.11400 44.80300 29.18900
O  35.43600 44.84300 31.01400
C  34.23300 44.56400 31.78000
H  33.67700 51.65000 27.31600
H  35.19700 50.24800 21.18200
H  37.13000 44.59900 22.57500
H  34.68400 47.69200 30.13400
H  34.79400 50.62700 29.33400
H  32.84300 50.39300 30.29200
H  32.78500 48.59200 30.07300
H  32.18300 49.56900 28.84300
H  36.62200 49.94700 29.98700
H  37.43100 48.37700 29.77000
H  37.31000 49.29600 32.13100
H  36.98600 47.56700 31.81000
H  33.83700 54.40400 24.73800
H  33.46800 53.68100 26.19600
H  32.25100 53.55800 24.84500
H  33.69800 54.79800 22.67800
H  32.33500 53.79300 22.11600
H  33.33500 54.73400 21.02600
H  36.40100 48.62000 20.16600
H  36.46800 45.77300 20.48400
H  33.67100 47.52900 20.38700
H  34.59700 46.49300 19.23900
H  34.46000 48.19300 19.03000
H  38.39700 47.38400 19.75400
H  38.49800 45.78700 20.38100
H  38.71100 47.47600 22.69900
H  39.26000 48.55100 21.44900
H  40.11200 46.95600 21.69200
H  37.31500 42.79400 23.81200
H  36.98000 42.08500 25.36800
H  38.67900 42.48200 25.05100
H  37.15300 45.65000 29.76300
H  34.12100 43.49000 31.62900
H  33.43900 45.21800 31.41800
H  34.41000 44.75800 32.83800
Mg 10.38300 48.00400 26.91300
C  8.63200 47.95900 29.96000
C  12.96100 49.48100 28.42800
C  11.92500 47.83300 23.99000
C  7.38400 46.85400 25.35400
N  10.61600 48.81100 28.80600
C  9.90100 48.40500 29.93100
C  10.70000 48.78100 31.26100
C  11.85700 49.61900 30.68300
C  11.76500 49.37300 29.20700
C  11.86500 51.06200 31.00400
C  11.13800 47.44800 32.10600
C  10.81300 47.34400 33.63900
H  10.67600 46.00400 34.34000
N  12.17800 48.54200 26.27900
C  13.18500 49.03700 27.07300
C  14.41100 49.08400 26.35800
C  14.15400 48.63800 25.05300
C  12.65300 48.37700 25.03400
C  15.75200 49.49700 26.95600
C  15.03100 48.54700 23.82900
O  14.57100 48.22200 22.72800
C  16.45100 48.87200 23.91800
N  9.67200 47.75500 24.89900
C  10.49600 47.66900 23.88400
C  9.89100 46.96100 22.63800
C  8.54700 46.49400 23.10800
C  8.45600 47.14300 24.48900
C  9.89000 47.93700 21.41000
C  8.30000 45.02800 23.19300
C  8.97200 44.11000 22.20800
N  8.41700 47.60800 27.39900
C  7.31200 47.16100 26.65900
C  6.13800 47.07500 27.50800
C  6.62200 47.39900 28.86600
C  8.00700 47.65800 28.72800
C  4.70700 46.78800 27.11000
C  6.28200 47.50000 30.26800
O  5.17800 47.43700 30.79700
C  7.55000 47.77900 31.10300
C  7.77800 46.55500 31.93300
O  8.38800 45.59100 31.57400
O  7.05200 46.55900 33.09800
C  7.15300 45.37000 34.01800
H  13.81100 49.93000 28.94600
H  12.50300 47.49600 23.12700
H  6.49500 46.41600 24.89600
H  9.98000 49.31000 31.88500
H  12.80400 49.17700 30.99300
H  10.92300 51.34900 31.47000
H  12.04700 51.67000 30.11800
H  12.59000 51.23700 31.79900
H  12.22100 47.36000 32.02700
H  10.67700 46.66900 31.49800
H  9.90900 47.93200 33.80000
H  11.64800 47.89900 34.06700
H  15.56300 49.86700 27.96300
H  16.16700 50.28000 26.32100
H  16.31200 48.56400 26.89500
H  16.82300 48.22200 24.71000
H  16.54800 49.90600 24.25000
H  16.91000 48.67100 22.95000
H  10.54600 46.09300 22.56700
H  7.83300 46.95800 22.42700
H  10.40700 48.87300 21.62200
H  8.90700 48.28400 21.09000
H  10.35200 47.52300 20.51400
H  7.21900 44.89000 23.20600
H  8.59100 44.67200 24.18200
H  9.78900 43.56100 22.67600
H  9.37100 44.58400 21.31100
H  8.22200 43.39300 21.87300
H  4.38000 46.94600 26.08200
H  4.11300 47.47900 27.70900
H  4.47300 45.75000 27.34800
H  7.33400 48.62000 31.76200
H  6.93900 44.50000 33.39700
H  6.40400 45.50200 34.79900
H  8.10800 45.31200 34.54200

