158

Mg 44.92300 3.44500 47.94600
C  42.78800 6.13300 47.14200
C  42.13700 1.31800 47.22900
C  46.92100 0.85300 48.04500
C  47.67200 5.63900 47.48900
N  42.76400 3.66600 47.43000
C  42.16900 4.83200 47.16800
C  40.66900 4.70000 46.68700
C  40.34400 3.16400 47.06600
C  41.83200 2.67200 47.25600
C  39.40600 2.88000 48.28600
C  40.63100 4.98400 45.17900
C  39.59000 5.99900 44.53500
H  38.83900 5.46300 43.30500
N  44.56800 1.36900 47.82900
C  43.38300 0.72700 47.61000
C  43.61400 -0.71000 47.79100
C  44.96100 -0.89800 47.96500
C  45.54900 0.48100 47.96600
C  42.70500 -1.87600 47.55100
C  45.70400 -2.20700 48.12800
O  45.06700 -3.25600 48.39300
C  47.17400 -2.30400 48.30100
N  46.94100 3.32100 47.66800
C  47.54100 2.07500 47.93600
C  49.04500 2.22500 48.19400
C  49.34000 3.70200 47.69000
C  47.94100 4.28300 47.71200
C  49.48200 1.96900 49.66600
C  50.23600 3.85200 46.37100
C  51.18500 5.01300 46.29800
N  45.24100 5.52800 47.53100
C  46.39700 6.25200 47.41500
C  46.02900 7.65600 47.09100
C  44.63600 7.66500 46.99600
C  44.18200 6.37100 47.30100
C  46.96600 8.77700 46.84100
C  43.44000 8.38800 46.71500
O  43.40600 9.56000 46.27300
C  42.19600 7.39600 46.81000
C  41.40200 7.92700 47.84000
O  41.44900 7.51100 48.99500
O  40.60900 8.93600 47.37900
C  39.73400 9.66900 48.34000
H  41.23600 0.72200 47.06600
H  47.70900 0.10800 48.16900
H  48.56400 6.26800 47.45500
H  40.07800 5.47700 47.17300
H  39.92100 2.67300 46.19000
H  38.81000 3.72700 48.62500
H  39.96900 2.45200 49.11500
H  38.79300 2.03300 47.97400
H  40.67500 4.06300 44.59700
H  41.56400 5.46000 44.87600
H  40.15500 6.86900 44.19900
H  38.85600 6.29200 45.28700
H  42.60900 -2.46300 48.46400
H  43.02800 -2.58100 46.78500
H  41.72400 -1.64300 47.13500
H  47.57200 -1.69200 47.49200
H  47.71900 -3.23900 48.43700
H  47.38700 -1.75100 49.21600
H  49.73100 1.60400 47.61800
H  49.81900 4.28000 48.48000
H  50.40300 2.47800 49.95000
H  49.73500 0.92200 49.83000
H  48.57500 2.12000 50.25200
H  49.47300 3.95100 45.59900
H  50.83800 2.98300 46.10500
H  51.10600 5.41100 45.28700
H  52.20600 4.68400 46.49000
H  51.05600 5.81200 47.02800
H  47.97300 8.36100 46.80700
H  46.93800 9.57800 47.57900
H  46.92900 9.28100 45.87500
H  41.68400 7.55400 45.86000
H  39.64800 10.70200 48.00400
H  40.13600 9.64700 49.35300
H  38.79100 9.12300 48.35000
Mg 26.33100 50.35300 25.46700
C  24.11800 51.64400 28.11800
C  28.32800 49.25000 28.08900
C  28.44400 49.57300 23.16300
C  24.25800 52.05400 23.17200
N  26.25300 50.45500 27.89300
C  25.24100 50.95900 28.69900
C  25.58000 50.79700 30.18500
C  26.88800 50.00800 30.16400
C  27.15900 49.85200 28.61600
C  28.08900 50.64800 30.87900
C  24.44100 50.19900 31.04700
C  24.72100 49.56400 32.43200
H  24.36900 50.32400 33.69100
N  28.05800 49.47700 25.54500
C  28.75600 49.06700 26.66100
C  30.07400 48.63000 26.27600
C  30.13000 48.69000 24.86200
C  28.89600 49.27400 24.47400
C  31.21400 48.30100 27.25800
C  31.26400 48.38400 23.84700
O  31.14900 48.56200 22.61900
C  32.56400 47.94400 24.45100
N  26.39800 50.81300 23.34900
C  27.34000 50.26000 22.59500
C  26.98600 50.45300 21.07400
C  25.53000 51.10400 21.10200
C  25.39400 51.42700 22.60400
C  28.03600 51.43600 20.35000
C  24.37100 50.18300 20.52200
C  23.92400 50.62100 19.17000
N  24.54100 51.58200 25.56600
C  23.85100 52.20600 24.55500
C  22.66800 52.88300 25.14800
C  22.77500 52.68300 26.48400
C  23.92700 51.87500 26.78200
C  21.65900 53.72000 24.34600
C  22.10000 52.95900 27.78400
O  21.03700 53.55900 28.04500
C  23.01400 52.32900 28.82000
C  23.44900 53.32100 29.78500
O  24.54600 53.86200 29.95100
O  22.40600 53.46000 30.73000
C  22.65600 54.01800 32.04900
H  28.85900 48.66100 28.84000
H  29.05300 49.15000 22.36100
H  23.56600 52.39500 22.39900
H  25.75200 51.75400 30.67900
H  26.68700 48.99600 30.51500
H  28.56900 49.91300 31.52500
H  27.71300 51.48900 31.46200
H  28.93000 51.02200 30.29400
H  23.92100 49.46000 30.43700
H  23.77200 51.03500 31.24700
H  25.79200 49.38000 32.52400
H  24.26400 48.58200 32.30900
H  31.71800 47.37600 26.97800
H  30.89400 47.99900 28.25600
H  31.96100 49.08800 27.34900
H  32.63000 46.99200 24.97800
H  32.94600 48.74700 25.08200
H  33.15900 47.78100 23.55200
H  27.17800 49.47300 20.63700
H  25.45300 52.10500 20.67800
H  28.71400 51.68200 21.16800
H  27.56000 52.29500 19.87900
H  28.61100 50.84900 19.63300
H  23.52900 50.13100 21.21300
H  24.74500 49.16400 20.42100
H  24.66400 50.45000 18.38800
H  23.64500 51.66900 19.07100
H  23.02400 50.05100 18.94200
H  21.79900 53.65000 23.26700
H  21.55900 54.76900 24.62400
H  20.71100 53.20700 24.50700
H  22.40300 51.65900 29.42500
H  23.51300 54.69100 32.01100
H  23.03600 53.23600 32.70600
H  21.74700 54.43200 32.48500

