158

Mg 7.94300 3.31200 27.49000
C  9.25900 1.84900 30.42700
C  6.00100 5.45200 29.44500
C  6.71600 4.71500 24.67500
C  9.50700 0.76700 25.51900
N  7.62700 3.48700 29.68500
C  8.46700 2.94200 30.66200
C  8.30300 3.75000 31.99700
C  7.09500 4.68000 31.68700
C  6.89300 4.55500 30.16200
C  5.81100 4.31900 32.36900
C  9.58200 4.42400 32.61000
C  9.47100 5.03100 34.04500
H  10.30000 4.53300 35.16900
N  6.49400 4.72800 27.12000
C  5.85000 5.51900 28.00600
C  4.94500 6.45900 27.26600
C  5.21400 6.35400 25.88300
C  6.26000 5.28100 25.84900
C  3.96500 7.37600 28.02100
C  4.75500 7.20100 24.69100
O  5.07400 7.01400 23.54000
C  3.99800 8.49900 24.95900
N  8.04800 2.85400 25.38200
C  7.47800 3.56400 24.41800
C  7.57300 3.04300 22.95300
C  8.54000 1.80400 23.31900
C  8.77300 1.79500 24.83700
C  6.12900 2.75700 22.38100
C  9.81300 1.73000 22.43500
C  10.10800 0.52500 21.50600
N  9.14700 1.68200 27.81500
C  9.60000 0.71100 26.90300
C  10.34900 -0.29400 27.70200
C  10.23300 0.10800 29.02300
C  9.47700 1.33300 29.09400
C  11.04200 -1.44300 27.14600
C  10.65300 -0.22900 30.41500
O  11.30700 -1.15300 30.90600
C  10.07700 0.96600 31.32400
C  9.15700 0.27600 32.28400
O  8.00600 0.02400 32.12800
O  9.77500 0.09300 33.42000
C  8.98200 -0.09500 34.66900
H  5.58000 6.25400 30.05500
H  6.41300 5.23100 23.76200
H  9.83300 -0.05900 24.88300
H  8.08600 3.03000 32.78500
H  7.42900 5.69500 31.90600
H  5.11900 5.14200 32.55100
H  6.06000 3.94300 33.36200
H  5.36200 3.49100 31.82000
H  10.03800 5.11800 31.90400
H  10.35400 3.65900 32.68800
H  8.44300 4.99500 34.40800
H  9.81200 6.04800 33.85100
H  3.54700 6.68100 28.74900
H  3.13800 7.77300 27.43200
H  4.45800 8.21200 28.51700
H  4.54700 9.18000 25.60800
H  3.07100 8.09600 25.36800
H  3.79600 8.96100 23.99300
H  8.02500 3.80400 22.31600
H  7.90300 0.97600 23.00800
H  5.30400 3.06200 23.02400
H  6.09300 1.70800 22.08800
H  5.90700 3.31200 21.46900
H  10.55800 1.64600 23.22700
H  10.00100 2.52300 21.71200
H  10.75400 0.69600 20.64500
H  9.18000 0.02600 21.22700
H  10.62900 -0.22300 22.10300
H  11.87300 -1.10000 26.53000
H  10.40600 -2.04800 26.50000
H  11.47200 -2.08700 27.91300
H  10.94000 1.45000 31.78200
H  9.67100 0.05300 35.50100
H  8.54300 -1.09200 34.63100
H  8.17200 0.63400 34.65000
Mg 24.68600 1.27000 29.70900
C  26.88000 1.18400 32.36800
C  22.06600 1.20500 31.97100
C  22.48700 1.33100 27.13100
C  27.24900 0.57400 27.47700
N  24.56400 1.41200 31.91200
C  25.54000 1.41500 32.81700
C  25.08200 1.57900 34.28100
C  23.51500 1.48500 34.10200
C  23.34200 1.39400 32.54300
C  22.77700 0.42600 34.90900
C  25.58500 2.82600 35.07400
C  24.69700 3.14000 36.33600
H  25.37700 3.47900 37.68400
N  22.57500 1.27800 29.55400
C  21.65500 1.16800 30.61700
C  20.33900 1.17700 30.11000
C  20.47800 1.21400 28.69700
C  21.88700 1.27300 28.36100
C  19.17600 1.01400 31.06600
C  19.42600 1.14800 27.67500
O  19.55300 1.34100 26.40800
C  18.01400 0.95900 28.08100
N  24.93400 1.25400 27.67800
C  23.87600 1.37000 26.77500
C  24.35100 1.40400 25.31600
C  25.86500 1.16300 25.40600
C  26.03900 0.94600 26.89900
C  23.60800 0.47900 24.33100
C  26.75500 2.17200 24.63800
C  27.23400 3.40800 25.29800
N  26.67700 0.89700 29.82600
C  27.62500 0.60000 28.88000
C  28.91500 0.46400 29.52600
C  28.71900 0.75500 30.84700
C  27.32100 0.94700 30.98100
C  30.22800 0.16300 28.83400
C  29.28400 0.85500 32.14600
O  30.46900 0.69500 32.45300
C  28.14900 1.23500 33.17000
C  28.15400 0.23800 34.25100
O  27.95600 -1.00500 34.14600
O  28.53400 0.82700 35.40800
C  28.94400 -0.03600 36.54200
H  21.27400 1.12900 32.71800
H  21.82300 1.30300 26.26500
H  28.12200 0.40500 26.84300
H  25.42200 0.75100 34.90300
H  23.07600 2.43400 34.40900
H  21.85900 0.72900 35.41200
H  23.43500 0.16200 35.73700
H  22.57500 -0.44700 34.28900
H  25.27400 3.54200 34.31200
H  26.64000 2.92000 35.33000
H  24.00000 2.33300 36.55900
H  24.12400 4.04100 36.11200
H  18.52700 1.89000 31.09000
H  19.44700 0.89400 32.11500
H  18.64600 0.12600 30.72100
H  17.64600 1.86200 28.56800
H  18.00200 0.11200 28.76700
H  17.36300 0.79600 27.22200
H  24.16200 2.41600 24.95700
H  26.26100 0.27300 24.91700
H  23.06600 -0.23200 24.95400
H  24.27400 -0.01600 23.62400
H  22.88600 1.10800 23.81100
H  26.22800 2.54200 23.75800
H  27.61700 1.58800 24.31600
H  27.51100 3.22800 26.33700
H  26.45800 4.16300 25.17200
H  28.03900 3.82700 24.69500
H  30.36500 0.87000 28.01600
H  30.11800 -0.87700 28.52400
H  31.07100 0.28500 29.51400
H  28.32700 2.23700 33.56100
H  29.19600 -1.06200 36.27300
H  28.18500 -0.12000 37.31900
H  29.89000 0.28300 36.98000

