158

Mg 48.48800 14.72700 28.01000
C  46.08000 14.75900 30.62300
C  50.30500 16.79900 30.02800
C  50.97100 14.36500 25.87000
C  46.28000 12.87100 25.98700
N  48.23700 15.61600 30.13600
C  47.23400 15.44700 30.96700
C  47.52700 16.05400 32.36200
C  48.81700 16.78000 32.11100
C  49.08600 16.47000 30.59800
C  48.77800 18.28600 32.27900
C  47.69700 14.89700 33.42500
C  47.42100 15.21700 34.93100
H  48.66200 15.14600 35.83200
N  50.32000 15.62300 27.91200
C  50.86800 16.42600 28.79400
C  52.17100 16.84500 28.36000
C  52.50900 15.98000 27.26600
C  51.26000 15.27700 26.96600
C  52.88300 18.07400 28.85000
C  53.76300 15.87600 26.39400
O  53.83700 15.07400 25.46700
C  55.02100 16.68200 26.68600
N  48.54400 13.86800 26.10000
C  49.78100 13.71700 25.46000
C  49.63800 12.71900 24.34500
C  48.11100 12.43300 24.21300
C  47.60000 13.15600 25.51200
C  50.31900 13.11500 23.08700
C  47.69100 10.94100 24.03600
C  46.81400 10.70100 22.80200
N  46.58600 14.00300 28.17500
C  45.81400 13.35300 27.26700
C  44.48300 13.15400 27.92000
C  44.54600 13.70300 29.16700
C  45.87800 14.13800 29.35800
C  43.33000 12.40500 27.31900
C  43.84800 13.93100 30.33400
O  42.65100 13.79200 30.51600
C  44.79800 14.51400 31.38400
C  44.22000 15.71400 31.98400
O  44.03100 16.78200 31.45000
O  43.88300 15.41900 33.29700
C  42.83400 16.30500 33.95700
H  50.98700 17.31000 30.71000
H  51.76000 14.17400 25.13900
H  45.57800 12.30500 25.37200
H  46.64900 16.61500 32.68300
H  49.69700 16.37000 32.60800
H  47.85700 18.56300 32.79100
H  48.85800 18.77300 31.30700
H  49.56200 18.74200 32.88300
H  48.76400 14.69600 33.32700
H  47.29200 13.96600 33.02800
H  46.72200 14.44600 35.25600
H  47.05800 16.24500 34.93900
H  53.65300 17.61000 29.46600
H  52.25700 18.67500 29.50900
H  53.32900 18.67700 28.05900
H  55.07400 17.65100 27.18400
H  55.45900 16.68500 25.68800
H  55.58500 15.96500 27.28200
H  50.07800 11.84700 24.82900
H  47.71400 13.12900 23.47400
H  51.30000 12.64700 23.00900
H  50.48500 14.19200 23.06300
H  49.66200 12.74400 22.30100
H  47.27800 10.62300 24.99400
H  48.62900 10.44300 23.79100
H  47.31400 10.10300 22.04000
H  46.63600 11.65600 22.30900
H  45.85400 10.22300 22.99600
H  43.66700 11.69300 26.56600
H  42.58800 13.06500 26.87100
H  42.82600 11.83000 28.09600
H  44.93200 13.76000 32.15900
H  43.26200 17.27200 34.22100
H  42.51000 15.69300 34.79900
H  41.92900 16.37400 33.35400
Mg -5.62300 24.81700 26.94500
C  -4.06900 26.30900 29.78900
C  -6.93500 22.46600 28.96100
C  -6.60600 23.16800 24.13800
C  -3.57500 26.88900 24.95400
N  -5.35500 24.36300 29.11000
C  -4.78900 25.14300 30.14700
C  -5.22600 24.66500 31.51700
C  -5.82000 23.28500 31.16000
C  -6.10300 23.36700 29.63600
C  -4.85000 22.15200 31.43500
C  -6.36200 25.68800 32.04800
C  -6.76300 25.51600 33.49900
H  -5.98700 24.64800 34.48400
N  -6.74400 23.18100 26.55600
C  -7.24000 22.34200 27.55500
C  -8.21000 21.40800 26.95600
C  -7.98500 21.48000 25.52800
C  -7.12900 22.61900 25.34900
C  -8.92000 20.44400 27.80900
C  -8.60700 20.61300 24.41600
O  -8.47100 20.86700 23.20400
C  -9.24800 19.35100 24.83700
N  -5.18700 25.07900 24.84100
C  -5.78800 24.29500 23.87900
C  -5.41200 24.66500 22.41900
C  -4.48300 25.95400 22.69100
C  -4.38600 25.97700 24.25400
C  -4.64200 23.52400 21.65200
C  -5.12100 27.18000 21.98700
C  -4.29900 27.84500 20.86200
N  -4.19100 26.34500 27.26600
C  -3.46400 27.06900 26.34000
C  -2.53500 27.96400 27.02400
C  -2.71300 27.72400 28.40600
C  -3.78500 26.73600 28.50700
C  -1.67900 29.01500 26.38400
C  -2.37700 28.24600 29.76200
O  -1.53900 28.94300 30.31800
C  -3.22600 27.20500 30.73000
C  -2.35900 26.41000 31.61400
O  -1.60000 25.51600 31.20100
O  -2.35600 26.97300 32.88200
C  -1.37700 26.40900 33.79800
H  -7.15600 21.62300 29.61900
H  -7.01600 22.60300 23.29800
H  -3.09000 27.64600 24.33500
H  -4.31800 24.63200 32.11900
H  -6.74200 23.08100 31.70400
H  -5.45500 21.31000 31.77000
H  -4.23300 22.35100 32.31200
H  -4.19300 21.87600 30.61100
H  -7.20900 25.71200 31.36200
H  -5.96100 26.68000 31.84400
H  -7.78400 25.15400 33.37700
H  -6.72600 26.50300 33.96000
H  -9.97400 20.37500 27.54100
H  -8.86100 20.67200 28.87300
H  -8.46300 19.46000 27.70700
H  -9.17000 18.79500 23.90200
H  -10.30700 19.37800 25.09200
H  -8.61800 18.74200 25.48600
H  -6.29000 24.89800 21.81700
H  -3.49800 25.85800 22.23500
H  -4.88500 23.43700 20.59300
H  -4.74600 22.57700 22.18200
H  -3.57000 23.72400 21.65800
H  -5.16300 27.91100 22.79500
H  -6.07900 26.98900 21.50400
H  -3.51100 27.20600 20.46400
H  -3.89800 28.76000 21.29800
H  -4.96300 27.96500 20.00500
H  -2.34100 29.70400 25.86100
H  -0.99800 28.61700 25.63200
H  -0.98100 29.42800 27.11200
H  -3.92100 27.78000 31.34100
H  -0.43300 26.95100 33.85100
H  -1.14800 25.35400 33.64800
H  -1.77200 26.58400 34.79800

