158

Mg 16.38000 -2.67000 28.01000
C  15.41800 -0.55500 30.57700
C  18.37800 -4.39300 30.02600
C  17.78800 -3.97800 25.21700
C  14.64800 -0.43000 25.79500
N  16.92800 -2.36500 29.98900
C  16.32900 -1.55400 30.92400
C  16.89200 -1.81800 32.36100
C  18.02300 -2.90900 32.11700
C  17.75100 -3.27700 30.64400
C  19.41500 -2.33000 32.27100
C  15.71400 -2.34100 33.25900
C  15.85300 -2.14800 34.80200
H  17.17300 -1.66400 35.39000
N  17.75100 -4.12300 27.68500
C  18.38800 -4.80100 28.68600
C  19.13600 -5.84400 28.03200
C  19.01000 -5.71400 26.63100
C  18.16400 -4.53400 26.47200
C  20.07100 -6.81900 28.83300
C  19.74300 -6.39900 25.49600
O  19.55900 -6.21600 24.30400
C  20.68200 -7.51600 25.84900
N  16.45100 -2.11400 25.73200
C  17.09000 -2.89400 24.82400
C  16.58600 -2.63000 23.40600
C  15.46200 -1.60800 23.68100
C  15.52900 -1.31900 25.16000
C  17.76900 -2.12600 22.50600
C  14.03900 -1.93800 23.17300
C  13.01100 -0.84500 22.88200
N  15.28600 -0.89300 28.10700
C  14.60500 -0.18700 27.16400
C  13.74800 0.83000 27.84600
C  14.15200 0.76100 29.17900
C  14.99300 -0.32100 29.26600
C  12.72500 1.77800 27.28500
C  13.96500 1.45400 30.49100
O  13.31900 2.47800 30.82000
C  14.82000 0.55700 31.50800
C  15.68700 1.49900 32.13600
O  16.65800 2.09500 31.62200
O  15.19800 1.69100 33.44000
C  15.88400 2.74700 34.11400
H  19.08600 -4.97400 30.62100
H  18.15200 -4.49500 24.32600
H  14.04900 0.26200 25.19800
H  17.32000 -0.85800 32.65000
H  17.83400 -3.75700 32.77600
H  19.92000 -2.98900 32.97700
H  19.34500 -1.32400 32.68500
H  19.78800 -2.27700 31.24800
H  15.69400 -3.42800 33.18000
H  14.80100 -1.87800 32.88500
H  15.49400 -3.05400 35.29100
H  15.16000 -1.35700 35.09000
H  19.98900 -6.71400 29.91500
H  21.12400 -6.70800 28.57700
H  19.73400 -7.83800 28.64200
H  21.47000 -6.87800 26.25000
H  21.00000 -7.97800 24.91400
H  20.38900 -8.34200 26.49800
H  16.21300 -3.56400 22.98700
H  15.72400 -0.60400 23.34500
H  17.76200 -1.06000 22.27800
H  17.80600 -2.72300 21.59500
H  18.66900 -2.23000 23.11200
H  13.52800 -2.56300 23.90400
H  14.13000 -2.49700 22.24100
H  12.24300 -1.07800 23.62000
H  12.69300 -0.73300 21.84500
H  13.40400 0.13100 23.16800
H  13.20900 2.11000 26.36600
H  12.54100 2.63600 27.93100
H  11.76200 1.31900 27.06100
H  14.13100 0.14000 32.24200
H  15.69300 3.77900 33.82200
H  16.94200 2.50200 34.02800
H  15.72100 2.73600 35.19200
Mg 49.15500 35.46700 27.69900
C  46.73000 34.00100 29.88900
C  49.42400 38.01000 29.86300
C  50.89800 37.06600 25.38800
C  48.52400 32.87400 25.41300
N  48.20000 35.86900 29.72700
C  47.26100 35.22400 30.42000
C  46.99900 35.90600 31.74800
C  47.57000 37.27800 31.55500
C  48.41300 37.12400 30.24000
C  46.56900 38.51300 31.31100
C  47.55700 35.15200 33.04800
C  49.08100 34.64500 32.92100
H  50.12000 35.44100 33.84400
N  50.20400 37.21900 27.73000
C  50.22100 38.08900 28.71400
C  51.14300 39.18300 28.43800
C  51.47100 39.04700 27.05500
C  50.82800 37.71500 26.66400
C  51.47900 40.20300 29.52300
C  52.26700 39.90400 26.18200
O  52.45100 39.62000 25.01900
C  52.84900 41.12500 26.76400
N  49.69000 35.03100 25.61500
C  50.37400 35.87300 24.84000
C  50.52900 35.34100 23.41200
C  49.96200 33.87700 23.55400
C  49.40100 33.88000 24.94500
C  49.82200 36.24500 22.40200
C  51.03100 32.71400 23.51700
C  51.39900 32.59500 22.03600
N  48.00700 33.77300 27.62100
C  47.88500 32.80000 26.68500
C  47.02900 31.79900 27.15000
C  46.51000 32.24100 28.36800
C  47.12500 33.47300 28.63200
C  46.73000 30.51200 26.44700
C  45.57400 31.85000 29.45200
O  44.79800 30.90800 29.65300
C  45.76900 33.02800 30.49400
C  46.23400 32.38800 31.68700
O  47.26800 31.76300 31.74000
O  45.33000 32.43100 32.76400
C  45.85500 31.88100 34.03500
H  49.35700 38.85900 30.54700
H  51.43100 37.46800 24.52400
H  48.39200 31.98400 24.79600
H  45.91600 35.89700 31.87000
H  48.20700 37.49600 32.41200
H  46.74900 39.21500 32.12400
H  45.56200 38.16000 31.53600
H  46.61300 39.05300 30.36500
H  46.89300 34.34800 33.36500
H  47.43800 35.87000 33.86000
H  49.56500 34.61900 31.94500
H  49.09100 33.66500 33.39800
H  52.55200 40.39000 29.54900
H  51.12100 40.03300 30.53900
H  51.11700 41.20000 29.27200
H  52.05200 41.63000 27.31100
H  53.24600 41.76500 25.97600
H  53.67600 40.85400 27.42000
H  51.58000 35.44100 23.14300
H  49.24100 33.63100 22.77400
H  49.22100 37.00600 22.89900
H  49.18600 35.74100 21.67300
H  50.51400 36.78700 21.75800
H  50.65200 31.83500 24.03800
H  51.90600 33.11400 24.03000
H  52.29400 33.17500 21.80900
H  50.64500 33.03000 21.38000
H  51.46400 31.52700 21.82800
H  46.17800 30.74400 25.53600
H  46.07000 29.88800 27.04900
H  47.56800 29.88800 26.13600
H  44.77800 33.44400 30.67500
H  46.90600 32.12600 34.18800
H  45.62900 30.82600 34.18800
H  45.28300 32.37400 34.82000

