158

Mg 1.66000 -1.28800 45.05200
C  4.81300 0.22400 44.65900
C  0.19600 1.46600 43.51300
C  -1.27400 -3.03200 45.06800
C  3.33900 -4.28800 45.82600
N  2.44800 0.57600 44.14700
C  3.72200 1.00200 44.10500
C  3.75500 2.48200 43.69800
C  2.26400 2.91400 43.44800
C  1.57800 1.58300 43.77400
C  1.69300 4.08300 44.39900
C  4.65200 2.86400 42.47200
C  4.46700 1.98000 41.23100
H  5.73200 1.34100 40.64100
N  -0.22400 -0.90400 44.33300
C  -0.62400 0.27800 43.76200
C  -2.08500 0.21300 43.52700
C  -2.59700 -0.99700 44.03500
C  -1.37800 -1.74100 44.58000
C  -2.89600 1.33100 42.82700
C  -4.05700 -1.37500 44.04300
O  -4.79600 -0.78200 43.27100
C  -4.53700 -2.46500 44.87600
N  1.05400 -3.27900 45.44600
C  -0.19500 -3.80400 45.49800
C  -0.21500 -5.29000 45.65000
C  1.27900 -5.71200 45.68700
C  1.95300 -4.37700 45.61200
C  -1.14000 -5.89200 46.77100
C  1.86600 -6.78800 44.72600
C  1.81500 -8.31600 45.17400
N  3.62000 -1.88600 45.41800
C  4.14900 -3.11700 45.77900
C  5.59600 -3.00400 45.92800
C  5.95300 -1.72600 45.47200
C  4.72700 -1.09400 45.16600
C  6.48700 -4.12000 46.45600
C  6.98200 -0.81900 45.18700
O  8.18000 -0.93700 45.24900
C  6.30800 0.54300 44.71700
C  6.58600 1.61000 45.70200
O  6.59700 1.43300 46.91100
O  6.92400 2.73500 45.02900
C  7.52800 3.75300 45.89200
H  -0.33500 2.33200 43.11200
H  -2.24900 -3.51700 44.99100
H  3.91500 -5.21500 45.87700
H  4.05700 3.12800 44.52200
H  2.01900 3.11700 42.40600
H  2.44000 4.57100 45.02500
H  0.96400 3.61000 45.05800
H  1.09100 4.74400 43.77500
H  5.70900 3.01300 42.68800
H  4.24300 3.83900 42.20800
H  3.95200 2.68100 40.57500
H  3.83400 1.12600 41.47200
H  -3.71200 1.53000 43.52300
H  -3.12200 1.06300 41.79500
H  -2.38000 2.28300 42.94900
H  -4.58000 -3.40400 44.32400
H  -5.57000 -2.25400 45.15300
H  -3.93000 -2.55800 45.77600
H  -0.58600 -5.65800 44.69400
H  1.51500 -6.10900 46.67500
H  -2.00400 -6.34100 46.28000
H  -1.37100 -5.16500 47.54900
H  -0.62000 -6.69100 47.29900
H  2.90300 -6.51500 44.52900
H  1.32200 -6.84400 43.78400
H  1.38000 -8.70000 44.25200
H  1.09200 -8.40000 45.98500
H  2.81300 -8.69600 45.39200
H  6.03600 -4.43000 47.39900
H  7.48800 -3.70500 46.57300
H  6.50500 -4.98300 45.79100
H  6.75800 0.94200 43.80800
H  7.91200 4.56400 45.27200
H  8.32500 3.42400 46.55900
H  6.74000 4.11300 46.55200
Mg 40.49900 9.34700 29.61900
C  42.16100 10.45800 32.37000
C  38.27000 7.52300 31.65300
C  38.90900 8.17700 26.90600
C  43.03200 10.61800 27.57500
N  40.29900 8.94300 31.76900
C  41.04200 9.66600 32.65100
C  40.54700 9.38500 34.08000
C  39.42000 8.30000 33.81900
C  39.29100 8.25300 32.33500
C  39.67900 6.84700 34.41100
C  39.90100 10.71500 34.77700
C  39.41800 10.49100 36.26700
H  39.99400 11.29000 37.41800
N  38.82100 8.03200 29.29900
C  38.00300 7.52000 30.22000
C  36.88700 6.85100 29.61500
C  37.00100 7.14800 28.19800
C  38.29400 7.78400 28.07900
C  35.84800 6.17400 30.43900
C  36.00000 6.90300 27.06600
O  36.14800 7.22600 25.89400
C  34.56700 6.27700 27.44700
N  41.07200 9.07200 27.55900
C  40.19000 8.76400 26.63300
C  40.70000 9.04400 25.26500
C  41.78100 10.14800 25.51900
C  41.96600 9.95800 27.02900
C  41.27100 7.77400 24.54000
C  41.32000 11.49600 24.99600
C  40.70800 12.55900 25.91700
N  42.34100 10.25700 29.85500
C  43.21500 10.73700 28.95800
C  44.26300 11.51500 29.67700
C  43.89100 11.35500 30.97400
C  42.72700 10.58800 31.06000
C  45.29600 12.39400 29.02200
C  44.21000 11.85300 32.30800
O  45.02600 12.72200 32.68100
C  43.11600 11.19700 33.24200
C  43.78500 10.42600 34.27400
O  44.68400 9.65600 34.06700
O  43.09800 10.69900 35.48900
C  43.75300 10.12300 36.65400
H  37.56700 7.09600 32.37100
H  38.44100 7.82400 25.98500
H  43.83500 11.07000 26.98900
H  41.30100 8.94900 34.73500
H  38.43200 8.52600 34.21900
H  38.83700 6.59600 35.05700
H  40.54000 6.92900 35.07500
H  39.73200 6.06200 33.65700
H  39.00700 10.93700 34.19400
H  40.63000 11.51400 34.64100
H  39.43200 9.41800 36.46100
H  38.36400 10.76600 36.22700
H  35.30000 5.41100 29.88700
H  35.06300 6.83900 30.79800
H  36.38100 5.64600 31.23000
H  33.83700 6.62300 26.71600
H  34.31300 6.81800 28.35800
H  34.61400 5.22700 27.73800
H  39.89600 9.49200 24.68000
H  42.81800 10.03100 25.20500
H  40.93000 6.83800 24.98200
H  42.35900 7.72400 24.58800
H  40.89100 7.76900 23.51800
H  40.58400 11.31600 24.21200
H  42.19200 11.96800 24.54400
H  40.88200 12.34700 26.97200
H  39.63000 12.70900 25.85300
H  41.15000 13.54800 25.79800
H  45.04100 12.89500 28.08800
H  46.11200 11.72600 28.74700
H  45.65400 13.15300 29.71700
H  42.48100 12.01500 33.58300
H  43.53700 9.05500 36.64100
H  43.58200 10.64200 37.59800
H  44.84100 10.17500 36.62100

