158

Mg 2.07600 8.33500 24.85800
C  2.60500 10.06100 27.81800
C  2.14600 5.37600 26.70500
C  1.69300 6.56500 22.03400
C  2.52900 11.28300 22.96100
N  2.42200 7.83400 27.00100
C  2.50200 8.70600 28.05000
C  2.58000 7.97600 29.45000
C  2.55600 6.44100 29.03600
C  2.32200 6.51100 27.49400
C  3.83300 5.59400 29.44300
C  1.32100 8.45300 30.32300
C  1.54300 8.65900 31.88200
H  2.73700 8.00600 32.53900
N  1.78300 6.28000 24.41100
C  1.87600 5.25500 25.34600
C  1.77700 3.97800 24.71200
C  1.71600 4.25200 23.28100
C  1.69700 5.75100 23.18300
C  1.83100 2.65100 25.46200
C  1.74200 3.19700 22.11100
O  1.59500 3.55400 20.95200
C  1.96100 1.73800 22.36700
N  2.24500 8.85000 22.77400
C  1.91800 7.96500 21.78000
C  1.82700 8.57000 20.41100
C  2.31300 10.06500 20.74400
C  2.40500 10.07600 22.23600
C  2.47900 7.83500 19.21400
C  1.33200 11.17900 20.20900
C  -0.12300 11.30300 20.78600
N  2.40700 10.29000 25.25100
C  2.54300 11.41700 24.42400
C  2.87700 12.59800 25.21300
C  2.87000 12.09900 26.55200
C  2.50700 10.73600 26.50300
C  3.04400 14.01400 24.61900
C  3.00100 12.47800 27.93500
O  3.21200 13.61700 28.37600
C  2.73600 11.23400 28.81000
C  3.77100 11.15500 29.80100
O  4.83200 10.81000 29.46500
O  3.42400 11.65500 31.03500
C  4.52400 11.82200 31.93700
H  2.13600 4.43200 27.25400
H  1.46600 6.01500 21.11800
H  2.74900 12.18800 22.39200
H  3.51600 8.19700 29.96300
H  1.69900 5.98400 29.53000
H  3.45200 4.75800 30.02900
H  4.55300 6.10900 30.07900
H  4.28500 5.15900 28.55200
H  0.46000 7.83800 30.06300
H  0.91400 9.34500 29.84600
H  0.63100 8.20300 32.26800
H  1.60000 9.71600 32.14300
H  2.85100 2.46400 25.79600
H  1.52200 1.82700 24.81800
H  1.19700 2.54700 26.34300
H  2.77100 1.58200 23.08000
H  2.02400 1.16700 21.44100
H  0.95800 1.51500 22.73100
H  0.79700 8.54600 20.05400
H  3.27400 10.11800 20.23200
H  1.71300 7.60400 18.47400
H  3.00700 6.97200 19.61900
H  3.19200 8.48600 18.70700
H  1.34100 10.98600 19.13600
H  1.84100 12.12500 20.39500
H  -0.79700 11.07100 19.96100
H  -0.21800 12.31500 21.17900
H  -0.28500 10.61000 21.61100
H  2.79400 13.97400 23.55800
H  4.00100 14.49400 24.82300
H  2.29400 14.70900 24.99600
H  1.75500 11.28900 29.28100
H  4.08300 12.31600 32.80300
H  5.28000 12.47100 31.49500
H  5.03200 10.90200 32.22800
Mg 41.51300 8.67900 30.19600
C  43.71900 10.27000 32.49800
C  39.68600 7.47000 32.90400
C  39.80300 6.61700 28.07200
C  43.89400 9.20700 27.78800
N  41.59400 9.05300 32.50200
C  42.49000 9.83500 33.16800
C  42.24700 9.72400 34.66200
C  41.07900 8.61700 34.78000
C  40.77200 8.31000 33.32600
C  41.59300 7.43800 35.67500
C  41.87100 11.12700 35.28400
C  42.47100 11.37100 36.67800
H  41.34800 11.31300 37.83700
N  39.90800 7.35700 30.40700
C  39.26000 7.02700 31.60100
C  38.14500 6.16800 31.34500
C  38.18400 5.94800 29.86900
C  39.33300 6.67800 29.39300
C  37.22700 5.68000 32.39900
C  37.30000 5.04400 28.99500
O  37.44900 4.89500 27.77400
C  36.22200 4.31800 29.70300
N  41.78900 7.93600 28.26100
C  40.94000 7.22200 27.50900
C  41.40800 7.12300 26.05900
C  42.78600 7.77700 26.04600
C  42.80200 8.45400 27.40400
C  41.39600 5.67600 25.55700
C  42.94400 8.81200 24.89500
C  42.43600 10.25400 25.14600
N  43.29100 9.80300 30.05500
C  44.17700 9.89200 28.99500
C  45.34700 10.58700 29.38700
C  45.25300 10.73000 30.80800
C  43.97100 10.20000 31.16500
C  46.49900 10.95800 28.51000
C  45.91700 11.20700 31.99700
O  47.04600 11.63600 32.06200
C  44.96100 10.90200 33.20000
C  45.54400 9.82600 33.97700
O  45.82500 8.71400 33.62700
O  45.67400 10.30000 35.30000
C  45.90100 9.18400 36.17000
H  38.98800 7.10200 33.65900
H  39.13600 6.16000 27.33800
H  44.68000 9.24000 27.03100
H  43.14800 9.24000 35.04000
H  40.16900 9.09700 35.13800
H  42.26500 7.88100 36.41000
H  42.08400 6.70200 35.03800
H  40.87300 7.02400 36.38000
H  40.79600 11.25000 35.41500
H  42.26700 11.94900 34.68800
H  42.93400 12.35600 36.60700
H  43.16500 10.56400 36.91100
H  36.19000 5.91900 32.16200
H  37.45100 6.08500 33.38600
H  37.40500 4.60900 32.48500
H  35.54100 5.03700 30.15800
H  36.82900 3.83500 30.47000
H  35.77100 3.57000 29.05100
H  40.72700 7.73000 25.46300
H  43.60700 7.06700 25.94400
H  41.04300 5.00800 26.34300
H  42.33000 5.35300 25.09700
H  40.74800 5.66800 24.68100
H  42.53800 8.50700 23.93000
H  44.01200 8.88300 24.68800
H  43.27900 10.91100 25.35800
H  41.75900 10.26300 26.00000
H  41.74600 10.57700 24.36800
H  47.10500 11.62300 29.12600
H  46.03000 11.42900 27.64600
H  47.01300 9.99900 28.45300
H  44.78400 11.84800 33.71000
H  46.86700 8.70100 36.01700
H  45.14200 8.42300 35.98900
H  45.72000 9.32200 37.23600

