158

Mg 8.15500 3.26900 27.42100
C  9.52900 1.72700 30.23100
C  6.64200 5.48200 29.46600
C  6.83500 4.55600 24.74300
C  9.70700 0.73800 25.39900
N  8.00900 3.38100 29.65800
C  8.70400 2.74800 30.59000
C  8.43100 3.35200 31.97100
C  7.43600 4.54600 31.67100
C  7.31600 4.50100 30.16700
C  6.04700 4.55700 32.43400
C  9.65200 3.80500 32.89700
C  9.29500 4.66500 34.07400
H  9.87900 4.48800 35.47300
N  6.71400 4.71100 27.12900
C  6.23600 5.52300 28.08600
C  5.31600 6.48300 27.48400
C  5.43300 6.28800 26.11700
C  6.31600 5.15200 25.89400
C  4.54400 7.44400 28.31600
C  4.74200 7.05100 24.98700
O  4.81800 6.78200 23.76400
C  3.92600 8.25300 25.39300
N  8.27800 2.75100 25.39600
C  7.69500 3.49800 24.43000
C  7.90900 2.96700 23.02600
C  9.08900 1.98700 23.26700
C  9.02600 1.80100 24.74500
C  6.59000 2.51600 22.38900
C  10.46300 2.39900 22.71600
C  11.46100 2.99100 23.70300
N  9.21500 1.45200 27.67700
C  9.79600 0.57800 26.81600
C  10.58700 -0.41600 27.52200
C  10.43900 0.00300 28.85000
C  9.61400 1.15400 28.89500
C  11.47100 -1.51800 26.85400
C  11.05200 -0.17400 30.13500
O  11.93500 -0.94900 30.53400
C  10.51400 0.97800 31.04100
C  9.90400 0.34700 32.27200
O  8.96000 -0.48400 32.19800
O  10.61600 0.62500 33.41700
C  10.26700 -0.00700 34.65100
H  6.27700 6.29700 30.09500
H  6.37000 5.04100 23.88200
H  10.34000 0.21300 24.68000
H  7.91800 2.59500 32.56400
H  7.91800 5.48900 31.92600
H  5.27600 4.83600 31.71700
H  6.15000 5.40900 33.10600
H  5.82200 3.65500 33.00200
H  10.44200 4.20300 32.26000
H  10.03800 2.90200 33.36900
H  8.22800 4.57500 34.27700
H  9.56500 5.68100 33.78700
H  4.80400 8.50000 28.23100
H  4.63000 7.22500 29.38000
H  3.48100 7.42200 28.07400
H  3.63000 8.70900 24.44800
H  4.62600 8.98400 25.79600
H  3.11200 8.03000 26.08300
H  8.23000 3.84200 22.46100
H  8.84600 1.06500 22.73800
H  5.65600 2.56800 22.94800
H  6.74900 1.44400 22.27200
H  6.54200 2.96700 21.39800
H  10.14100 2.91300 21.81000
H  10.98100 1.49400 22.39900
H  12.27400 2.35200 24.04900
H  10.88900 3.38500 24.54300
H  11.89500 3.89300 23.27200
H  12.52300 -1.35800 27.09100
H  11.38500 -1.55700 25.76800
H  11.14900 -2.46500 27.28600
H  11.41200 1.47900 31.40400
H  9.61200 0.68100 35.18600
H  11.17700 -0.04900 35.24900
H  9.84300 -1.00600 34.55100
Mg 30.56200 57.86600 40.63000
C  27.92000 55.66600 39.22100
C  32.83600 55.41500 39.34600
C  32.83600 60.10700 40.83600
C  28.05000 60.29200 40.99300
N  30.37900 55.82500 39.34400
C  29.25100 55.10600 38.95400
C  29.63900 53.77400 38.23800
C  31.15700 53.67200 38.47200
C  31.53300 55.00700 39.07600
C  31.54400 52.45400 39.42900
C  29.24500 53.79900 36.68600
C  27.97600 53.07500 36.30600
H  27.04000 53.81600 35.33000
N  32.63300 57.75100 40.33000
C  33.33300 56.68300 39.80100
C  34.73000 57.10500 39.73400
C  34.80000 58.41900 40.19700
C  33.42900 58.82000 40.51400
C  35.88400 56.15600 39.32000
C  36.04800 59.24800 40.29900
O  37.20100 58.86800 40.02000
C  35.95300 60.77500 40.71100
N  30.46300 59.90500 40.88100
C  31.60200 60.58100 41.06100
C  31.34900 62.06300 41.48400
C  29.77600 62.13700 41.53200
C  29.37800 60.75300 40.98000
C  32.01800 62.50200 42.77800
C  29.22500 63.31500 40.78100
C  29.31300 63.35100 39.18000
N  28.33900 57.93900 40.48900
C  27.55400 58.95700 40.72100
C  26.15500 58.50600 40.43300
C  26.33800 57.22600 39.86700
C  27.64600 56.92600 39.85000
C  24.84500 59.18200 40.62900
C  25.55700 56.10800 39.35400
O  24.36700 56.02400 39.02100
C  26.60900 55.08800 38.97700
C  26.15300 53.80600 39.71900
O  26.02000 53.80500 40.91000
O  25.91900 52.76900 38.92300
C  25.20800 51.64000 39.45600
H  33.60600 54.70200 39.04100
H  33.60600 60.88200 40.84700
H  27.28300 61.05200 41.15900
H  29.22600 52.86200 38.66900
H  31.75200 53.62200 37.56100
H  32.44100 51.98600 39.02500
H  30.78200 51.68200 39.53600
H  31.80400 52.81900 40.42300
H  30.03100 53.22200 36.19900
H  29.44100 54.80100 36.30400
H  27.42000 52.70500 37.16800
H  28.36500 52.25000 35.71100
H  36.36200 56.40600 38.37300
H  35.56000 55.11600 39.31700
H  36.68400 56.25800 40.05300
H  35.35400 60.81800 41.62100
H  35.48100 61.35700 39.91900
H  36.89200 61.25000 40.99700
H  31.51400 62.76100 40.66400
H  29.43400 62.24700 42.56100
H  32.83300 63.18000 42.52400
H  32.46000 61.62600 43.25200
H  31.32300 62.94800 43.49000
H  29.73200 64.16900 41.23000
H  28.18800 63.49100 41.06500
H  28.30200 63.59800 38.85800
H  29.64200 62.45900 38.64700
H  30.00000 64.15100 38.90400
H  24.83300 60.27000 40.68600
H  24.21100 58.68800 41.36600
H  24.36000 58.77600 39.74100
H  26.43400 54.90100 37.91800
H  26.05100 51.16300 39.95700
H  24.84100 50.95500 38.69200
H  24.52300 51.92900 40.25300

