158

Mg 30.57400 58.09500 40.44200
C  27.69800 56.30100 39.56700
C  32.55600 55.70500 39.17300
C  33.24200 60.23800 40.53700
C  28.43300 60.84100 41.24600
N  30.11700 56.29400 39.37400
C  28.89300 55.66200 39.21800
C  29.02400 54.19400 38.71300
C  30.57800 54.08600 38.75300
C  31.17300 55.46300 39.16400
C  31.02800 52.98700 39.71000
C  28.27400 53.80300 37.39800
C  29.05900 53.90500 36.06700
H  28.21800 54.11600 34.84900
N  32.66200 58.00000 40.07200
C  33.23900 56.88100 39.50500
C  34.68800 57.04800 39.51800
C  34.92500 58.35200 40.01100
C  33.54900 58.94700 40.21200
C  35.69600 55.97800 39.13900
C  36.30500 59.02600 40.33900
O  37.39100 58.38600 40.21300
C  36.49800 60.49400 40.70600
N  30.82100 60.18900 40.87400
C  32.04000 60.80900 40.94400
C  31.86800 62.29600 41.11500
C  30.35300 62.44800 41.51200
C  29.81600 61.07600 41.18700
C  32.81800 63.09300 42.08700
C  29.49600 63.73600 40.92600
C  28.75700 64.58000 42.01700
N  28.47400 58.52100 40.52000
C  27.70600 59.68100 40.85000
C  26.26800 59.34400 40.56600
C  26.27700 57.99100 40.29600
C  27.57400 57.59600 40.13300
C  25.08600 60.20900 40.72600
C  25.35600 56.86400 40.09500
O  24.14700 56.85100 40.21600
C  26.30400 55.76800 39.48400
C  26.11200 54.60800 40.36100
O  26.64000 54.42300 41.43500
O  25.23800 53.64500 39.79800
C  24.89700 52.41200 40.69200
H  33.27500 54.93300 38.89300
H  33.89700 61.10100 40.40100
H  27.82600 61.68000 41.59400
H  28.61200 53.50300 39.44900
H  30.99300 53.84700 37.77400
H  31.47700 53.33600 40.64000
H  31.76800 52.40500 39.16100
H  30.23500 52.25700 39.86700
H  27.36600 54.40000 37.32000
H  27.99100 52.77500 37.62100
H  29.65100 52.99800 35.94400
H  29.88600 54.59900 36.21700
H  36.48600 56.44200 38.54900
H  35.20600 55.34800 38.39700
H  36.02000 55.36000 39.97700
H  35.87200 60.69500 41.57500
H  36.21100 61.08100 39.83400
H  37.55800 60.69100 40.86600
H  31.94600 62.83400 40.17100
H  30.36000 62.32100 42.59400
H  32.30600 63.54400 42.93600
H  33.28000 63.79100 41.38800
H  33.59800 62.50200 42.56600
H  28.82900 63.38900 40.13600
H  30.21000 64.43000 40.48200
H  29.40100 65.45500 42.09900
H  28.68600 64.04700 42.96600
H  27.74700 64.85600 41.71300
H  25.13700 60.95400 41.52000
H  24.10900 59.73900 40.83500
H  25.11600 60.76500 39.78900
H  26.03500 55.70900 38.43000
H  25.54300 51.56800 40.45000
H  23.85000 52.11400 40.64900
H  24.98200 52.53700 41.77200
Mg 17.65100 51.06900 26.54400
C  19.42400 50.29400 29.38500
C  15.07700 52.10100 28.40400
C  16.22100 52.10200 23.65300
C  20.17600 49.43900 24.69700
N  17.34700 51.13300 28.70100
C  18.23000 50.85600 29.69800
C  17.61300 51.13800 31.08900
C  16.11900 51.28800 30.62200
C  16.10500 51.50000 29.13200
C  15.10200 50.18500 31.15200
C  18.18700 52.43200 31.80200
C  18.38700 52.37300 33.39300
H  17.56500 51.44500 34.26100
N  16.01100 52.06200 26.12800
C  15.00000 52.41200 27.01200
C  14.03200 53.25300 26.28000
C  14.39800 53.33200 24.92900
C  15.66800 52.50500 24.87100
C  12.91400 53.95200 26.98900
C  13.78500 54.15500 23.85200
O  14.24400 54.29800 22.73900
C  12.53400 54.94600 24.10500
N  18.20200 50.79300 24.47100
C  17.35400 51.28300 23.46700
C  18.00500 51.06100 22.07800
C  19.13600 50.04500 22.51100
C  19.14400 50.06800 23.95100
C  17.06500 50.44100 21.04100
C  20.54900 50.30200 21.85300
C  21.35100 51.57400 22.41300
N  19.42400 50.07700 26.91800
C  20.35300 49.50500 26.05500
C  21.45000 48.90300 26.76100
C  21.12800 49.20500 28.10000
C  19.91300 49.94500 28.14300
C  22.66500 48.15700 26.34600
C  21.59200 49.10500 29.52100
O  22.61300 48.65000 30.03700
C  20.44000 49.75100 30.35100
C  19.84700 48.65100 31.12900
O  18.83500 48.04000 30.77500
O  20.62000 48.41600 32.27600
C  20.07100 47.32600 33.14300
H  14.22800 52.49800 28.96500
H  15.66300 52.36200 22.75100
H  20.97200 48.95200 24.12900
H  17.69800 50.26800 31.74000
H  15.60400 52.18300 30.97000
H  14.24900 50.61800 31.67500
H  15.64000 49.65600 31.93800
H  14.74500 49.44900 30.43200
H  17.45700 53.23100 31.66700
H  19.15100 52.63000 31.33200
H  18.26500 53.34900 33.86200
H  19.44700 52.14600 33.50800
H  11.92100 53.84800 26.55300
H  13.19000 55.00600 27.03600
H  12.84300 53.61300 28.02300
H  11.85200 54.25400 24.59900
H  11.98500 55.21600 23.20200
H  12.77400 55.76400 24.78400
H  18.62400 51.86700 21.68400
H  18.70400 49.06100 22.33200
H  16.88800 51.25100 20.33300
H  16.05900 50.23300 21.40600
H  17.48800 49.55600 20.56600
H  20.45700 50.58300 20.80400
H  20.98500 49.30400 21.81400
H  21.77700 52.10100 21.55900
H  22.05200 51.14500 23.12900
H  20.57700 52.03600 23.02500
H  23.46600 48.89300 26.27300
H  22.39300 47.81200 25.34800
H  22.95300 47.24200 26.86400
H  20.82300 50.45100 31.09400
H  19.17700 47.74400 33.60600
H  20.83700 47.12800 33.89300
H  19.75600 46.42700 32.61300

