158

Mg 48.89900 44.65700 43.08700
C  45.43600 45.06900 42.31800
C  48.59400 41.45200 42.25400
C  52.17700 44.64400 43.15700
C  48.98200 48.18200 43.84000
N  47.12100 43.38200 42.23000
C  45.80100 43.73300 42.06200
C  45.03700 42.53600 41.62800
C  46.03300 41.33300 41.95600
C  47.33700 42.06700 42.09300
C  45.65100 40.65800 43.27200
C  44.41700 42.47300 40.21300
C  45.05100 43.24100 39.03500
H  45.02900 42.55300 37.65800
N  50.26500 43.26600 42.58100
C  49.95900 41.94900 42.36200
C  51.25500 41.24600 42.21900
C  52.28500 42.09700 42.53600
C  51.56100 43.38500 42.75800
C  51.36100 39.75100 41.78400
C  53.72700 41.73000 42.63200
O  54.08800 40.56200 42.39600
C  54.71300 42.68500 43.19000
N  50.35600 46.22600 43.46600
C  51.65200 45.87300 43.53900
C  52.60100 47.10800 43.78400
C  51.54300 48.24100 44.13700
C  50.18100 47.52300 43.89800
C  53.74400 46.91900 44.76500
C  51.73700 49.65000 43.49300
C  51.91100 50.71000 44.58000
N  47.50100 46.31000 43.18000
C  47.67600 47.62000 43.47600
C  46.44800 48.33700 43.17900
C  45.55100 47.37900 42.73000
C  46.21800 46.16400 42.73900
C  46.24200 49.81700 43.24000
C  44.23600 47.24400 42.11800
O  43.33300 48.05400 41.83800
C  44.08600 45.66200 41.85800
C  42.77500 45.21900 42.55900
O  41.85800 44.65800 41.94700
O  42.89200 45.47900 43.93500
C  41.68600 45.09200 44.63200
H  48.54300 40.37200 42.09600
H  53.26700 44.59800 43.19200
H  48.99200 49.24700 44.08400
H  44.14200 42.56400 42.25000
H  46.08400 40.51100 41.24200
H  45.63400 39.56800 43.28700
H  44.70700 41.05700 43.64200
H  46.37500 41.01400 44.00500
H  43.42400 42.89200 40.37900
H  44.46900 41.41000 39.98200
H  46.09100 43.47400 39.26200
H  44.50400 44.16600 38.85300
H  50.36700 39.51100 41.40800
H  51.55700 39.20200 42.70500
H  52.12500 39.59400 41.02200
H  55.05000 43.50200 42.55100
H  55.51800 42.05500 43.57000
H  54.27400 43.26000 44.00500
H  52.92100 47.31400 42.76300
H  51.68600 48.37300 45.21000
H  53.59400 46.04300 45.39700
H  53.79100 47.84500 45.33800
H  54.70000 46.73800 44.27500
H  50.95800 49.86300 42.76100
H  52.70200 49.65900 42.98700
H  52.80200 51.31500 44.41200
H  51.91500 50.38200 45.62000
H  51.01800 51.33400 44.57700
H  47.17600 50.18700 42.81700
H  46.00600 50.23400 44.21900
H  45.40200 49.99700 42.56900
H  43.91900 45.48200 40.79600
H  41.91700 45.20400 45.69200
H  41.47600 44.06600 44.32900
H  40.83100 45.71500 44.37100
Mg 37.02600 50.16700 25.17600
C  37.32400 47.96000 27.88900
C  35.40000 52.35100 27.22300
C  36.58700 52.13900 22.54100
C  38.18700 47.58300 23.10600
N  36.19900 50.12500 27.34600
C  36.66900 49.19100 28.23800
C  36.37800 49.74700 29.70100
C  35.53500 51.05100 29.39400
C  35.67800 51.16100 27.91000
C  34.04900 51.03300 29.94400
C  37.68300 50.03800 30.48900
C  37.69100 49.54700 31.91800
H  36.25300 49.56400 32.76300
N  36.26500 52.11100 24.92900
C  35.62200 52.81600 25.87000
C  35.20400 54.06700 25.36800
C  35.52100 54.04900 23.95400
C  36.17000 52.74500 23.70200
C  34.63500 55.21600 26.21200
C  35.32300 55.09600 22.90300
O  35.72700 55.00100 21.76100
C  34.48200 56.33000 23.19200
N  37.28600 49.87600 23.11900
C  37.12600 50.88800 22.18600
C  37.48100 50.42100 20.72200
C  37.90400 48.93800 20.96600
C  37.78200 48.75900 22.47800
C  36.30000 50.51200 19.72500
C  39.32400 48.57700 20.41400
C  40.49500 49.20200 21.19400
N  37.60000 48.21300 25.38000
C  38.07100 47.29400 24.45100
C  38.38700 46.04600 25.08400
C  38.11100 46.25300 26.44300
C  37.64500 47.57600 26.55500
C  38.95200 44.82400 24.38600
C  38.11800 45.62400 27.74000
O  38.49800 44.51200 28.06400
C  37.69900 46.72300 28.75700
C  36.53000 46.28000 29.51600
O  35.46600 45.96200 29.02600
O  36.86500 46.36900 30.85100
C  35.81000 45.87300 31.79200
H  34.93300 53.07700 27.89300
H  36.46900 52.75900 21.65000
H  38.52000 46.74900 22.48500
H  35.76100 48.99900 30.20100
H  36.04000 51.89700 29.86100
H  33.84800 51.98100 30.44400
H  33.88100 50.21000 30.63800
H  33.36600 51.12500 29.09900
H  38.03900 51.06200 30.38000
H  38.48100 49.54600 29.93200
H  38.39000 50.16200 32.48400
H  38.12800 48.55000 31.98300
H  35.12600 56.16600 26.42300
H  34.29900 54.86900 27.18900
H  33.66700 55.50800 25.80600
H  33.51600 56.06900 23.62400
H  34.33500 56.87800 22.26100
H  34.87400 57.03100 23.93000
H  38.37900 50.93500 20.37800
H  37.21700 48.26300 20.45500
H  36.27900 51.56700 19.45200
H  35.37700 50.35800 20.28300
H  36.23600 49.73100 18.96700
H  39.35800 49.02700 19.42200
H  39.43300 47.49400 20.47300
H  40.92300 48.35300 21.72700
H  40.11500 49.78700 22.03100
H  41.16200 49.83500 20.60900
H  39.90600 45.06500 23.91900
H  38.31500 44.42500 23.59700
H  39.05200 43.97800 25.06600
H  38.50900 46.99600 29.43300
H  35.61900 44.84400 31.48700
H  34.90300 46.47100 31.69400
H  36.22200 45.76500 32.79500

