158

Mg 0.12100 7.67100 26.36300
C  0.83200 9.37700 29.21600
C  -0.12700 4.70000 28.11900
C  0.06000 5.95800 23.35400
C  0.87500 10.56700 24.44200
N  0.28300 7.08300 28.51200
C  0.40800 8.01600 29.49400
C  0.38900 7.32200 30.85200
C  -0.00900 5.82800 30.52700
C  0.05500 5.79100 28.97300
C  1.03600 4.72900 31.14400
C  -0.59400 8.15100 31.82500
C  -0.18400 8.43000 33.28300
H  0.85000 7.54100 33.90600
N  -0.10600 5.66100 25.78800
C  -0.18000 4.60300 26.69800
C  -0.46800 3.43900 25.95300
C  -0.40900 3.69400 24.53400
C  -0.22500 5.19300 24.49600
C  -0.76400 2.12100 26.66200
C  -0.64400 2.80100 23.31200
O  -0.78300 3.25600 22.20500
C  -0.79200 1.25500 23.52100
N  0.21700 8.23300 24.19700
C  0.23700 7.33900 23.22500
C  0.56600 7.92800 21.90500
C  0.35200 9.43300 22.18800
C  0.54900 9.47800 23.68900
C  1.99500 7.58100 21.48800
C  -1.04100 9.89500 21.86900
C  -1.09000 11.42600 21.94300
N  0.55900 9.61900 26.67700
C  0.90000 10.69500 25.83600
C  1.27800 11.87500 26.62100
C  1.31400 11.35200 27.96800
C  0.93900 9.97600 27.93900
C  1.66300 13.22600 26.10800
C  1.80100 11.72400 29.25900
O  2.36100 12.77600 29.62200
C  1.42700 10.54400 30.17500
C  2.59000 10.14700 30.99800
O  3.57400 9.46400 30.70700
O  2.45300 10.82700 32.20200
C  3.60100 10.85600 33.10000
H  -0.32300 3.73100 28.58300
H  0.20000 5.32200 22.47700
H  1.36200 11.34300 23.84800
H  1.41900 7.31700 31.21100
H  -0.97900 5.49800 30.89800
H  1.33300 4.10200 30.30300
H  0.50100 4.09400 31.85100
H  1.88000 5.18300 31.66300
H  -1.45500 7.48400 31.86100
H  -1.01700 9.05800 31.39300
H  -1.05800 8.27100 33.91400
H  0.07500 9.47900 33.43000
H  -1.38400 1.51000 26.00700
H  -1.38700 2.22400 27.55100
H  0.09700 1.52600 26.96700
H  -0.57600 0.77600 22.56600
H  -1.82700 0.97000 23.71000
H  -0.09800 0.81700 24.23900
H  -0.11800 7.61600 21.11700
H  1.11500 10.11300 21.80900
H  2.47100 6.74500 22.00100
H  2.74500 8.35100 21.66700
H  2.02200 7.53700 20.39900
H  -1.80500 9.70000 22.62200
H  -1.45400 9.41600 20.98100
H  -1.40300 11.78600 20.96300
H  -0.09900 11.87800 21.98800
H  -1.76700 11.79000 22.71700
H  0.91800 13.54600 25.37900
H  2.67000 13.13700 25.70000
H  1.60600 13.99700 26.87600
H  0.62400 10.75200 30.88100
H  3.25900 10.77200 34.13100
H  4.01900 11.86000 33.02300
H  4.45100 10.19700 32.92900
Mg 27.19700 50.81600 25.86200
C  25.31300 51.94500 28.63000
C  29.42000 49.33800 28.19700
C  29.20400 49.98500 23.33900
C  25.20700 52.77000 23.86600
N  27.39100 50.70400 28.18400
C  26.42400 51.20400 29.09100
C  26.77300 50.72300 30.53300
C  28.11500 49.96300 30.32400
C  28.29400 49.95000 28.81700
C  29.30800 50.70600 30.97300
C  25.65200 50.00800 31.33500
C  25.23300 50.51800 32.79400
H  26.29000 50.77100 33.87100
N  29.04600 49.74500 25.78000
C  29.85300 49.30900 26.86400
C  30.99700 48.63900 26.27100
C  30.95600 48.88900 24.85900
C  29.70000 49.54700 24.62100
C  32.06100 47.80200 27.05900
C  32.00500 48.63300 23.77300
O  31.91400 48.84700 22.56800
C  33.29700 47.99700 24.25400
N  27.17800 51.31900 23.89300
C  28.07800 50.78400 22.99900
C  27.69000 51.09100 21.49400
C  26.32100 51.82900 21.61500
C  26.21800 52.01100 23.22600
C  28.73200 51.63400 20.52200
C  25.18800 51.05500 20.93500
C  24.20400 52.08100 20.33900
N  25.51900 52.10000 26.15400
C  24.84200 52.83600 25.21100
C  23.70100 53.54600 25.73900
C  23.85200 53.19300 27.11600
C  25.02700 52.37000 27.28300
C  22.69800 54.38100 25.05300
C  23.20200 53.28000 28.43300
O  22.02000 53.62100 28.70300
C  24.16000 52.52600 29.50900
C  24.62100 53.49600 30.55300
O  25.63600 54.17300 30.58500
O  23.67100 53.48100 31.58300
C  23.97000 54.25800 32.83600
H  30.00200 48.84700 28.98100
H  29.75500 49.63600 22.46300
H  24.50700 53.28100 23.20300
H  26.93100 51.71200 30.96400
H  28.06600 48.93800 30.69000
H  29.83900 51.33400 30.25900
H  30.00200 49.99200 31.41700
H  28.93800 51.33200 31.78500
H  26.00500 49.01200 31.60000
H  24.69600 49.80900 30.85100
H  24.57700 49.74400 33.19200
H  24.72400 51.47900 32.71900
H  32.63100 47.02800 26.54500
H  31.78100 47.32800 28.00000
H  32.89800 48.45700 27.30100
H  33.89300 48.07400 23.34400
H  33.18200 46.95900 24.56400
H  33.69900 48.71200 24.97200
H  27.45300 50.06800 21.20200
H  26.55400 52.82800 21.24700
H  29.68000 51.37100 20.99200
H  28.69100 52.72000 20.43300
H  28.79800 51.02600 19.62000
H  24.73000 50.56400 21.79300
H  25.62500 50.42700 20.15800
H  23.37400 51.46900 19.98600
H  24.55400 52.58700 19.44000
H  23.81400 52.85200 21.00300
H  21.74200 53.87800 24.90600
H  22.97900 54.66000 24.03800
H  22.55900 55.32300 25.58300
H  23.74500 51.67300 30.04600
H  25.04200 54.31700 33.02600
H  23.42000 53.95000 33.72500
H  23.61600 55.27500 32.67100

