158

Mg 0.41200 43.87800 26.23500
C  1.96300 43.98500 29.36700
C  -2.50200 43.16500 27.99900
C  -1.00200 43.16600 23.30800
C  3.62400 44.23100 24.72700
N  -0.21800 43.54200 28.51000
C  0.61300 43.79600 29.52600
C  -0.21400 43.64200 30.90800
C  -1.60600 43.18600 30.43400
C  -1.42900 43.31800 28.91100
C  -1.96700 41.80100 30.90600
C  -0.23800 45.01800 31.66500
C  -0.43400 44.97100 33.22700
H  -0.81700 43.68200 34.00700
N  -1.52700 43.42100 25.74200
C  -2.59600 43.17400 26.57500
C  -3.74500 42.78900 25.67900
C  -3.33500 42.91400 24.32200
C  -1.90000 43.15400 24.43400
C  -5.10900 42.46200 26.16500
C  -4.15800 42.71900 22.99200
O  -3.71800 42.86800 21.87200
C  -5.60800 42.28400 23.01300
N  1.19500 43.75300 24.33400
C  0.40100 43.46600 23.29900
C  1.18600 43.44200 21.96200
C  2.55200 44.11300 22.36500
C  2.49500 44.06800 23.90400
C  1.34200 42.15000 21.18300
C  2.75900 45.49900 21.85200
C  3.46600 45.56600 20.48100
N  2.46200 44.07000 26.81200
C  3.63400 44.15900 26.12700
C  4.68000 44.33700 27.13600
C  4.08600 44.25700 28.40500
C  2.70700 44.10500 28.15300
C  6.16200 44.52500 26.80800
C  4.33400 44.18700 29.82100
O  5.36400 44.17200 30.48500
C  3.01300 44.11600 30.49000
C  3.13900 42.99300 31.38400
O  3.16700 41.84000 31.03000
O  3.01100 43.39300 32.68300
C  3.03500 42.22200 33.56900
H  -3.36500 43.02800 28.65500
H  -1.51700 42.98400 22.36300
H  4.53400 44.47300 24.17500
H  0.30500 42.95700 31.57800
H  -2.35300 43.93600 30.69000
H  -2.96400 41.80200 31.34600
H  -1.21900 41.32700 31.54200
H  -1.98900 41.16600 30.02000
H  -0.93200 45.76000 31.26900
H  0.73900 45.49500 31.58700
H  -1.03600 45.79500 33.60900
H  0.57000 45.25500 33.54300
H  -5.94500 43.08500 25.84800
H  -5.16800 42.12100 27.19900
H  -5.40200 41.50700 25.72900
H  -6.26700 43.02900 23.45900
H  -5.81200 41.33600 23.50900
H  -5.88400 42.04100 21.98600
H  0.62400 44.16000 21.36500
H  3.40200 43.45100 22.20300
H  2.28100 42.13100 20.62900
H  0.54900 42.03900 20.44300
H  1.37100 41.26900 21.82400
H  3.32900 46.15800 22.50700
H  1.82500 46.05400 21.75700
H  2.68700 45.75700 19.74200
H  3.82500 44.59000 20.15400
H  4.22300 46.35000 20.46300
H  6.81800 43.92300 27.43700
H  6.30900 45.58000 27.04000
H  6.42200 44.40600 25.75600
H  2.89400 45.01900 31.08800
H  3.89900 41.57700 33.40500
H  2.14700 41.59700 33.46900
H  3.04000 42.41500 34.64100
Mg -4.43000 25.47500 26.24000
C  -3.32700 27.11700 29.09600
C  -6.22300 23.41800 28.19600
C  -4.78900 23.41900 23.59800
C  -2.07800 27.41700 24.43800
N  -4.60400 25.22100 28.38000
C  -4.15500 26.03900 29.37100
C  -4.65100 25.63000 30.76100
C  -5.32300 24.25700 30.44200
C  -5.39900 24.26700 28.90000
C  -4.62200 22.93700 31.06100
C  -5.54900 26.68500 31.42900
C  -6.73800 26.22300 32.24600
H  -6.43700 25.16100 33.26800
N  -5.49800 23.73900 25.87300
C  -6.20700 23.07100 26.83300
C  -6.99100 22.02000 26.17800
C  -6.66300 22.14000 24.82400
C  -5.57600 23.08900 24.69900
C  -8.11200 21.28700 26.86100
C  -7.23100 21.37200 23.68500
O  -6.70200 21.42000 22.56700
C  -8.38700 20.35400 23.79200
N  -3.31000 25.33400 24.39000
C  -3.82000 24.47700 23.45800
C  -3.02400 24.70200 22.13400
C  -2.19600 25.98100 22.33100
C  -2.62900 26.28900 23.79500
C  -2.20100 23.48700 21.65600
C  -2.41200 27.24800 21.33200
C  -1.10300 27.84100 20.83300
N  -3.16600 27.05200 26.62000
C  -2.30400 27.78500 25.79900
C  -1.59500 28.78300 26.54800
C  -2.04400 28.61900 27.86600
C  -2.95100 27.54500 27.82600
C  -0.66300 29.77400 26.10400
C  -2.02800 29.12800 29.22700
O  -1.58400 30.18300 29.69900
C  -2.82300 28.09600 30.11700
C  -1.81500 27.56800 31.06600
O  -0.73400 26.99600 30.79400
O  -2.30000 27.77500 32.32000
C  -1.64600 27.10200 33.39400
H  -6.83800 22.71500 28.76200
H  -5.01900 22.94800 22.64000
H  -1.34100 28.05200 23.94100
H  -3.79200 25.54600 31.42700
H  -6.37700 24.32100 30.71400
H  -4.13000 22.51800 30.18300
H  -5.33400 22.26000 31.53200
H  -3.87900 23.26700 31.78700
H  -5.79200 27.44300 30.68400
H  -4.86800 27.19900 32.10800
H  -7.58500 25.96300 31.61200
H  -7.08900 27.16200 32.67400
H  -7.97800 20.22400 26.66300
H  -9.05500 21.47300 26.34600
H  -8.36900 21.48900 27.90100
H  -9.32600 20.83300 24.07100
H  -8.10200 19.63100 24.55600
H  -8.56400 19.74700 22.90400
H  -3.87100 24.95600 21.49700
H  -1.13400 25.82000 22.51800
H  -2.79900 22.78900 21.07000
H  -1.87900 22.97100 22.56000
H  -1.31000 23.75600 21.08900
H  -2.82100 28.09900 21.87500
H  -3.07900 26.98300 20.51200
H  -0.98600 28.83200 21.27300
H  -1.12700 27.97500 19.75200
H  -0.27400 27.22000 21.17200
H  -1.17400 30.70400 25.85400
H  -0.14000 29.39400 25.22600
H  0.01100 29.94400 26.94300
H  -3.50900 28.77400 30.62400
H  -0.70600 26.63200 33.10600
H  -2.29100 26.27900 33.70000
H  -1.45300 27.78900 34.21800

