158

Mg 48.19600 15.25500 27.97300
C  46.40300 15.09200 30.93300
C  50.55200 17.29800 29.56300
C  49.82000 15.64200 25.03300
C  45.53700 13.74100 26.27400
N  48.37100 16.05300 30.00300
C  47.55100 15.92200 31.08900
C  47.96000 16.65200 32.29900
C  49.07100 17.58300 31.65900
C  49.40100 16.91200 30.28200
C  48.76000 19.12000 31.60100
C  48.48500 15.77100 33.49400
C  47.95400 16.16500 34.88100
H  49.05800 16.25500 35.93800
N  50.07100 16.21200 27.40700
C  50.87800 16.90800 28.24000
C  52.04600 17.26100 27.51600
C  51.81000 16.99200 26.15500
C  50.53100 16.21600 26.14400
C  53.20700 17.84600 28.27000
C  52.62300 17.30900 24.99500
O  52.46700 16.73500 23.87900
C  53.93900 18.12600 25.20200
N  47.71300 14.71500 25.86300
C  48.61300 14.92800 24.83900
C  48.20500 14.25700 23.56300
C  46.84100 13.59300 24.01900
C  46.66000 13.96700 25.48500
C  48.09400 15.26700 22.28800
C  46.62700 12.11400 23.77800
C  47.25400 11.03400 24.72300
N  46.31300 14.57100 28.42200
C  45.37200 13.95600 27.64400
C  44.34400 13.44600 28.50800
C  44.70200 13.85100 29.80200
C  45.91200 14.52600 29.68600
C  43.17200 12.54100 27.98400
C  44.36300 13.72500 31.19000
O  43.45800 13.16600 31.80700
C  45.37800 14.66700 31.95800
C  44.41200 15.72700 32.50600
O  44.02200 16.66600 31.83900
O  44.06900 15.42600 33.80400
C  43.05300 16.19400 34.44300
H  51.27800 17.97300 30.02000
H  50.37400 15.72400 24.09500
H  44.70000 13.22400 25.80000
H  47.07700 17.25600 32.50800
H  49.94100 17.53900 32.31400
H  47.80500 19.35200 32.07200
H  48.75800 19.46900 30.56800
H  49.56700 19.72200 32.01900
H  49.57300 15.79300 33.43700
H  48.23300 14.73400 33.26800
H  47.18600 15.40500 35.02600
H  47.49400 17.15100 34.92800
H  53.24700 17.25600 29.18600
H  53.10500 18.87700 28.60700
H  54.16800 17.76700 27.76200
H  54.67800 17.39300 25.52600
H  53.67800 18.87700 25.94800
H  54.31000 18.63200 24.31100
H  48.88500 13.42400 23.38200
H  46.09300 14.11900 23.42600
H  48.86500 15.06900 21.54300
H  48.22200 16.32500 22.51500
H  47.14100 15.04400 21.80800
H  46.95800 11.99500 22.74700
H  45.55100 12.14100 23.94800
H  47.82100 11.60500 25.45700
H  47.91800 10.38900 24.14700
H  46.42500 10.50200 25.19000
H  43.53000 11.86800 27.20500
H  42.35400 13.18000 27.65000
H  42.80300 11.88200 28.76900
H  45.73600 14.09500 32.81300
H  42.22300 16.52800 33.82000
H  43.45700 17.11600 34.86100
H  42.74300 15.64900 35.33500
Mg -11.25800 18.45500 43.08500
C  -7.75600 18.69300 43.93700
C  -11.50800 21.81100 42.86700
C  -14.28000 18.02500 41.83000
C  -10.72100 14.91700 43.09200
N  -9.75600 19.95900 43.36600
C  -8.43700 19.87100 43.65600
C  -7.76300 21.21800 43.37000
C  -9.01800 22.22900 43.48900
C  -10.20000 21.32000 43.16100
C  -9.17900 23.08000 44.78700
C  -7.20600 21.14100 41.89600
C  -5.72100 21.32800 41.83600
H  -5.14600 21.99200 40.62900
N  -12.73600 19.74900 42.42100
C  -12.70100 21.11200 42.40500
C  -13.82000 21.68500 41.80100
C  -14.71500 20.54000 41.44800
C  -13.97600 19.38100 41.97500
C  -13.95600 23.14900 41.58600
C  -16.10700 20.70200 40.90300
O  -16.50700 21.78700 40.55200
C  -16.96500 19.55800 40.58900
N  -12.32300 16.75800 42.50200
C  -13.59600 16.83400 41.98300
C  -14.20400 15.47500 41.75300
C  -13.13700 14.43600 42.26800
C  -11.96800 15.38500 42.61000
C  -15.68000 15.32500 42.24400
C  -12.74700 13.32600 41.17400
C  -12.58000 11.84500 41.69900
N  -9.63800 16.95100 43.57700
C  -9.60500 15.61600 43.52300
C  -8.27000 15.14800 43.83700
C  -7.49400 16.27000 44.08600
C  -8.41100 17.38100 43.93800
C  -7.83200 13.69600 43.83200
C  -6.17900 16.83100 44.41400
O  -5.13500 16.26000 44.79000
C  -6.32800 18.35700 44.35500
C  -5.91400 18.87000 45.71900
O  -6.55700 18.76800 46.71500
O  -4.57200 19.27300 45.73000
C  -4.07600 20.03200 46.86100
H  -11.48200 22.90200 42.91100
H  -15.26300 17.74400 41.44600
H  -10.51000 13.87800 42.83000
H  -7.10700 21.36000 44.22900
H  -8.83100 22.94300 42.68700
H  -9.49400 24.06900 44.45300
H  -8.19800 23.15900 45.25700
H  -9.90400 22.62000 45.45800
H  -7.66100 21.85800 41.21200
H  -7.42900 20.19300 41.40700
H  -5.25400 20.37300 42.07700
H  -5.44700 21.91500 42.71300
H  -14.36900 23.40600 40.61000
H  -12.95400 23.56900 41.50100
H  -14.55600 23.59300 42.38000
H  -16.60000 18.96300 39.75100
H  -17.92600 19.89800 40.20300
H  -17.16900 18.91400 41.44400
H  -14.16600 15.36900 40.66900
H  -13.46600 13.92600 43.17400
H  -15.96100 16.16900 42.87400
H  -15.75800 14.36300 42.74900
H  -16.33400 15.23900 41.37700
H  -11.83200 13.66800 40.69000
H  -13.48900 13.33900 40.37500
H  -12.46700 11.09000 40.92100
H  -13.53900 11.48500 42.07200
H  -11.84900 11.87400 42.50600
H  -8.05600 13.27600 42.85100
H  -8.27600 13.12700 44.64900
H  -6.74600 13.61700 43.88600
H  -5.55000 18.56500 43.62000
H  -4.28700 21.09400 46.73200
H  -3.01000 20.06500 47.08800
H  -4.67300 19.79100 47.74000

