158

Mg 44.09600 5.27200 47.05300
C  42.07500 8.17200 46.73900
C  41.33600 3.31400 46.45600
C  45.99400 2.57300 46.54000
C  46.83600 7.34400 46.95100
N  41.91600 5.73400 46.75600
C  41.34700 6.91400 46.51300
C  39.90900 6.74700 45.98500
C  39.62200 5.19300 46.34200
C  41.00900 4.67900 46.49900
C  38.60100 4.86900 47.56100
C  39.71200 7.04500 44.41200
C  39.08500 8.40300 44.00300
H  39.70500 9.19800 42.87300
N  43.69200 3.19300 46.60400
C  42.50000 2.57000 46.43700
C  42.63400 1.19800 46.16900
C  44.02200 0.91100 46.20000
C  44.67400 2.23100 46.45400
C  41.48300 0.29400 45.87000
C  44.65800 -0.53400 46.01300
O  43.93000 -1.53000 45.77400
C  46.10500 -0.71800 45.77400
N  46.09400 4.98200 46.95500
C  46.65800 3.79400 46.79000
C  48.17500 3.84200 46.71100
C  48.53100 5.34200 46.66000
C  47.09200 5.95400 46.92200
C  48.80400 2.96300 47.84200
C  49.03200 5.92100 45.28100
C  50.29400 5.31900 44.66100
N  44.45800 7.35000 46.99000
C  45.63800 8.01300 46.97500
C  45.36100 9.42400 46.95300
C  43.96200 9.54900 46.91000
C  43.45100 8.24400 46.92800
C  46.36400 10.57600 46.88800
C  42.84200 10.49000 46.84300
O  42.80700 11.71100 46.81000
C  41.58800 9.60900 46.66400
C  40.61500 9.94400 47.72800
O  40.65500 9.46600 48.86000
O  39.67000 10.86300 47.30700
C  38.58600 11.17500 48.13900
H  40.44400 2.69000 46.37500
H  46.68200 1.82200 46.14600
H  47.66400 8.05600 46.97600
H  39.24600 7.45200 46.48600
H  39.20100 4.74300 45.44300
H  38.16900 3.91800 47.25200
H  37.76800 5.51400 47.84200
H  39.21800 4.86700 48.46000
H  39.15500 6.18700 44.03600
H  40.67900 6.95500 43.91700
H  39.04900 8.99200 44.92000
H  38.01600 8.22400 43.89200
H  40.48300 0.70200 46.01900
H  41.63800 -0.56500 46.52200
H  41.73200 -0.13900 44.90100
H  46.38000 0.08100 45.08600
H  46.30000 -1.73500 45.43400
H  46.65600 -0.69700 46.71400
H  48.49600 3.36500 45.78600
H  49.11400 5.56200 47.55400
H  49.54300 3.53700 48.40200
H  49.23600 2.00100 47.56600
H  48.10200 2.78500 48.65600
H  49.37300 6.93700 45.48100
H  48.16700 5.86600 44.62000
H  50.28400 4.91700 43.64800
H  50.64600 4.57400 45.37500
H  51.16100 5.98000 44.66200
H  46.38800 11.05800 45.91000
H  47.33600 10.22800 47.23800
H  45.90700 11.24200 47.61900
H  41.20000 9.72000 45.65200
H  37.67100 10.91700 47.60600
H  38.46500 12.23400 48.36900
H  38.43100 10.47800 48.96200
Mg 46.42400 16.89200 28.10700
C  44.26700 16.67100 31.08600
C  48.56400 18.76400 29.97800
C  48.37300 16.96900 25.38200
C  43.95200 15.30000 26.29600
N  46.25700 17.83100 30.26400
C  45.44700 17.46800 31.31000
C  46.02200 17.94400 32.69100
C  47.33000 18.71400 32.17300
C  47.38300 18.46300 30.68100
C  47.28600 20.27600 32.50900
C  46.38400 16.69500 33.52700
C  47.49000 16.88800 34.65500
H  47.59800 18.33500 35.24900
N  48.15900 17.79400 27.74900
C  48.98300 18.49100 28.64400
C  50.22600 18.78600 28.05800
C  50.07200 18.50700 26.65800
C  48.81500 17.70400 26.54900
C  51.41900 19.34200 28.77600
C  51.03800 18.82200 25.43600
O  50.75500 18.66000 24.24700
C  52.41000 19.43200 25.75500
N  46.11600 16.32800 26.04500
C  47.14600 16.31100 25.19700
C  46.78000 15.71000 23.81100
C  45.35100 15.07100 24.11600
C  45.13000 15.60300 25.58900
C  46.69900 16.78800 22.63500
C  45.27700 13.53600 24.06100
C  44.26800 12.90000 22.96000
N  44.51400 16.16900 28.50300
C  43.65100 15.52300 27.67600
C  42.47600 15.03100 28.40800
C  42.75400 15.48800 29.79400
C  43.93200 16.21900 29.77600
C  41.38300 14.16900 27.87100
C  42.16900 15.55000 31.09400
O  41.06900 15.14800 31.46700
C  43.17400 16.21200 31.98900
C  42.48500 17.22400 32.75700
O  42.05200 18.29400 32.36200
O  42.48900 16.77200 34.03100
C  42.10100 17.64600 35.11600
H  49.29700 19.22400 30.64400
H  48.93900 17.22900 24.48500
H  43.21000 14.70200 25.76400
H  45.31800 18.60600 33.19500
H  48.31800 18.44600 32.54800
H  48.10500 20.58200 33.16000
H  46.41300 20.63900 33.05200
H  47.35900 20.85700 31.59000
H  46.63800 15.91000 32.81500
H  45.49000 16.32200 34.02800
H  48.46400 16.52600 34.32800
H  47.16700 16.33500 35.53700
H  52.20400 18.72000 28.34600
H  51.47900 19.17700 29.85200
H  51.46700 20.41800 28.61000
H  52.82600 19.75000 24.79900
H  52.94900 18.62600 26.25300
H  52.29400 20.30100 26.40200
H  47.45000 14.92700 23.45700
H  44.55900 15.49900 23.50200
H  47.66400 16.83700 22.13200
H  46.48700 17.77600 23.04400
H  45.91300 16.66500 21.89000
H  45.06000 13.09800 25.03500
H  46.27000 13.15100 23.82900
H  43.70100 13.75600 22.59600
H  43.67300 12.16500 23.50200
H  44.85800 12.44300 22.16600
H  41.50800 13.92500 26.81600
H  40.47900 14.77700 27.91400
H  41.25800 13.42000 28.65200
H  43.39400 15.34600 32.61400
H  41.15100 18.07100 34.79200
H  42.81900 18.45700 35.24100
H  42.10400 17.13900 36.08100

