158

Mg 53.65700 24.19900 44.59800
C  51.17900 26.48500 43.87300
C  51.62300 21.61900 43.68200
C  56.41800 22.25700 44.14800
C  55.80000 26.96100 45.08100
N  51.71600 24.07100 43.71000
C  50.81900 25.12700 43.62100
C  49.41000 24.71800 43.15800
C  49.59300 23.19800 43.57100
C  51.08200 22.96900 43.67900
C  48.86100 22.74100 44.86700
C  49.20600 25.08000 41.70000
C  48.23600 24.21200 40.90600
H  48.00700 24.62800 39.44000
N  53.97800 22.21600 43.99600
C  52.98600 21.32400 43.69600
C  53.57600 19.99200 43.60400
C  54.93600 20.17300 43.75700
C  55.12900 21.61000 43.89700
C  52.75100 18.73200 43.39700
C  56.04300 19.05000 43.76800
O  55.74800 17.87400 43.58600
C  57.55800 19.21000 43.98800
N  55.82600 24.60800 44.58500
C  56.70100 23.55900 44.55300
C  58.20500 24.06700 44.87000
C  57.97900 25.58300 45.08900
C  56.44000 25.75300 44.85800
C  58.70800 23.45300 46.17900
C  58.96400 26.44400 44.22900
C  58.82900 26.32100 42.70900
N  53.58300 26.34500 44.69400
C  54.46800 27.29100 44.98900
C  53.80400 28.57700 45.05900
C  52.45500 28.31000 44.64300
C  52.40100 26.95200 44.34900
C  54.46300 29.80400 45.64300
C  51.10300 28.93000 44.58500
O  50.64800 30.04100 44.82500
C  50.27100 27.80000 43.87800
C  50.14500 28.37600 42.46700
O  51.07200 28.62800 41.73300
O  48.82600 28.69500 42.17200
C  48.51900 29.02900 40.74200
H  50.93600 20.77000 43.66000
H  57.28200 21.60200 44.27300
H  56.45800 27.80900 45.28000
H  48.65600 25.28100 43.70800
H  49.28000 22.49600 42.79800
H  48.00900 22.11100 44.61300
H  48.43100 23.62300 45.34100
H  49.56000 22.26500 45.55600
H  50.15800 25.11200 41.17000
H  48.69600 26.04400 41.69900
H  47.29200 24.06000 41.43000
H  48.74400 23.25200 40.81400
H  51.88800 18.94100 42.76400
H  52.42500 18.43900 44.39500
H  53.20200 17.82700 42.99100
H  58.08100 18.25400 43.99400
H  57.69000 19.60900 44.99400
H  58.01600 19.92200 43.30200
H  58.89700 23.99200 44.03100
H  58.12500 25.95000 46.10600
H  57.99700 22.73100 46.58300
H  58.79900 24.21100 46.95600
H  59.72100 23.12600 45.94700
H  59.99300 26.15500 44.44400
H  58.85700 27.46600 44.59400
H  58.49000 27.25000 42.25000
H  58.13600 25.58000 42.31200
H  59.87200 26.21500 42.41100
H  55.53400 29.70700 45.82300
H  53.87500 30.14400 46.49600
H  54.30200 30.64500 44.96900
H  49.25400 27.73400 44.26500
H  49.36400 29.11600 40.05900
H  47.97100 29.95500 40.56700
H  47.86400 28.22500 40.40600
Mg -1.41000 33.76700 27.26400
C  -3.07500 31.66200 29.61800
C  0.17700 35.21900 29.88400
C  -0.02500 35.92800 25.16900
C  -3.27800 32.33200 24.69000
N  -1.51100 33.42700 29.54500
C  -2.23900 32.55200 30.26900
C  -1.96000 32.75700 31.74700
C  -1.12900 34.07500 31.79600
C  -0.76800 34.30000 30.31100
C  -1.81600 35.30700 32.47800
C  -1.42800 31.47200 32.38500
C  -2.16500 31.04800 33.68100
H  -1.34800 30.92900 35.03800
N  -0.05100 35.32300 27.52600
C  0.54000 35.75400 28.69000
C  1.54900 36.78400 28.39200
C  1.45300 36.99700 26.99500
C  0.47500 36.01700 26.47600
C  2.39300 37.48400 29.44600
C  2.24900 38.00400 26.08000
O  2.11200 38.01900 24.84600
C  3.28500 38.90200 26.61400
N  -1.80800 34.21000 25.27500
C  -1.03100 35.14400 24.61600
C  -1.33900 35.05500 23.06400
C  -2.23400 33.79600 22.96500
C  -2.47100 33.40700 24.39300
C  -1.96000 36.35700 22.45900
C  -1.65900 32.64200 22.07500
C  -0.67900 31.63200 22.75700
N  -2.83000 32.28300 27.08300
C  -3.51600 31.79200 25.98700
C  -4.33600 30.70000 26.42600
C  -4.27000 30.65700 27.82200
C  -3.27400 31.57900 28.18900
C  -5.12300 29.83800 25.46300
C  -4.79500 29.99600 29.03900
O  -5.52900 29.04300 29.16900
C  -4.10400 30.65500 30.27100
C  -5.16100 31.28300 31.09200
O  -5.60000 32.39500 30.96100
O  -5.44500 30.45600 32.12900
C  -6.66000 30.76700 32.87400
H  0.66800 35.78100 30.68100
H  0.46300 36.55900 24.42300
H  -3.89600 31.98700 23.85800
H  -2.95300 32.98500 32.13500
H  -0.21000 34.05000 32.38100
H  -1.55600 35.42000 33.53100
H  -2.90400 35.25400 32.44700
H  -1.53000 36.24300 31.99900
H  -0.44900 31.77800 32.75200
H  -1.23700 30.66200 31.68100
H  -2.45000 30.04300 33.37000
H  -3.02000 31.70900 33.82000
H  3.43200 37.16300 29.51600
H  2.12800 37.23100 30.47300
H  2.25800 38.53600 29.19700
H  2.62400 39.69700 26.95900
H  4.05200 39.26100 25.92700
H  3.90900 38.35000 27.31600
H  -0.35900 35.01600 22.58800
H  -3.21200 34.08500 22.58100
H  -2.53700 36.06400 21.58200
H  -1.25100 37.12900 22.16100
H  -2.66100 36.71400 23.21500
H  -1.18600 33.00500 21.16200
H  -2.50300 32.09200 21.65900
H  -0.55500 32.01100 23.77100
H  0.25000 31.58800 22.18900
H  -1.10900 30.63000 22.74000
H  -6.07100 29.61600 25.95300
H  -4.58200 28.96100 25.10600
H  -5.26900 30.37200 24.52400
H  -3.56100 29.89900 30.84000
H  -7.55300 31.11700 32.35700
H  -6.27700 31.47700 33.60800
H  -6.94000 29.86000 33.41000

