158

Mg 53.27300 23.96200 44.83300
C  50.60100 26.19100 44.09100
C  51.21700 21.39100 43.67200
C  55.98700 22.05700 44.56500
C  55.23400 26.80600 45.24100
N  51.30800 23.81500 43.81200
C  50.33900 24.87100 43.66300
C  49.12300 24.31100 42.90800
C  49.17500 22.84400 43.32900
C  50.69800 22.67300 43.57100
C  48.32700 22.52900 44.58900
C  49.32500 24.54200 41.37400
C  48.01600 24.68300 40.61500
H  48.02700 25.01300 39.12600
N  53.56400 21.97600 44.36600
C  52.60600 21.02400 43.97700
C  53.17500 19.79300 44.14500
C  54.59400 19.91400 44.31500
C  54.76800 21.35000 44.39700
C  52.38400 18.53700 44.21500
C  55.69700 18.79100 44.39300
O  55.41200 17.64100 44.38800
C  57.08900 18.99500 44.65000
N  55.35900 24.40100 44.67900
C  56.26200 23.43600 44.76400
C  57.70600 23.84700 44.94100
C  57.49500 25.45500 45.10500
C  55.90500 25.57000 44.99400
C  58.58000 23.15300 45.97600
C  58.25400 26.42800 44.12100
C  58.27200 26.14400 42.61800
N  52.98100 26.04400 44.95900
C  53.84100 27.00600 45.29700
C  53.13500 28.28200 45.42000
C  51.86400 28.02200 45.02000
C  51.83400 26.68300 44.62100
C  53.69000 29.61800 45.88100
C  50.61800 28.61900 44.72900
O  50.11900 29.68700 44.97200
C  49.74200 27.38000 44.12500
C  49.14400 27.81700 42.83200
O  49.77000 27.67000 41.76300
O  47.80400 28.17800 42.90500
C  47.15500 28.29300 41.60300
H  50.51800 20.57500 43.47300
H  56.86200 21.40500 44.61700
H  55.94000 27.61200 45.45500
H  48.21900 24.82400 43.23400
H  48.93300 22.22200 42.46700
H  48.98400 22.00600 45.28300
H  47.70000 21.71900 44.21700
H  47.84700 23.35200 45.11900
H  49.96700 23.80800 40.88700
H  49.88900 25.47400 41.34400
H  47.42300 25.49000 41.04600
H  47.39600 23.83000 40.89200
H  52.42500 18.13300 43.20400
H  51.38200 18.84900 44.51000
H  52.83700 17.92500 44.99400
H  57.61400 18.08300 44.93500
H  57.10000 19.64400 45.52600
H  57.27100 19.35400 43.63800
H  58.21100 23.69000 43.98800
H  57.86200 25.73900 46.09100
H  59.34600 22.63600 45.39900
H  58.04300 22.30100 46.39300
H  58.90200 23.77000 46.81500
H  59.27200 26.52800 44.49700
H  57.74000 27.38200 44.23900
H  58.07300 27.05200 42.04900
H  57.51200 25.42100 42.31800
H  59.18300 25.58800 42.39700
H  54.24100 29.36000 46.78500
H  52.88900 30.27700 46.21600
H  54.22600 30.05200 45.03600
H  48.89200 27.25900 44.79700
H  47.66100 27.70700 40.83600
H  47.31000 29.33000 41.30600
H  46.07000 28.21300 41.53100
Mg -8.88000 40.95800 42.83200
C  -7.91500 37.68300 41.92400
C  -6.05700 42.15300 41.11100
C  -10.02500 44.16400 43.15200
C  -11.95900 39.66700 43.75100
N  -7.31000 40.02800 41.60200
C  -7.02200 38.68800 41.51700
C  -5.80800 38.41400 40.63900
C  -5.04700 39.82000 40.74800
C  -6.17100 40.75300 41.20300
C  -3.94500 39.91800 41.78300
C  -6.18200 37.79300 39.21300
C  -5.47200 36.44800 38.74700
H  -4.48300 36.60100 37.56500
N  -8.22200 42.88200 42.00400
C  -6.96900 43.20300 41.46300
C  -6.77200 44.63800 41.46200
C  -7.95800 45.22000 42.14400
C  -8.82300 44.08600 42.37400
C  -5.50200 45.25000 40.88100
C  -8.18500 46.68700 42.44500
O  -7.36500 47.46600 42.10900
C  -9.36200 47.24400 43.12300
N  -10.70900 41.76500 43.38700
C  -10.91500 43.14800 43.53000
C  -12.26000 43.43700 44.24200
C  -12.91600 41.96100 44.22400
C  -11.81800 41.03400 43.82100
C  -12.24500 44.11200 45.61800
C  -14.16700 41.77900 43.41700
C  -15.52200 41.72000 44.18800
N  -9.66600 39.07200 43.05500
C  -10.97100 38.70000 43.41000
C  -11.03700 37.32700 43.50600
C  -9.82700 36.80900 42.92800
C  -9.10700 37.91600 42.59800
C  -12.13100 36.54300 44.13400
C  -9.03400 35.64500 42.50000
O  -9.40700 34.49000 42.45600
C  -7.80500 36.16500 41.84900
C  -6.69600 35.57000 42.63600
O  -6.63700 35.67400 43.85600
O  -5.74800 34.93600 41.85800
C  -4.57600 34.41600 42.56600
H  -5.14900 42.52400 40.63000
H  -10.35800 45.16400 43.43700
H  -12.91100 39.27600 44.11700
H  -5.23100 37.60700 41.08900
H  -4.69100 40.27500 39.82400
H  -3.09000 40.23900 41.18600
H  -3.90600 38.91100 42.19800
H  -4.12500 40.57300 42.63600
H  -5.87400 38.63300 38.59000
H  -7.23500 37.69100 38.95000
H  -6.22000 35.67200 38.58600
H  -4.94700 36.07900 39.62800
H  -5.72700 46.11300 40.25500
H  -4.99300 44.48100 40.30000
H  -4.74400 45.62900 41.56600
H  -9.16600 48.31200 43.22400
H  -9.48800 46.89200 44.14700
H  -10.28000 47.05400 42.56600
H  -12.74900 44.11700 43.54500
H  -13.22100 41.82700 45.26100
H  -13.01500 44.88200 45.58500
H  -11.24600 44.52800 45.74900
H  -12.41900 43.51500 46.51200
H  -14.10300 40.89800 42.77800
H  -14.26300 42.70000 42.84100
H  -15.34900 41.64300 45.26200
H  -16.07100 40.79700 44.00300
H  -16.06100 42.64900 44.00100
H  -12.90300 36.45100 43.36900
H  -12.48100 36.88200 45.10900
H  -11.68900 35.58600 44.40900
H  -7.72200 35.81500 40.82000
H  -4.63900 33.32900 42.52600
H  -4.37900 34.67600 43.60600
H  -3.69300 34.72200 42.00400

