158

Mg -2.17200 17.50900 26.78400
C  -2.29000 15.37400 29.49600
C  -2.76200 20.13900 28.89100
C  -1.95000 19.33300 24.04900
C  -1.89600 14.58000 24.62900
N  -2.57400 17.68300 28.97600
C  -2.58000 16.68900 29.91100
C  -2.81400 17.31400 31.34200
C  -2.93400 18.81500 31.07200
C  -2.84400 18.92700 29.53100
C  -4.28800 19.41100 31.51000
C  -1.77200 16.98100 32.54700
C  -1.90800 17.75500 33.85200
H  -2.03200 17.05500 35.19400
N  -2.32600 19.53000 26.53100
C  -2.57200 20.44200 27.50100
C  -2.53300 21.74100 26.87400
C  -2.50300 21.49200 25.47100
C  -2.25300 20.11600 25.24700
C  -2.87500 23.06000 27.61400
C  -2.55000 22.51600 24.28300
O  -2.75500 22.16000 23.14100
C  -2.69800 23.99700 24.58900
N  -1.71700 16.98500 24.68400
C  -1.79200 17.96100 23.81500
C  -1.73700 17.45000 22.34700
C  -1.43800 15.92200 22.52500
C  -1.71100 15.79700 23.99900
C  -3.03600 17.80700 21.51500
C  0.00800 15.65800 22.29100
C  1.18000 16.57500 22.83900
N  -2.15100 15.43300 26.95400
C  -1.98700 14.38200 26.00500
C  -2.02700 13.09900 26.70400
C  -2.07400 13.45000 28.04400
C  -2.23900 14.87000 28.18300
C  -2.07000 11.76900 26.17700
C  -2.14900 12.89000 29.39700
O  -2.16500 11.73500 29.73700
C  -2.23200 14.09200 30.32600
C  -1.07400 14.03700 31.29700
O  0.04300 14.52800 31.08700
O  -1.49700 13.33500 32.43500
C  -0.50100 13.40000 33.51100
H  -2.91800 20.99400 29.55100
H  -1.81400 19.91200 23.13300
H  -1.87200 13.67500 24.01900
H  -3.81300 16.92800 31.54800
H  -2.19600 19.46200 31.54600
H  -4.98300 19.57600 30.68800
H  -4.05300 20.34800 32.01500
H  -4.76700 18.85100 32.31400
H  -0.74300 17.23900 32.29600
H  -1.80700 15.90400 32.71500
H  -2.86300 18.27300 33.76400
H  -1.04900 18.35700 34.15200
H  -3.91400 23.22800 27.33100
H  -2.18100 23.88800 27.46600
H  -2.91900 22.86300 28.68500
H  -1.80800 24.54700 24.89500
H  -3.53900 24.14700 25.26600
H  -3.17800 24.41400 23.70300
H  -0.89800 17.95700 21.87100
H  -2.04800 15.20800 21.97200
H  -3.61500 18.50700 22.11700
H  -3.64800 16.96500 21.19200
H  -2.74800 18.37200 20.62900
H  0.15300 15.50500 21.22200
H  0.26200 14.73400 22.81000
H  0.91500 17.46400 23.41200
H  1.77500 17.01000 22.03600
H  1.89400 16.06800 23.48800
H  -1.48100 11.04300 26.73800
H  -2.07000 11.65800 25.09300
H  -3.08300 11.42600 26.39000
H  -3.16800 14.02600 30.88000
H  0.48600 13.02800 33.23900
H  -0.70100 12.75800 34.36900
H  -0.38100 14.43700 33.82500
Mg -6.24200 25.54300 25.09700
C  -4.98200 26.73800 28.22100
C  -8.00000 23.24600 26.83500
C  -7.27900 24.55600 22.19200
C  -3.76800 27.53600 23.53300
N  -6.41700 25.06500 27.25200
C  -5.92500 25.76700 28.32600
C  -6.47000 25.22700 29.68800
C  -7.13300 23.85500 29.15200
C  -7.26500 24.12600 27.65400
C  -6.31800 22.56300 29.45300
C  -7.52800 26.14600 30.21500
C  -7.82700 26.03900 31.73200
H  -6.99000 25.03200 32.41700
N  -7.54800 24.16600 24.57900
C  -8.14300 23.25000 25.43200
C  -8.97800 22.38900 24.69500
C  -8.80900 22.81300 23.28800
C  -7.89500 23.95200 23.26700
C  -9.79200 21.29500 25.39600
C  -9.38800 22.22100 22.07000
O  -9.28600 22.68600 20.98300
C  -10.12700 20.90400 22.27300
N  -5.54500 25.84900 23.21700
C  -6.17800 25.36000 22.09500
C  -5.52900 25.74200 20.75600
C  -4.53600 26.79200 21.24500
C  -4.67600 26.78600 22.76900
C  -4.95100 24.61500 19.89200
C  -4.66400 28.21800 20.59800
C  -3.35500 28.93400 20.30300
N  -4.76300 26.96800 25.71400
C  -3.76300 27.60800 24.90500
C  -2.87900 28.34500 25.84300
C  -3.37500 28.09900 27.13700
C  -4.45000 27.21600 26.99700
C  -1.79100 29.21300 25.46300
C  -3.21000 28.37500 28.52200
O  -2.37900 29.03200 29.11800
C  -4.32900 27.52400 29.34500
C  -3.44100 26.64000 30.24400
O  -2.70700 25.73000 29.91600
O  -3.66900 27.05800 31.54900
C  -2.88000 26.30600 32.55700
H  -8.62500 22.49000 27.31600
H  -7.55700 24.14000 21.22100
H  -2.94800 28.01500 22.99300
H  -5.68400 25.05800 30.42400
H  -8.14000 23.61500 29.49400
H  -5.31900 22.83500 29.79600
H  -6.25600 22.01700 28.51200
H  -6.86100 21.93400 30.15900
H  -8.50900 26.02800 29.75600
H  -7.18900 27.13100 29.89300
H  -8.90400 25.87700 31.76800
H  -7.80300 27.00800 32.23000
H  -9.40900 20.37000 24.96500
H  -10.80900 21.43400 25.02800
H  -9.97600 21.32100 26.47000
H  -9.47300 20.16100 22.73100
H  -10.53900 20.61300 21.30700
H  -11.04000 21.06900 22.84600
H  -6.25800 26.20100 20.08900
H  -3.50900 26.53000 20.98900
H  -3.86100 24.63900 19.91900
H  -5.34700 24.68400 18.87900
H  -5.23100 23.60600 20.19500
H  -5.23300 28.87600 21.25600
H  -5.26000 28.14200 19.68900
H  -3.64800 29.66900 19.55400
H  -2.57200 28.26200 19.95000
H  -3.02700 29.56000 21.13200
H  -1.19200 28.80900 24.64700
H  -1.25200 29.49500 26.36800
H  -2.35200 30.06300 25.07500
H  -4.97500 28.15000 29.96000
H  -3.26900 25.28900 32.60200
H  -3.05200 26.76100 33.53200
H  -1.82600 26.33600 32.28100

