158

Mg 36.36700 1.67000 29.53500
C  34.19200 2.58800 31.91400
C  38.91600 1.65100 31.90700
C  38.60200 1.11300 27.07600
C  33.86600 2.00500 27.13500
N  36.52000 2.12100 31.67100
C  35.48400 2.45300 32.48200
C  35.83300 2.35400 33.93700
C  37.42400 2.33000 33.86900
C  37.65300 1.94100 32.41600
C  38.06500 3.68900 34.28000
C  35.20800 1.07500 34.56400
C  34.75900 1.20700 35.98200
H  35.10900 2.50300 36.74500
N  38.45800 1.40400 29.52900
C  39.32700 1.48900 30.61700
C  40.68300 1.17400 30.14200
C  40.66000 1.01000 28.74100
C  39.20400 1.17900 28.37300
C  41.86300 0.95900 31.16600
C  41.80800 0.72800 27.78800
O  41.64400 0.74000 26.57800
C  43.23900 0.53300 28.26500
N  36.33400 1.81900 27.39300
C  37.34100 1.31100 26.65900
C  36.98900 1.22200 25.18200
C  35.45700 1.46700 25.18100
C  35.17800 1.80700 26.60600
C  37.77400 2.13100 24.23500
C  34.67400 0.30100 24.48300
C  33.80000 -0.68600 25.34700
N  34.41600 2.14800 29.47800
C  33.51900 2.25900 28.45300
C  32.22600 2.65700 28.96000
C  32.43000 2.74300 30.32800
C  33.78900 2.48800 30.50500
C  31.01900 2.81400 28.23900
C  31.75400 2.92500 31.60100
O  30.58600 3.23100 31.89700
C  32.88200 2.88700 32.63700
C  32.95700 4.22100 33.41500
O  33.33700 5.24700 32.87600
O  32.33500 4.10700 34.65700
C  32.12200 5.30700 35.38600
H  39.67800 1.60600 32.68800
H  39.32700 0.92300 26.28100
H  33.06000 2.11100 26.40700
H  35.49100 3.31200 34.32900
H  37.80500 1.48200 34.43700
H  37.33300 4.35100 34.74200
H  38.51500 4.12600 33.38800
H  38.89600 3.65800 34.98500
H  35.93400 0.28000 34.39400
H  34.31100 0.77800 34.02100
H  35.12700 0.36900 36.57500
H  33.66900 1.24400 35.99300
H  42.38400 0.07800 30.79300
H  41.58900 0.72800 32.19600
H  42.48200 1.85600 31.17700
H  43.83200 0.51900 27.35100
H  43.22100 -0.51400 28.56900
H  43.55700 1.30200 28.96800
H  37.30900 0.20300 24.96600
H  35.20700 2.42500 24.72700
H  38.22800 2.86700 24.89900
H  37.08200 2.56600 23.51500
H  38.50100 1.55100 23.66700
H  35.52300 -0.26400 24.09900
H  34.08100 0.73200 23.67700
H  32.75600 -0.49000 25.10100
H  33.89800 -0.76500 26.42900
H  34.06900 -1.73200 25.19900
H  30.97900 3.68400 27.58400
H  30.20900 2.84700 28.96800
H  30.88300 1.99700 27.53000
H  32.56600 2.11500 33.33900
H  31.64200 5.08900 36.34000
H  31.43400 5.94700 34.83300
H  33.05100 5.86600 35.49600
Mg 16.17400 51.34300 25.43300
C  17.93600 50.53600 28.27800
C  13.42500 52.10700 27.17000
C  14.58200 51.83900 22.50400
C  18.92800 49.92400 23.67400
N  15.76000 51.17900 27.45500
C  16.68100 51.07500 28.48400
C  16.03800 51.60300 29.84100
C  14.49200 51.66000 29.56400
C  14.51000 51.68800 27.94600
C  13.74600 50.49600 30.10200
C  16.73300 52.89100 30.35700
C  16.53100 53.31000 31.80300
H  15.89000 52.40100 32.82000
N  14.17300 51.85000 24.88300
C  13.15200 52.22400 25.76400
C  11.94200 52.61900 25.03400
C  12.20500 52.28800 23.62300
C  13.71400 52.00100 23.61200
C  10.62300 52.80300 25.75800
C  11.20200 52.09700 22.43800
O  11.58200 51.71700 21.33400
C  9.73900 52.22800 22.66300
N  16.64100 51.02600 23.36700
C  15.87800 51.33300 22.37200
C  16.51600 51.16100 20.99700
C  17.91600 50.61800 21.39400
C  17.84000 50.55000 22.93600
C  15.58100 50.30900 20.05300
C  19.05000 51.58100 20.90700
C  20.22800 50.91200 20.12600
N  18.07600 50.50700 25.83400
C  19.10100 50.01600 25.05700
C  20.29700 49.68800 25.76100
C  19.85400 49.87300 27.13100
C  18.55400 50.38200 27.06600
C  21.57200 49.11500 25.13100
C  20.26100 49.81800 28.50000
O  21.36100 49.61900 28.95200
C  18.98600 50.22300 29.30300
C  18.52900 49.22100 30.30100
O  17.93800 48.19100 30.00600
O  18.84900 49.70500 31.56200
C  18.41400 48.98300 32.74000
H  12.64200 52.50900 27.81700
H  14.03100 52.06500 21.58900
H  19.65800 49.43900 23.02100
H  16.23500 50.82300 30.57700
H  14.03600 52.58500 29.91700
H  14.15200 49.89000 30.91200
H  13.31900 49.93400 29.27100
H  12.95000 50.98500 30.66400
H  16.27400 53.66800 29.74600
H  17.79100 52.83800 30.10100
H  15.95100 54.22800 31.70600
H  17.53300 53.49000 32.19200
H  10.69400 53.24700 26.75200
H  10.13800 51.83100 25.84700
H  10.03500 53.57000 25.25400
H  9.54300 53.24400 23.00700
H  9.49100 51.49600 23.43200
H  9.23500 52.08100 21.70800
H  16.52600 52.17800 20.60300
H  18.07300 49.61900 20.98700
H  16.16300 49.53600 19.55100
H  15.19500 50.93400 19.24700
H  14.72600 49.80200 20.50000
H  19.46100 52.00000 21.82500
H  18.66800 52.40700 20.30700
H  20.08900 49.83700 20.01300
H  21.21600 51.12200 20.53800
H  20.27200 51.27700 19.10000
H  21.67900 49.45900 24.10300
H  21.57300 48.02500 25.15800
H  22.40800 49.53600 25.69100
H  19.24000 51.19700 29.72200
H  19.02400 49.32200 33.57700
H  18.71000 47.93800 32.64000
H  17.37200 49.14200 33.01700

