158

Mg 8.25000 2.88400 27.88100
C  9.66400 1.48400 30.73700
C  6.39000 4.94400 29.96300
C  6.71400 4.04900 25.18800
C  9.88400 0.40900 25.93700
N  7.93800 3.09600 30.18600
C  8.77100 2.52300 31.08000
C  8.49600 3.14200 32.49000
C  7.43600 4.24700 32.25100
C  7.23900 4.14500 30.70600
C  6.05900 4.21200 33.00800
C  9.71800 3.80000 33.16800
C  10.03600 3.29700 34.62600
H  10.56900 4.25100 35.67800
N  6.66300 4.20500 27.62400
C  6.08200 4.97900 28.61100
C  5.16000 5.81200 27.94800
C  5.16500 5.57600 26.54800
C  6.14800 4.56300 26.40200
C  4.39300 6.91400 28.68200
C  4.52600 6.39800 25.45300
O  4.78100 6.31600 24.27200
C  3.28300 7.26500 25.69300
N  8.22200 2.26600 25.85700
C  7.70800 3.08500 24.91700
C  8.15800 2.80500 23.51700
C  9.09100 1.58000 23.71100
C  8.99700 1.28800 25.25900
C  6.98500 2.67600 22.57100
C  10.51100 1.83300 23.23900
C  11.61300 2.32800 24.17100
N  9.41700 1.25100 28.22600
C  10.02200 0.34100 27.31800
C  10.71100 -0.64600 28.05700
C  10.63600 -0.24200 29.39700
C  9.93900 0.98000 29.42000
C  11.32800 -1.84000 27.47800
C  11.20500 -0.47800 30.74800
O  11.96500 -1.39800 31.10600
C  10.61700 0.73600 31.66000
C  9.97300 0.19500 32.90500
O  8.84800 -0.27600 32.93100
O  10.76600 0.27800 34.01500
C  10.21200 -0.40800 35.24700
H  5.90800 5.72700 30.55200
H  6.37700 4.54200 24.27400
H  10.35600 -0.22700 25.18500
H  7.95800 2.39100 33.07000
H  7.92300 5.22000 32.31600
H  5.17800 4.04400 32.38900
H  5.91900 5.17900 33.49100
H  6.08600 3.56300 33.88300
H  9.71400 4.88500 33.06400
H  10.58200 3.46600 32.59400
H  10.77600 2.50000 34.54200
H  9.08500 2.87800 34.95300
H  4.88500 7.84200 28.38900
H  4.41800 6.79600 29.76500
H  3.38300 6.77100 28.30000
H  2.67100 7.14600 24.79900
H  3.57100 8.31600 25.65900
H  2.60600 7.05400 26.52100
H  8.78100 3.61500 23.13700
H  8.71000 0.71000 23.17600
H  7.08600 3.40300 21.76500
H  5.95900 2.77500 22.92600
H  6.96000 1.71200 22.06200
H  10.41600 2.55700 22.43000
H  10.92900 0.87400 22.93100
H  11.27800 2.83800 25.07400
H  12.33100 3.01700 23.72700
H  12.24500 1.50900 24.51500
H  11.77900 -1.66300 26.50200
H  10.60600 -2.65700 27.45600
H  12.10700 -2.16100 28.17000
H  11.45600 1.41400 31.81900
H  11.02500 -0.82800 35.83700
H  9.52500 -1.23500 35.06700
H  9.68100 0.21500 35.96700
Mg 1.18800 42.08800 25.72700
C  1.97500 42.36900 28.96600
C  -1.75700 40.74100 26.68600
C  0.52000 41.17300 22.46900
C  4.38800 43.05500 24.78200
N  0.16900 41.81300 27.60500
C  0.71000 42.07900 28.81900
C  -0.33700 41.95900 29.96100
C  -1.49100 41.22100 29.16300
C  -0.98200 41.14500 27.72800
C  -1.91100 39.88100 29.82000
C  -0.79300 43.33000 30.46800
C  -0.82700 43.33500 31.98300
H  -1.68800 42.30400 32.71700
N  -0.55800 41.25800 24.65500
C  -1.57800 40.69500 25.27100
C  -2.45200 40.09900 24.22200
C  -1.91200 40.29700 22.98400
C  -0.59600 40.96900 23.33800
C  -3.79300 39.45700 24.49900
C  -2.42000 39.99600 21.60800
O  -1.81600 40.30100 20.62100
C  -3.70200 39.26900 21.48200
N  2.28900 42.06100 23.94600
C  1.75800 41.72600 22.72300
C  2.67100 42.19800 21.57600
C  3.76800 43.03000 22.28000
C  3.49800 42.73300 23.76300
C  3.30600 40.99200 20.73300
C  3.73100 44.51900 21.89000
C  4.87800 45.06400 21.11100
N  2.91900 42.47500 26.66800
C  4.11300 42.91300 26.20900
C  4.94100 43.32200 27.29700
C  4.20400 43.07600 28.48500
C  2.96900 42.57400 27.96300
C  6.39700 43.65900 27.19300
C  4.17600 42.99000 29.88300
O  5.09600 43.24300 30.66100
C  2.78400 42.51900 30.34200
C  2.84500 41.25500 31.07600
O  3.47600 40.19700 30.73800
O  2.03000 41.34100 32.11500
C  2.04000 40.35200 33.16300
H  -2.65700 40.28200 27.10100
H  0.33500 40.95400 21.41500
H  5.33700 43.45200 24.41500
H  0.04200 41.28500 30.72900
H  -2.41400 41.77600 28.99600
H  -1.34400 39.05800 29.38600
H  -2.98500 39.69400 29.79700
H  -1.63400 39.96600 30.87100
H  -1.83200 43.41200 30.14900
H  -0.25600 44.17300 30.03500
H  -1.20100 44.33800 32.19300
H  0.21700 43.22300 32.27500
H  -3.89500 39.41400 25.58400
H  -3.67400 38.44200 24.12200
H  -4.64400 40.06900 24.19700
H  -3.71600 38.41100 22.15400
H  -3.81400 39.02300 20.42600
H  -4.39200 40.08100 21.71100
H  2.16800 42.86100 20.87200
H  4.65900 42.50900 21.93000
H  3.09000 40.04400 21.22600
H  4.36800 40.95300 20.49000
H  3.01300 41.08100 19.68700
H  3.61100 45.03700 22.84100
H  2.89000 44.75500 21.23800
H  5.64400 44.29700 20.99600
H  5.32600 45.95500 21.55100
H  4.50000 45.33100 20.12400
H  7.12800 42.85500 27.28100
H  6.55900 44.32500 28.04100
H  6.52600 44.11000 26.20900
H  2.36400 43.29700 30.97900
H  2.64400 39.48300 32.90200
H  1.04300 39.93800 33.31400
H  2.40000 40.78900 34.09400

