158

Mg -0.35000 8.32800 25.92300
C  0.66900 10.12000 28.74200
C  -0.18700 5.53900 27.91300
C  -0.39000 6.47400 23.15100
C  0.21200 11.10700 24.07500
N  0.27700 7.92100 28.13600
C  0.47700 8.80200 29.08400
C  0.51800 8.12800 30.51900
C  0.48100 6.60200 30.17400
C  0.06000 6.65300 28.69800
C  1.75100 5.89500 30.51700
C  -0.70600 8.72400 31.40400
C  -0.26900 9.26800 32.77700
H  -0.83200 8.49100 33.96500
N  -0.42700 6.32200 25.61500
C  -0.46700 5.34900 26.57000
C  -0.59500 4.05100 25.92700
C  -0.53900 4.25000 24.55000
C  -0.40100 5.70000 24.36900
C  -0.81500 2.81000 26.73800
C  -0.76400 3.36500 23.42500
O  -0.83100 3.70700 22.28300
C  -0.84000 1.90400 23.67900
N  -0.19400 8.74500 23.91300
C  -0.26900 7.83100 22.96000
C  -0.45100 8.56500 21.52800
C  -0.39300 10.06300 21.80800
C  -0.10900 10.00700 23.32200
C  0.49700 8.14600 20.36200
C  -1.65600 10.82800 21.33400
C  -2.91200 10.99000 22.26400
N  0.17300 10.20200 26.27000
C  0.40600 11.23300 25.36600
C  0.67700 12.44400 26.08700
C  0.81900 12.03400 27.38400
C  0.52400 10.67900 27.47300
C  0.90500 13.74800 25.50500
C  1.14300 12.53600 28.71700
O  1.48600 13.64100 29.08700
C  0.90600 11.23300 29.63400
C  2.15100 11.14900 30.40500
O  3.28300 10.88200 30.03600
O  1.83100 11.58600 31.65600
C  2.96000 11.82600 32.56500
H  -0.12700 4.59500 28.45800
H  -0.33900 5.89000 22.23000
H  0.46400 11.90000 23.36700
H  1.45600 8.57000 30.85500
H  -0.35700 6.16200 30.71400
H  2.16500 6.36000 31.41200
H  2.47200 6.04200 29.71200
H  1.59100 4.83700 30.72100
H  -1.49300 7.99300 31.58500
H  -1.18000 9.54000 30.85900
H  -0.51000 10.32600 32.88100
H  0.79200 9.02400 32.81800
H  -1.78400 2.50200 26.34500
H  -1.03900 2.99200 27.78900
H  -0.01400 2.08400 26.59900
H  -1.64600 1.70900 24.38600
H  0.05900 1.49200 24.13800
H  -1.05600 1.32300 22.78200
H  -1.42000 8.21600 21.17000
H  0.50800 10.49600 21.37300
H  0.67900 8.87900 19.57600
H  0.09400 7.27100 19.85400
H  1.42000 7.89600 20.88500
H  -2.06800 10.27000 20.49300
H  -1.27800 11.82900 21.12400
H  -3.04100 12.05000 22.48300
H  -2.82300 10.46900 23.21700
H  -3.84900 10.68600 21.79600
H  1.33100 14.51600 26.14900
H  -0.06700 13.99500 25.07700
H  1.52400 13.58100 24.62400
H  -0.00300 11.32400 30.22900
H  3.48200 12.66400 32.10400
H  3.67100 11.00000 32.56600
H  2.75600 12.14000 33.58900
Mg 30.68900 57.06900 39.35300
C  28.01900 54.92400 38.29000
C  32.90000 54.78300 38.40700
C  33.01100 59.42400 39.50800
C  28.16700 59.51200 39.91800
N  30.44100 55.08300 38.15500
C  29.29200 54.32700 38.05500
C  29.68200 52.87200 37.78000
C  31.27200 52.80800 38.03400
C  31.56100 54.30100 38.27400
C  31.73600 51.85500 39.20700
C  29.19000 52.35500 36.34600
C  29.41100 53.17300 35.03800
H  28.40100 54.11800 34.40000
N  32.72700 57.01000 39.10100
C  33.50300 56.01300 38.68800
C  34.89600 56.41100 38.61100
C  34.92100 57.78000 38.99600
C  33.50900 58.08200 39.28100
C  35.93500 55.52500 38.09900
C  36.16200 58.62300 39.00400
O  37.19500 58.16000 38.60400
C  36.15800 60.09300 39.25800
N  30.65600 59.16500 39.68400
C  31.76000 59.94600 39.68900
C  31.36900 61.45500 39.86300
C  29.81100 61.37000 40.14900
C  29.49200 59.91500 39.87600
C  32.12900 62.29300 40.97100
C  29.00900 62.33100 39.17800
C  27.74900 63.06600 39.71000
N  28.53300 57.29000 39.19800
C  27.70400 58.32300 39.44600
C  26.29600 57.83000 39.21500
C  26.43100 56.47000 38.79500
C  27.79600 56.25900 38.75500
C  25.00800 58.42600 39.48800
C  25.63800 55.40500 38.30300
O  24.44000 55.27700 38.13000
C  26.65300 54.22800 38.00800
C  26.36800 53.15100 39.03100
O  26.80200 53.05300 40.17700
O  25.46000 52.27300 38.46100
C  24.76700 51.38300 39.39900
H  33.59100 53.94700 38.27700
H  33.63600 60.30900 39.36800
H  27.37000 60.21300 40.17500
H  29.18000 52.26300 38.53200
H  31.63600 52.52100 37.04700
H  32.14700 52.41500 40.04700
H  32.44200 51.10300 38.85400
H  30.85500 51.41200 39.67200
H  28.11100 52.21000 36.30400
H  29.71900 51.41500 36.18900
H  29.79900 52.44700 34.32300
H  30.25800 53.77600 35.36600
H  35.83400 55.43900 37.01700
H  35.68200 54.56800 38.55400
H  36.95100 55.69300 38.45800
H  37.12600 60.43700 39.62300
H  35.58300 60.17000 40.18100
H  35.75100 60.65200 38.41500
H  31.67300 61.87600 38.90500
H  29.65400 61.45600 41.22400
H  32.07800 63.37600 40.86100
H  33.18400 62.01800 40.94200
H  31.82900 61.94900 41.96100
H  28.64400 61.73900 38.33800
H  29.75200 63.05700 38.84900
H  27.62800 62.88700 40.77800
H  26.80000 62.71500 39.30400
H  27.84100 64.14800 39.62200
H  24.45600 57.89200 40.26100
H  24.40600 58.43100 38.57900
H  25.13400 59.48800 39.69700
H  26.44400 53.85400 37.00600
H  24.96300 51.64000 40.44000
H  24.99600 50.35200 39.12800
H  23.69300 51.49000 39.24800

