158

Mg 25.70700 -0.15400 29.52700
C  27.50400 -0.32100 32.48400
C  22.78500 0.05100 31.50500
C  23.86400 0.07400 26.76400
C  28.61100 -0.60800 27.75000
N  25.18900 -0.24700 31.75700
C  26.16200 -0.19500 32.71200
C  25.46800 -0.14400 34.13300
C  23.96900 -0.20500 33.84100
C  23.97400 -0.11300 32.29600
C  23.15500 -1.38900 34.43200
C  25.91800 0.85900 35.18000
C  24.90400 1.61300 36.02300
H  25.37500 2.23700 37.34200
N  23.65300 0.03000 29.17400
C  22.61600 0.14900 30.13200
C  21.37200 0.17000 29.39600
C  21.67200 0.12600 28.00400
C  23.09600 0.13700 27.92000
C  20.04600 0.19100 30.06100
C  20.65000 0.22700 26.85900
O  20.97200 0.15500 25.66300
C  19.22500 0.38400 27.23100
N  26.13300 -0.35000 27.58700
C  25.24000 -0.11200 26.63900
C  25.89200 -0.19600 25.24000
C  27.39400 -0.13100 25.57300
C  27.38600 -0.32900 27.10800
C  25.39300 -1.37100 24.34800
C  28.17100 1.22600 25.24700
C  29.45500 0.95000 24.57000
N  27.67600 -0.55000 29.91800
C  28.83900 -0.69500 29.11200
C  30.01100 -0.86300 29.84600
C  29.57700 -0.63200 31.21700
C  28.15500 -0.55000 31.21900
C  31.34900 -0.97600 29.37400
C  29.96900 -0.48300 32.60400
O  31.10500 -0.43400 33.04400
C  28.63700 -0.28200 33.50300
C  28.50800 -1.31200 34.46800
O  28.21100 -2.46200 34.20500
O  28.87200 -0.83700 35.68800
C  28.91200 -1.78300 36.78500
H  21.90300 -0.03900 32.14300
H  23.25000 0.42800 25.93300
H  29.40900 -0.62300 27.00500
H  25.69500 -1.07800 34.64700
H  23.41400 0.71200 34.03800
H  22.49100 -1.03600 35.22100
H  23.91000 -2.05700 34.84500
H  22.58600 -1.94000 33.68300
H  26.48400 1.57600 34.58500
H  26.64200 0.46200 35.89200
H  24.14300 0.88300 36.30100
H  24.35200 2.36000 35.45300
H  19.53500 -0.75200 29.86700
H  19.46400 1.07000 29.78500
H  20.14600 0.28300 31.14200
H  19.03900 -0.51300 27.82200
H  18.49300 0.35800 26.42300
H  19.18800 1.31400 27.79700
H  25.60400 0.75900 24.80100
H  27.90800 -0.97000 25.10400
H  25.17500 -1.09000 23.31800
H  24.50400 -1.87200 24.73200
H  26.15100 -2.14100 24.49000
H  28.35400 1.75000 26.18500
H  27.53400 1.97000 24.76800
H  30.28300 1.08600 25.26600
H  29.51300 1.59600 23.69400
H  29.59100 -0.06700 24.19900
H  31.83200 -1.72100 30.00700
H  31.87800 -0.03800 29.54500
H  31.43700 -1.23400 28.31900
H  28.56900 0.71200 33.94600
H  29.29700 -2.74000 36.43200
H  27.93000 -1.79600 37.25800
H  29.49200 -1.43100 37.63800
Mg 47.42100 24.16100 28.31400
C  48.20100 26.34700 30.83600
C  46.50400 21.72700 30.65300
C  46.99600 22.11100 25.74300
C  48.66300 26.52900 25.94500
N  47.53300 23.95900 30.45400
C  47.63000 25.12400 31.25800
C  47.37200 24.70800 32.71700
C  47.20200 23.19200 32.74400
C  47.04900 22.89700 31.23100
C  48.41300 22.34000 33.23600
C  46.27500 25.59200 33.52200
C  46.78100 26.47700 34.64300
H  45.71900 26.96800 35.64900
N  46.82400 22.23100 28.14900
C  46.47000 21.36000 29.23200
C  45.99700 20.06700 28.66200
C  46.12700 20.14500 27.27000
C  46.67500 21.52800 26.99300
C  45.54300 18.92200 29.55600
C  45.88200 18.99000 26.26000
O  46.07400 19.12000 25.00500
C  45.55800 17.60600 26.76200
N  47.77500 24.30400 26.17400
C  47.45300 23.31900 25.32400
C  47.54000 23.64100 23.80400
C  47.95700 25.12400 23.91900
C  48.10300 25.34500 25.44400
C  48.65100 22.82300 23.03400
C  47.07000 26.14500 23.09200
C  45.77000 26.64900 23.72100
N  48.31500 26.06000 28.35600
C  48.72000 26.88800 27.35100
C  49.17200 28.12700 27.93600
C  49.02500 27.99200 29.29200
C  48.37100 26.72400 29.51700
C  49.86700 29.34900 27.26400
C  49.21800 28.71700 30.60400
O  49.66400 29.80000 30.99500
C  48.77400 27.59400 31.57700
C  50.01900 27.26500 32.31900
O  50.89100 26.52400 31.94700
O  49.96900 27.70000 33.61500
C  51.08800 27.31000 34.51800
H  46.20000 20.99900 31.40700
H  46.76500 21.47400 24.88700
H  49.17500 27.17000 25.22300
H  48.31200 24.91900 33.22800
H  46.40100 22.88700 33.41700
H  48.70300 21.54300 32.55100
H  48.17600 21.91800 34.21200
H  49.30300 22.96800 33.19900
H  45.44600 25.04800 33.97700
H  45.83300 26.27100 32.79300
H  47.10500 27.40700 34.17600
H  47.65900 26.06700 35.14400
H  45.28700 19.17200 30.58500
H  46.22900 18.07500 29.54900
H  44.59400 18.60900 29.11900
H  45.81900 16.85200 26.02000
H  44.52500 17.49300 27.09300
H  46.22100 17.38500 27.59800
H  46.71500 23.51300 23.10300
H  48.97600 25.19100 23.53700
H  49.45200 22.61300 23.74200
H  49.04000 23.38200 22.18300
H  48.15800 21.90800 22.70400
H  46.91100 25.70800 22.10600
H  47.69500 27.01600 22.89700
H  45.49800 26.14000 24.64600
H  44.91400 26.71700 23.05000
H  46.00700 27.67300 24.00800
H  50.95000 29.26700 27.35300
H  49.54500 30.19600 27.86900
H  49.61700 29.46600 26.20900
H  47.96200 27.85700 32.25500
H  52.05100 27.69100 34.17900
H  51.15000 26.22800 34.40700
H  51.02000 27.58600 35.57000

