158

Mg 53.51400 23.76700 43.51500
C  51.02500 26.12900 42.83300
C  51.65200 21.32300 41.79500
C  56.22600 21.69400 43.60000
C  55.42300 26.34600 44.81300
N  51.63500 23.76800 42.40000
C  50.74000 24.82400 42.25400
C  49.52500 24.33000 41.43700
C  49.58600 22.75900 41.56200
C  51.10100 22.56800 41.90100
C  48.59100 22.24600 42.61100
C  49.49400 25.05700 40.08500
C  49.83800 24.25600 38.89900
H  50.03500 24.95700 37.49400
N  53.90800 21.78800 42.79600
C  52.97100 20.95700 42.21000
C  53.52800 19.68900 42.12700
C  54.87300 19.65000 42.64700
C  55.11800 21.13000 43.04500
C  52.76400 18.46700 41.54800
C  55.83300 18.47900 42.74400
O  55.56000 17.34400 42.32800
C  57.24700 18.57500 43.29200
N  55.56200 24.02000 43.93800
C  56.46400 23.01000 43.97900
C  57.90200 23.49900 44.42900
C  57.69300 25.08100 44.49400
C  56.14500 25.16500 44.44400
C  58.37000 22.94100 45.77300
C  58.34400 25.78200 43.26100
C  57.89800 27.19500 42.95400
N  53.26700 25.86000 43.82700
C  54.07500 26.72600 44.46800
C  53.35200 27.98900 44.72100
C  52.12600 27.80700 44.11200
C  52.14800 26.47100 43.60400
C  53.71000 29.14000 45.54900
C  50.84100 28.36900 43.80300
O  50.30700 29.40600 44.16900
C  50.01800 27.28300 42.99600
C  49.62100 27.87700 41.66400
O  50.40400 28.31300 40.85700
O  48.23200 27.91700 41.55300
C  47.73600 28.54400 40.35600
H  51.05900 20.51600 41.36000
H  57.07200 21.00600 43.65100
H  55.97100 27.21600 45.18100
H  48.66400 24.75000 41.95600
H  49.35700 22.25900 40.62100
H  48.14500 23.05500 43.19000
H  48.96100 21.47800 43.29000
H  47.79900 21.78700 42.02000
H  50.15300 25.92400 40.03600
H  48.49600 25.49500 40.07800
H  49.09000 23.49000 38.69300
H  50.72900 23.65100 39.06800
H  53.37600 17.72000 41.04100
H  52.07700 18.76900 40.75800
H  52.12400 18.01400 42.30500
H  57.25700 18.92400 44.32500
H  57.74900 19.22300 42.57300
H  57.81700 17.66600 43.09800
H  58.66000 23.24900 43.68700
H  58.06600 25.52800 45.41600
H  59.39900 22.70500 45.50000
H  57.86300 22.10100 46.24900
H  58.37500 23.74200 46.51200
H  57.94800 25.24800 42.39700
H  59.42800 25.85600 43.34200
H  57.01600 27.18900 42.31400
H  58.65400 27.77000 42.41900
H  57.65400 27.76900 43.84800
H  52.81000 29.38500 46.11300
H  53.91100 30.03800 44.96500
H  54.52200 28.90500 46.23700
H  49.09600 26.90100 43.43400
H  48.33100 28.43300 39.44900
H  47.51200 29.60100 40.49800
H  46.77400 28.09600 40.10900
Mg 49.81300 44.63400 42.80400
C  46.61300 44.78300 41.84100
C  49.76500 41.07600 42.22600
C  53.23300 44.52700 43.21700
C  49.96800 48.11300 43.13300
N  48.32900 43.03900 42.24000
C  47.00000 43.43900 41.89000
C  46.17900 42.17100 41.35900
C  47.11000 40.99500 41.90400
C  48.47700 41.70200 42.12400
C  46.72200 40.09700 43.08100
C  46.13600 42.21300 39.76600
C  44.68900 42.31800 39.25500
H  44.28200 43.41000 38.28900
N  51.28700 43.06000 42.75300
C  51.06300 41.65800 42.52500
C  52.28200 40.94200 42.55700
C  53.32000 41.85400 42.86300
C  52.67100 43.23400 42.94700
C  52.43400 39.51300 42.12100
C  54.81700 41.44300 43.01200
O  55.21000 40.27900 42.94600
C  55.84800 42.58100 43.01900
N  51.34200 46.08400 43.45200
C  52.66000 45.80200 43.34000
C  53.51900 47.04100 43.59900
C  52.42000 48.17800 43.68100
C  51.18800 47.40400 43.43500
C  54.41100 47.12300 44.83300
C  52.78300 49.42100 42.73300
C  52.45500 50.84800 43.14300
N  48.57300 46.15500 42.64900
C  48.77200 47.49900 42.73200
C  47.44100 48.08200 42.44600
C  46.55500 47.08900 42.19100
C  47.32700 45.91700 42.24600
C  47.19100 49.58200 42.46600
C  45.21000 46.76300 41.82300
O  44.18000 47.44400 41.70100
C  45.17500 45.26000 41.56200
C  44.16100 44.80000 42.57000
O  44.19200 44.72700 43.82700
O  42.94400 44.64300 41.84000
C  41.69800 44.49800 42.59400
H  49.77900 39.99200 42.09600
H  54.31500 44.53700 43.36800
H  49.99600 49.20500 43.10400
H  45.22000 42.27400 41.86600
H  47.20600 40.29700 41.07300
H  47.23900 40.31800 44.01400
H  46.85200 39.05800 42.77900
H  45.67700 40.31800 43.30000
H  46.65300 41.34400 39.36000
H  46.59800 43.07800 39.29000
H  43.88300 42.10600 39.95700
H  44.76700 41.51000 38.52700
H  51.53600 39.27700 41.55000
H  52.48900 38.81700 42.95800
H  53.29700 39.29100 41.49200
H  55.66600 43.35800 42.27700
H  56.76800 42.14200 42.63400
H  55.87700 43.06900 43.99400
H  54.04300 47.19000 42.65600
H  52.32000 48.56600 44.69500
H  54.05000 47.87700 45.53200
H  55.34900 47.55000 44.47900
H  54.52900 46.11800 45.23900
H  52.34700 49.28200 41.74400
H  53.85500 49.37900 42.53900
H  53.35400 51.46000 43.21000
H  51.85500 50.85500 44.05300
H  51.82900 51.24000 42.34100
H  46.29900 49.85300 43.03200
H  47.14300 49.94800 41.44000
H  48.05700 50.07600 42.90800
H  44.76500 45.09500 40.56500
H  40.97800 44.42500 41.77900
H  41.51200 45.30200 43.30700
H  41.75500 43.54700 43.12300

