158

Mg -1.31700 17.35000 26.76900
C  -1.99800 15.15000 29.41400
C  -2.03900 19.94400 29.02000
C  -1.23100 19.55000 24.18200
C  -1.33400 14.63700 24.65000
N  -2.00100 17.50300 28.98400
C  -2.18700 16.49800 29.79700
C  -2.51000 16.92000 31.27100
C  -2.66500 18.46400 31.06500
C  -2.20700 18.66600 29.56600
C  -4.01200 19.13700 31.47000
C  -1.53200 16.53500 32.44200
C  -1.50900 17.26200 33.77200
H  -0.27800 17.04500 34.60700
N  -1.52000 19.42900 26.60600
C  -1.79600 20.34900 27.64300
C  -1.77500 21.66500 27.14000
C  -1.64900 21.57300 25.74200
C  -1.43200 20.15300 25.44800
C  -2.05600 22.82800 28.03900
C  -1.75600 22.65300 24.67200
O  -1.74900 22.48400 23.47200
C  -1.91000 24.07200 25.09500
N  -1.39900 17.17700 24.79100
C  -1.22600 18.16800 23.87500
C  -0.88800 17.65400 22.42900
C  -0.73700 16.16900 22.75800
C  -1.17900 15.97400 24.18600
C  -1.98700 18.05600 21.44100
C  0.60200 15.55600 22.46100
C  1.76500 16.19700 23.26400
N  -1.54900 15.30900 26.97700
C  -1.54400 14.33700 26.03700
C  -1.81700 13.06500 26.53300
C  -1.88000 13.29200 27.93900
C  -1.73200 14.70900 28.11200
C  -1.96200 11.75700 25.71300
C  -2.14200 12.65100 29.18000
O  -2.26900 11.47100 29.51700
C  -2.24000 13.83600 30.20200
C  -1.19000 13.53400 31.16400
O  -0.08900 13.93300 31.10100
O  -1.85100 12.95600 32.21200
C  -0.99300 12.66500 33.37200
H  -2.23500 20.72100 29.76200
H  -1.14400 20.16200 23.28100
H  -1.35900 13.87400 23.87000
H  -3.42400 16.36000 31.46900
H  -1.84700 19.01100 31.53400
H  -4.70000 18.30300 31.60900
H  -4.34300 19.73700 30.62200
H  -3.92100 19.86300 32.27800
H  -0.55900 16.42800 31.96300
H  -1.76500 15.51100 32.73600
H  -2.36300 16.94100 34.36900
H  -1.58200 18.34800 33.72000
H  -3.11900 22.99900 27.87300
H  -1.48000 23.71500 27.77400
H  -1.93500 22.67800 29.11200
H  -1.09100 24.36300 25.75200
H  -2.89900 24.17100 25.54300
H  -1.72600 24.73500 24.25000
H  0.04000 18.10900 22.08300
H  -1.45200 15.65700 22.11400
H  -2.72100 18.79300 21.76500
H  -2.49000 17.12100 21.19200
H  -1.45300 18.59000 20.65500
H  0.71300 15.67700 21.38300
H  0.60000 14.48400 22.65900
H  1.43500 16.79700 24.11200
H  2.22200 16.77400 22.46100
H  2.47500 15.41900 23.54500
H  -0.94900 11.53100 25.37700
H  -2.60300 11.79000 24.83200
H  -2.36200 11.03200 26.42100
H  -3.20900 13.91400 30.69500
H  -0.55800 11.66700 33.33100
H  -1.64100 12.75100 34.24400
H  -0.18900 13.39000 33.49600
Mg 45.76700 4.44900 47.89500
C  43.35000 6.88100 47.30500
C  43.21100 2.10600 47.81000
C  48.11000 2.04800 47.84200
C  48.14400 6.94000 47.69800
N  43.57600 4.41800 47.49100
C  42.79600 5.60200 47.40000
C  41.38100 5.25500 47.14600
C  41.27800 3.82900 47.81300
C  42.75400 3.40500 47.73600
C  40.76900 3.93900 49.23000
C  41.05900 5.34700 45.60200
C  39.90300 6.37500 45.18900
H  40.18900 7.51600 44.17100
N  45.67900 2.34400 47.79800
C  44.51600 1.59200 47.68600
C  44.89800 0.22700 47.61700
C  46.33200 0.11500 47.53000
C  46.78900 1.51800 47.78300
C  43.82900 -0.93000 47.55700
C  47.09900 -1.17600 47.19300
O  46.57500 -2.28400 47.15600
C  48.60300 -1.18600 47.03500
N  47.75800 4.50000 47.87000
C  48.57700 3.32600 47.91000
C  50.06000 3.70400 47.82200
C  49.98000 5.24200 47.89700
C  48.53900 5.62600 47.82700
C  50.91700 2.97700 48.85600
C  50.94800 5.90100 46.80200
C  52.19200 6.73300 47.30200
N  45.80100 6.58600 47.62700
C  46.86100 7.41800 47.59200
C  46.29900 8.74700 47.36600
C  44.93600 8.61900 47.28200
C  44.70300 7.25000 47.43000
C  47.05900 10.00400 47.11400
C  43.69600 9.31600 47.18400
O  43.56600 10.54100 47.07500
C  42.62600 8.25100 47.13500
C  41.65400 8.58600 48.20600
O  41.53600 7.96700 49.28200
O  40.79500 9.62700 47.88000
C  39.71800 9.94900 48.80400
H  42.42900 1.34500 47.75300
H  48.98600 1.39900 47.78000
H  48.93400 7.69400 47.65000
H  40.81100 5.95200 47.76000
H  40.56600 3.25100 47.22200
H  41.09800 3.03800 49.74800
H  39.68200 4.01300 49.25600
H  41.16400 4.83200 49.71300
H  40.70900 4.36200 45.29400
H  41.96400 5.66700 45.08500
H  39.48600 6.78800 46.10800
H  39.09400 5.77100 44.77700
H  42.96700 -0.75900 46.91200
H  43.42900 -1.02700 48.56600
H  44.18800 -1.93100 47.31900
H  49.06500 -2.09400 46.64800
H  49.12200 -0.84400 47.93100
H  48.75700 -0.42400 46.27100
H  50.25700 3.18800 46.88200
H  50.32500 5.64500 48.84900
H  51.63500 3.70900 49.22400
H  51.41100 2.17200 48.31100
H  50.34200 2.55400 49.67900
H  50.40500 6.55600 46.12000
H  51.40900 5.11300 46.20800
H  52.21700 7.59800 46.64000
H  53.11600 6.19200 47.09500
H  52.14100 7.03000 48.34900
H  46.50000 10.87000 46.76000
H  47.78900 9.72200 46.35500
H  47.67600 10.30000 47.96300
H  42.04800 8.34700 46.21600
H  39.88800 10.79900 49.46400
H  39.42300 9.09300 49.41000
H  38.82600 10.12900 48.20400

