158

Mg 8.20300 2.90900 27.42400
C  9.66300 1.52900 30.35500
C  6.30000 4.82000 29.66900
C  6.74100 4.07100 24.70000
C  9.34700 0.16400 25.66300
N  7.94100 3.10700 29.80400
C  8.88000 2.60200 30.69200
C  8.79200 3.24600 32.06300
C  7.56800 4.27800 31.80700
C  7.25300 4.08400 30.36300
C  6.31100 4.05700 32.66100
C  10.08100 3.92600 32.50000
C  10.53700 3.41600 33.92200
H  10.85400 4.46600 35.06800
N  6.83900 4.40100 27.17400
C  6.06700 4.95700 28.22000
C  5.01400 5.76900 27.59100
C  5.30900 5.73600 26.20800
C  6.34500 4.70800 25.95100
C  4.03500 6.61500 28.39100
C  4.64900 6.54000 25.15400
O  4.90700 6.38500 23.99000
C  3.61100 7.57500 25.56600
N  8.16900 2.34400 25.40900
C  7.57100 2.99000 24.46300
C  7.75200 2.25700 23.06400
C  8.50100 0.95800 23.43100
C  8.62400 1.06200 24.96800
C  6.50700 2.14700 22.13800
C  9.93800 0.73100 22.73700
C  10.17200 1.28400 21.31000
N  9.38800 1.29800 27.80800
C  9.75800 0.25700 26.99000
C  10.62200 -0.62400 27.73900
C  10.61400 -0.14600 29.05500
C  9.84400 1.03500 29.02200
C  11.27200 -1.86500 27.12900
C  11.23700 -0.27500 30.35800
O  12.03700 -1.17900 30.70600
C  10.68000 0.84800 31.21000
C  10.08300 0.17400 32.40600
O  9.00300 -0.40300 32.39800
O  10.91800 0.26800 33.47800
C  10.58600 -0.60600 34.57000
H  5.69000 5.50100 30.26500
H  6.21500 4.36100 23.78800
H  9.72400 -0.69500 25.10400
H  8.52500 2.46600 32.77600
H  7.78800 5.34400 31.86200
H  5.61800 3.31200 32.27100
H  5.73400 4.97500 32.77600
H  6.56900 3.71300 33.66300
H  10.04100 5.01300 32.57100
H  10.81200 3.69000 31.72700
H  11.47600 2.88300 33.76900
H  9.83700 2.66700 34.29300
H  4.50500 7.53900 28.72700
H  3.74200 6.03300 29.26500
H  3.11000 6.77000 27.83700
H  2.71100 6.97500 25.70000
H  3.33000 8.21000 24.72500
H  3.96400 8.16100 26.41500
H  8.54300 2.81300 22.56100
H  7.87900 0.07000 23.31800
H  5.65200 2.70200 22.52400
H  6.19200 1.16700 21.78000
H  6.95700 2.54500 21.22900
H  10.01200 -0.35100 22.62900
H  10.60500 1.16500 23.48100
H  9.25100 1.47300 20.76000
H  10.75500 0.57900 20.71600
H  10.78200 2.18100 21.41400
H  11.65500 -1.50900 26.17200
H  10.54900 -2.67700 27.04800
H  12.05700 -2.25300 27.77900
H  11.52800 1.47700 31.48200
H  10.11100 -1.48400 34.13300
H  9.93700 -0.08400 35.27400
H  11.45700 -0.83600 35.18400
Mg 40.42400 10.08300 29.94100
C  42.59400 11.26500 32.44500
C  38.38800 8.72900 32.27300
C  38.42900 8.90400 27.53600
C  42.72400 11.05300 27.57900
N  40.48600 10.09500 32.10800
C  41.47200 10.60300 32.93600
C  41.03200 10.44300 34.42500
C  39.69300 9.56000 34.36800
C  39.56600 9.39900 32.84700
C  39.80600 8.16900 35.09100
C  40.84500 11.79400 35.04200
C  40.22000 11.97300 36.42200
H  40.89500 12.89300 37.42100
N  38.65300 8.88000 29.87600
C  37.94000 8.48200 30.98100
C  36.76700 7.70200 30.59100
C  36.75300 7.83000 29.22600
C  37.97700 8.55600 28.77900
C  35.70700 7.08500 31.62200
C  35.77000 7.23500 28.20700
O  35.82100 7.34600 27.01400
C  34.51800 6.50700 28.68800
N  40.63500 9.79600 27.77700
C  39.58600 9.47100 26.99100
C  39.83100 9.74500 25.51900
C  41.21400 10.60000 25.55200
C  41.63500 10.45500 27.08100
C  39.89700 8.43700 24.66900
C  41.10800 12.05000 25.12300
C  40.00500 12.89300 25.74100
N  42.35400 10.81400 29.98000
C  43.12500 11.21900 28.93000
C  44.29900 11.77000 29.39900
C  44.11500 11.87900 30.81700
C  42.93500 11.23100 31.08300
C  45.37900 12.29000 28.58200
C  44.62700 12.48300 31.98800
O  45.66000 13.12000 32.13300
C  43.70800 12.01800 33.19000
C  44.45500 11.11400 34.17800
O  44.93500 10.03800 33.94800
O  44.47700 11.75100 35.35700
C  45.09200 11.18400 36.52700
H  37.63000 8.33500 32.95400
H  37.69000 8.58900 26.79600
H  43.29800 11.66200 26.87700
H  41.79600 9.87100 34.95100
H  38.78200 10.05300 34.70600
H  39.32800 7.37900 34.51200
H  39.25600 8.35900 36.01200
H  40.85000 8.13400 35.40200
H  40.34000 12.40700 34.29500
H  41.84200 12.22800 35.12000
H  40.30900 11.03400 36.97000
H  39.17500 12.26100 36.30700
H  36.14500 7.11900 32.62000
H  35.37900 6.06700 31.41300
H  34.82900 7.72900 31.57000
H  34.57600 5.66600 29.37800
H  33.91500 6.26300 27.81400
H  34.05200 7.37200 29.16100
H  38.99900 10.37200 25.19900
H  41.99600 10.13100 24.95500
H  39.50500 8.59200 23.66300
H  39.38600 7.59500 25.13600
H  40.93400 8.10200 24.64900
H  40.75200 12.10800 24.09500
H  42.07700 12.52500 25.27800
H  40.49800 13.64100 26.36200
H  39.22600 12.39700 26.31900
H  39.41800 13.46900 25.02500
H  44.96200 13.13800 28.03900
H  45.57700 11.55600 27.80100
H  46.32200 12.60500 29.02800
H  43.33700 12.95600 33.60500
H  45.53900 11.94000 37.17300
H  45.93600 10.59800 36.16300
H  44.44800 10.46700 37.03600

