158

Mg 24.71900 -6.02700 47.19500
C  26.40900 -3.24100 45.92500
C  22.28400 -5.45100 44.94400
C  23.30900 -8.97900 48.20300
C  27.75500 -7.08400 48.70000
N  24.45100 -4.57500 45.47400
C  25.24500 -3.52200 45.14400
C  24.71600 -2.76900 43.96300
C  23.32900 -3.41400 43.74600
C  23.32300 -4.56500 44.71200
C  22.11000 -2.44500 43.97500
C  25.76100 -2.81000 42.79600
C  25.32000 -3.12700 41.38000
H  26.27300 -2.99600 40.19100
N  22.96100 -7.06500 46.74800
C  22.12400 -6.61100 45.75200
C  20.95100 -7.45500 45.74400
C  21.22700 -8.56500 46.63100
C  22.60500 -8.24900 47.21800
C  19.75100 -7.32000 44.98700
C  20.22600 -9.65000 47.03800
O  19.15600 -9.73400 46.49100
C  20.68000 -10.81000 47.94100
N  25.41700 -7.82900 48.12800
C  24.57100 -8.74600 48.58600
C  25.29300 -9.65400 49.56200
C  26.77300 -9.28000 49.41700
C  26.63900 -7.98500 48.70900
C  24.70800 -9.52100 51.01100
C  27.68200 -10.22100 48.60600
C  29.07600 -10.58700 49.28800
N  26.56400 -5.20800 47.59800
C  27.72000 -5.76300 48.21500
C  28.86000 -4.84300 48.03000
C  28.30000 -3.79400 47.23300
C  26.96800 -4.09900 46.90400
C  30.33100 -5.00200 48.67500
C  28.73500 -2.55800 46.51100
O  29.75000 -1.95000 46.45200
C  27.44700 -2.16100 45.61400
C  27.05000 -0.77800 46.03500
O  26.76300 -0.43900 47.19700
O  27.04000 0.04900 44.95500
C  26.82400 1.48900 45.19200
H  21.38200 -5.30600 44.34500
H  23.05400 -10.01500 48.43500
H  28.71300 -7.46300 49.06400
H  24.67400 -1.73500 44.30700
H  23.20900 -3.73000 42.71000
H  22.43300 -1.49100 44.39200
H  21.33700 -2.82700 44.64200
H  21.66200 -2.22800 43.00600
H  26.44000 -3.59500 43.12900
H  26.36600 -1.92100 42.61700
H  24.48200 -2.43100 41.34200
H  24.97000 -4.15900 41.41400
H  19.69600 -6.42600 44.36600
H  18.89800 -7.38400 45.66200
H  19.77200 -8.22800 44.38500
H  21.52500 -11.22400 47.39000
H  19.84500 -11.50900 47.88900
H  20.88500 -10.44400 48.94700
H  25.14100 -10.69700 49.28300
H  27.19100 -9.15300 50.41500
H  23.91800 -10.25200 51.18300
H  24.22100 -8.56700 51.20900
H  25.46600 -9.81100 51.73800
H  27.90000 -9.81700 47.61800
H  27.11400 -11.13000 48.40500
H  29.21400 -11.66400 49.38200
H  29.12100 -10.20800 50.30900
H  29.85600 -10.16800 48.65200
H  30.34000 -4.43400 49.60500
H  31.00000 -4.65700 47.88700
H  30.67100 -6.03000 48.80100
H  27.69800 -2.17400 44.55400
H  25.99700 1.81400 44.56100
H  27.69400 2.07800 44.90100
H  26.47300 1.76500 46.18600
Mg 47.00800 35.00500 28.30800
C  45.49700 32.87000 30.73400
C  47.54000 37.27100 30.86000
C  48.14800 36.97900 26.04200
C  46.25000 32.41300 25.86000
N  46.66000 35.03500 30.56200
C  46.08600 34.05100 31.32400
C  46.12900 34.33500 32.78700
C  46.38000 35.88200 32.78200
C  46.88000 36.10200 31.33100
C  45.22100 36.79400 33.22700
C  47.24100 33.31300 33.38400
C  47.68300 33.57700 34.86600
H  46.90500 34.63200 35.75100
N  47.94900 36.86600 28.45200
C  48.04000 37.63500 29.56700
C  48.84100 38.78000 29.26600
C  49.00500 38.79800 27.79100
C  48.34500 37.52700 27.32000
C  49.24600 39.88700 30.28500
C  49.73100 39.72800 26.87800
O  49.81100 39.59100 25.66800
C  50.18500 41.10500 27.31400
N  47.12900 34.74100 26.26700
C  47.52400 35.80800 25.55600
C  47.16700 35.61000 24.10000
C  46.81700 34.11500 23.99000
C  46.73300 33.68400 25.42300
C  46.11100 36.69200 23.58000
C  47.90900 33.17400 23.30200
C  47.43700 32.01800 22.47700
N  46.06700 33.08500 28.26400
C  45.89300 32.15200 27.23200
C  45.26000 30.97800 27.69400
C  45.05100 31.23700 29.04000
C  45.55500 32.54200 29.34100
C  44.67800 29.90000 27.00500
C  44.55900 30.59100 30.25200
O  44.14400 29.47300 30.51100
C  44.48300 31.77100 31.28000
C  44.55800 31.24800 32.65200
O  45.16000 30.23700 32.91700
O  43.78500 31.99300 33.51100
C  43.82700 31.50500 34.90300
H  47.60900 38.05900 31.61300
H  48.49600 37.61100 25.22200
H  46.01100 31.74200 25.03300
H  45.21300 34.07900 33.32000
H  47.21400 36.05800 33.46100
H  44.41900 36.35100 33.81800
H  44.75100 37.33400 32.40600
H  45.76900 37.43600 33.91700
H  48.12200 33.28600 32.74200
H  46.84900 32.30000 33.47300
H  48.73400 33.86200 34.90900
H  47.54900 32.72700 35.53600
H  48.78400 40.81300 29.94300
H  50.32300 40.02400 30.38300
H  48.81800 39.74300 31.27600
H  51.00100 41.03400 28.03300
H  49.29300 41.61100 27.68200
H  50.69900 41.61200 26.49800
H  47.96100 35.93100 23.42600
H  45.85600 34.07400 23.47700
H  45.23100 36.09400 23.34600
H  46.47600 37.18900 22.68100
H  45.79000 37.29200 24.43200
H  48.44600 32.61800 24.07000
H  48.59400 33.90300 22.86900
H  46.38300 32.08500 22.20900
H  47.73100 31.06000 22.90700
H  48.01900 31.96500 21.55700
H  45.16900 29.73300 26.04700
H  43.60900 29.96700 26.79900
H  44.82100 28.97800 27.56900
H  43.47300 32.17200 31.19300
H  44.36500 32.30800 35.40800
H  44.23900 30.50300 35.01700
H  42.88900 31.70200 35.42200

