158

Mg 10.00900 47.34400 26.19600
C  7.79600 47.34100 29.02800
C  12.30800 48.67500 28.29800
C  12.00400 47.57800 23.61700
C  7.25400 46.84200 24.18400
N  10.03200 47.87100 28.48900
C  9.04000 47.74300 29.44300
C  9.54300 48.19900 30.82300
C  10.73700 49.11700 30.32000
C  11.07500 48.56000 28.94600
C  10.41900 50.66800 30.19400
C  10.10700 46.98000 31.80700
C  9.58200 46.94400 33.29000
H  9.75400 45.72700 34.12000
N  11.89200 47.86400 25.93200
C  12.69100 48.28800 26.96200
C  14.09700 48.27600 26.45800
C  13.99500 47.90200 25.11700
C  12.61900 47.79100 24.83900
C  15.27300 48.71000 27.24100
C  15.11700 47.57200 24.09800
O  14.81300 47.34500 22.94100
C  16.47800 47.51000 24.54900
N  9.62500 47.37500 24.14400
C  10.64500 47.39400 23.27400
C  10.24100 47.19600 21.73900
C  8.70100 46.98000 22.01700
C  8.48600 47.12100 23.54600
C  10.58400 48.41200 20.82700
C  7.95800 45.75700 21.42700
C  8.19600 44.42700 22.08200
N  7.96400 47.04700 26.46400
C  6.99300 46.85700 25.54300
C  5.71000 46.73400 26.18200
C  6.00600 46.76000 27.50900
C  7.35700 47.10100 27.68100
C  4.38000 46.41700 25.49200
C  5.43400 46.62400 28.84200
O  4.27900 46.29700 29.18600
C  6.58500 47.02200 29.84700
C  6.88300 45.81600 30.73400
O  7.70800 44.99000 30.41400
O  5.97900 45.76700 31.77000
C  6.10900 44.59100 32.64500
H  13.16200 49.13700 28.79700
H  12.62700 47.53600 22.72100
H  6.41900 46.75700 23.48500
H  8.81500 48.76200 31.40800
H  11.64800 48.97100 30.90200
H  11.27300 51.17700 30.64200
H  9.50800 50.92800 30.73300
H  10.32900 51.02200 29.16800
H  11.18600 47.08800 31.92200
H  10.06900 45.98900 31.35500
H  8.51900 47.18200 33.23800
H  10.20200 47.72900 33.72200
H  15.06700 48.88600 28.29700
H  15.69900 49.66200 26.92600
H  16.02400 47.92500 27.16100
H  17.16000 47.32300 23.71900
H  16.51800 46.65400 25.22300
H  16.87500 48.39700 25.04200
H  10.63900 46.32800 21.21500
H  8.12200 47.80900 21.61100
H  11.17900 49.12800 21.39300
H  9.71200 48.99900 20.53700
H  11.22000 48.25700 19.95500
H  8.39700 45.62100 20.43900
H  6.89800 46.00200 21.36800
H  7.23900 44.05000 22.44300
H  8.84900 44.48600 22.95300
H  8.65300 43.68700 21.42600
H  4.62600 45.96200 24.53300
H  3.73400 47.29500 25.47300
H  3.88700 45.61200 26.03700
H  6.26700 47.80500 30.53500
H  6.41400 44.92600 33.63600
H  6.72900 43.75700 32.31800
H  5.09300 44.21200 32.75400
Mg -12.76100 16.11800 41.87700
C  -9.72300 14.41100 41.49500
C  -11.19500 18.93200 40.65300
C  -15.74000 17.42700 41.48300
C  -14.22700 13.00100 42.68500
N  -10.76000 16.54900 41.02700
C  -9.68800 15.70300 41.03200
C  -8.39600 16.45000 40.57500
C  -8.81000 18.00800 40.71600
C  -10.35800 17.85900 40.82600
C  -8.16100 18.70200 41.92600
C  -7.85200 16.20400 39.08200
C  -6.33500 16.18200 39.00900
H  -5.77100 16.92200 37.80400
N  -13.45600 17.98100 41.06600
C  -12.64100 19.06100 40.77000
C  -13.43300 20.24900 40.53100
C  -14.79700 19.80200 40.67900
C  -14.75400 18.33500 41.12500
C  -12.88200 21.63800 40.05900
C  -16.06300 20.71100 40.62000
O  -16.07100 21.92000 40.25100
C  -17.42200 20.10000 40.88000
N  -14.64100 15.28600 42.04500
C  -15.68300 16.10300 41.95500
C  -16.97800 15.45100 42.29900
C  -16.50500 13.99300 42.61900
C  -15.05500 14.03300 42.41300
C  -17.70900 16.08300 43.46000
C  -17.21800 12.83600 41.70500
C  -17.95300 11.83700 42.57900
N  -12.12900 14.12600 42.14800
C  -12.83000 12.95000 42.47700
C  -11.90700 11.87800 42.68400
C  -10.65700 12.41600 42.35600
C  -10.85600 13.72000 41.95400
C  -12.12700 10.51900 43.22000
C  -9.24100 12.15200 42.28000
O  -8.56500 11.15300 42.50700
C  -8.56700 13.44200 41.66000
C  -7.44300 13.89300 42.56200
O  -7.59500 14.45400 43.65600
O  -6.27200 13.88000 41.82900
C  -5.12600 14.53500 42.45900
H  -10.72400 19.85400 40.30400
H  -16.76900 17.79100 41.44400
H  -14.75700 12.09100 42.97200
H  -7.60900 16.11700 41.25200
H  -8.60000 18.67400 39.87900
H  -8.66900 18.62900 42.88800
H  -8.04100 19.74700 41.64200
H  -7.18000 18.23300 41.99700
H  -8.30400 16.90700 38.38200
H  -8.20500 15.21400 38.79400
H  -6.07000 15.12500 39.03200
H  -5.83500 16.52300 39.91500
H  -13.42400 21.86700 39.14200
H  -11.80600 21.66800 39.88700
H  -13.18300 22.43200 40.74200
H  -18.15400 20.88800 40.70300
H  -17.38100 19.85100 41.94000
H  -17.72200 19.31000 40.19200
H  -17.71700 15.47000 41.49900
H  -16.62000 13.67800 43.65600
H  -17.27700 15.87200 44.43900
H  -18.78500 15.92800 43.39000
H  -17.47100 17.13800 43.59600
H  -16.40000 12.26400 41.26700
H  -17.79000 13.27200 40.88700
H  -18.90100 11.62600 42.08400
H  -18.24600 12.25700 43.54000
H  -17.42600 10.88900 42.69300
H  -12.29700 10.50100 44.29600
H  -11.24700 9.89100 43.07900
H  -13.00200 10.03900 42.78100
H  -8.14800 13.17800 40.68900
H  -5.17100 15.61600 42.32900
H  -4.20700 14.15800 42.00900
H  -4.91500 14.28200 43.49800

