158

Mg -2.11900 16.56300 26.92800
C  -2.43000 14.43900 29.60300
C  -2.56400 19.24700 28.92700
C  -2.07900 18.64600 24.13900
C  -1.74900 13.82400 24.80100
N  -2.68800 16.75000 29.03900
C  -2.57100 15.77700 30.00400
C  -2.75400 16.37400 31.43100
C  -2.94900 17.88200 31.04600
C  -2.63500 17.97400 29.58400
C  -4.37800 18.48700 31.45200
C  -1.58700 16.06400 32.38600
C  -1.32100 16.96100 33.57000
H  -0.80700 16.39000 34.87500
N  -2.29900 18.74700 26.61300
C  -2.46400 19.66700 27.56700
C  -2.50500 21.01900 27.00000
C  -2.38300 20.82900 25.55200
C  -2.30700 19.36500 25.38000
C  -2.53400 22.31000 27.82600
C  -2.38900 21.90700 24.47100
O  -2.52100 21.67500 23.25500
C  -2.40300 23.34000 24.84200
N  -1.79200 16.33800 24.88700
C  -1.91000 17.33800 23.90800
C  -1.70400 16.75500 22.49800
C  -1.38100 15.22800 22.74900
C  -1.63200 15.07500 24.23800
C  -2.86300 16.94200 21.41100
C  -0.01900 14.74800 22.17100
C  0.09800 13.31400 21.61400
N  -2.09300 14.57500 27.10900
C  -1.91000 13.59100 26.14300
C  -2.05800 12.32300 26.83200
C  -2.18800 12.60200 28.15500
C  -2.13700 13.96600 28.29400
C  -2.21300 11.00200 26.11700
C  -2.36900 12.03900 29.44300
O  -2.37400 10.85700 29.75900
C  -2.45100 13.20500 30.46800
C  -1.28100 13.05400 31.34600
O  -0.17500 13.47900 31.12900
O  -1.59800 12.27800 32.44800
C  -0.44800 11.92000 33.26200
H  -2.50300 20.13200 29.56400
H  -2.07000 19.29600 23.26300
H  -1.72500 12.94500 24.15400
H  -3.66200 16.09800 31.96700
H  -2.18000 18.37900 31.63600
H  -4.18100 19.30300 32.14800
H  -5.01600 17.76900 31.96600
H  -4.89100 19.02100 30.65200
H  -0.70300 15.92400 31.76400
H  -1.90800 15.12000 32.82600
H  -2.29100 17.43900 33.71200
H  -0.58100 17.71300 33.29800
H  -2.80400 22.17200 28.87300
H  -3.31500 22.96100 27.43400
H  -1.57200 22.76100 27.58300
H  -3.31600 23.44400 25.42800
H  -2.48200 24.07000 24.03600
H  -1.68400 23.56300 25.63000
H  -0.74300 17.15700 22.17800
H  -2.12400 14.54200 22.34000
H  -3.68500 16.22700 21.42700
H  -2.36300 16.83300 20.44900
H  -3.20900 17.96400 21.56800
H  0.70200 14.80200 22.98700
H  0.47100 15.45000 21.49600
H  0.48400 13.32800 20.59500
H  -0.82700 12.74400 21.53400
H  0.82000 12.69200 22.14300
H  -2.72300 10.29000 26.76600
H  -1.23300 10.67100 25.77400
H  -2.85500 11.23000 25.26600
H  -3.39600 12.98900 30.96700
H  0.42900 11.55500 32.72800
H  -0.85200 11.21700 33.99100
H  -0.05000 12.85800 33.65100
Mg 0.90000 42.91000 26.30300
C  2.77300 43.29300 29.39000
C  -1.78900 41.98800 28.25700
C  -0.72800 42.43600 23.49900
C  3.75600 43.62400 24.53700
N  0.65000 42.59600 28.60400
C  1.48500 42.79400 29.67200
C  0.74400 42.86000 30.97400
C  -0.74200 42.24700 30.59300
C  -0.61100 42.27900 29.02800
C  -0.92300 40.78900 31.18500
C  0.72200 44.19900 31.72100
C  1.05000 44.20000 33.21400
H  0.64300 43.00600 34.05700
N  -1.01900 42.38700 25.92600
C  -2.02100 41.94000 26.86400
C  -3.08200 41.37200 26.17500
C  -2.84500 41.47600 24.75100
C  -1.46600 42.13100 24.63100
C  -4.27300 40.73800 26.90000
C  -3.81700 41.18300 23.58900
O  -3.45000 41.33400 22.42600
C  -5.20200 40.56700 23.73600
N  1.49000 43.00200 24.22600
C  0.59400 42.90500 23.24400
C  1.21500 43.11100 21.85500
C  2.60100 43.65900 22.20100
C  2.63200 43.52200 23.78900
C  1.20900 41.75300 21.03300
C  2.95000 45.06800 21.63400
C  3.92200 45.15100 20.39000
N  2.85900 43.33300 26.79700
C  3.93900 43.57300 25.96800
C  5.14200 43.84300 26.71300
C  4.71200 43.71600 28.07400
C  3.28600 43.44500 28.02300
C  6.50400 44.33400 26.15400
C  5.16700 43.76600 29.43300
O  6.31400 43.98600 29.90100
C  3.92800 43.41600 30.28200
C  4.18800 42.21600 31.04700
O  4.03100 41.04500 30.61700
O  4.65900 42.63900 32.32200
C  4.70500 41.59600 33.33500
H  -2.58600 41.58900 28.88900
H  -1.20500 42.22400 22.54000
H  4.65400 43.90700 23.98400
H  1.23300 42.16900 31.66200
H  -1.49800 42.92100 30.99600
H  -1.67100 40.95500 31.96000
H  0.05700 40.54200 31.59500
H  -1.27700 40.04700 30.47000
H  -0.23700 44.71100 31.64800
H  1.52700 44.82400 31.33400
H  0.40900 44.98800 33.60900
H  2.12400 44.36400 33.29500
H  -5.19200 40.72100 26.31500
H  -4.31600 40.92000 27.97400
H  -3.99000 39.68800 26.82400
H  -5.06500 39.61600 24.25200
H  -5.68800 40.29200 22.79900
H  -5.91500 41.10600 24.35900
H  0.57800 43.85300 21.37400
H  3.43000 43.05700 21.82900
H  0.44800 41.66000 20.25900
H  1.12400 40.85800 21.64900
H  2.22300 41.57400 20.67600
H  3.33200 45.67700 22.45400
H  2.01400 45.53900 21.33400
H  3.42200 45.55600 19.51000
H  4.52900 44.27800 20.14900
H  4.60500 45.99600 20.47000
H  6.33100 44.91200 25.24600
H  7.01400 43.44100 25.79200
H  7.08200 44.73000 26.98900
H  3.69100 44.26000 30.93000
H  5.72400 41.21800 33.25400
H  4.16200 40.68300 33.09200
H  4.46100 41.96900 34.33000

