158

Mg 48.44900 34.60200 26.65100
C  46.59500 32.94500 29.15500
C  49.09600 37.08700 28.75300
C  49.92000 36.16700 24.04300
C  47.68000 31.85300 24.56100
N  47.84200 34.95500 28.69200
C  47.13000 34.19200 29.52800
C  47.31500 34.62200 30.86600
C  47.79500 36.10100 30.70200
C  48.32200 36.03600 29.28400
C  46.82300 37.27000 30.83600
C  48.41200 33.76700 31.56700
C  48.32500 33.85600 33.15000
H  47.52300 34.92100 33.88600
N  49.48800 36.38100 26.43700
C  49.62200 37.28200 27.45600
C  50.39800 38.39900 26.98600
C  50.61600 38.19800 25.54600
C  50.00300 36.87200 25.25300
C  50.74200 39.59500 27.91500
C  51.11500 39.15400 24.42900
O  50.91200 38.96100 23.23500
C  51.63700 40.61900 24.84200
N  48.71100 34.14500 24.53900
C  49.47900 34.86400 23.74600
C  49.53800 34.22700 22.31000
C  48.87800 32.82500 22.44300
C  48.43200 32.90400 23.96400
C  48.93000 35.09200 21.11700
C  49.85400 31.61500 22.25000
C  49.14700 30.31700 21.79300
N  47.47100 32.78000 26.80500
C  47.24100 31.77800 25.84700
C  46.45400 30.70400 26.41900
C  46.16900 31.16200 27.69900
C  46.78800 32.39800 27.87600
C  45.97100 29.51900 25.70200
C  45.35200 30.81300 28.88500
O  44.58300 29.86100 29.12900
C  45.51000 32.03700 29.81400
C  45.74800 31.60100 31.20300
O  46.58100 30.82100 31.59800
O  44.73600 32.05900 31.92800
C  44.68000 31.64500 33.35900
H  49.26900 37.83800 29.52600
H  50.35100 36.63700 23.15700
H  47.58200 30.93600 23.97600
H  46.34200 34.57300 31.35400
H  48.70200 36.34700 31.25400
H  45.97000 37.00500 31.46000
H  46.48400 37.63000 29.86400
H  47.34000 38.01800 31.43700
H  49.39600 34.21800 31.44000
H  48.32700 32.69000 31.42000
H  49.38200 33.83700 33.41600
H  47.83300 32.93000 33.44600
H  51.80500 39.82300 27.84000
H  50.47500 39.37000 28.94800
H  50.24400 40.47200 27.50100
H  51.38600 41.36200 24.08500
H  52.70000 40.56300 25.07700
H  51.21200 40.96000 25.78500
H  50.60200 34.08900 22.11800
H  48.01800 32.63500 21.80000
H  49.65600 35.27400 20.32400
H  48.47400 35.98500 21.54200
H  48.10600 34.50100 20.71800
H  50.35500 31.41900 23.19800
H  50.54500 31.96200 21.48200
H  49.41100 30.03300 20.77400
H  48.06300 30.42000 21.76300
H  49.33700 29.54100 22.53500
H  46.30900 28.58900 26.15900
H  46.16400 29.56200 24.63000
H  44.88700 29.53500 25.82000
H  44.63700 32.68800 29.79000
H  45.22100 32.46200 33.83700
H  45.20200 30.73200 33.65000
H  43.62400 31.58700 33.62100
Mg 17.51900 52.04100 26.42300
C  19.22300 50.62600 28.99000
C  15.05300 53.27100 28.53900
C  15.71200 52.95400 23.73900
C  19.73700 50.37600 24.16300
N  17.21600 51.92800 28.55200
C  18.05900 51.30300 29.42600
C  17.46900 51.51400 30.86700
C  16.01200 52.01000 30.60000
C  16.02500 52.43700 29.15000
C  14.91400 50.92700 30.76800
C  18.19800 52.71000 31.55700
C  18.19300 52.75200 33.12300
H  17.08700 52.03700 33.93900
N  15.77300 53.22100 26.22600
C  14.98700 53.64600 27.17600
C  14.05800 54.62500 26.59300
C  14.08900 54.44100 25.17600
C  15.27100 53.53300 24.99400
C  13.16000 55.42900 27.52100
C  13.26600 55.04700 24.01500
O  13.55600 54.97700 22.82000
C  12.18000 55.99300 24.42400
N  17.61000 51.60800 24.33100
C  16.78400 52.15000 23.41000
C  17.17600 51.94700 21.93300
C  18.57600 51.23700 22.11400
C  18.64400 51.01000 23.57600
C  16.08700 51.25300 21.12600
C  19.81200 52.10900 21.62600
C  21.18300 51.41800 21.49000
N  19.13200 50.76700 26.54800
C  19.98200 50.29600 25.55000
C  20.98900 49.55400 26.20200
C  20.82600 49.77600 27.56400
C  19.64000 50.41000 27.73300
C  22.09100 48.78600 25.55800
C  21.40300 49.42300 28.85400
O  22.42000 48.84200 29.16000
C  20.34600 49.99300 29.91100
C  19.95200 49.00600 30.94300
O  19.63300 47.85200 30.67600
O  20.13600 49.51200 32.14200
C  19.81000 48.55300 33.25900
H  14.16900 53.51200 29.13300
H  15.24100 53.26200 22.80400
H  20.48000 49.87600 23.53900
H  17.24200 50.67600 31.52600
H  15.64700 52.81000 31.24400
H  13.97300 51.25500 31.21000
H  15.29400 50.08800 31.35200
H  14.78000 50.59800 29.73800
H  17.88100 53.68900 31.19800
H  19.21600 52.51300 31.22100
H  18.24200 53.79800 33.42300
H  19.07700 52.21700 33.47000
H  13.52600 55.41200 28.54800
H  12.15800 55.00600 27.59400
H  13.10000 56.48000 27.24100
H  12.62900 56.96300 24.63900
H  11.57800 55.68100 25.27600
H  11.53100 56.11500 23.55700
H  17.38300 52.94100 21.53900
H  18.61900 50.28500 21.58400
H  16.52300 50.36300 20.67100
H  15.66600 51.87100 20.33200
H  15.22800 50.96700 21.73300
H  19.96700 52.85600 22.40400
H  19.57000 52.63200 20.70100
H  21.77900 51.69600 22.35900
H  21.76300 51.80000 20.65000
H  21.16300 50.34300 21.31300
H  23.04600 49.09000 25.98700
H  22.01900 48.91600 24.47800
H  22.08900 47.70100 25.66000
H  20.80900 50.80500 30.47100
H  20.76000 48.36500 33.75800
H  19.21500 47.65600 33.08500
H  19.28600 49.07800 34.05800

