158

Mg 41.48200 40.95000 26.63400
C  40.90000 43.46700 29.07600
C  42.23100 38.79500 29.41200
C  42.50000 38.71200 24.48500
C  40.92500 43.32100 24.13400
N  41.76900 41.15600 28.99900
C  41.24000 42.20700 29.68900
C  41.12000 41.80500 31.14000
C  41.82300 40.44100 31.22300
C  41.99400 40.10300 29.79100
C  43.18300 40.48300 31.98900
C  39.60000 41.83300 31.65200
C  39.28500 42.97700 32.63300
H  38.79900 42.59200 34.00500
N  42.17500 38.97700 26.89100
C  42.38500 38.26600 28.07300
C  42.73100 36.89500 27.76200
C  42.79600 36.75600 26.32600
C  42.52200 38.19800 25.79500
C  42.90200 35.81800 28.78600
C  43.09700 35.50000 25.41500
O  43.02200 35.58800 24.16100
C  43.46800 34.27500 26.09500
N  41.76200 41.04200 24.60300
C  42.08100 39.91200 23.94000
C  42.07500 40.17300 22.37400
C  41.39600 41.52600 22.35700
C  41.38000 42.02700 23.78200
C  43.47000 40.05700 21.72300
C  39.97800 41.53300 21.77200
C  38.91100 40.61500 22.42300
N  40.93600 42.95100 26.58900
C  40.78200 43.79000 25.45900
C  40.30700 45.04800 26.02600
C  40.31600 44.98900 27.36000
C  40.80500 43.72600 27.69300
C  40.18600 46.26100 25.15200
C  40.07500 45.78500 28.52900
O  39.67100 46.94000 28.66500
C  40.47000 44.82900 29.71600
C  41.58800 45.39200 30.49400
O  42.77800 45.39900 30.23600
O  41.05100 45.91300 31.63100
C  41.96100 46.78700 32.40300
H  42.35600 38.08400 30.23200
H  42.76200 38.04700 23.65900
H  40.73900 44.00100 23.30100
H  41.65300 42.53400 31.75100
H  41.23300 39.64200 31.67300
H  43.89400 40.67200 31.18500
H  43.49600 39.53600 32.42800
H  43.29900 41.32000 32.67700
H  39.27300 40.85700 32.01100
H  38.89900 42.03600 30.84200
H  38.48700 43.56800 32.18400
H  40.13600 43.63300 32.81800
H  42.18800 35.04000 28.51800
H  42.74800 36.15100 29.81200
H  43.89900 35.39700 28.65100
H  43.78400 33.56100 25.33400
H  42.76900 33.68400 26.68800
H  44.34800 34.52400 26.68800
H  41.51000 39.33000 21.97800
H  42.07300 42.17100 21.79600
H  43.90400 40.87400 21.14600
H  43.41600 39.17000 21.09100
H  44.19800 39.74200 22.47000
H  40.08700 41.36100 20.70200
H  39.59500 42.54900 21.67500
H  38.02800 41.22500 22.61200
H  39.34200 40.26800 23.36200
H  38.66100 39.76700 21.78400
H  40.61700 46.10000 24.16400
H  40.75400 46.99200 25.72900
H  39.17100 46.65700 25.19300
H  39.61000 44.67000 30.36700
H  42.67200 47.34700 31.79600
H  42.39700 46.26000 33.25200
H  41.38000 47.63500 32.76700
Mg -4.94000 25.57100 25.81300
C  -3.21900 27.11700 28.46100
C  -5.93000 23.10600 28.24900
C  -6.40800 23.90000 23.31800
C  -3.36300 27.58400 23.56400
N  -4.61600 25.22400 28.02300
C  -4.00600 26.07700 28.86400
C  -4.41900 25.68700 30.32700
C  -4.74100 24.15100 30.14900
C  -5.07500 24.15700 28.74300
C  -3.57100 23.15600 30.63200
C  -5.55500 26.66700 30.84000
C  -5.37600 26.97500 32.34200
H  -4.85200 25.88000 33.29300
N  -6.17600 23.92000 25.86100
C  -6.45500 23.03500 26.90700
C  -7.40900 22.06000 26.36900
C  -7.68900 22.38000 24.95400
C  -6.70800 23.41900 24.61400
C  -8.12400 21.07500 27.23100
C  -8.69700 21.63700 23.99000
O  -8.76500 21.89700 22.80000
C  -9.50600 20.49300 24.48900
N  -4.64700 25.54500 23.72400
C  -5.45400 24.82600 22.93800
C  -5.21400 25.09900 21.44700
C  -4.36300 26.38100 21.58700
C  -4.01800 26.47800 23.01600
C  -4.70000 23.88800 20.43900
C  -5.00700 27.64500 20.87400
C  -4.00900 28.44900 20.02500
N  -3.60500 27.07200 25.93500
C  -3.16500 27.87800 24.91000
C  -2.37400 28.98700 25.54500
C  -2.33400 28.72300 26.91700
C  -3.06500 27.50500 27.07600
C  -1.62900 30.01900 24.78500
C  -1.89700 29.14500 28.23600
O  -1.23800 30.07500 28.60100
C  -2.56600 28.15800 29.26400
C  -1.44500 27.76400 30.15300
O  -0.28200 27.62100 29.82000
O  -1.94700 27.82000 31.42200
C  -1.07000 27.68900 32.59000
H  -6.29000 22.37400 28.97400
H  -7.11400 23.39100 22.65900
H  -2.90700 28.10500 22.72000
H  -3.49400 25.80800 30.89200
H  -5.62900 23.97400 30.75600
H  -2.60300 23.65700 30.64800
H  -3.56900 22.36600 29.88100
H  -3.83100 22.74400 31.60700
H  -6.50600 26.15200 30.70400
H  -5.55200 27.62900 30.32700
H  -6.40300 27.19200 32.63700
H  -4.78500 27.88800 32.40500
H  -9.19800 21.11300 27.05100
H  -8.08200 21.37500 28.27800
H  -7.76100 20.06700 27.03100
H  -10.33000 20.62300 25.19100
H  -8.71500 19.83800 24.85500
H  -9.83900 19.86300 23.66400
H  -6.19700 25.38300 21.07200
H  -3.40300 26.27700 21.08000
H  -5.45400 23.68900 19.67700
H  -4.39400 23.04300 21.05600
H  -3.81300 24.21700 19.89700
H  -5.37700 28.30800 21.65600
H  -5.87800 27.38900 20.27000
H  -3.91000 29.43200 20.48300
H  -4.22600 28.55600 18.96200
H  -2.97700 28.09900 19.98000
H  -2.19800 30.28000 23.89200
H  -0.61800 29.65300 24.60600
H  -1.51000 30.92800 25.37400
H  -3.21400 28.81200 29.84800
H  0.01900 27.65700 32.57300
H  -1.38500 26.87700 33.24400
H  -1.21700 28.65700 33.06900

