158

Mg -2.32800 17.57900 25.50100
C  -2.62500 15.57600 28.42200
C  -3.36700 20.25900 27.66000
C  -2.06400 19.60400 22.89700
C  -2.06100 14.74800 23.65200
N  -2.85800 17.87200 27.85200
C  -2.94400 16.88100 28.79500
C  -3.48800 17.45100 30.11900
C  -4.12800 18.87300 29.65300
C  -3.38800 19.03800 28.33000
C  -5.63600 18.90800 29.50700
C  -2.44100 17.67800 31.25800
C  -2.94200 17.54100 32.69200
H  -2.20600 16.60200 33.61600
N  -2.47600 19.58500 25.33400
C  -2.93900 20.52500 26.29500
C  -2.97700 21.80600 25.70000
C  -2.41700 21.68200 24.35100
C  -2.27000 20.24700 24.18100
C  -3.31300 23.09200 26.39900
C  -2.04500 22.82900 23.31700
O  -1.67700 22.55000 22.23000
C  -2.12400 24.20000 23.72300
N  -2.33100 17.24700 23.50100
C  -2.09000 18.23500 22.61400
C  -1.92400 17.65000 21.18100
C  -1.62300 16.09300 21.49000
C  -2.06700 16.03500 22.98000
C  -3.17200 18.02700 20.25200
C  -0.09500 15.72700 21.30500
C  0.89400 16.51100 22.26300
N  -2.25100 15.62400 25.89500
C  -2.14600 14.58000 25.05200
C  -2.01200 13.33800 25.80100
C  -2.08400 13.75000 27.15500
C  -2.34700 15.16300 27.09400
C  -1.86800 11.93200 25.29400
C  -2.14400 13.28200 28.51200
O  -2.08500 12.12800 28.91500
C  -2.32700 14.48900 29.37500
C  -1.06100 14.71200 30.20500
O  -0.10100 15.43700 29.92000
O  -1.00000 13.88200 31.29600
C  0.26700 13.90100 31.98000
H  -3.50700 21.15200 28.27300
H  -1.78100 20.13400 21.98500
H  -1.79600 13.93600 22.97200
H  -4.28200 16.75500 30.39200
H  -3.92400 19.67100 30.36700
H  -6.08800 18.08500 30.06100
H  -5.92200 19.00800 28.46000
H  -5.91100 19.83400 30.01200
H  -2.04600 18.69200 31.20900
H  -1.56100 17.04500 31.15100
H  -3.91900 17.11100 32.46800
H  -3.15200 18.55800 33.02300
H  -2.46400 23.77600 26.38600
H  -3.54000 22.93300 27.45300
H  -4.23900 23.59400 26.11800
H  -1.80000 24.86800 22.92600
H  -1.36100 24.42100 24.47000
H  -3.12800 24.45800 24.06100
H  -1.01000 18.13900 20.84400
H  -2.27900 15.37700 20.99600
H  -2.83600 18.80700 19.56900
H  -3.99300 18.47900 20.81000
H  -3.57800 17.19000 19.68300
H  0.28800 16.01200 20.32600
H  0.13000 14.66500 21.40500
H  1.42000 17.28300 21.70200
H  1.64100 15.82600 22.66500
H  0.36400 16.88000 23.14100
H  -1.69000 12.01900 24.22200
H  -2.80400 11.42200 25.52500
H  -1.02200 11.45400 25.78700
H  -3.20700 14.27300 29.98000
H  0.32700 14.82000 32.56200
H  1.06900 13.90100 31.24200
H  0.40300 13.02900 32.62000
Mg 25.63400 0.44900 29.16400
C  27.82500 0.04500 31.82300
C  23.10900 0.78000 31.25900
C  23.74100 0.78100 26.50300
C  28.38900 -0.35100 26.97200
N  25.55000 0.41000 31.33400
C  26.53800 0.42600 32.26400
C  25.96400 0.67000 33.68800
C  24.42200 0.53800 33.45300
C  24.32300 0.54800 31.92500
C  23.74200 -0.69100 34.13500
C  26.46300 2.01900 34.38000
C  27.24400 1.79400 35.75900
H  26.93600 2.83900 36.91800
N  23.72900 0.79700 28.92600
C  22.79200 0.93600 29.91100
C  21.43100 1.19900 29.37800
C  21.67700 1.09500 27.99000
C  23.08600 0.92000 27.75600
C  20.16300 1.48100 30.17500
C  20.64700 1.17000 26.90100
O  20.90400 1.16000 25.71100
C  19.13200 1.06500 27.28400
N  26.01700 0.37900 27.08200
C  25.03900 0.57100 26.20000
C  25.57100 0.65400 24.80800
C  27.10400 0.32600 24.97600
C  27.17600 0.09200 26.44100
C  24.84500 -0.30400 23.80300
C  27.94800 1.49000 24.31700
C  27.99500 2.81300 25.09800
N  27.69000 -0.14800 29.28400
C  28.67800 -0.40000 28.38400
C  29.94200 -0.66900 29.05200
C  29.65400 -0.60500 30.41600
C  28.22800 -0.26200 30.49600
C  31.25800 -1.06100 28.41800
C  30.22600 -0.58200 31.75000
O  31.38900 -0.80900 32.09700
C  29.06600 -0.17700 32.70000
C  28.89200 -1.26200 33.67000
O  28.32800 -2.34100 33.48800
O  29.49400 -0.91600 34.86400
C  29.23400 -1.75600 36.01300
H  22.26400 0.82700 31.95000
H  23.10100 0.82800 25.61900
H  29.17700 -0.50000 26.23100
H  26.31700 -0.13600 34.33200
H  24.06900 1.48700 33.85600
H  24.54800 -1.26300 34.59500
H  23.22700 -1.33400 33.42100
H  22.98600 -0.46100 34.88600
H  25.60300 2.67700 34.50900
H  27.05700 2.54600 33.63400
H  28.32500 1.76400 35.62000
H  26.95100 0.79200 36.07300
H  19.75600 2.47900 30.01300
H  20.27300 1.32700 31.24800
H  19.35900 0.80800 29.87500
H  18.52100 1.21400 26.39300
H  18.92100 1.84900 28.01100
H  18.92000 0.14100 27.82300
H  25.32300 1.66200 24.47400
H  27.56200 -0.57200 24.56100
H  24.09700 -0.88300 24.34500
H  25.54200 -0.94300 23.26000
H  24.29700 0.31300 23.09000
H  27.52300 1.80600 23.36400
H  28.91400 1.03200 24.10300
H  28.97500 2.68600 25.55800
H  27.32800 2.79800 25.96000
H  27.94300 3.78600 24.60900
H  31.37800 -1.05000 27.33500
H  31.50300 -2.07800 28.72300
H  31.92100 -0.35000 28.91000
H  29.24700 0.68500 33.34300
H  28.17800 -2.02400 36.01100
H  29.29600 -1.17500 36.93400
H  29.92000 -2.60300 35.98800

