158

Mg 36.54900 0.43400 30.51100
C  34.24700 1.69400 32.97500
C  38.89500 0.33700 32.99200
C  38.59200 -0.41000 28.05700
C  33.99000 0.91000 28.20700
N  36.51700 0.90800 32.72100
C  35.51600 1.35400 33.48800
C  35.90500 1.52300 34.86200
C  37.46900 1.43000 34.80300
C  37.68300 0.81200 33.42200
C  38.22900 2.80000 35.00200
C  35.26600 0.32900 35.70500
C  34.98700 0.63500 37.21400
H  35.61900 1.93200 37.80200
N  38.50400 -0.10900 30.53300
C  39.33600 -0.08700 31.64000
C  40.66400 -0.41400 31.25400
C  40.63600 -0.63000 29.81000
C  39.18700 -0.34900 29.37500
C  41.83700 -0.59600 32.19100
C  41.64800 -1.13000 28.96000
O  41.43700 -1.28300 27.75900
C  42.95100 -1.63500 29.48600
N  36.32400 0.20800 28.48400
C  37.29300 -0.12400 27.63000
C  36.87300 -0.21000 26.18800
C  35.32100 0.02100 26.32800
C  35.14100 0.29600 27.79300
C  37.58900 0.79400 25.29800
C  34.40300 -1.19800 25.89900
C  33.74200 -1.09500 24.51100
N  34.50900 1.13200 30.48500
C  33.57100 1.20600 29.43000
C  32.36700 1.66000 29.95800
C  32.54500 1.91800 31.30300
C  33.92500 1.57500 31.62200
C  31.13400 1.80600 29.04400
C  31.91400 2.27500 32.53800
O  30.73500 2.48100 32.75200
C  32.98200 2.19900 33.64600
C  33.09500 3.50400 34.29100
O  33.84200 4.38200 33.90200
O  32.43800 3.55600 35.51800
C  32.82300 4.60800 36.52300
H  39.58100 0.31800 33.84100
H  39.29000 -0.47200 27.21900
H  33.24000 0.82100 27.41800
H  35.50100 2.47100 35.21800
H  37.85900 0.73500 35.54700
H  37.62200 3.67700 34.77700
H  39.11800 2.83400 34.37200
H  38.46100 2.66500 36.05900
H  35.82800 -0.60500 35.72800
H  34.35300 -0.04700 35.24300
H  35.16200 -0.29000 37.76300
H  33.91700 0.82300 37.28900
H  42.83900 -0.38000 31.81900
H  41.75800 -1.61300 32.57300
H  41.73000 0.08900 33.03200
H  43.57400 -0.80700 29.82600
H  43.54400 -2.35800 28.92600
H  42.69100 -2.26500 30.33700
H  37.04000 -1.20500 25.77600
H  35.08700 0.92100 25.75900
H  36.85600 1.32900 24.69500
H  38.26000 0.28600 24.60500
H  38.23200 1.48000 25.85000
H  33.66000 -1.47900 26.64600
H  35.10700 -2.03000 25.89700
H  32.72200 -0.71200 24.55700
H  33.85700 -2.06400 24.02600
H  34.24900 -0.44100 23.80200
H  30.59800 2.70900 29.33500
H  30.52200 0.90500 29.09200
H  31.48100 1.85600 28.01200
H  32.59500 1.59200 34.46400
H  33.62300 5.23400 36.12900
H  33.22500 4.21700 37.45700
H  31.93000 5.19100 36.74700
Mg 8.74900 47.59700 29.13600
C  7.09600 46.56300 32.07300
C  11.71700 47.66800 30.95400
C  10.44100 48.66800 26.41600
C  5.70600 48.19400 27.60500
N  9.33200 47.05400 31.30600
C  8.47000 46.75200 32.32400
C  9.16900 46.70900 33.65200
C  10.62300 47.21000 33.27500
C  10.63100 47.32200 31.75400
C  11.11000 48.49300 34.03700
C  9.19100 45.38300 34.40600
C  8.60600 45.57800 35.81800
H  9.02300 44.58700 36.90400
N  10.83500 47.82400 28.65500
C  11.85300 47.82900 29.55700
C  13.12900 48.01800 28.85800
C  12.76800 48.15900 27.41600
C  11.28300 48.16600 27.42700
C  14.49700 48.19300 29.50500
C  13.68100 48.31400 26.21800
O  13.31200 48.41700 25.02000
C  15.24800 48.38900 26.42800
N  8.21800 48.36400 27.39600
C  9.05200 48.82300 26.35800
C  8.26100 49.61300 25.27400
C  6.76700 49.04500 25.52600
C  6.90400 48.42600 26.91400
C  8.29700 51.15100 25.46300
C  6.26500 47.96500 24.60900
C  7.35400 47.06000 24.05600
N  6.72000 47.51600 29.62100
C  5.58200 47.65800 28.89900
C  4.41900 47.20600 29.73200
C  5.00000 46.71700 30.94700
C  6.39200 46.94800 30.85300
C  2.96500 47.33200 29.21000
C  4.70900 46.18300 32.27100
O  3.66800 45.98400 32.81000
C  6.04400 46.11300 33.04100
C  6.01200 44.71700 33.57300
O  6.49800 43.68700 33.10400
O  5.40000 44.77600 34.82900
C  5.48600 43.50700 35.66000
H  12.61900 47.84600 31.54300
H  11.07000 49.07400 25.62000
H  4.75900 48.27700 27.06900
H  8.67300 47.49600 34.22000
H  11.34300 46.41300 33.46000
H  12.16500 48.44700 34.30900
H  10.48200 48.64800 34.91400
H  11.11000 49.36500 33.38300
H  10.16000 44.88500 34.44700
H  8.61400 44.72000 33.76100
H  7.51900 45.61600 35.74600
H  8.86600 46.58200 36.15300
H  14.42700 48.14200 30.59100
H  15.02800 49.10100 29.21700
H  15.06400 47.29000 29.28000
H  15.38100 49.41000 26.78400
H  15.63500 48.10900 25.44800
H  15.61600 47.75500 27.23500
H  8.56500 49.33700 24.26400
H  6.06800 49.88000 25.58100
H  9.07300 51.23400 26.22400
H  7.44500 51.69300 25.87300
H  8.64600 51.58800 24.52700
H  5.86800 48.49600 23.74300
H  5.54400 47.30500 25.09000
H  8.34400 47.09700 24.50900
H  7.56700 47.19400 22.99600
H  6.92800 46.07000 24.22200
H  2.33100 47.19700 30.08600
H  2.84000 46.46700 28.55800
H  2.81600 48.31600 28.76500
H  6.12100 46.80800 33.87700
H  4.96300 42.70300 35.14100
H  4.91100 43.64500 36.57600
H  6.48900 43.17000 35.92400

