158

Mg 46.95500 43.96800 42.23200
C  43.47800 43.15200 41.71300
C  47.72600 40.53300 41.49500
C  50.17800 44.81800 41.94000
C  45.99100 47.35100 42.20500
N  45.76100 42.07300 41.74300
C  44.37400 42.06900 41.54300
C  43.90800 40.69900 41.11000
C  45.27900 39.83000 41.18900
C  46.33700 40.84300 41.55500
C  45.14300 38.56600 42.11600
C  43.26100 40.61300 39.68500
C  43.91500 41.37700 38.62100
H  43.98300 40.74300 37.31400
N  48.68500 42.82900 41.79500
C  48.75900 41.47000 41.66200
C  50.17400 41.04000 41.64900
C  50.92200 42.26300 41.74800
C  49.89500 43.40600 41.83000
C  50.60600 39.64800 41.48200
C  52.47100 42.31900 41.64300
O  53.07800 41.29300 41.47500
C  53.24500 43.56700 41.47200
N  47.89400 45.78700 42.26600
C  49.32500 45.89100 42.08700
C  49.75100 47.37800 41.99000
C  48.39100 48.21000 42.11900
C  47.34800 47.06500 42.14200
C  50.71800 47.79200 43.14800
C  48.05400 49.26100 40.98500
C  47.77100 50.62800 41.59700
N  45.12000 45.05900 42.16200
C  44.92800 46.41200 42.21600
C  43.47100 46.65700 42.18500
C  42.92200 45.41100 42.02300
C  43.89600 44.43300 42.02700
C  42.79700 48.03100 42.08800
C  41.66000 44.85600 41.84700
O  40.52800 45.32700 41.92300
C  42.00800 43.27500 41.64800
C  41.40400 42.49800 42.79600
O  40.60000 41.55700 42.73000
O  41.86900 42.99700 44.01600
C  41.33900 42.27800 45.13500
H  47.87600 39.45200 41.48400
H  51.25900 44.91700 41.81900
H  45.64600 48.37500 42.36200
H  43.09700 40.49500 41.80800
H  45.67500 39.50200 40.22800
H  45.71700 38.77600 43.01900
H  45.42400 37.68900 41.53300
H  44.10900 38.28100 42.31000
H  42.25000 41.01400 39.61100
H  43.19200 39.54100 39.49800
H  44.90100 41.64000 39.00400
H  43.35600 42.30200 38.48200
H  50.46600 39.27800 40.46700
H  49.91700 39.10300 42.12700
H  51.57900 39.47300 41.94000
H  52.89700 43.97400 40.52300
H  54.31400 43.51600 41.26700
H  53.14000 44.14600 42.39000
H  50.23700 47.44500 41.01700
H  48.25300 48.53900 43.14900
H  50.66600 47.11000 43.99700
H  50.43500 48.74900 43.58800
H  51.78000 47.77300 42.90600
H  47.22300 49.00800 40.32600
H  48.94400 49.20100 40.35800
H  48.29500 51.30500 40.92300
H  48.16800 50.67000 42.61100
H  46.72700 50.92200 41.70800
H  43.46200 48.86000 42.33200
H  41.96600 48.21100 42.76900
H  42.35500 48.18400 41.10300
H  41.68300 42.97500 40.65200
H  41.65200 42.86500 45.99900
H  41.87100 41.32800 45.17300
H  40.27500 42.15000 44.93700
Mg 30.75700 59.28800 38.83100
C  27.83200 57.37600 38.10700
C  32.59600 56.52000 38.17600
C  33.37700 61.18900 38.79700
C  28.62600 62.03200 39.26200
N  30.21800 57.26800 37.91700
C  28.94700 56.66700 37.92200
C  29.09500 55.21200 37.43400
C  30.55000 54.86800 37.99900
C  31.20900 56.31700 38.04800
C  30.54700 54.41400 39.48400
C  28.77300 55.14400 35.85600
C  27.55500 54.34100 35.46500
H  26.71100 55.03300 34.33600
N  32.65200 58.98300 38.28100
C  33.23500 57.71900 38.10500
C  34.64400 57.84200 37.82200
C  34.94800 59.26500 38.03000
C  33.62900 59.90500 38.40000
C  35.57900 56.71500 37.53200
C  36.34400 59.90800 37.93600
O  37.23200 59.11700 37.63500
C  36.69800 61.37000 38.26600
N  31.00300 61.32900 38.98300
C  32.19300 61.87000 39.11300
C  32.11000 63.35200 39.43500
C  30.58700 63.60100 39.67700
C  30.02300 62.23600 39.27400
C  33.06200 63.73600 40.64100
C  29.98000 64.73600 38.80900
C  28.87600 65.62400 39.43000
N  28.66200 59.66400 38.83500
C  27.97200 60.80900 39.06200
C  26.58300 60.56300 38.87200
C  26.40400 59.25600 38.51500
C  27.73300 58.72300 38.52300
C  25.43000 61.48900 39.06200
C  25.42800 58.26200 38.09700
O  24.17200 58.28000 38.12100
C  26.37600 56.97300 37.81100
C  26.02000 55.82900 38.67100
O  26.29000 55.71500 39.84800
O  25.23400 54.90400 38.02200
C  24.37200 54.13900 38.90400
H  33.16600 55.58900 38.19700
H  34.20400 61.90000 38.83900
H  27.99900 62.89300 39.50300
H  28.41100 54.60700 38.02900
H  31.11700 54.24200 37.31000
H  29.61900 53.91800 39.76700
H  30.64400 55.30500 40.10400
H  31.39800 53.73800 39.56900
H  29.73200 54.79700 35.47200
H  28.61200 56.11400 35.38600
H  27.00800 54.18900 36.39500
H  27.97500 53.43200 35.03500
H  35.13000 55.80300 37.14000
H  36.19900 56.39100 38.36800
H  36.24500 57.01300 36.72200
H  37.75000 61.47600 37.99900
H  36.51400 61.74600 39.27200
H  36.07800 61.92400 37.56100
H  32.44200 63.94600 38.58400
H  30.32000 63.75500 40.72300
H  34.02600 64.04300 40.23500
H  33.25800 62.89700 41.30900
H  32.59400 64.50200 41.25800
H  29.58700 64.30100 37.89000
H  30.74800 65.44700 38.50500
H  29.16900 66.59100 39.84000
H  28.34400 65.09800 40.22200
H  28.27700 65.83100 38.54300
H  24.87900 61.72700 38.15200
H  25.64700 62.24200 39.81900
H  24.72500 60.83600 39.57500
H  26.27500 56.68900 36.76300
H  23.99900 53.29600 38.32300
H  23.44800 54.70700 39.01400
H  24.72800 53.73100 39.84900

