158

Mg 53.47200 24.35800 45.75600
C  51.05000 26.23800 44.32700
C  52.21600 21.64100 44.00300
C  56.36700 22.64000 46.39700
C  55.01000 27.37800 46.84400
N  52.02400 24.12300 44.19200
C  51.14400 24.99300 43.77000
C  50.37600 24.53600 42.57700
C  50.28900 22.99700 42.93800
C  51.60400 22.85900 43.75500
C  48.90300 22.60200 43.64000
C  51.01100 24.83900 41.30800
C  50.16800 25.09600 40.09900
H  50.91100 25.46700 38.82400
N  54.15100 22.38400 45.35000
C  53.46400 21.39500 44.68000
C  54.14900 20.14600 44.79000
C  55.36500 20.46700 45.45200
C  55.35000 21.87700 45.75800
C  53.56200 18.81300 44.24500
C  56.32800 19.46000 45.86800
O  55.95900 18.28000 45.83700
C  57.66100 19.74400 46.54800
N  55.36100 24.89300 46.59300
C  56.37600 23.96000 46.78000
C  57.57300 24.61100 47.47300
C  57.27600 26.13500 47.27000
C  55.75300 26.16400 46.87000
C  57.68700 24.13900 48.99000
C  58.16100 26.86500 46.18600
C  58.77000 28.14000 46.63600
N  53.04800 26.36100 45.79700
C  53.69100 27.48100 46.33000
C  52.79000 28.66300 46.35800
C  51.71400 28.13800 45.57500
C  51.99700 26.85400 45.19800
C  52.94300 29.96800 47.04600
C  50.49600 28.48600 44.98900
O  49.77000 29.50400 45.09500
C  49.98000 27.25900 44.11400
C  49.76800 27.71800 42.77200
O  50.61200 28.27100 42.08800
O  48.45700 27.70600 42.43000
C  48.05200 28.53500 41.25300
H  51.72400 20.77000 43.56800
H  57.30800 22.11900 46.59000
H  55.40000 28.28500 47.31000
H  49.42200 25.06300 42.55200
H  50.29700 22.41300 42.01800
H  48.28400 23.48800 43.78100
H  49.10700 22.19900 44.63200
H  48.36600 21.83500 43.08200
H  51.69200 24.04000 41.01500
H  51.65300 25.71900 41.31200
H  49.75500 26.00500 40.53700
H  49.29800 24.50500 39.81600
H  53.96000 17.89700 44.68000
H  53.75900 18.79300 43.17300
H  52.47800 18.76500 44.35000
H  57.43200 20.17900 47.52100
H  58.29400 20.35500 45.90500
H  58.15800 18.78200 46.67800
H  58.45600 24.36000 46.88500
H  57.33500 26.69700 48.20200
H  58.70200 23.83800 49.25100
H  56.95500 23.36800 49.23000
H  57.56600 24.94500 49.71400
H  57.65700 27.08900 45.24600
H  58.88000 26.14300 45.79900
H  59.67300 28.10000 46.02800
H  58.85600 28.18700 47.72100
H  58.12800 29.00000 46.44100
H  53.61600 29.82000 47.89100
H  51.99900 30.36500 47.42000
H  53.38500 30.78200 46.47200
H  49.07700 26.99500 44.66400
H  48.53700 28.14800 40.35700
H  48.32900 29.58300 41.37300
H  46.98500 28.56100 41.03200
Mg 0.61000 43.50200 26.56600
C  2.98500 43.29400 29.13500
C  -1.72100 42.62100 28.81400
C  -1.52200 42.93400 23.99800
C  3.25300 43.91200 24.26900
N  0.64900 43.08200 28.83800
C  1.66400 43.07600 29.68100
C  1.20700 42.88800 31.16300
C  -0.34600 42.59600 30.97900
C  -0.45300 42.68300 29.43000
C  -0.87200 41.28100 31.52100
C  1.66200 44.07900 32.05300
C  1.94100 43.71500 33.51800
H  1.41800 42.39300 34.07300
N  -1.36100 43.12900 26.43300
C  -2.16000 42.69000 27.47800
C  -3.54000 42.51300 27.02300
C  -3.42700 42.58100 25.60500
C  -2.05000 42.86300 25.30900
C  -4.69200 42.03100 27.96700
C  -4.51600 42.31400 24.61800
O  -4.31600 42.35500 23.40300
C  -5.83700 41.98500 25.04400
N  0.77000 43.62700 24.43800
C  -0.25000 43.25000 23.57700
C  0.19000 43.52100 22.13600
C  1.65700 44.07200 22.25100
C  1.93600 43.82100 23.71000
C  0.18800 42.28100 21.24400
C  1.82600 45.54000 21.79900
C  1.55100 45.69400 20.26600
N  2.60600 43.60200 26.63800
C  3.58900 43.76900 25.64000
C  4.88800 43.64600 26.22200
C  4.66700 43.39500 27.56000
C  3.30200 43.50900 27.76300
C  6.16500 43.65400 25.42000
C  5.36200 43.04000 28.79100
O  6.54900 42.68300 28.99500
C  4.32700 43.24000 29.94400
C  4.50900 42.15100 30.96200
O  4.14200 41.03100 30.82400
O  5.15000 42.69100 32.04600
C  5.47400 41.65900 33.08900
H  -2.52600 42.38100 29.51200
H  -2.05900 42.88600 23.04900
H  4.13600 44.14000 23.66900
H  1.61700 41.93600 31.50000
H  -0.99600 43.40800 31.30500
H  -1.88300 41.43500 31.90100
H  -0.20200 41.05900 32.35200
H  -0.88100 40.46600 30.79700
H  0.91700 44.87100 31.97700
H  2.65400 44.36600 31.70500
H  1.76600 44.54100 34.20700
H  3.02100 43.63000 33.64300
H  -4.35500 42.32000 28.96300
H  -4.80600 40.94700 27.93700
H  -5.71100 42.40400 27.85900
H  -5.81500 41.04500 25.59700
H  -6.45000 41.88900 24.14800
H  -6.11900 42.79900 25.71100
H  -0.26600 44.37900 21.64300
H  2.36400 43.41000 21.75000
H  0.17700 41.39100 21.87200
H  0.93500 42.25100 20.45100
H  -0.82300 42.32000 20.83800
H  2.78500 45.94700 22.11800
H  1.01700 46.01700 22.35400
H  0.54200 45.98200 19.97100
H  1.75100 44.77000 19.72300
H  2.22200 46.46600 19.88800
H  6.11800 43.07500 24.49800
H  6.87900 43.12900 26.05500
H  6.46900 44.68800 25.25900
H  4.46100 44.25600 30.31700
H  6.27900 41.99700 33.74100
H  5.73100 40.73400 32.57300
H  4.65800 41.43900 33.77800

