158

Mg 47.55800 16.39800 28.62100
C  45.68500 16.26100 31.52100
C  49.87800 18.40600 30.28500
C  49.06600 17.14600 25.62500
C  44.76700 15.23900 26.82800
N  47.67100 17.48100 30.60800
C  46.83700 17.10900 31.67300
C  47.45700 17.55900 33.02000
C  48.72500 18.45700 32.57700
C  48.77500 18.17500 31.05400
C  48.60900 19.99600 32.92500
C  47.82900 16.32600 33.97500
C  47.12800 16.28500 35.33400
H  47.20300 17.62800 36.11000
N  49.31000 17.49200 28.03400
C  50.18700 18.12400 28.88200
C  51.33300 18.70600 28.14000
C  51.14700 18.26300 26.79000
C  49.81500 17.61600 26.76500
C  52.49800 19.37700 28.76600
C  52.06700 18.32000 25.61600
O  51.84300 17.98700 24.45300
C  53.44100 18.65100 25.80000
N  47.12600 16.00600 26.48100
C  47.79100 16.56400 25.48300
C  47.07400 16.40200 24.21200
C  45.88200 15.47100 24.51700
C  45.88700 15.58300 26.04300
C  46.57200 17.64400 23.37600
C  46.02000 13.97900 24.00500
C  44.96700 13.60600 22.90200
N  45.74600 15.68200 29.08100
C  44.65300 15.22600 28.21200
C  43.53600 14.85200 29.00700
C  43.95200 15.10200 30.34800
C  45.22500 15.76400 30.30400
C  42.30600 14.16100 28.58300
C  43.51500 15.09200 31.68200
O  42.41200 14.77300 32.12800
C  44.67700 15.73900 32.53100
C  43.93800 16.89000 33.20800
O  43.95500 18.05000 32.72000
O  43.30200 16.43200 34.40200
C  42.22700 17.34600 34.76600
H  50.65300 18.98800 30.78800
H  49.53800 17.28100 24.64900
H  43.84900 14.99900 26.28800
H  46.65000 18.15800 33.44300
H  49.64600 18.10300 33.04100
H  48.44800 20.46000 31.95200
H  49.48200 20.39200 33.44400
H  47.71100 20.27500 33.47600
H  48.91200 16.36300 34.09200
H  47.60500 15.39600 33.45300
H  47.62500 15.53700 35.95200
H  46.09300 15.95300 35.25200
H  53.19500 18.54300 28.85700
H  52.22000 19.80200 29.73100
H  52.91400 20.19400 28.17800
H  54.08900 18.45200 24.94600
H  53.73100 18.01000 26.63200
H  53.49700 19.72900 25.95200
H  47.79500 15.96900 23.51900
H  44.88700 15.78700 24.20300
H  45.48300 17.68600 23.36000
H  46.92600 17.56600 22.34800
H  46.93700 18.57800 23.80200
H  45.83500 13.30700 24.84300
H  47.03700 13.83200 23.64000
H  45.13200 12.62700 22.45400
H  44.95000 14.36800 22.12200
H  43.99900 13.54300 23.39900
H  41.47800 14.41400 29.24600
H  42.36600 13.08000 28.46200
H  42.07500 14.47100 27.56400
H  45.10700 14.99000 33.19600
H  41.38900 17.11200 34.10800
H  42.41600 18.41400 34.87300
H  41.76300 17.12900 35.72800
Mg -1.90200 34.58500 27.24400
C  -3.44500 32.60400 29.89000
C  -0.55400 36.52600 29.84000
C  -0.07500 36.01900 24.88400
C  -3.15500 32.29900 24.98100
N  -2.15500 34.65600 29.63500
C  -2.64600 33.67000 30.41100
C  -2.37200 33.95200 31.92900
C  -1.72700 35.36900 31.86100
C  -1.47600 35.58900 30.42100
C  -2.48900 36.59200 32.51600
C  -1.57400 32.80300 32.52900
C  -1.00600 32.95800 33.99500
H  -1.52900 32.05500 35.03300
N  -0.75100 36.13100 27.27500
C  -0.22900 36.76200 28.43500
C  0.69000 37.74800 27.93000
C  0.69600 37.75700 26.46000
C  -0.14000 36.65700 26.11000
C  1.49300 38.59800 28.86700
C  1.42200 38.70900 25.49600
O  1.38200 38.58500 24.27400
C  2.37900 39.87600 25.94600
N  -1.76100 34.33700 25.08300
C  -0.82300 34.95400 24.36300
C  -0.61300 34.25500 22.97000
C  -1.75900 33.18900 23.03900
C  -2.25200 33.23700 24.50800
C  -0.77500 35.22500 21.71300
C  -1.26000 31.80900 22.62200
C  -0.16000 31.11400 23.47800
N  -3.15500 32.98000 27.31500
C  -3.61700 32.16900 26.31000
C  -4.54800 31.16700 26.89200
C  -4.47500 31.40800 28.22900
C  -3.55800 32.42500 28.44500
C  -5.37100 30.15800 26.19200
C  -5.07700 30.86000 29.45600
O  -5.90800 30.02000 29.63400
C  -4.34600 31.59100 30.57400
C  -5.39400 32.14800 31.54000
O  -6.32900 32.86200 31.28100
O  -5.13400 31.69400 32.81000
C  -6.07500 32.00900 33.83900
H  -0.06400 37.14000 30.59800
H  0.77000 36.34400 24.27300
H  -3.55200 31.52900 24.31500
H  -3.22600 33.83700 32.59500
H  -0.81200 35.21600 32.43300
H  -3.55300 36.37500 32.41800
H  -2.44600 37.49700 31.90900
H  -2.20600 36.89000 33.52500
H  -0.77700 32.64500 31.80200
H  -2.18900 31.90900 32.42800
H  -1.33400 33.91100 34.41100
H  0.08100 32.88500 34.02800
H  1.67600 38.10400 29.82100
H  0.91800 39.50100 29.07300
H  2.45900 38.85000 28.43000
H  2.89100 40.44500 25.16900
H  3.15900 39.35300 26.49900
H  1.79100 40.52600 26.59300
H  0.34300 33.76900 23.16700
H  -2.55400 33.49200 22.35800
H  0.13100 35.35700 21.12000
H  -1.08900 36.20600 22.06800
H  -1.53200 34.87100 21.01300
H  -0.99400 31.73600 21.56700
H  -2.09600 31.11200 22.66300
H  0.00500 31.61300 24.43300
H  0.74700 31.06100 22.87600
H  -0.45900 30.10200 23.74900
H  -6.45200 30.22600 26.31900
H  -5.05100 29.17400 26.53600
H  -5.10000 30.09000 25.13900
H  -3.84400 30.83300 31.17500
H  -6.87700 32.65600 33.48400
H  -5.39200 32.49500 34.53500
H  -6.54300 31.07400 34.14700

