158

Mg 1.81300 -2.68800 44.68700
C  4.90600 -1.21900 43.79800
C  0.23800 -0.16500 42.97700
C  -0.98800 -4.48900 45.05800
C  3.77000 -5.56200 45.79100
N  2.58500 -0.98800 43.50200
C  3.82300 -0.48400 43.33900
C  3.87500 0.84600 42.50600
C  2.40800 1.29600 42.69900
C  1.64800 -0.03700 43.00800
C  2.19300 2.39800 43.81900
C  4.42400 0.78600 41.05000
C  5.77400 1.59600 40.83000
H  6.91400 0.76100 40.33200
N  -0.04800 -2.39300 44.03000
C  -0.51900 -1.30600 43.40300
C  -1.89200 -1.40300 43.13600
C  -2.32600 -2.62200 43.74800
C  -1.10300 -3.21800 44.33800
C  -2.70300 -0.55400 42.27300
C  -3.70900 -3.18600 43.75900
O  -4.60900 -2.53000 43.28900
C  -4.06100 -4.55800 44.35100
N  1.44900 -4.80700 45.24900
C  0.10400 -5.20000 45.43100
C  0.07300 -6.61300 45.99200
C  1.57600 -6.90400 46.33800
C  2.36200 -5.73700 45.76500
C  -0.83400 -6.85400 47.30100
C  2.06400 -8.22200 45.65400
C  3.13200 -9.06700 46.40400
N  3.82800 -3.29200 44.93800
C  4.48500 -4.44600 45.42300
C  5.84900 -4.19800 45.51600
C  6.07600 -2.94800 44.83400
C  4.82800 -2.45800 44.52800
C  6.81000 -5.10400 46.21200
C  7.10900 -2.00500 44.37700
O  8.33500 -1.96900 44.46900
C  6.35700 -0.75700 43.76100
C  6.64100 0.51900 44.60400
O  6.14800 0.88400 45.62900
O  7.50300 1.21600 43.90500
C  8.08100 2.44600 44.49300
H  -0.19300 0.66400 42.41300
H  -1.85700 -5.14500 45.14600
H  4.33900 -6.36600 46.26100
H  4.40900 1.50300 43.19300
H  2.07600 1.64700 41.72200
H  2.44700 3.36500 43.38300
H  2.85900 2.23400 44.66500
H  1.21100 2.39700 44.29200
H  3.80000 1.24300 40.28100
H  4.49500 -0.26700 40.77900
H  6.09200 2.01000 41.78600
H  5.68900 2.41800 40.11900
H  -2.09600 0.15800 41.71600
H  -3.40100 0.03200 42.87200
H  -3.29600 -1.15300 41.58200
H  -3.49800 -5.24300 43.71700
H  -5.13800 -4.57600 44.18200
H  -3.85900 -4.63200 45.42000
H  -0.28700 -7.25700 45.19000
H  1.68200 -6.97900 47.42000
H  -0.92400 -7.90700 47.56800
H  -1.82400 -6.40900 47.20500
H  -0.41400 -6.30900 48.14700
H  2.45300 -7.98400 44.66400
H  1.19800 -8.87800 45.56400
H  3.69300 -9.55000 45.60300
H  2.76900 -9.88500 47.02600
H  3.72500 -8.51700 47.13500
H  7.08100 -5.85000 45.46500
H  6.41900 -5.59900 47.10000
H  7.66400 -4.44300 46.35700
H  6.70700 -0.75600 42.72800
H  8.07200 3.20600 43.71200
H  9.12100 2.20700 44.71800
H  7.63400 2.76600 45.43500
Mg 52.60400 25.10000 44.93300
C  50.07700 27.27100 43.90600
C  51.04600 22.46700 43.40800
C  55.58800 23.38800 44.58000
C  54.36900 27.87800 46.15700
N  50.69500 24.94000 43.87800
C  49.82400 25.92100 43.56100
C  48.69300 25.33300 42.63800
C  48.80600 23.82700 42.99200
C  50.29600 23.69500 43.47300
C  47.76700 23.22100 44.02400
C  49.05200 25.78900 41.22100
C  47.85700 25.89200 40.29900
H  48.27300 26.30100 38.88000
N  53.20700 23.10100 44.37800
C  52.39400 22.14300 43.79800
C  53.18800 20.91200 43.66100
C  54.51100 21.23500 43.98700
C  54.47200 22.62800 44.37800
C  52.61900 19.66600 43.08800
C  55.71800 20.21900 43.96800
O  55.49500 19.01100 43.82900
C  57.15000 20.57700 44.21800
N  54.73400 25.58000 45.29900
C  55.71100 24.68900 45.14500
C  57.00500 25.22800 45.75900
C  56.64800 26.72000 46.22300
C  55.15800 26.70800 45.98200
C  57.64900 24.38400 46.90300
C  57.37400 27.81500 45.36600
C  57.32400 29.17500 45.88700
N  52.33200 27.20000 44.95900
C  53.04200 28.14200 45.67100
C  52.31400 29.39400 45.69600
C  51.17500 29.10200 44.94400
C  51.22100 27.76100 44.52100
C  52.69700 30.66300 46.34800
C  49.97100 29.62100 44.52700
O  49.55900 30.75200 44.71100
C  49.17500 28.56700 43.74600
C  48.94800 29.07200 42.33700
O  49.73800 29.24300 41.39300
O  47.58200 29.29900 42.29200
C  47.12400 29.79000 41.02700
H  50.57700 21.54900 43.04800
H  56.60000 22.97800 44.59700
H  54.94300 28.69400 46.60000
H  47.66100 25.67000 42.73200
H  48.71200 23.24900 42.07200
H  47.27100 24.02600 44.56700
H  48.29800 22.57700 44.72500
H  47.03600 22.70800 43.39900
H  49.75400 25.04400 40.84700
H  49.47800 26.79100 41.27900
H  47.34700 26.76900 40.69600
H  47.19800 25.02500 40.33700
H  51.67800 19.94600 42.61400
H  52.48500 18.94200 43.89200
H  53.22400 19.27000 42.27300
H  57.85200 19.74300 44.24200
H  57.24900 21.03100 45.20400
H  57.38000 21.27600 43.41500
H  57.74200 25.42500 44.98000
H  56.63200 26.99400 47.27800
H  57.59800 24.91300 47.85500
H  58.68200 24.24400 46.58500
H  57.24600 23.38000 47.03400
H  56.91400 27.74500 44.38100
H  58.42200 27.51500 45.38500
H  58.30100 29.64200 46.01100
H  56.92200 29.09200 46.89700
H  56.62700 29.78400 45.31200
H  52.09800 30.80700 47.24800
H  52.46800 31.51100 45.70200
H  53.77800 30.80200 46.37500
H  48.16800 28.44400 44.14500
H  46.23000 30.41400 41.01500
H  46.86800 29.08100 40.23900
H  47.79700 30.60400 40.75700

