158

Mg 44.67300 5.95100 48.15000
C  42.60900 8.69400 47.73800
C  42.04800 3.89000 47.26200
C  46.75700 3.41400 48.18900
C  47.39200 8.21100 48.28400
N  42.59700 6.20200 47.57500
C  41.97900 7.45700 47.43500
C  40.59600 7.26400 46.86000
C  40.27700 5.74100 47.02600
C  41.73800 5.22200 47.35900
C  39.17700 5.39900 47.99300
C  40.56000 7.66800 45.27100
C  39.10600 7.65300 44.63500
H  38.92700 6.75500 43.47300
N  44.44400 3.95100 47.83100
C  43.32900 3.26800 47.39500
C  43.54900 1.88400 47.12500
C  44.92400 1.68900 47.38900
C  45.45300 2.99200 47.91200
C  42.53900 0.97600 46.53500
C  45.68800 0.41600 47.14000
O  45.18400 -0.55700 46.65600
C  47.07800 0.27600 47.63900
N  46.77600 5.80100 48.22800
C  47.44700 4.60700 48.28000
C  48.91100 4.74200 48.63600
C  49.13000 6.31600 48.50700
C  47.69400 6.83900 48.39800
C  49.21100 4.04800 50.00300
C  49.96000 6.70300 47.27100
C  51.47600 6.95500 47.49200
N  44.98800 8.07800 48.16000
C  46.13700 8.83000 48.18300
C  45.80600 10.24700 48.28600
C  44.39300 10.28400 48.14400
C  43.96200 8.85500 48.03500
C  46.75100 11.33600 48.25800
C  43.21500 11.12500 48.06300
O  43.13400 12.32000 48.02700
C  41.96000 10.13500 47.84800
C  41.13700 10.29200 49.03700
O  41.42900 10.11100 50.21400
O  39.99700 10.99800 48.65900
C  39.09600 11.31600 49.75300
H  41.23000 3.25000 46.92300
H  47.46600 2.60600 48.38200
H  48.21900 8.92100 48.35200
H  39.90900 7.84000 47.48100
H  39.93200 5.32100 46.08200
H  38.59300 4.61600 47.51000
H  38.55500 6.25700 48.25100
H  39.63000 4.94000 48.87200
H  41.19800 6.93600 44.77500
H  40.82000 8.71600 45.12400
H  38.79600 8.68200 44.45200
H  38.36200 7.26500 45.33000
H  43.06500 0.48400 45.71700
H  41.68600 1.53800 46.15300
H  42.02100 0.27800 47.19200
H  47.72200 0.73600 46.89000
H  47.22600 -0.80200 47.70000
H  47.19600 0.65600 48.65400
H  49.57300 4.19400 47.96400
H  49.47300 6.65900 49.48300
H  50.08700 3.40500 49.91500
H  48.37500 3.52100 50.46300
H  49.27800 4.83300 50.75700
H  49.60200 7.62200 46.80500
H  49.85300 5.92900 46.51200
H  52.10900 6.21000 47.01000
H  51.69100 6.98300 48.56100
H  51.67500 7.93900 47.06800
H  47.43900 11.07300 47.45400
H  47.23900 11.47400 49.22300
H  46.23500 12.26600 48.01900
H  41.55500 10.46100 46.89000
H  38.22700 11.87900 49.41100
H  39.62100 11.91700 50.49500
H  38.82200 10.44600 50.35000
Mg 27.95200 56.41300 40.73300
C  25.35600 54.07100 39.90400
C  30.28700 54.30700 39.56800
C  29.91900 59.02300 40.52400
C  25.20900 58.67100 41.39300
N  27.78300 54.50400 39.73100
C  26.70400 53.67400 39.57700
C  27.10100 52.46300 38.70600
C  28.65000 52.41700 38.91300
C  28.93200 53.84200 39.39500
C  29.28800 51.34200 39.85100
C  26.59100 52.26600 37.24600
C  26.36700 53.64800 36.55400
H  26.65600 53.72100 35.03400
N  29.91400 56.59200 40.27400
C  30.82300 55.56300 39.98500
C  32.17800 56.14500 39.77000
C  32.02100 57.62500 39.88800
C  30.59300 57.81900 40.23300
C  33.28600 55.26400 39.21500
C  33.13100 58.60400 39.75800
O  34.30800 58.25200 39.52200
C  32.94300 60.11300 39.94900
N  27.61100 58.51000 40.97100
C  28.64700 59.37700 40.90400
C  28.19100 60.82500 41.02100
C  26.76300 60.67800 41.41900
C  26.48100 59.14000 41.22400
C  29.04900 61.61800 42.00300
C  25.75700 61.69100 40.78700
C  24.67500 62.39100 41.74400
N  25.70500 56.35900 40.84600
C  24.79400 57.29400 41.17000
C  23.51200 56.67200 41.27300
C  23.70500 55.39500 40.75300
C  25.02600 55.23200 40.51400
C  22.25900 57.29600 41.80700
C  23.00100 54.17600 40.49900
O  21.82700 53.81700 40.58800
C  24.01100 53.30300 39.71000
C  23.97800 51.95200 40.26900
O  23.44900 50.97400 39.74600
O  24.68600 51.99200 41.46200
C  25.03400 50.69000 42.01800
H  31.11600 53.61700 39.39500
H  30.56300 59.87800 40.30900
H  24.42000 59.38600 41.63400
H  26.64400 51.64300 39.26100
H  29.23300 52.41300 37.99200
H  28.49400 50.73300 40.28200
H  29.71900 51.79400 40.74400
H  30.02800 50.65700 39.43500
H  25.70800 51.62900 37.29900
H  27.33100 51.74700 36.63600
H  26.88700 54.46200 37.05900
H  25.28100 53.69200 36.64600
H  33.97600 55.87600 38.63400
H  33.01400 54.44400 38.55000
H  33.73600 54.72200 40.04600
H  32.45200 60.22700 40.91600
H  32.23500 60.49500 39.21300
H  33.87800 60.65400 39.80800
H  28.25800 61.25300 40.02100
H  26.68400 60.84900 42.49300
H  28.43600 62.12300 42.74900
H  29.49700 62.44700 41.45400
H  29.77000 60.99500 42.53200
H  25.34100 61.14600 39.94000
H  26.28000 62.54000 40.34600
H  24.73500 63.47400 41.63800
H  24.94200 62.05500 42.74600
H  23.67400 62.04900 41.48300
H  21.66700 57.65700 40.96600
H  22.63500 58.21800 42.25000
H  21.59900 56.79500 42.51500
H  23.74600 53.19200 38.65800
H  26.11200 50.65800 42.17400
H  24.76800 49.88100 41.33800
H  24.51900 50.58300 42.97300

