158

Mg 53.53000 23.41800 43.94300
C  51.03800 25.78000 43.05500
C  51.72900 21.00000 42.50900
C  56.31600 21.44400 43.81400
C  55.58100 26.15000 44.91000
N  51.73900 23.43800 42.59100
C  50.80700 24.49400 42.53800
C  49.52600 24.03900 41.80800
C  49.64300 22.46100 42.02400
C  51.08500 22.29000 42.38700
C  48.61000 22.07600 43.06500
C  49.33400 24.56300 40.37600
C  50.61800 24.84500 39.49800
H  50.37000 25.54100 38.09500
N  53.93300 21.44700 43.47600
C  52.99800 20.61000 42.99900
C  53.59900 19.22200 42.98600
C  54.89600 19.34400 43.44900
C  55.14000 20.80300 43.58100
C  52.76200 18.00400 42.43600
C  55.81900 18.12400 43.73100
O  55.46000 16.98900 43.40900
C  57.06000 18.36100 44.46400
N  55.54900 23.73400 44.35700
C  56.49000 22.78800 44.07200
C  57.90400 23.32600 44.37300
C  57.67500 24.75100 44.82300
C  56.19300 24.86500 44.68100
C  58.67300 22.43800 45.30800
C  58.54000 25.81500 44.05100
C  60.06700 25.74900 44.29400
N  53.41100 25.49600 44.06200
C  54.24000 26.42300 44.61600
C  53.50400 27.59500 44.88200
C  52.30500 27.38900 44.24000
C  52.33900 26.11700 43.70000
C  54.02600 28.78600 45.65100
C  51.00700 28.09800 43.92600
O  50.56000 29.21400 44.21100
C  50.16500 27.03900 43.13300
C  49.64100 27.60200 41.86700
O  50.23500 27.78200 40.82600
O  48.32100 27.83900 42.12400
C  47.56900 28.49200 41.01100
H  51.12600 20.19700 42.08300
H  57.20400 20.83900 43.61900
H  56.17100 26.94200 45.37500
H  48.66200 24.42700 42.34700
H  49.50600 22.06800 41.01600
H  48.67600 21.02400 43.34300
H  47.62200 22.22700 42.63000
H  48.77300 22.72000 43.93000
H  48.76200 25.48700 40.28800
H  48.71900 23.81700 39.87300
H  51.23900 23.96800 39.31800
H  51.18100 25.51100 40.15200
H  53.09200 16.98900 42.65800
H  52.41900 18.17900 41.41700
H  51.81500 18.06800 42.97200
H  56.95300 19.18500 45.16900
H  57.88100 18.58900 43.78500
H  57.33100 17.43400 44.96900
H  58.39200 23.23700 43.40300
H  57.95700 24.95800 45.85600
H  58.99200 22.99600 46.18900
H  59.52700 22.03900 44.76100
H  58.00200 21.67000 45.69400
H  58.18400 26.79200 44.37600
H  58.25100 25.65400 43.01300
H  60.44200 26.56200 44.91500
H  60.67400 25.94500 43.41000
H  60.38800 24.84600 44.81400
H  54.76700 29.29900 45.03800
H  54.33600 28.49400 46.65400
H  53.34000 29.61400 45.82900
H  49.26400 26.71900 43.65600
H  48.08200 29.42600 40.78100
H  46.55700 28.71600 41.34800
H  47.50000 27.91100 40.09200
Mg 9.31100 48.68900 27.50800
C  7.35600 47.98900 30.32300
C  11.92900 49.28100 29.57800
C  11.20100 49.23200 24.76500
C  6.56000 48.49600 25.42500
N  9.58100 48.74100 29.75900
C  8.66300 48.39800 30.72500
C  9.26100 48.55800 32.11500
C  10.64200 49.41100 31.78400
C  10.74600 49.19600 30.28600
C  10.73300 50.84400 32.32000
C  9.53300 47.20800 32.82600
C  10.37800 47.16800 34.15100
H  10.10300 46.10800 35.25900
N  11.35800 49.08300 27.21200
C  12.29600 49.28800 28.17200
C  13.53800 49.48600 27.58200
C  13.35400 49.55600 26.16900
C  11.91000 49.27100 25.99200
C  14.74100 49.72600 28.37700
C  14.31600 49.71600 24.99900
O  14.06700 49.53200 23.78500
C  15.77400 49.96100 25.38200
N  8.90500 48.93500 25.30100
C  9.82200 49.03900 24.39400
C  9.25800 49.31900 23.03700
C  7.86600 48.75600 23.23600
C  7.72300 48.64900 24.72500
C  9.34400 50.78600 22.58800
C  7.46800 47.45400 22.41000
C  6.08100 47.50000 21.81700
N  7.41900 48.34700 27.76500
C  6.32800 48.31900 26.83000
C  5.13400 47.91000 27.49300
C  5.46400 47.81600 28.89900
C  6.87200 48.03200 28.94600
C  3.72900 47.79800 26.95800
C  4.97800 47.46300 30.20600
O  3.83500 47.08800 30.52100
C  6.24200 47.58000 31.21000
C  6.40800 46.33500 31.97000
O  6.77000 45.21600 31.55000
O  6.13800 46.61700 33.29000
C  6.48400 45.49100 34.13500
H  12.71800 49.49400 30.30200
H  11.78000 49.42500 23.86000
H  5.60900 48.39600 24.89800
H  8.50300 49.03600 32.73500
H  11.46600 48.87300 32.25400
H  9.82300 51.07800 32.87300
H  10.85500 51.49900 31.45700
H  11.56900 50.97000 33.00800
H  10.03100 46.62700 32.04900
H  8.59600 46.71300 33.08200
H  10.26900 48.11900 34.67300
H  11.41200 46.96400 33.87500
H  14.50100 49.68200 29.44000
H  15.27100 50.64200 28.11900
H  15.41700 48.89100 28.19200
H  15.83900 50.89200 25.94500
H  16.42500 50.07800 24.51500
H  16.14400 49.15400 26.01400
H  9.73600 48.83800 22.18300
H  7.17300 49.52400 22.89100
H  9.94600 50.80400 21.67900
H  9.75900 51.36200 23.41500
H  8.33600 51.15600 22.40000
H  7.58400 46.58000 23.05100
H  8.21600 47.47400 21.61700
H  6.15600 47.39400 20.73400
H  5.56700 48.45400 21.92600
H  5.50700 46.60500 22.05700
H  3.65000 48.10000 25.91300
H  2.96700 48.31500 27.54200
H  3.48800 46.73700 27.02200
H  6.10200 48.42100 31.88900
H  7.50500 45.14100 33.98100
H  5.78000 44.66300 34.05000
H  6.35800 45.81600 35.16800

