158

Mg 2.03600 -1.26600 44.64600
C  5.24000 0.48000 43.99300
C  0.73300 1.46600 42.57000
C  -0.73800 -2.75800 44.51000
C  3.85700 -3.87300 45.89300
N  2.91100 0.79000 43.52500
C  4.18600 1.25100 43.55600
C  4.39200 2.53600 42.70600
C  2.87400 2.93900 42.54200
C  2.09500 1.62200 42.85700
C  2.46700 4.16000 43.41400
C  5.22600 2.33500 41.31700
C  6.40100 3.31600 40.98600
H  6.10700 4.37400 39.91200
N  0.24800 -0.69800 43.83800
C  -0.06300 0.36000 42.97400
C  -1.47500 0.22300 42.62100
C  -1.98600 -0.95900 43.35200
C  -0.83200 -1.49600 43.98400
C  -2.25100 1.20600 41.69200
C  -3.48700 -1.39300 43.35700
O  -4.29100 -0.68900 42.78200
C  -3.98400 -2.54000 44.31700
N  1.61800 -3.12400 45.05400
C  0.36100 -3.55100 45.03700
C  0.23800 -4.91000 45.73000
C  1.68500 -5.29000 46.02600
C  2.44200 -4.00400 45.71500
C  -0.67800 -4.73900 46.98300
C  2.33500 -6.50300 45.30300
C  1.56500 -7.80000 45.68800
N  4.05500 -1.62400 45.03200
C  4.62700 -2.74400 45.62500
C  6.05800 -2.56300 45.66400
C  6.28600 -1.31100 45.04500
C  5.05500 -0.78200 44.66500
C  7.01600 -3.52800 46.23500
C  7.33600 -0.34200 44.71600
O  8.54800 -0.35300 44.99300
C  6.60900 0.87500 44.04800
C  6.86000 2.11600 44.79900
O  6.13900 2.43400 45.73500
O  7.83600 2.90700 44.23500
C  8.01300 4.21200 44.95500
H  0.30400 2.23100 41.92000
H  -1.56100 -3.47500 44.47800
H  4.38700 -4.74200 46.28800
H  5.04200 3.21600 43.25600
H  2.67800 3.29900 41.53200
H  2.37600 5.11800 42.90300
H  3.21400 4.16900 44.20800
H  1.47800 4.00100 43.84200
H  4.47000 2.34200 40.53200
H  5.73500 1.37100 41.29100
H  7.28100 2.81900 40.57900
H  6.77100 3.90500 41.82500
H  -2.94000 0.65500 41.05200
H  -1.51800 1.79200 41.13700
H  -2.76100 1.92900 42.32800
H  -5.06100 -2.45900 44.46700
H  -3.40300 -2.51800 45.23900
H  -3.71400 -3.46800 43.81300
H  -0.18700 -5.66900 45.07500
H  1.90100 -5.51800 47.07000
H  -1.32900 -5.61300 46.95200
H  -1.16300 -3.76400 47.00200
H  -0.27200 -4.72700 47.99500
H  3.38600 -6.68400 45.53000
H  2.23700 -6.28500 44.24000
H  2.25200 -8.62500 45.87800
H  0.95100 -8.14900 44.85900
H  0.83000 -7.63200 46.47500
H  7.54100 -4.06500 45.44500
H  6.46900 -4.33800 46.71800
H  7.62800 -3.18600 47.06900
H  6.93600 1.15700 43.04700
H  7.26000 4.90700 44.58200
H  8.94100 4.71400 44.68100
H  8.02400 3.98600 46.02100
Mg 17.47900 -0.28000 27.89100
C  16.43600 1.71700 30.54700
C  19.52700 -1.97200 30.06700
C  19.09100 -1.82400 25.24800
C  16.03700 1.89900 25.77700
N  17.94700 -0.04200 30.05100
C  17.19900 0.63700 30.94800
C  17.50100 0.25200 32.39600
C  18.64500 -0.80200 32.22400
C  18.79100 -0.91800 30.68200
C  19.99200 -0.43900 32.89400
C  16.25100 -0.39500 33.14100
C  15.98200 -0.03100 34.62400
H  17.20700 0.55900 35.42500
N  18.88100 -1.91200 27.69700
C  19.58200 -2.48500 28.72500
C  20.49500 -3.51600 28.25000
C  20.36500 -3.52100 26.77700
C  19.41700 -2.38300 26.52300
C  21.28600 -4.40000 29.19300
C  21.01600 -4.40500 25.77200
O  20.84500 -4.20500 24.56100
C  22.08000 -5.35400 26.11900
N  17.60900 -0.04100 25.78200
C  18.19700 -0.77500 24.89100
C  17.72700 -0.42000 23.45100
C  16.64400 0.67600 23.66100
C  16.73400 0.84500 25.13900
C  18.87000 0.12500 22.46800
C  15.27600 0.31400 23.03900
C  14.91200 1.08400 21.70900
N  16.41400 1.50100 28.01700
C  15.82400 2.25200 27.07700
C  15.16300 3.43500 27.67700
C  15.41300 3.27200 29.05900
C  16.14700 2.02200 29.17800
C  14.49700 4.50500 26.84700
C  15.13100 3.75100 30.40100
O  14.35000 4.69800 30.78000
C  15.67300 2.74500 31.36000
C  16.67900 3.52700 32.10900
O  17.66300 4.04000 31.65600
O  16.22200 3.65800 33.42300
C  16.87200 4.58700 34.31100
H  19.94100 -2.72600 30.74000
H  19.61500 -2.32200 24.43000
H  15.35000 2.37200 25.07200
H  17.85300 1.18900 32.82700
H  18.39000 -1.83000 32.48400
H  20.42100 -1.33400 33.34400
H  19.84800 0.41600 33.55400
H  20.79700 -0.02800 32.28300
H  16.36300 -1.47800 33.19000
H  15.27500 -0.21400 32.69000
H  15.69400 -0.89000 35.22900
H  15.04100 0.51800 34.66600
H  20.64300 -5.18700 29.58600
H  21.63800 -3.72800 29.97500
H  22.15900 -4.88500 28.75600
H  22.81300 -4.58000 26.34500
H  22.44500 -5.89900 25.24900
H  21.71100 -5.91900 26.97500
H  17.38700 -1.41600 23.16700
H  16.93900 1.61500 23.19400
H  19.87300 -0.16900 22.77600
H  18.93000 1.21200 22.53300
H  18.63000 -0.28100 21.48600
H  14.55200 0.50000 23.83300
H  15.23200 -0.75800 22.84500
H  15.74700 1.53600 21.17400
H  14.26000 1.87700 22.07600
H  14.45300 0.44800 20.95100
H  13.50500 4.24300 26.48100
H  15.08200 4.92600 26.02900
H  14.37600 5.30200 27.58100
H  14.88800 2.38300 32.02400
H  17.61300 5.20600 33.80400
H  17.55500 4.02900 34.95100
H  16.18900 5.19100 34.90900

