158

Mg 7.15700 53.00800 41.40000
C  6.62600 49.67100 40.53500
C  10.32900 52.66200 40.24700
C  7.33300 56.30800 41.57300
C  3.92300 53.18100 42.75100
N  8.23700 51.40800 40.43300
C  7.89100 50.10500 40.20100
C  9.02900 49.24100 39.52400
C  10.27500 50.12200 39.92700
C  9.58200 51.52400 40.31900
C  11.05700 49.48300 41.11100
C  8.90400 49.01000 37.97600
C  8.63700 50.24200 37.09500
H  7.26300 50.17600 36.31100
N  8.56300 54.37300 40.86200
C  9.83700 54.01400 40.36700
C  10.59500 55.24400 40.24300
C  9.78900 56.27400 40.59100
C  8.52300 55.71200 41.06800
C  11.95800 55.28700 39.63400
C  10.22000 57.73300 40.70900
O  11.35600 58.02100 40.31700
C  9.31300 58.88900 41.26700
N  5.77900 54.51700 42.04700
C  6.17300 55.82200 42.02100
C  5.03300 56.77200 42.48100
C  4.12100 55.67500 43.16000
C  4.63300 54.36900 42.66300
C  5.38700 57.93600 43.46000
C  2.60900 55.95200 43.05000
C  1.85800 55.85100 41.75200
N  5.60500 51.69100 41.74400
C  4.34800 51.86900 42.33700
C  3.66600 50.61500 42.41600
C  4.53400 49.74000 41.67400
C  5.67400 50.41400 41.29400
C  2.32900 50.31100 42.96100
C  4.59500 48.37400 41.10600
O  3.73900 47.50800 41.17100
C  5.96900 48.28900 40.39300
C  5.75300 47.78700 39.00900
O  5.04600 48.34900 38.15800
O  6.43000 46.52900 38.89100
C  5.76300 45.78200 37.85800
H  11.38700 52.52500 40.01600
H  7.41500 57.39300 41.66800
H  2.98900 53.20700 43.31600
H  8.91600 48.26800 40.00300
H  10.81400 50.36300 39.01100
H  10.60800 48.54300 41.43200
H  11.03300 50.21500 41.91900
H  12.13700 49.36500 41.01200
H  8.08100 48.30000 37.89300
H  9.86900 48.66700 37.60400
H  9.42700 50.31000 36.34600
H  8.53500 51.17700 37.64600
H  12.09100 56.10200 38.92200
H  12.20600 54.48300 38.94100
H  12.75800 55.27200 40.37400
H  8.95100 58.63500 42.26300
H  8.51100 58.98100 40.53500
H  9.95200 59.77200 41.25700
H  4.48600 57.16600 41.62500
H  4.43400 55.56600 44.19900
H  6.45300 57.91300 43.68400
H  4.85300 57.89200 44.40900
H  5.04700 58.82000 42.92100
H  2.38200 56.90600 43.52500
H  2.15600 55.20300 43.69900
H  2.50000 55.68000 40.88800
H  1.41300 56.79100 41.42500
H  1.15000 55.03800 41.91100
H  1.94600 51.17000 43.51100
H  2.22900 49.46600 43.64300
H  1.81400 50.10500 42.02200
H  6.66400 47.60900 40.88600
H  6.22400 44.79600 37.91000
H  6.10800 46.24100 36.93100
H  4.69500 45.58500 37.94700
Mg -12.05700 16.63700 41.57200
C  -9.07000 14.87100 40.81900
C  -10.43400 19.47900 40.00700
C  -14.95100 18.17700 41.63200
C  -13.47500 13.66200 42.75900
N  -10.00400 17.15700 40.60300
C  -8.99700 16.27900 40.42900
C  -7.73400 16.91200 39.80000
C  -8.12500 18.38400 39.48900
C  -9.61800 18.35100 40.05100
C  -7.23100 19.48700 40.20900
C  -7.24100 16.17400 38.48500
C  -5.72200 16.15600 38.18800
H  -5.23100 16.97000 37.02700
N  -12.58100 18.52200 40.98600
C  -11.81900 19.57100 40.39500
C  -12.71100 20.62400 40.11400
C  -13.94500 20.41000 40.66300
C  -13.88300 19.00200 41.10600
C  -12.24800 21.79400 39.26700
C  -15.14200 21.38900 40.96000
O  -15.16100 22.56800 40.44300
C  -16.33600 21.05000 41.78900
N  -13.94700 15.98700 42.11000
C  -14.99300 16.85500 42.08500
C  -16.35500 16.01900 42.38200
C  -15.75600 14.54900 42.68800
C  -14.25800 14.75600 42.60200
C  -17.24900 16.71400 43.44400
C  -16.40400 13.46200 41.81100
C  -17.29400 12.53200 42.58200
N  -11.41700 14.72800 42.01100
C  -12.08600 13.60700 42.53100
C  -11.18800 12.53100 42.61200
C  -10.00700 13.02500 42.01600
C  -10.24600 14.29500 41.52400
C  -11.30500 11.20400 43.21500
C  -8.63200 12.53300 41.66800
O  -8.21000 11.40300 41.86100
C  -7.96800 13.80000 40.87400
C  -6.82100 14.24100 41.68900
O  -6.78200 14.58500 42.87800
O  -5.81200 14.28900 40.76700
C  -4.48500 14.48000 41.41800
H  -10.02400 20.32200 39.44800
H  -15.82600 18.68200 41.21800
H  -13.97700 12.82800 43.25400
H  -6.89300 16.86900 40.49200
H  -8.26900 18.71800 38.46200
H  -7.83000 20.16500 40.81700
H  -6.56900 20.00900 39.51900
H  -6.47400 19.03100 40.84700
H  -7.61900 16.66800 37.58900
H  -7.51500 15.12300 38.38800
H  -5.32600 15.14100 38.21700
H  -5.18300 16.49500 39.07300
H  -13.06400 21.96300 38.56400
H  -11.37800 21.46400 38.69900
H  -11.99200 22.68300 39.84400
H  -16.79600 22.00900 42.02800
H  -16.10300 20.54000 42.72400
H  -16.94600 20.51700 41.06000
H  -16.91700 15.99600 41.44800
H  -15.95400 14.27000 43.72300
H  -17.24500 17.79800 43.32600
H  -17.05900 16.41000 44.47300
H  -18.27600 16.50500 43.14400
H  -15.65400 12.85600 41.30300
H  -16.96400 13.95600 41.01700
H  -18.33400 12.61800 42.26800
H  -17.29000 12.84800 43.62500
H  -16.92400 11.51000 42.49600
H  -12.01900 11.32500 44.03000
H  -10.35500 10.90100 43.65600
H  -11.65200 10.43000 42.53000
H  -7.69800 13.25000 39.97300
H  -3.75700 14.36800 40.61400
H  -4.35000 13.81600 42.27200
H  -4.24300 15.48700 41.75700

