158

Mg 2.18200 -2.09900 44.92200
C  5.45200 -0.78400 44.83300
C  1.19000 0.80300 43.39800
C  -0.79300 -3.50600 44.59700
C  3.58700 -5.19500 45.97300
N  3.28800 -0.22100 44.00500
C  4.56900 0.08500 44.17200
C  4.92400 1.49600 43.69800
C  3.42200 2.09300 43.57700
C  2.55200 0.85000 43.64100
C  3.08500 3.03600 44.73300
C  5.76400 1.55300 42.35900
C  5.29700 0.73000 41.16100
H  5.06000 1.48400 39.85200
N  0.39200 -1.47600 44.12300
C  0.20800 -0.23000 43.47800
C  -1.17700 -0.08800 43.16800
C  -1.79000 -1.36400 43.50000
C  -0.70600 -2.16300 44.09900
C  -1.74900 1.19600 42.47900
C  -3.21700 -1.64200 43.37300
O  -3.90300 -0.74400 42.83900
C  -3.77600 -2.92800 43.69600
N  1.54900 -4.16700 45.20000
C  0.17600 -4.42900 45.07500
C  -0.07800 -5.87200 45.55400
C  1.34800 -6.41100 45.91100
C  2.21700 -5.20800 45.65300
C  -1.07000 -5.92400 46.72800
C  1.77100 -7.62000 44.98200
C  2.26300 -8.98200 45.66400
N  4.10100 -2.92900 45.39400
C  4.54400 -4.13400 45.77900
C  5.98400 -4.13900 46.07800
C  6.37500 -2.76900 45.69000
C  5.21200 -2.09900 45.30600
C  6.80100 -5.34200 46.56900
C  7.45100 -1.88300 45.48500
O  8.65200 -2.00100 45.68500
C  6.93700 -0.57600 45.05500
C  7.23900 0.28800 46.24100
O  6.73500 0.18900 47.33900
O  8.05200 1.29200 45.88500
C  8.48800 2.27200 46.85700
H  0.85700 1.79800 43.09800
H  -1.74800 -4.02400 44.70000
H  3.98700 -6.08900 46.45600
H  5.58700 1.92700 44.44800
H  3.24300 2.56300 42.61000
H  3.13100 4.09800 44.49300
H  3.86400 2.85600 45.47400
H  2.12000 2.79800 45.18000
H  6.69900 1.07900 42.65500
H  5.96500 2.58400 42.06800
H  4.47100 0.09500 41.48200
H  6.14800 0.06600 41.01400
H  -2.27600 1.89300 43.13100
H  -2.34300 0.83000 41.64200
H  -0.91300 1.75700 42.06100
H  -4.75100 -2.98900 43.21400
H  -3.68400 -3.16700 44.75600
H  -3.18500 -3.63000 43.10800
H  -0.40800 -6.47000 44.70400
H  1.30800 -6.63100 46.97800
H  -1.57300 -6.88500 46.62000
H  -1.81800 -5.13200 46.70900
H  -0.62200 -5.97400 47.72000
H  2.58100 -7.30800 44.32300
H  1.03100 -7.76200 44.19400
H  2.63100 -8.87800 46.68500
H  3.08500 -9.25000 45.00000
H  1.43200 -9.68700 45.64300
H  7.22600 -5.77200 45.66100
H  6.11800 -6.09400 46.96300
H  7.47300 -4.89300 47.30000
H  7.52500 -0.27000 44.19000
H  9.56300 2.40100 46.73200
H  8.31700 2.11700 47.92200
H  8.12100 3.24400 46.52800
Mg -6.31300 24.61200 26.53700
C  -4.68500 25.90200 29.41000
C  -7.97000 22.42500 28.48900
C  -7.37400 22.97600 23.73600
C  -3.75300 26.20200 24.53900
N  -6.21800 24.12000 28.68300
C  -5.71500 24.93800 29.69400
C  -6.35700 24.70600 31.08500
C  -7.07100 23.38200 30.80300
C  -7.01800 23.21700 29.20100
C  -6.58900 22.10400 31.57900
C  -7.32400 25.96100 31.43000
C  -7.76800 25.98800 32.89900
H  -7.38900 24.78400 33.84800
N  -7.78500 23.10200 26.13900
C  -8.31500 22.32100 27.10800
C  -9.27900 21.45000 26.51100
C  -9.14200 21.67900 25.11800
C  -8.09400 22.63700 24.90700
C  -10.24100 20.54900 27.24500
C  -9.99700 21.11700 23.97200
O  -9.85000 21.36500 22.78000
C  -10.97700 20.08300 24.19500
N  -5.57400 24.44700 24.51900
C  -6.27500 23.79900 23.56300
C  -5.74600 24.07200 22.09800
C  -4.63500 25.14800 22.37600
C  -4.63900 25.26600 23.91400
C  -5.29600 22.80500 21.28600
C  -4.80100 26.53700 21.60700
C  -3.50900 27.26800 21.13100
N  -4.51100 25.74000 26.88300
C  -3.65600 26.42900 25.94800
C  -2.80600 27.30300 26.78900
C  -3.14900 27.04800 28.06700
C  -4.15300 26.15600 28.15300
C  -1.76300 28.30400 26.42300
C  -2.97300 27.57200 29.44700
O  -2.11600 28.36900 29.90800
C  -3.89000 26.80600 30.40400
C  -3.01100 26.07800 31.37800
O  -2.57700 24.97700 31.17900
O  -2.57400 27.00800 32.36600
C  -1.66200 26.42900 33.37200
H  -8.51900 21.74300 29.14100
H  -7.64000 22.48800 22.79600
H  -3.02500 26.69400 23.89000
H  -5.60300 24.64600 31.87000
H  -8.12100 23.46200 31.08200
H  -6.27100 21.34300 30.86700
H  -7.41800 21.78200 32.20900
H  -5.67600 22.29900 32.14100
H  -8.17900 25.83800 30.76500
H  -6.79200 26.89100 31.22900
H  -8.85800 25.96800 32.92400
H  -7.46100 26.92800 33.35700
H  -9.78300 19.57300 27.40800
H  -11.26200 20.61700 26.87200
H  -10.32500 21.00900 28.23000
H  -10.54900 19.36700 24.89700
H  -11.24300 19.50400 23.31000
H  -11.89300 20.39300 24.69700
H  -6.63300 24.41900 21.56700
H  -3.67000 24.70300 22.13400
H  -5.57300 21.91000 21.84300
H  -4.23100 22.82700 21.05200
H  -5.85600 22.60400 20.37300
H  -5.31400 27.21400 22.29000
H  -5.51900 26.40200 20.79800
H  -3.52200 27.37600 20.04600
H  -2.55600 26.75100 21.24900
H  -3.39500 28.27800 21.52300
H  -1.80400 28.60800 25.37700
H  -0.80400 27.88300 26.72600
H  -1.97000 29.21900 26.97900
H  -4.55900 27.43300 30.99300
H  -1.74700 25.36000 33.57100
H  -1.90300 26.84500 34.35000
H  -0.59800 26.55600 33.17300

