158

Mg 9.04500 3.73400 28.24100
C  10.56100 2.03700 30.90200
C  7.45000 5.81600 30.31900
C  7.49500 5.32800 25.58100
C  10.09800 1.19700 26.02400
N  9.14200 3.92700 30.31200
C  9.80500 3.21700 31.23600
C  9.64800 3.87900 32.70200
C  8.51300 4.83800 32.47700
C  8.38700 4.95800 30.95600
C  7.08800 4.45100 33.11600
C  10.93300 4.48200 33.33900
C  11.52800 3.78300 34.59300
H  11.83400 4.65000 35.80100
N  7.72000 5.43200 28.01600
C  7.09200 6.07200 29.00000
C  6.27700 7.14500 28.47900
C  6.26300 7.06400 27.07800
C  7.25300 5.95500 26.79400
C  5.41100 8.03800 29.32200
C  5.62900 7.92400 26.03500
O  5.84400 7.81500 24.80400
C  4.66900 9.11600 26.41200
N  8.69200 3.26500 26.10100
C  8.10700 4.09800 25.24100
C  8.17000 3.57300 23.74900
C  9.23300 2.45500 23.93400
C  9.29100 2.28400 25.44900
C  6.76600 3.20900 23.13800
C  10.68200 2.78800 23.42800
C  11.42300 1.59400 22.79100
N  10.14400 2.00100 28.39000
C  10.47900 1.04800 27.40600
C  11.27100 0.04500 28.03800
C  11.31000 0.37100 29.41600
C  10.67200 1.56000 29.54700
C  11.90200 -1.10400 27.39100
C  11.84100 0.02200 30.71200
O  12.60700 -0.88900 30.98200
C  11.30100 1.07700 31.76200
C  10.51400 0.44700 32.86500
O  9.35100 0.06100 32.77200
O  11.42800 0.28300 33.81300
C  10.93600 -0.20300 35.11700
H  6.99400 6.52300 31.01400
H  7.14200 5.85000 24.68900
H  10.35700 0.44200 25.27900
H  9.23700 3.06200 33.29400
H  8.78200 5.80600 32.90000
H  7.13800 4.67000 34.18200
H  6.81300 3.40900 32.95000
H  6.26700 5.02900 32.69000
H  10.78700 5.54700 33.51900
H  11.70600 4.49600 32.57000
H  12.52700 3.43900 34.32500
H  10.86400 2.94600 34.80900
H  5.84600 9.02800 29.17800
H  5.59900 7.91600 30.38800
H  4.32200 8.01500 29.30300
H  4.34700 9.62000 25.50100
H  5.18700 9.86600 27.01000
H  3.73800 8.78400 26.87100
H  8.43400 4.46800 23.18500
H  8.80100 1.53200 23.54700
H  5.91500 3.64000 23.66400
H  6.56500 2.13800 23.15300
H  6.62900 3.77000 22.21300
H  11.30700 3.15100 24.24400
H  10.59700 3.60900 22.71700
H  10.95000 0.64900 23.05900
H  12.46700 1.60500 23.10600
H  11.40700 1.59500 21.70100
H  12.97300 -0.90400 27.38900
H  11.56700 -1.29100 26.37100
H  11.78500 -1.93900 28.08200
H  12.11200 1.59200 32.27800
H  10.53200 0.58900 35.74700
H  11.81000 -0.63100 35.61000
H  10.20700 -1.00900 35.03100
Mg 42.33600 41.43000 26.50600
C  41.71600 43.65100 29.13800
C  43.24900 38.95900 28.79200
C  43.23900 39.53600 23.90100
C  41.37800 43.95300 24.39600
N  42.53000 41.35500 28.72400
C  42.18400 42.39900 29.63900
C  42.13100 41.84300 31.07800
C  42.85900 40.47100 30.91700
C  42.82300 40.16700 29.39300
C  44.16000 40.34800 31.60600
C  40.67300 41.71600 31.62000
C  40.36000 42.81500 32.72600
H  39.79600 42.34700 34.08000
N  43.22000 39.51900 26.40900
C  43.44200 38.60700 27.41300
C  43.98100 37.38900 26.80700
C  43.95700 37.53700 25.36900
C  43.38000 38.86800 25.15300
C  44.38900 36.08700 27.63300
C  44.43000 36.66100 24.29000
O  44.36200 36.94200 23.10300
C  45.18800 35.42000 24.63500
N  42.50800 41.73500 24.41900
C  42.78300 40.78400 23.53400
C  42.56700 41.25400 22.06300
C  41.86600 42.59700 22.25900
C  41.94000 42.74900 23.74800
C  43.81300 41.15900 21.18400
C  40.41000 42.66200 21.75500
C  39.29900 42.06900 22.62000
N  41.64500 43.37000 26.69700
C  41.39900 44.32300 25.72200
C  40.97100 45.59100 26.31700
C  41.06500 45.36100 27.68300
C  41.52900 44.03400 27.83600
C  40.39300 46.81400 25.58500
C  40.75100 45.91500 28.92400
O  40.19900 46.94500 29.29800
C  41.16300 44.82100 29.97400
C  42.15900 45.38600 30.98000
O  43.37200 45.36900 30.87400
O  41.49300 45.75300 32.17200
C  42.30400 46.29800 33.22500
H  43.42000 38.17800 29.53500
H  43.47400 39.01300 22.97100
H  41.16500 44.76100 23.69300
H  42.64800 42.56100 31.71600
H  42.25300 39.72800 31.43500
H  44.50300 41.37200 31.75100
H  44.86900 39.91200 30.90300
H  44.11600 39.86500 32.58300
H  40.54100 40.75600 32.11800
H  39.96100 41.89300 30.81300
H  39.55500 43.38000 32.25600
H  41.18100 43.50200 32.92800
H  43.65700 35.29700 27.46300
H  44.25200 36.46800 28.64500
H  45.45100 35.86800 27.52100
H  44.50900 34.63400 24.96500
H  45.99800 35.67000 25.32000
H  45.70100 35.09300 23.73100
H  41.85300 40.52500 21.68000
H  42.43900 43.35300 21.72300
H  43.85200 42.13900 20.70800
H  43.67500 40.27600 20.55900
H  44.73100 41.07900 21.76700
H  40.39600 42.18400 20.77600
H  40.25800 43.73700 21.65900
H  39.09700 42.76900 23.43100
H  39.62200 41.19400 23.18400
H  38.42100 41.63300 22.14200
H  40.70000 46.79500 24.53900
H  40.81900 47.64800 26.14300
H  39.30600 46.88900 25.57100
H  40.34700 44.41100 30.56800
H  43.19300 46.85700 32.93100
H  42.61900 45.63200 34.02800
H  41.71200 47.11000 33.64700

