158

Mg 54.36000 25.52500 45.85900
C  51.87700 27.72100 44.45500
C  52.81800 22.91400 44.16200
C  57.20300 23.66900 46.25400
C  55.91400 28.19300 47.25300
N  52.68300 25.34800 44.31700
C  51.84400 26.34100 44.00500
C  50.75800 25.77400 42.95500
C  50.84800 24.21000 43.10100
C  52.11300 24.10200 43.90800
C  49.63700 23.62300 43.90400
C  50.96900 26.25200 41.41100
C  52.30700 26.59600 40.93500
H  52.82200 25.69600 39.75500
N  54.92100 23.51000 45.36800
C  54.11700 22.62600 44.69200
C  54.75400 21.30200 44.66900
C  55.95000 21.46000 45.39700
C  56.05900 22.94200 45.76300
C  54.07400 20.04800 44.18000
C  56.95300 20.33300 45.70300
O  56.80700 19.23300 45.22900
C  58.09800 20.45900 46.62300
N  56.39000 25.90800 46.41100
C  57.36300 24.95600 46.64400
C  58.67700 25.66400 47.05800
C  58.13900 27.07400 47.52800
C  56.66600 27.01400 47.16700
C  59.62600 24.93800 48.08000
C  58.89700 28.34500 46.96000
C  59.03800 28.69300 45.52100
N  53.94200 27.58800 45.96400
C  54.66700 28.53200 46.63200
C  53.95100 29.84100 46.57900
C  52.79700 29.54200 45.73600
C  52.92600 28.20400 45.32700
C  54.38600 31.10500 47.22400
C  51.61600 30.10200 45.06600
O  51.08200 31.20600 45.07800
C  50.92000 28.92400 44.30400
C  50.77200 29.24000 42.89200
O  51.71100 29.64400 42.23000
O  49.45500 29.06300 42.49100
C  49.12700 29.65100 41.17600
H  52.31100 21.99400 43.86200
H  58.12900 23.09200 46.21400
H  56.27700 29.13000 47.68000
H  49.83000 26.25000 43.27100
H  50.96200 23.71200 42.13800
H  49.97600 23.19700 44.84900
H  49.14400 22.83400 43.33600
H  48.94000 24.41600 44.17700
H  50.35200 27.13800 41.26500
H  50.51000 25.55300 40.71300
H  53.02600 26.52300 41.75200
H  52.20000 27.60500 40.53800
H  54.78500 19.30300 43.82300
H  53.41800 20.26100 43.33600
H  53.57600 19.48700 44.97000
H  58.52000 19.45900 46.72300
H  57.67100 20.86900 47.53800
H  58.88000 21.09800 46.21400
H  59.27200 25.87000 46.16800
H  58.06500 27.17100 48.61100
H  59.89700 25.46900 48.99300
H  60.57800 24.68400 47.61500
H  59.23800 23.98900 48.44900
H  59.91100 28.05500 47.23700
H  58.61000 29.28000 47.44100
H  58.47600 27.93800 44.97000
H  60.09700 28.57800 45.29000
H  58.71100 29.71600 45.34000
H  53.62000 31.87800 47.15700
H  55.31400 31.43100 46.75500
H  54.53400 30.86700 48.27800
H  49.98500 28.72500 44.82800
H  49.05800 30.73700 41.24000
H  48.14000 29.33200 40.84100
H  49.90600 29.47800 40.43400
Mg 30.73800 58.62800 40.42800
C  27.89500 56.75400 39.21200
C  32.80700 56.09300 39.19400
C  33.24200 60.65800 40.75800
C  28.31900 61.28700 40.92800
N  30.31200 56.66900 39.18500
C  29.10900 56.13700 38.92900
C  29.34000 54.75700 38.28900
C  30.86400 54.38800 38.58200
C  31.42600 55.77400 38.99500
C  31.03700 53.25700 39.63600
C  28.91200 54.87300 36.72300
C  28.04900 53.73900 36.19800
H  27.11400 54.07600 35.04900
N  32.74700 58.36600 40.09300
C  33.46200 57.32200 39.57100
C  34.83100 57.59500 39.55400
C  35.06600 58.96700 39.80500
C  33.66800 59.45100 40.24500
C  35.85000 56.55600 39.26300
C  36.36600 59.82900 39.66800
O  37.40600 59.33800 39.25400
C  36.37800 61.18900 40.29800
N  30.77400 60.72200 40.83500
C  32.01500 61.31000 40.91300
C  31.88000 62.83300 41.16200
C  30.32400 62.94200 41.42500
C  29.71700 61.59100 41.02900
C  32.77500 63.42700 42.30500
C  29.67100 64.12800 40.65100
C  28.51200 64.82700 41.30900
N  28.55500 59.00900 40.25000
C  27.75600 60.07500 40.50600
C  26.35800 59.76700 40.19700
C  26.37400 58.46600 39.77200
C  27.73100 58.06200 39.72800
C  25.28100 60.81300 40.24100
C  25.52400 57.38700 39.27100
O  24.29700 57.23900 39.12200
C  26.51200 56.18300 38.90800
C  26.22600 55.03900 39.76100
O  26.60300 55.06000 40.98500
O  25.54500 54.06100 39.09800
C  24.97000 52.93800 39.86400
H  33.53000 55.34400 38.86400
H  33.93200 61.48200 40.95000
H  27.55700 62.00400 41.24000
H  28.61500 54.08800 38.75200
H  31.35700 54.10500 37.65200
H  30.41600 52.39000 39.41300
H  30.93000 53.70000 40.62700
H  32.03100 52.81700 39.55200
H  29.84000 54.90300 36.15100
H  28.41700 55.81500 36.48600
H  27.34300 53.32500 36.91800
H  28.63600 52.88900 35.84900
H  35.52700 56.13700 38.30900
H  35.77500 55.80200 40.04600
H  36.79800 57.07200 39.11000
H  35.97100 61.12600 41.30700
H  35.87300 61.94800 39.70000
H  37.43900 61.43900 40.31200
H  32.23300 63.23500 40.21300
H  30.10600 63.16000 42.47000
H  33.42800 62.59800 42.58000
H  32.16800 63.71200 43.16400
H  33.35500 64.25200 41.89300
H  29.37000 63.77000 39.66600
H  30.42200 64.87200 40.38400
H  27.63300 64.61200 40.70100
H  28.63600 65.90900 41.32600
H  28.41400 64.47100 42.33400
H  24.36200 60.27100 40.01700
H  25.48600 61.61500 39.53200
H  25.33300 61.26900 41.22900
H  26.38600 56.04400 37.83400
H  24.71300 53.28200 40.86600
H  25.71100 52.13900 39.82000
H  23.98700 52.62900 39.50700

