158

Mg 17.60600 -0.55900 27.31000
C  16.16600 1.07100 30.09000
C  19.36700 -2.57200 29.33000
C  18.68700 -1.78900 24.58600
C  15.80800 1.83800 25.28500
N  17.81700 -0.64300 29.53800
C  17.08300 0.05300 30.48700
C  17.62400 -0.34300 31.95600
C  18.65200 -1.55900 31.59400
C  18.61800 -1.67900 30.06100
C  20.09700 -1.38000 32.07000
C  16.54200 -0.72900 33.02200
C  16.56300 -0.04300 34.43400
H  17.84300 0.60500 34.99600
N  18.86200 -1.96000 27.03300
C  19.45700 -2.70600 27.98200
C  20.33600 -3.64800 27.28100
C  20.12000 -3.53700 25.89800
C  19.13000 -2.39800 25.77700
C  21.21300 -4.70300 28.03500
C  20.42200 -4.44500 24.76200
O  20.00200 -4.19100 23.64800
C  21.26800 -5.69800 25.03500
N  17.38300 0.07800 25.23700
C  17.86400 -0.69400 24.31600
C  17.77900 -0.14300 22.87100
C  16.67800 1.02700 23.15400
C  16.68500 1.04900 24.64400
C  19.24300 0.40500 22.41800
C  15.27000 0.79100 22.48100
C  14.20300 -0.09300 23.19700
N  16.21600 1.04400 27.54200
C  15.58200 1.90100 26.63600
C  14.71000 2.73200 27.31000
C  14.84600 2.43600 28.68500
C  15.79800 1.39700 28.72800
C  13.87300 3.69100 26.69800
C  14.39100 2.74900 30.04800
O  13.51700 3.52400 30.50100
C  15.33100 1.97500 30.98000
C  16.22700 2.82300 31.74000
O  17.29100 3.33100 31.41300
O  15.53600 3.13800 32.87400
C  16.21600 4.03700 33.78500
H  20.09300 -3.19100 29.86000
H  18.99700 -2.15400 23.60500
H  15.18000 2.50000 24.68300
H  18.27700 0.44600 32.32900
H  18.27400 -2.53200 31.90800
H  20.38700 -2.33900 32.49700
H  20.22600 -0.50500 32.70800
H  20.78600 -1.15400 31.25600
H  16.52500 -1.79600 33.24300
H  15.54400 -0.66300 32.58900
H  16.25500 -0.73700 35.21700
H  15.77300 0.68900 34.26600
H  22.14800 -4.76200 27.47900
H  20.64000 -5.62900 28.08800
H  21.56900 -4.32500 28.99300
H  22.28500 -5.32800 25.16600
H  21.19800 -6.28900 24.12200
H  21.02900 -6.28500 25.92300
H  17.45200 -0.94700 22.21100
H  17.04100 2.00200 22.82800
H  20.07100 0.21400 23.10100
H  19.17600 1.47500 22.22100
H  19.51600 -0.11200 21.49800
H  15.37600 0.40100 21.46900
H  14.87900 1.77400 22.22100
H  13.48700 -0.53100 22.50200
H  13.59500 0.59500 23.78300
H  14.69300 -0.93300 23.69000
H  14.40400 4.51600 26.22400
H  13.32800 4.21100 27.48600
H  13.23000 3.34200 25.89000
H  14.81900 1.29700 31.66300
H  15.54400 4.77200 34.22900
H  17.01900 4.58600 33.29300
H  16.71000 3.42700 34.54100
Mg 9.44500 47.97500 26.60400
C  7.57000 47.71900 29.51700
C  12.11600 49.28500 28.45700
C  11.20100 48.14800 23.80500
C  6.52900 47.44000 24.69700
N  9.73200 48.48500 28.76800
C  8.91300 48.16300 29.77300
C  9.47600 48.64200 31.21500
C  10.85400 49.32200 30.76500
C  10.89200 49.06600 29.20100
C  10.93800 50.84200 30.90900
C  9.64700 47.47700 32.31100
C  9.12300 47.67100 33.77900
H  9.37100 46.47100 34.80100
N  11.37000 48.57800 26.15700
C  12.33800 49.03300 27.06400
C  13.55900 49.13000 26.34000
C  13.36400 48.75100 24.98700
C  11.94500 48.48800 24.94400
C  14.83400 49.63100 27.09000
C  14.39900 48.57700 23.87300
O  14.04900 48.16100 22.74900
C  15.82600 48.71100 24.19200
N  8.90200 48.00000 24.54000
C  9.84300 47.93200 23.61600
C  9.29500 47.48400 22.24500
C  7.72400 47.41700 22.43400
C  7.68500 47.63600 23.96000
C  9.65000 48.35500 21.04300
C  7.01400 46.14900 21.82800
C  6.81600 44.90300 22.75500
N  7.44100 47.59800 26.97100
C  6.35600 47.49200 26.10500
C  5.16800 47.15500 26.90300
C  5.65200 47.24800 28.26200
C  6.97400 47.57600 28.21900
C  3.81400 46.91900 26.38500
C  5.26100 47.07100 29.62200
O  4.17700 46.86600 30.15400
C  6.48300 47.29000 30.51700
C  6.73900 45.99400 31.21900
O  7.25200 44.99500 30.78300
O  6.36000 46.15700 32.51400
C  6.22900 44.87500 33.17700
H  13.04600 49.58600 28.94400
H  11.81800 47.89600 22.93900
H  5.70000 47.12700 24.05900
H  8.92000 49.46700 31.66000
H  11.73600 48.89600 31.24300
H  11.95000 51.20500 30.72600
H  10.56500 51.08500 31.90400
H  10.12300 51.29900 30.34800
H  10.72500 47.31600 32.33400
H  9.21200 46.59900 31.83300
H  8.03400 47.63800 33.83300
H  9.42100 48.64100 34.17600
H  15.37100 48.73700 27.40800
H  14.63500 50.32300 27.90800
H  15.66000 50.07800 26.53600
H  16.30400 48.50000 23.23500
H  16.21400 47.94100 24.85800
H  16.01200 49.71400 24.57600
H  9.70200 46.48600 22.07800
H  7.20700 48.22500 21.91600
H  9.97600 49.33300 21.39700
H  8.73300 48.45700 20.46300
H  10.51200 47.92600 20.53300
H  7.56800 45.89300 20.92500
H  6.03500 46.54800 21.56200
H  7.45100 44.89000 23.64100
H  6.98600 43.90400 22.35200
H  5.75200 44.88900 22.98800
H  3.25800 47.85400 26.45600
H  3.29000 46.23000 27.04800
H  3.95200 46.65900 25.33500
H  6.24200 48.08200 31.22500
H  6.82800 44.01600 32.87400
H  5.19700 44.52700 33.12800
H  6.54700 45.12400 34.18900

