158

Mg 47.02000 16.71300 28.23200
C  45.24000 16.15500 31.19500
C  48.97700 18.94100 29.98200
C  48.69900 17.40200 25.33300
C  44.64400 14.98700 26.44600
N  47.02200 17.48400 30.36900
C  46.32400 17.00300 31.38000
C  46.87600 17.49000 32.75000
C  48.11300 18.42200 32.22900
C  48.00400 18.26700 30.76100
C  48.06100 19.85600 32.67300
C  47.33700 16.38300 33.66000
C  46.97200 16.47000 35.15200
H  47.55300 17.65700 35.94100
N  48.59500 17.97500 27.66100
C  49.24600 18.86900 28.55600
C  50.08100 19.76700 27.84600
C  50.02500 19.30300 26.53700
C  49.14600 18.16200 26.44300
C  50.98400 20.84900 28.46900
C  50.88100 19.83500 25.29100
O  50.68600 19.32900 24.13200
C  51.89600 20.91100 25.40000
N  46.89800 16.04300 26.25500
C  47.74200 16.42500 25.27500
C  47.16700 15.89200 23.94600
C  45.92300 15.05100 24.31500
C  45.77000 15.41000 25.77700
C  46.88200 16.85800 22.76200
C  46.01300 13.53700 24.01600
C  46.22800 12.95300 22.60900
N  45.26900 15.71000 28.64000
C  44.37400 15.08600 27.85900
C  43.23700 14.65600 28.66700
C  43.59800 15.03300 29.97400
C  44.85100 15.67900 29.90600
C  42.04200 13.92100 28.23900
C  43.08900 15.01600 31.32700
O  42.02700 14.56300 31.76200
C  44.16000 15.80600 32.21500
C  43.55200 17.02200 32.91000
O  42.91900 17.85800 32.29300
O  43.73100 16.97600 34.26500
C  43.03400 18.02600 34.98500
H  49.59700 19.63200 30.55700
H  49.10800 17.60200 24.34000
H  43.81200 14.56500 25.87800
H  46.11200 18.18500 33.09900
H  49.08100 18.06400 32.57900
H  48.90100 19.94800 33.36100
H  47.21000 20.00400 33.33700
H  48.13700 20.63400 31.91300
H  48.42100 16.26700 33.65500
H  47.01700 15.43700 33.22300
H  47.02100 15.47000 35.58100
H  45.90900 16.71000 35.17000
H  50.87000 21.70200 27.80000
H  52.01300 20.52000 28.61400
H  50.62000 21.11800 29.46000
H  51.29900 21.80100 25.59800
H  52.55300 20.85000 24.53200
H  52.52700 20.63700 26.24600
H  47.89600 15.14200 23.63900
H  45.01900 15.52900 23.93800
H  47.42400 17.77800 22.97900
H  45.83700 17.09900 22.56400
H  47.34800 16.48000 21.85200
H  45.11300 13.18100 24.51800
H  46.73700 13.10500 24.70700
H  47.06100 12.25500 22.51800
H  46.59800 13.65700 21.86300
H  45.28300 12.53200 22.26700
H  42.26700 13.66300 27.20400
H  41.25000 14.66800 28.18600
H  41.88300 13.07800 28.91100
H  44.54200 15.13400 32.98300
H  43.21600 18.99500 34.52100
H  43.43200 18.04900 35.99900
H  41.96400 17.91700 35.16500
Mg 1.27300 42.07200 26.41600
C  2.46100 42.12300 29.65700
C  -1.93300 41.55500 27.64000
C  0.26600 41.29300 23.35100
C  4.60900 42.54500 25.18900
N  0.32100 41.62700 28.42400
C  1.05100 41.84600 29.61900
C  0.05900 41.85200 30.88500
C  -1.21900 41.33100 30.14900
C  -0.93000 41.52000 28.63400
C  -1.74600 39.88700 30.45800
C  0.04900 43.25200 31.57700
C  -0.45600 43.32400 33.04900
H  -0.76700 42.02100 33.81300
N  -0.56000 41.48700 25.58400
C  -1.76800 41.43500 26.24400
C  -2.80900 41.33900 25.24500
C  -2.12700 41.08100 23.97000
C  -0.72500 41.24400 24.24800
C  -4.30600 41.42700 25.60900
C  -2.71300 40.63400 22.67200
O  -2.01600 40.33400 21.72400
C  -4.25300 40.60900 22.44600
N  2.37400 41.82400 24.51900
C  1.60900 41.60100 23.37300
C  2.54200 41.60800 22.14800
C  3.85200 42.31200 22.65700
C  3.65100 42.20300 24.21500
C  2.65500 40.42600 21.25300
C  3.95100 43.77100 22.30700
C  4.77900 44.11000 21.04900
N  3.15100 42.26300 27.16100
C  4.38600 42.51700 26.56600
C  5.42700 42.55400 27.61300
C  4.67200 42.51700 28.81600
C  3.31400 42.27900 28.48100
C  6.92800 42.71600 27.36300
C  4.81200 42.52500 30.22900
O  5.75300 42.68000 30.95300
C  3.43100 42.15200 30.89400
C  3.51100 40.85100 31.66900
O  3.68300 39.70900 31.15600
O  3.61000 41.15600 32.96900
C  3.75300 40.09400 33.92900
H  -2.97100 41.55300 27.98200
H  -0.04400 41.22800 22.30600
H  5.61100 42.73100 24.79600
H  0.49600 41.08300 31.52300
H  -2.02700 42.03400 30.35400
H  -2.71800 40.00300 30.93600
H  -1.08800 39.39500 31.17400
H  -1.74900 39.30700 29.53500
H  -0.58100 43.99400 31.08700
H  1.06600 43.64100 31.63600
H  -1.34700 43.95200 33.05500
H  0.30000 43.90000 33.58400
H  -4.74600 40.43000 25.63800
H  -4.81500 42.17200 24.99800
H  -4.48800 41.84900 26.59700
H  -4.75400 41.57500 22.51100
H  -4.69200 40.04900 23.27200
H  -4.38800 40.13100 21.47500
H  2.19600 42.33600 21.41400
H  4.75500 41.71700 22.51600
H  3.59900 39.97000 21.55500
H  2.55500 40.75200 20.21800
H  1.85400 39.69900 21.38700
H  4.51600 44.27400 23.09100
H  2.99000 44.28400 22.34500
H  5.55100 43.37600 20.81900
H  5.32300 45.05400 21.05500
H  4.10100 44.22300 20.20300
H  7.32900 41.72600 27.14600
H  7.36900 42.97000 28.32700
H  7.17700 43.50100 26.65000
H  3.28800 42.99800 31.56600
H  4.76100 40.13300 34.34200
H  3.61600 39.10600 33.49100
H  3.03200 40.21300 34.73800

