158

Mg 36.02000 0.69900 30.82400
C  33.49700 1.97800 32.80500
C  38.19100 0.81700 33.61900
C  38.58400 -0.17600 28.74800
C  33.84500 0.91800 28.08200
N  35.83900 1.49600 32.86300
C  34.71400 1.90100 33.49600
C  34.94600 1.96500 35.06400
C  36.52700 1.81400 35.16100
C  36.89400 1.32800 33.80400
C  37.16200 3.13400 35.45000
C  34.21800 0.79700 35.79800
C  33.76400 1.10400 37.20200
H  34.31400 2.33800 37.99700
N  38.09600 0.35500 31.13000
C  38.77000 0.33100 32.37200
C  40.10200 -0.16700 32.09000
C  40.26200 -0.49800 30.75100
C  38.96400 -0.12500 30.13700
C  41.11900 -0.26800 33.18800
C  41.44800 -1.07800 30.06400
O  41.35000 -1.28300 28.86900
C  42.66800 -1.58800 30.84800
N  36.19500 0.48000 28.77600
C  37.35800 0.12400 28.14400
C  37.06000 0.00400 26.59200
C  35.55400 0.18600 26.47600
C  35.12700 0.55600 27.86100
C  37.78400 1.03100 25.62000
C  34.85100 -1.17100 26.02400
C  33.82800 -1.11700 24.93000
N  34.04600 1.22200 30.50400
C  33.27600 1.24300 29.31500
C  31.93300 1.68200 29.59800
C  31.93300 1.96400 31.01200
C  33.28300 1.76000 31.47900
C  30.92600 1.85900 28.56800
C  31.15400 2.32200 32.20700
O  29.97200 2.50100 32.44400
C  32.17600 2.38500 33.45800
C  31.97400 3.67600 34.09800
O  32.46000 4.72400 33.66300
O  31.38700 3.49800 35.33400
C  31.16600 4.85400 35.90600
H  38.81500 0.82100 34.51600
H  39.37400 -0.35400 28.01600
H  33.16500 0.92000 27.22700
H  34.56800 2.92000 35.43000
H  36.88300 1.12700 35.92800
H  37.86500 3.00300 36.27200
H  36.42800 3.88300 35.75000
H  37.64000 3.48300 34.53500
H  34.94500 -0.00400 35.93000
H  33.34800 0.42100 35.25900
H  33.95600 0.20300 37.78400
H  32.68000 1.20600 37.25300
H  40.96700 0.46700 33.97900
H  42.03000 0.12400 32.73600
H  41.17600 -1.32900 33.43000
H  43.36500 -0.81300 31.16700
H  43.21900 -2.20200 30.13600
H  42.23900 -2.25900 31.59300
H  37.41300 -1.01200 26.41500
H  35.27800 0.93900 25.73800
H  37.14000 1.88800 25.42200
H  38.22600 0.55700 24.74400
H  38.65900 1.42700 26.13500
H  34.31200 -1.67700 26.82400
H  35.61900 -1.80600 25.58200
H  34.01800 -1.80200 24.10400
H  33.77700 -0.11300 24.51000
H  32.88300 -1.43200 25.37300
H  30.77600 0.85400 28.17300
H  31.33100 2.59200 27.87000
H  30.08500 2.31100 29.09400
H  31.75600 1.61800 34.10900
H  31.96100 5.11900 36.60200
H  30.29400 4.91500 36.55800
H  31.02300 5.68700 35.21800
Mg 16.12500 50.95100 25.34900
C  17.81000 50.03400 28.23700
C  13.44400 51.79600 27.32600
C  14.23900 51.37100 22.54400
C  18.77200 49.74300 23.44700
N  15.75700 51.13600 27.53900
C  16.66500 50.75700 28.53200
C  16.19400 51.15100 29.96700
C  14.68600 51.54000 29.70400
C  14.57900 51.56200 28.12200
C  13.68400 50.63800 30.41700
C  17.04900 52.16300 30.61600
C  17.27000 51.87900 32.14800
H  16.29100 51.16400 33.09300
N  14.06000 51.54600 25.02200
C  13.13000 51.74400 25.96400
C  11.87700 52.06400 25.37700
C  12.03700 51.94800 23.95700
C  13.45700 51.55800 23.82100
C  10.76700 52.62600 26.25400
C  11.01800 52.16200 22.84600
O  11.39800 52.13900 21.67900
C  9.52100 52.31800 23.15600
N  16.44000 50.72400 23.33000
C  15.55000 51.00900 22.37200
C  16.09600 50.80700 21.00900
C  17.61200 50.33100 21.26400
C  17.66600 50.29800 22.79600
C  15.34500 49.71300 20.18300
C  18.63900 51.35600 20.71500
C  18.84600 51.38900 19.15600
N  17.88900 49.91500 25.72300
C  18.85000 49.49700 24.83900
C  19.92500 48.88500 25.60400
C  19.55200 49.02500 26.94100
C  18.31000 49.68300 26.94700
C  21.12000 48.17900 25.07700
C  19.95500 48.72200 28.32000
O  20.94600 48.15000 28.75800
C  18.85500 49.44700 29.18200
C  18.34800 48.47300 30.18100
O  17.25000 47.93000 30.19200
O  19.23100 48.49500 31.23100
C  18.72700 47.82900 32.44200
H  12.63400 51.92800 28.04700
H  13.69900 51.43500 21.59700
H  19.64000 49.51200 22.82500
H  16.24500 50.26200 30.59500
H  14.52600 52.56800 30.02800
H  13.07300 51.37800 30.93300
H  14.21300 49.95500 31.08100
H  13.02000 50.12800 29.71800
H  16.71600 53.19300 30.48500
H  18.04800 52.18600 30.17900
H  17.42400 52.88600 32.53400
H  18.16800 51.26100 32.18400
H  10.10500 53.27400 25.67900
H  11.10500 53.21400 27.10700
H  10.15400 51.88300 26.76400
H  9.16700 51.53800 23.83000
H  8.95400 52.43600 22.23300
H  9.43300 53.27100 23.67900
H  16.01000 51.79000 20.54500
H  17.84600 49.34800 20.85400
H  14.60100 49.21100 20.80100
H  16.04700 49.01200 19.73100
H  14.84100 50.12700 19.31000
H  19.62000 51.05900 21.08600
H  18.38700 52.36500 21.03800
H  18.46300 52.37700 18.90200
H  18.30400 50.53500 18.74900
H  19.91500 51.29700 18.96400
H  21.22200 48.59700 24.07600
H  21.00700 47.09600 25.13400
H  22.00800 48.46100 25.64200
H  19.24300 50.23100 29.83300
H  18.79300 46.74200 32.39500
H  17.67800 48.09800 32.56600
H  19.27100 48.17600 33.32000

