158

Mg 47.22900 34.30300 27.25000
C  45.58400 33.20100 30.14400
C  47.93000 37.27700 29.02100
C  48.27300 35.84900 24.46300
C  45.94500 31.69900 25.60300
N  46.88800 35.08400 29.35700
C  46.27400 34.39500 30.39200
C  46.34300 35.23500 31.70000
C  46.78100 36.61200 31.12400
C  47.19000 36.33300 29.72600
C  45.82200 37.81000 31.29000
C  47.34700 34.56900 32.63400
C  46.90200 34.50500 34.09600
H  47.99200 34.59800 35.18000
N  48.25100 36.18700 26.85100
C  48.47700 37.22400 27.73900
C  49.18100 38.26200 27.03800
C  49.21100 37.88600 25.64700
C  48.61300 36.60800 25.60100
C  49.73100 39.52000 27.67700
C  49.81800 38.55100 24.45800
O  49.97700 37.99300 23.36200
C  50.31700 39.96100 24.67800
N  47.09600 33.90100 25.29800
C  47.75800 34.58800 24.32700
C  47.58700 33.93700 23.03500
C  46.94100 32.52800 23.29200
C  46.62700 32.69400 24.79100
C  46.94500 34.64100 21.86100
C  47.77100 31.28000 22.86100
C  48.88900 30.96500 23.78900
N  46.06900 32.76500 27.77100
C  45.62200 31.71500 26.99100
C  44.95200 30.68900 27.76000
C  44.79500 31.32200 28.99100
C  45.58400 32.50900 28.95700
C  44.35200 29.40700 27.26600
C  44.17800 31.21700 30.24700
O  43.43400 30.36200 30.68800
C  44.55400 32.43300 31.03200
C  45.06400 31.94100 32.33100
O  46.14200 31.49800 32.61000
O  43.95100 31.82100 33.13200
C  44.08100 30.89900 34.28900
H  48.20300 38.17900 29.57300
H  48.71300 36.20100 23.52800
H  45.62000 30.81400 25.05300
H  45.32400 35.27500 32.08300
H  47.68200 36.94600 31.63900
H  45.29800 37.53300 32.20500
H  45.17800 37.92300 30.41800
H  46.30300 38.77900 31.42000
H  48.29900 35.09400 32.71100
H  47.57200 33.58100 32.23200
H  46.40000 33.54100 34.17600
H  46.28400 35.39000 34.25300
H  49.02500 40.29500 27.37600
H  50.75300 39.83200 27.46300
H  49.58100 39.46600 28.75500
H  49.62700 40.59300 25.23700
H  50.41200 40.34600 23.66200
H  51.29100 39.92000 25.16400
H  48.63800 33.77100 22.79700
H  45.94300 32.48000 22.85600
H  46.22300 35.28300 22.36500
H  46.47400 33.89100 21.22700
H  47.51400 35.42100 21.35400
H  48.04900 31.36000 21.81000
H  46.98300 30.52700 22.88700
H  48.94300 31.69500 24.59700
H  49.82600 30.76700 23.26900
H  48.62400 30.08000 24.36800
H  44.11000 28.84400 28.16800
H  44.87300 28.78000 26.54200
H  43.35500 29.62600 26.88300
H  43.66300 33.03100 31.22300
H  43.17700 30.34400 34.54200
H  44.14500 31.60800 35.11400
H  45.01500 30.33700 34.30400
Mg 30.39500 59.85200 39.22800
C  27.35900 58.40200 38.40600
C  32.05100 57.10100 37.98700
C  33.34200 61.55500 39.38800
C  28.70200 62.89900 39.70000
N  29.67900 57.96800 38.29500
C  28.43800 57.55200 38.10800
C  28.46400 56.13400 37.43900
C  29.91400 55.70600 37.66800
C  30.64700 57.03700 37.98300
C  30.29300 54.62800 38.74000
C  28.24900 56.26100 35.83200
C  27.00700 55.45900 35.32600
H  26.05600 56.12200 34.35300
N  32.41900 59.39000 38.82700
C  32.87700 58.15900 38.30100
C  34.34200 58.26800 38.22000
C  34.75500 59.51500 38.76400
C  33.45000 60.21500 39.00500
C  35.08600 57.02600 37.92100
C  36.16000 59.95300 38.90200
O  37.07700 59.20600 38.50200
C  36.68900 61.20700 39.71200
N  30.92800 61.86100 39.55000
C  32.21600 62.34200 39.60800
C  32.31300 63.81700 39.98000
C  30.85300 64.23400 40.15800
C  30.11000 62.98100 39.66900
C  33.24600 64.21300 41.12100
C  30.49300 65.57800 39.38000
C  29.97200 66.70800 40.27700
N  28.42200 60.56600 39.16600
C  27.90500 61.79200 39.38500
C  26.40600 61.69800 39.32900
C  26.23300 60.42700 38.82500
C  27.40700 59.70200 38.86600
C  25.43100 62.81800 39.45200
C  25.17700 59.42400 38.52300
O  23.94300 59.44100 38.56400
C  25.98400 58.19700 38.09900
C  25.43200 57.06400 38.81400
O  25.35200 56.94600 40.04300
O  24.91700 56.11900 37.99900
C  24.31200 54.98300 38.67100
H  32.50700 56.11700 37.86200
H  34.26000 62.14100 39.46400
H  28.11300 63.80800 39.84100
H  27.84200 55.40200 37.95400
H  30.40600 55.38900 36.74800
H  31.15900 53.99700 38.53700
H  29.44700 53.96700 38.93100
H  30.67100 55.15400 39.61700
H  29.10000 55.92200 35.24100
H  28.17000 57.31200 35.55200
H  26.41500 55.19000 36.20000
H  27.44300 54.55700 34.89600
H  34.56600 56.45000 37.15600
H  35.13800 56.43500 38.83500
H  36.07800 57.26300 37.53400
H  37.77000 61.23000 39.57000
H  36.38600 61.16500 40.75900
H  36.25800 62.05200 39.17500
H  32.66500 64.37100 39.10900
H  30.60700 64.31700 41.21700
H  33.93500 64.97000 40.74600
H  33.85700 63.38100 41.47000
H  32.73300 64.63900 41.98200
H  29.72100 65.41600 38.62800
H  31.34000 66.02200 38.85700
H  30.43200 67.66900 40.04800
H  30.14400 66.55300 41.34200
H  28.90600 66.65100 40.05500
H  24.73600 62.75200 38.61500
H  25.85000 63.82300 39.40700
H  24.79800 62.78800 40.33900
H  25.91100 58.07000 37.01900
H  23.27800 55.28000 38.84700
H  24.80000 54.72000 39.60900
H  24.44800 54.10600 38.03900

