158

Mg 9.02800 3.91100 27.64400
C  10.59000 2.22100 30.45800
C  7.42900 5.92500 29.76200
C  7.35100 5.17900 25.05000
C  10.39000 1.37700 25.65800
N  8.86000 3.91800 29.88700
C  9.73200 3.33100 30.77700
C  9.56700 3.97200 32.18200
C  8.38000 4.98400 31.96600
C  8.16200 4.95500 30.46700
C  7.14200 4.69900 32.77400
C  10.88500 4.51300 32.78800
C  10.71000 5.13200 34.24600
H  11.58000 4.68000 35.37000
N  7.47200 5.26200 27.41800
C  7.00100 6.03400 28.44100
C  6.09900 7.01900 27.91500
C  6.25400 6.91400 26.51100
C  7.08400 5.78100 26.23500
C  5.27700 7.93000 28.82100
C  5.59300 7.77900 25.42000
O  5.93900 7.74600 24.22600
C  4.40100 8.54500 25.72200
N  9.04500 3.41700 25.58800
C  8.19100 4.05100 24.73900
C  8.20400 3.36100 23.35500
C  9.16300 2.17600 23.56600
C  9.57200 2.30800 25.02900
C  6.82900 3.02000 22.80600
C  10.38900 2.17600 22.61100
C  10.66600 0.84700 21.78200
N  10.31200 2.18700 27.95700
C  10.77600 1.29700 27.03400
C  11.67600 0.36300 27.62200
C  11.67300 0.67000 29.02400
C  10.83500 1.77700 29.18200
C  12.51400 -0.70400 26.92900
C  12.07800 0.22900 30.29800
O  12.64400 -0.79200 30.60400
C  11.59500 1.37400 31.29600
C  11.01600 0.61700 32.56500
O  9.99200 -0.08200 32.62100
O  11.82700 0.83500 33.67000
C  11.44100 0.27500 34.99500
H  7.07200 6.77400 30.34800
H  6.77500 5.57400 24.21100
H  10.69000 0.56700 24.98900
H  9.36400 3.17800 32.90000
H  8.86200 5.89700 32.31700
H  6.29200 4.44400 32.14200
H  6.87200 5.60500 33.31600
H  7.30200 3.84900 33.43700
H  11.24000 5.29400 32.11500
H  11.67000 3.75800 32.76200
H  9.65400 5.11300 34.51500
H  10.98700 6.15600 33.99500
H  5.54000 8.94600 28.52400
H  5.47700 7.91500 29.89300
H  4.20600 7.78600 28.67700
H  3.91000 8.75500 24.77200
H  4.64700 9.48300 26.22000
H  3.76700 8.01800 26.43500
H  8.64400 4.01300 22.60100
H  8.57800 1.27600 23.37800
H  6.14100 2.99700 23.65100
H  6.77400 2.00300 22.41700
H  6.48600 3.77200 22.09600
H  11.30700 2.44700 23.13200
H  10.29900 3.05600 21.97400
H  9.85600 0.15900 22.02500
H  11.60700 0.41200 22.11900
H  10.78300 0.91900 20.70000
H  13.19000 -1.07200 27.70000
H  12.99500 -0.17300 26.10700
H  11.93300 -1.45100 26.38800
H  12.47800 1.88800 31.67700
H  11.71000 1.02800 35.73500
H  12.17100 -0.50000 35.23000
H  10.39100 0.00900 35.11900
Mg 26.25800 0.25500 29.57500
C  28.30100 -0.01000 32.32600
C  23.60700 0.78000 31.67200
C  24.15400 -0.07000 26.95500
C  28.92100 -1.06400 27.65400
N  26.02400 0.47000 31.74000
C  26.96700 0.32400 32.70700
C  26.44200 0.48600 34.12000
C  24.89900 0.71300 33.85800
C  24.83500 0.64900 32.31300
C  23.87600 -0.11400 34.60900
C  26.98800 1.57200 35.06500
C  27.31600 1.19200 36.58500
H  27.10800 2.23500 37.62500
N  24.20800 0.48100 29.30500
C  23.31800 0.75800 30.30000
C  21.95600 0.73400 29.68600
C  22.09200 0.50800 28.26100
C  23.52800 0.26300 28.12500
C  20.74500 1.18700 30.43600
C  21.04500 0.60800 27.19300
O  21.31100 0.32100 26.05800
C  19.61700 1.01200 27.60300
N  26.47100 -0.60400 27.60700
C  25.47900 -0.43400 26.69700
C  25.99100 -0.82500 25.26200
C  27.50300 -1.11800 25.44900
C  27.64200 -0.94400 26.99400
C  25.19400 -2.09200 24.67600
C  28.39400 -0.08100 24.77300
C  28.99300 -0.53600 23.47200
N  28.25000 -0.41200 29.89800
C  29.20500 -0.88600 29.01500
C  30.49000 -1.02400 29.75700
C  30.16000 -0.68500 31.08000
C  28.80800 -0.37000 31.10000
C  31.79100 -1.52000 29.20700
C  30.67100 -0.51300 32.41900
O  31.77500 -0.64500 32.88600
C  29.46400 -0.08200 33.30200
C  29.37100 -1.25600 34.22600
O  28.82700 -2.29900 34.00400
O  30.03400 -0.93600 35.39400
C  30.02400 -1.97400 36.47300
H  22.79500 1.01800 32.36200
H  23.37800 -0.05600 26.18700
H  29.74900 -1.36300 27.00700
H  26.58200 -0.44100 34.67500
H  24.61800 1.72500 34.15100
H  23.92800 0.18300 35.65700
H  24.22500 -1.14400 34.52800
H  22.84800 0.00900 34.26900
H  26.33500 2.44300 35.02200
H  27.86400 2.08600 34.67000
H  28.39800 1.07100 36.61900
H  26.94000 0.21400 36.88600
H  20.48000 2.12700 29.95300
H  20.77500 1.45300 31.49300
H  19.90700 0.48900 30.42500
H  19.23100 0.11300 28.08400
H  18.98800 1.17200 26.72700
H  19.64400 1.94100 28.17100
H  25.81000 0.08800 24.69500
H  27.65200 -2.17400 25.22700
H  25.17500 -2.11100 23.58600
H  24.16400 -2.22600 25.00600
H  25.81800 -2.97500 24.81100
H  29.12700 0.38600 25.43000
H  27.76100 0.74600 24.45200
H  30.05500 -0.29400 23.50200
H  28.52500 0.08200 22.70500
H  28.93200 -1.55800 23.10100
H  31.89700 -2.59200 29.04500
H  32.52400 -1.15600 29.92700
H  31.99600 -0.98100 28.28100
H  29.71200 0.76100 33.94700
H  31.07400 -2.06100 36.74800
H  29.56800 -2.90400 36.13200
H  29.57700 -1.62700 37.40500

