158

Mg 46.87900 25.16300 28.88000
C  47.68800 27.44000 31.36600
C  46.25700 22.96200 31.16400
C  46.26900 23.00200 26.40000
C  48.48000 27.34300 26.41500
N  46.73800 25.25700 31.05500
C  47.02000 26.34400 31.85900
C  46.81500 26.06300 33.32500
C  46.49000 24.44800 33.29400
C  46.56000 24.16000 31.74900
C  47.29900 23.39500 34.11900
C  45.61300 26.78200 33.97900
C  45.88100 27.49100 35.32500
H  44.75400 27.53700 36.38000
N  46.32900 23.16000 28.84000
C  46.16700 22.39800 29.90800
C  45.70800 21.08500 29.47800
C  45.70900 21.09700 28.02600
C  46.01100 22.51100 27.70100
C  45.26500 20.05500 30.52000
C  45.45700 20.00400 26.95300
O  45.18500 20.15600 25.79600
C  45.36500 18.56600 27.35500
N  47.34100 25.17800 26.66600
C  46.79100 24.20600 25.92300
C  46.89600 24.55700 24.42200
C  47.58200 25.96800 24.45300
C  47.82300 26.23000 25.93100
C  47.57000 23.48000 23.44300
C  46.53000 26.92600 23.93400
C  47.05500 28.14800 23.21600
N  47.86100 26.97100 28.81900
C  48.52200 27.68200 27.84300
C  49.10400 28.86300 28.42500
C  48.74900 28.82900 29.75900
C  48.06200 27.63500 30.02900
C  49.85100 30.00400 27.68200
C  48.89200 29.56900 31.04500
O  49.43000 30.66400 31.20300
C  48.16600 28.74700 32.11400
C  49.19200 28.53800 33.18700
O  50.28400 28.05900 33.05900
O  48.74000 29.14600 34.32200
C  49.51600 28.95500 35.58500
H  46.06100 22.23200 31.95200
H  46.05100 22.32600 25.57000
H  48.93900 27.93800 25.62200
H  47.76900 26.28500 33.80400
H  45.43900 24.31700 33.54900
H  47.99900 22.85600 33.48000
H  46.69200 22.75300 34.75800
H  47.82400 24.04200 34.82200
H  44.78000 26.07900 33.97400
H  45.31700 27.56200 33.27800
H  46.09400 28.54900 35.17100
H  46.75500 27.02100 35.77600
H  45.86300 19.14500 30.55700
H  44.32900 19.60000 30.19400
H  45.01600 20.48900 31.48800
H  44.54000 18.26300 27.99900
H  46.30300 18.24700 27.81000
H  45.35600 17.83400 26.54700
H  45.86400 24.52500 24.07300
H  48.51100 25.95000 23.88300
H  47.42300 22.42200 23.66200
H  48.65700 23.56100 23.47000
H  47.21400 23.57400 22.41800
H  45.83100 27.33300 24.66500
H  45.91000 26.47200 23.16200
H  47.06100 29.04700 23.83300
H  46.40500 28.40000 22.37800
H  48.06800 27.96800 22.85500
H  49.46000 30.10900 26.67000
H  50.90900 29.74200 27.70700
H  49.72100 30.92700 28.24600
H  47.34800 29.33200 32.53400
H  48.94900 28.20800 36.14100
H  49.55600 29.93100 36.06900
H  50.50900 28.50900 35.53800
Mg 49.58500 47.68900 42.79900
C  46.33300 48.34200 41.40100
C  49.60000 44.77300 40.84500
C  52.82000 47.32600 43.52300
C  49.70900 51.06700 43.74900
N  48.15300 46.76300 41.25200
C  46.82800 47.12900 40.93700
C  46.17400 46.11000 39.95800
C  47.21500 44.95400 39.88700
C  48.41400 45.49900 40.71500
C  46.73100 43.50300 40.29600
C  45.64100 46.74500 38.59800
C  44.11000 46.48700 38.32000
H  43.50900 45.95500 37.02000
N  51.07000 46.28600 42.22300
C  50.88200 45.12000 41.50600
C  52.11600 44.41300 41.47500
C  53.04100 45.08100 42.32000
C  52.30800 46.26800 42.73500
C  52.32300 43.12600 40.72700
C  54.43300 44.62600 42.71800
O  54.92500 43.56800 42.21600
C  55.52700 45.35100 43.60800
N  51.08500 49.08600 43.50700
C  52.29800 48.55900 43.92000
C  52.99800 49.54100 44.85900
C  52.15300 50.88300 44.80700
C  50.91600 50.41200 43.94300
C  53.35800 49.05100 46.28800
C  52.88600 52.08100 44.03700
C  52.50500 53.53800 44.45500
N  48.25100 49.34700 42.73700
C  48.51700 50.63700 43.10800
C  47.33000 51.43500 42.84200
C  46.37500 50.54700 42.17600
C  47.02700 49.31500 42.13800
C  47.14000 52.88200 43.06200
C  45.04300 50.40600 41.57400
O  44.08700 51.18400 41.54600
C  44.93400 48.89400 41.29100
C  43.99000 48.18500 42.26600
O  44.17500 48.09600 43.46600
O  42.87900 47.82700 41.59100
C  41.93500 46.87500 42.09600
H  49.53800 43.78800 40.37700
H  53.80600 47.22600 43.98200
H  49.70400 52.05200 44.22100
H  45.29500 45.82500 40.53500
H  47.59300 44.96100 38.86500
H  45.65100 43.64900 40.25700
H  47.21900 43.25600 41.23800
H  47.12300 42.81800 39.54400
H  46.07900 46.22500 37.74600
H  45.85600 47.81400 38.57700
H  43.82500 47.53700 38.25500
H  43.64600 46.10800 39.23100
H  52.88200 43.42000 39.83900
H  51.36600 42.69800 40.43000
H  52.99800 42.43600 41.23300
H  55.60000 46.39500 43.30300
H  56.49700 44.89200 43.42000
H  55.34100 45.17000 44.66700
H  54.01100 49.62100 44.46300
H  51.79200 51.25900 45.76500
H  54.23700 49.57300 46.66600
H  53.49500 47.97100 46.22500
H  52.57600 49.22100 47.02700
H  52.60500 52.04900 42.98400
H  53.97000 51.96300 44.01000
H  51.96800 54.13100 43.71600
H  53.31800 54.10200 44.91400
H  51.84400 53.43400 45.31600
H  48.07600 53.38100 42.81300
H  46.84700 52.98200 44.10700
H  46.35300 53.37400 42.49100
H  44.61300 48.71000 40.26500
H  42.02400 46.53600 43.12800
H  41.74100 46.09900 41.35600
H  41.12700 47.60300 42.17000

