158

Mg 47.84100 16.49900 28.87100
C  45.73200 16.18200 31.58300
C  49.99500 18.29800 30.76200
C  49.80500 16.64100 26.14900
C  45.33200 14.86900 26.96400
N  47.82600 17.22600 30.91800
C  46.94700 16.89700 31.89400
C  47.27800 17.35700 33.26800
C  48.61100 18.17000 32.97100
C  48.90400 17.85200 31.47700
C  48.47700 19.66800 33.25000
C  47.45500 16.21100 34.36100
C  47.65200 16.78400 35.87000
H  47.29500 18.25900 36.21100
N  49.64500 17.39400 28.50700
C  50.35700 18.12900 29.46000
C  51.62500 18.50600 28.85200
C  51.56400 18.06100 27.48800
C  50.29400 17.36200 27.33100
C  52.69200 19.32100 29.55200
C  52.66000 18.12900 26.41100
O  52.49000 17.58400 25.37000
C  53.94600 18.90100 26.47700
N  47.61400 15.84600 26.85600
C  48.47900 16.16100 25.89000
C  47.99500 15.79800 24.40300
C  46.63800 15.07900 24.76100
C  46.49300 15.25600 26.28200
C  47.80300 17.09300 23.59500
C  46.41200 13.69500 24.25500
C  45.86500 13.66400 22.84500
N  45.97800 15.73100 29.10500
C  45.07800 15.13100 28.30200
C  43.86500 14.78000 29.07000
C  44.06200 15.14500 30.36300
C  45.32200 15.76200 30.32800
C  42.71600 13.98600 28.51500
C  43.51100 15.15400 31.67900
O  42.48500 14.70300 32.14800
C  44.64600 15.83100 32.55700
C  43.95800 16.97500 33.25800
O  43.29700 17.82700 32.69100
O  43.91400 16.81600 34.66700
C  42.91700 17.59400 35.38500
H  50.64600 18.89100 31.40800
H  50.29100 16.76100 25.17800
H  44.48000 14.41900 26.45100
H  46.46400 18.00600 33.59300
H  49.55900 17.82000 33.38100
H  47.57200 19.99000 33.76500
H  48.71000 20.33800 32.42200
H  49.27200 19.94100 33.94300
H  48.36400 15.69500 34.05300
H  46.56900 15.57700 34.40000
H  48.72900 16.66000 35.97900
H  47.10000 16.13500 36.55000
H  52.35900 19.67100 30.52900
H  53.08100 20.20800 29.05200
H  53.50700 18.60800 29.67900
H  53.79000 19.83800 27.01100
H  54.11800 19.15200 25.43000
H  54.76400 18.23900 26.76300
H  48.64000 15.02500 23.98600
H  45.76800 15.67100 24.47600
H  47.92900 16.98300 22.51800
H  48.56600 17.76800 23.98100
H  46.78300 17.43500 23.77400
H  45.74600 13.11200 24.89200
H  47.35900 13.15800 24.32500
H  46.57700 14.03100 22.10600
H  44.91900 14.20400 22.80300
H  45.49700 12.67000 22.59200
H  42.87300 12.91800 28.36400
H  42.39200 14.39900 27.56000
H  41.87900 14.10100 29.20300
H  44.88700 15.05300 33.28200
H  42.72200 18.58900 34.98500
H  43.12000 17.75900 36.44300
H  41.98400 17.03100 35.34500
Mg 49.47100 34.86700 26.99300
C  47.24500 33.71900 29.52900
C  50.29000 37.46100 29.06600
C  51.04200 36.16600 24.39700
C  48.34600 32.16300 24.98300
N  48.67000 35.61100 29.06200
C  47.89100 34.93300 29.95900
C  48.03000 35.60100 31.33000
C  48.58600 37.00300 31.01000
C  49.24900 36.66700 29.63100
C  47.59000 38.17500 30.79400
C  48.98000 34.76400 32.26900
C  48.59500 34.62800 33.71700
H  49.42500 35.55100 34.69800
N  50.58600 36.57700 26.76900
C  50.86000 37.48000 27.82000
C  51.79500 38.39800 27.31500
C  51.92700 38.21900 25.88500
C  51.17700 36.95700 25.60900
C  52.44500 39.41300 28.27200
C  52.84500 38.99300 24.85500
O  52.83700 38.71500 23.62900
C  53.83900 40.06700 25.18000
N  49.75600 34.21200 25.04000
C  50.43500 34.94200 24.14100
C  50.36300 34.33100 22.68600
C  49.78300 32.94200 23.05900
C  49.23100 33.11900 24.41200
C  49.52500 35.22500 21.67700
C  50.82000 31.73900 23.08000
C  51.26200 31.16400 21.76200
N  48.05000 33.28600 27.16700
C  47.72100 32.30200 26.24900
C  46.80100 31.39400 26.85700
C  46.51000 31.96900 28.11900
C  47.27600 33.11300 28.26400
C  46.15100 30.21600 26.24900
C  45.73700 31.74900 29.36900
O  44.97500 30.87100 29.77500
C  46.18600 32.94000 30.29400
C  46.73000 32.48300 31.58900
O  47.74900 31.87800 31.73500
O  45.77400 32.73700 32.53200
C  45.90100 32.05400 33.86500
H  50.55000 38.28400 29.73500
H  51.53900 36.60200 23.52800
H  48.00700 31.38000 24.30100
H  47.04200 35.68600 31.78200
H  49.36300 37.36100 31.68600
H  47.70700 38.70400 29.84800
H  47.78000 38.93100 31.55600
H  46.56600 37.94000 31.08400
H  49.88900 35.36300 32.32100
H  49.23300 33.86000 31.71500
H  48.76600 33.58700 33.99100
H  47.53100 34.76000 33.91600
H  52.96000 38.91600 29.09400
H  51.69300 40.12700 28.61100
H  53.18600 40.05300 27.79300
H  53.99900 40.62600 24.25900
H  54.81600 39.62000 25.36800
H  53.60000 40.71300 26.02500
H  51.36700 34.29700 22.26400
H  48.87900 32.68500 22.50800
H  50.19700 35.50500 20.86700
H  49.28700 36.11000 22.26700
H  48.67700 34.69300 21.24600
H  50.39600 30.98100 23.73800
H  51.75700 32.12000 23.48700
H  51.23800 30.08900 21.93700
H  52.26200 31.38700 21.38900
H  50.42400 31.44200 21.12300
H  45.91400 30.47500 25.21700
H  45.24500 29.96400 26.80100
H  46.76300 29.31900 26.16100
H  45.29700 33.57100 30.29500
H  46.66400 32.53000 34.48200
H  46.20900 31.04000 33.61200
H  44.91100 32.05700 34.32100

