158

Mg 24.41300 -5.14200 46.05600
C  26.43500 -2.74700 44.36900
C  21.87500 -4.46000 43.85400
C  22.96700 -8.21600 46.70500
C  27.48000 -6.38800 47.45600
N  24.17500 -3.72900 44.38000
C  25.12000 -2.78000 43.93900
C  24.63200 -2.02000 42.67300
C  23.11200 -2.43600 42.76500
C  23.01100 -3.66500 43.70700
C  22.07100 -1.34000 43.10000
C  25.25200 -2.36900 41.32300
C  26.00800 -1.22800 40.54300
H  25.56400 -1.14100 39.03800
N  22.57200 -6.10900 45.49400
C  21.66100 -5.61000 44.63200
C  20.52900 -6.46300 44.69600
C  20.81600 -7.49900 45.63600
C  22.19700 -7.29700 46.00200
C  19.35900 -6.22000 43.78400
C  19.78400 -8.62700 46.11000
O  18.62300 -8.62300 45.66500
C  20.09900 -9.63300 47.19900
N  25.01500 -6.91600 47.00100
C  24.25900 -8.05700 47.16600
C  24.95400 -9.12600 47.99200
C  26.35800 -8.53000 48.25200
C  26.28800 -7.16700 47.54700
C  24.13200 -9.29500 49.28500
C  27.53200 -9.48700 47.71500
C  28.83300 -9.73500 48.43800
N  26.45200 -4.48100 46.23400
C  27.53500 -5.12400 46.78900
C  28.76900 -4.35200 46.54500
C  28.39900 -3.36500 45.51100
C  27.01400 -3.54500 45.37700
C  30.02300 -4.66200 47.19000
C  28.81700 -2.39100 44.67300
O  29.95700 -1.94600 44.46200
C  27.56400 -1.89300 43.78600
C  27.38400 -0.49100 44.19000
O  26.92400 -0.08400 45.25500
O  27.92100 0.31100 43.16800
C  27.72000 1.81900 43.21500
H  21.02000 -3.99200 43.36100
H  22.53300 -9.19500 46.92100
H  28.40400 -6.72700 47.92800
H  24.82400 -0.95700 42.82100
H  22.76500 -2.85400 41.82000
H  21.62200 -0.77900 42.28100
H  22.61500 -0.61800 43.70800
H  21.15700 -1.69800 43.57400
H  24.43600 -2.84300 40.77800
H  25.90400 -3.21800 41.52700
H  27.08200 -1.38500 40.63600
H  25.87200 -0.24700 40.99900
H  19.68100 -6.36400 42.75200
H  18.98700 -5.21400 43.97900
H  18.54400 -6.90100 44.02600
H  20.67300 -9.17200 48.00300
H  20.65600 -10.42800 46.70300
H  19.20800 -10.05200 47.66600
H  24.98800 -9.99600 47.33700
H  26.68400 -8.36300 49.27800
H  24.72400 -9.16100 50.19000
H  23.68400 -10.28900 49.29300
H  23.28200 -8.61300 49.30000
H  27.77400 -9.11200 46.72100
H  27.22400 -10.53300 47.68700
H  28.67900 -9.44700 49.47800
H  29.51900 -9.01200 47.99600
H  29.29500 -10.71700 48.33700
H  30.78300 -3.98600 46.80000
H  30.18100 -5.69500 46.87700
H  30.00500 -4.57500 48.27700
H  27.61700 -2.01700 42.70500
H  28.66800 2.23900 43.55200
H  26.98000 2.19300 43.92300
H  27.37200 2.06300 42.21100
Mg 5.60000 55.35500 40.57900
C  3.91000 52.29400 40.14900
C  8.27200 53.99600 38.68000
C  7.03200 58.21300 40.82200
C  2.57200 56.71800 41.67600
N  5.95300 53.41500 39.44300
C  5.16400 52.32300 39.49000
C  5.78800 51.24000 38.61300
C  7.22500 51.72800 38.33400
C  7.15000 53.16800 38.77100
C  8.36700 50.92200 39.09200
C  5.00300 50.97400 37.35900
C  4.70800 49.46600 37.04500
H  5.19500 48.95100 35.70000
N  7.40900 55.96200 39.97000
C  8.38000 55.27500 39.30200
C  9.50900 56.17500 39.08600
C  9.20900 57.44200 39.63100
C  7.83700 57.23900 40.22000
C  10.68500 55.84500 38.16000
C  10.04400 58.69400 39.45600
O  11.16900 58.62800 38.96400
C  9.61600 60.10800 39.99100
N  4.93100 57.27600 41.23600
C  5.76200 58.22700 41.33900
C  5.06500 59.53100 41.82700
C  3.58200 59.05500 42.03800
C  3.63500 57.59500 41.58500
C  5.66900 60.20200 43.05200
C  2.49300 59.76900 41.23500
C  1.21900 60.07100 41.92000
N  3.63400 54.70300 40.92500
C  2.46200 55.37900 41.32200
C  1.29300 54.45600 41.43100
C  1.92000 53.21400 41.19100
C  3.25700 53.42200 40.70900
C  -0.13000 54.82100 41.83900
C  1.69500 51.76800 41.21600
O  0.71800 51.16600 41.66400
C  3.01700 51.11000 40.62700
C  2.73000 49.95800 39.72500
O  2.03800 49.93100 38.73300
O  3.09000 48.86000 40.51800
C  2.91600 47.55100 39.92700
H  9.08700 53.56000 38.09800
H  7.48700 59.16200 41.11300
H  1.61500 57.11600 42.01800
H  5.83000 50.33500 39.21800
H  7.42600 51.76200 37.26300
H  8.62100 51.52500 39.96300
H  9.26800 50.95900 38.48000
H  8.06500 49.89200 39.28500
H  5.58500 51.27700 36.48800
H  4.12900 51.61400 37.48100
H  3.62300 49.41000 36.95800
H  5.01500 48.84700 37.88800
H  11.62900 56.05700 38.66200
H  10.52000 56.39300 37.23300
H  10.85000 54.79700 37.90900
H  8.56000 60.36200 39.90000
H  10.13600 60.85800 39.39500
H  9.94200 60.29300 41.01400
H  5.01500 60.22600 40.98900
H  3.44400 59.02400 43.11800
H  5.00600 60.38600 43.89700
H  6.07200 61.18400 42.80500
H  6.42900 59.59500 43.54300
H  2.34500 59.25500 40.28500
H  2.84400 60.77600 41.00500
H  1.25900 61.04800 42.40200
H  1.11100 59.37700 42.75400
H  0.42200 59.80100 41.22800
H  -0.20000 55.59100 42.60700
H  -0.65800 53.92500 42.16600
H  -0.61400 55.13800 40.91600
H  3.56000 50.79800 41.51900
H  2.46400 47.66800 38.94200
H  2.42000 46.85400 40.60300
H  3.90000 47.20300 39.61100

