158

Mg 17.12700 -2.60700 27.30200
C  16.03100 -0.51500 29.91000
C  18.83400 -4.59000 29.48400
C  18.52200 -4.02100 24.62900
C  15.43000 -0.38400 25.07900
N  17.37700 -2.53800 29.52700
C  16.85500 -1.56800 30.34500
C  17.43500 -1.87300 31.76800
C  18.22900 -3.19800 31.65200
C  18.17600 -3.47200 30.10500
C  19.66300 -3.09800 32.23600
C  16.28200 -1.96100 32.79600
C  16.44100 -1.09600 34.06200
H  17.78500 -0.43200 34.45800
N  18.39200 -4.12000 27.03800
C  18.91400 -4.96500 28.03700
C  19.49600 -6.19500 27.48500
C  19.44300 -5.99800 26.08400
C  18.82300 -4.62900 25.86400
C  19.92900 -7.35300 28.37400
C  19.85700 -6.89400 24.96700
O  19.79700 -6.63500 23.76800
C  20.46000 -8.27000 25.32800
N  17.06600 -2.15800 25.16200
C  17.74000 -2.89200 24.25200
C  17.62500 -2.33500 22.80400
C  16.51800 -1.24900 22.98800
C  16.38500 -1.22100 24.46500
C  18.93600 -1.70600 22.31300
C  15.19700 -1.39800 22.15400
C  14.64000 -0.13400 21.34600
N  15.88500 -0.94100 27.36400
C  15.27300 -0.12800 26.43300
C  14.51300 0.93400 26.97500
C  14.83300 0.89400 28.30400
C  15.57400 -0.30300 28.53200
C  13.68500 1.97500 26.25700
C  14.68500 1.53800 29.54500
O  14.15700 2.59200 29.90900
C  15.49800 0.71000 30.62000
C  16.55400 1.57700 31.26800
O  17.75200 1.59300 30.95100
O  16.02600 2.28900 32.30400
C  16.87600 3.18600 33.14700
H  19.35600 -5.21400 30.21200
H  19.14600 -4.46800 23.85300
H  14.80600 0.31800 24.52200
H  18.09900 -1.03900 31.99500
H  17.82400 -3.98300 32.29100
H  19.76600 -2.43100 33.09200
H  20.40300 -2.78000 31.50100
H  19.92700 -4.07300 32.64700
H  16.11300 -2.96700 33.18000
H  15.37700 -1.67300 32.26100
H  16.20600 -1.77600 34.88100
H  15.68400 -0.32100 34.18700
H  19.83800 -8.34000 27.91900
H  19.33400 -7.31900 29.28600
H  20.96500 -7.16100 28.65300
H  21.39400 -8.09900 25.86300
H  20.75500 -8.80100 24.42300
H  19.71800 -8.90700 25.80800
H  17.27500 -3.19900 22.23900
H  16.87600 -0.28200 22.63500
H  19.02200 -2.15500 21.32300
H  19.71400 -1.94200 23.03900
H  19.01500 -0.64500 22.07600
H  14.40400 -1.85900 22.74200
H  15.45200 -2.13100 21.38800
H  13.59700 0.08100 21.57700
H  14.81000 -0.27500 20.27800
H  15.17700 0.75800 21.66900
H  13.06600 1.52700 25.48000
H  14.41100 2.59100 25.72600
H  13.12700 2.56200 26.98600
H  14.80100 0.36100 31.38200
H  16.78100 2.94800 34.20600
H  16.32000 4.12200 33.09700
H  17.94100 3.28400 32.93700
Mg 36.53200 49.28900 24.80600
C  36.48900 47.80500 27.88800
C  35.20000 52.12000 26.16200
C  36.47900 50.69100 21.75100
C  37.89500 46.36700 23.50300
N  35.88300 49.84100 26.78200
C  36.01200 49.12800 27.92600
C  35.73400 49.92000 29.18400
C  35.21400 51.27000 28.57100
C  35.45200 51.08400 27.10100
C  33.77500 51.64200 28.94900
C  36.93700 50.06500 30.14200
C  36.74800 49.77900 31.71200
H  35.42900 50.24400 32.31500
N  35.92000 51.11500 24.06300
C  35.45300 52.14500 24.76800
C  35.08900 53.22000 23.84900
C  35.31100 52.80800 22.57100
C  35.98800 51.47100 22.75200
C  34.67500 54.55400 24.48600
C  35.11500 53.47500 21.31500
O  35.24800 53.00000 20.21100
C  34.49100 54.98600 21.28400
N  36.88500 48.43300 22.88000
C  36.75900 49.25800 21.78100
C  37.37600 48.57800 20.59000
C  38.20900 47.43700 21.23600
C  37.59500 47.39400 22.64800
C  36.40600 48.32600 19.38900
C  39.64500 47.72000 21.37000
C  40.57900 46.66500 20.72800
N  37.14400 47.39000 25.54500
C  37.59200 46.26900 24.89300
C  37.70100 45.17500 25.82600
C  37.18300 45.78200 26.99700
C  36.88900 47.11300 26.74700
C  38.28500 43.81800 25.54100
C  36.88400 45.44300 28.32100
O  37.09500 44.41000 28.98600
C  36.43500 46.76800 29.00100
C  35.13500 46.49400 29.59500
O  34.09600 46.51900 29.00400
O  35.22000 46.25500 30.93200
C  33.95700 45.92500 31.60700
H  34.53800 52.95700 26.39600
H  36.46500 51.15200 20.76100
H  38.45500 45.56100 23.02300
H  34.86300 49.44500 29.63500
H  35.84100 52.12800 28.81500
H  33.42400 51.04200 29.78800
H  33.14600 51.59400 28.06000
H  33.84400 52.61600 29.43300
H  37.30000 51.08100 29.98700
H  37.79900 49.48100 29.81900
H  37.64100 50.20000 32.17400
H  36.76400 48.70000 31.86500
H  33.66000 54.46800 24.87600
H  34.57900 55.44500 23.86600
H  35.46800 54.80700 25.19000
H  33.55400 54.87700 21.83000
H  34.26700 55.27500 20.25700
H  35.13600 55.72700 21.75700
H  38.03900 49.32200 20.14900
H  37.98700 46.46500 20.79600
H  35.39400 48.70400 19.53700
H  36.18900 47.26800 19.24300
H  36.81700 48.63300 18.42800
H  40.07800 47.80900 22.36600
H  39.87100 48.66300 20.87300
H  40.08800 45.93100 20.08900
H  41.17100 46.20000 21.51700
H  41.27400 47.22300 20.10100
H  37.78700 43.10000 26.19200
H  39.35100 43.71100 25.74100
H  38.03200 43.63300 24.49700
H  37.14300 47.02700 29.78800
H  33.41300 46.86200 31.72200
H  34.07600 45.38400 32.54600
H  33.24600 45.25500 31.12200

