158

Mg 0.46300 7.45300 25.50700
C  1.32800 9.57600 28.25100
C  0.81000 4.69800 27.63000
C  -0.32000 5.50900 22.96200
C  0.49200 10.25400 23.46000
N  1.03100 7.22400 27.60500
C  1.30700 8.14100 28.58100
C  1.41600 7.59400 29.95000
C  1.60700 6.10800 29.75800
C  1.11800 5.97900 28.24400
C  3.08500 5.53700 30.01100
C  0.23300 7.92600 30.91600
C  0.60000 8.24400 32.39600
H  1.77300 7.47000 33.15100
N  0.17300 5.37600 25.26400
C  0.36200 4.46400 26.26500
C  -0.03100 3.16700 25.71500
C  -0.25800 3.29600 24.32800
C  -0.17100 4.75300 24.12600
C  -0.00800 1.90600 26.58800
C  -0.39800 2.31800 23.24900
O  -0.58900 2.60900 22.08000
C  -0.22800 0.81600 23.48300
N  0.32000 7.74300 23.41000
C  -0.10900 6.80700 22.59200
C  -0.39800 7.35700 21.13700
C  -0.41500 8.89300 21.44300
C  0.26200 8.99500 22.79500
C  0.55600 7.00400 19.96900
C  -1.85800 9.49400 21.42400
C  -1.94200 10.88700 20.80100
N  0.94100 9.39300 25.70000
C  0.81100 10.49400 24.78900
C  0.98600 11.71500 25.46700
C  1.22400 11.42300 26.80900
C  1.14100 10.02300 26.89800
C  0.99500 13.07000 24.88300
C  1.49600 12.01100 28.18200
O  1.81800 13.10900 28.60000
C  1.54000 10.76500 29.11800
C  2.76700 10.82000 29.95300
O  3.90300 10.54300 29.66100
O  2.46500 11.40100 31.21500
C  3.50000 11.72800 32.22400
H  1.00000 3.83900 28.27700
H  -0.66500 4.92700 22.10500
H  0.36600 11.21600 22.95800
H  2.32100 8.06100 30.34000
H  0.96700 5.52100 30.41700
H  3.60100 5.53200 29.05100
H  2.98400 4.50500 30.34700
H  3.61200 6.15300 30.74000
H  -0.47500 7.09800 30.89600
H  -0.16600 8.88900 30.59700
H  -0.31600 8.06800 32.96100
H  0.80700 9.30600 32.52200
H  -0.71600 1.16800 26.21100
H  -0.32300 2.19700 27.59000
H  0.99700 1.48500 26.64100
H  -1.12900 0.45900 23.98200
H  0.67200 0.58000 24.05100
H  -0.22300 0.27700 22.53500
H  -1.36500 6.98700 20.79400
H  0.22600 9.37600 20.70600
H  1.44300 7.62700 20.07900
H  0.08100 7.22500 19.01300
H  0.96400 6.00100 20.09100
H  -2.27400 9.63400 22.42100
H  -2.56200 8.83200 20.91900
H  -2.77600 11.01500 20.11100
H  -1.09100 11.08400 20.14900
H  -1.87700 11.59400 21.62800
H  0.03100 13.05100 24.37400
H  1.82500 13.08300 24.17700
H  0.96600 13.97400 25.49100
H  0.69300 10.86400 29.79700
H  4.44900 11.86700 31.70500
H  3.66200 10.96800 32.98800
H  3.21500 12.68600 32.65800
Mg 54.21000 23.46200 44.82000
C  51.71900 25.66600 43.80600
C  52.48600 20.94200 43.40500
C  56.81200 21.39600 45.61200
C  56.12800 26.23800 45.82000
N  52.41300 23.42000 43.58600
C  51.44200 24.32800 43.39200
C  50.35200 23.79500 42.43500
C  50.36200 22.32200 42.90200
C  51.86000 22.16500 43.23400
C  49.28100 21.96700 43.99700
C  50.67700 23.90600 40.89000
C  49.72400 24.60400 39.88200
H  50.42600 25.28600 38.68000
N  54.59300 21.43900 44.46200
C  53.70400 20.59900 43.92200
C  54.23800 19.22000 43.95700
C  55.40200 19.24900 44.77500
C  55.70600 20.74000 44.96800
C  53.52500 17.98800 43.25100
C  56.23000 17.98700 45.20900
O  55.91400 16.91300 44.77900
C  57.55800 18.10200 45.89600
N  56.18300 23.79300 45.49500
C  56.96800 22.74600 45.86400
C  58.22600 23.23000 46.58800
C  58.25700 24.79000 46.34100
C  56.74100 24.98900 45.85300
C  58.25600 22.65800 48.06400
C  59.20600 25.23900 45.17400
C  59.73200 26.65100 45.38700
N  53.98500 25.50500 44.93600
C  54.80900 26.48000 45.44200
C  54.08200 27.71200 45.47100
C  52.92800 27.49800 44.75500
C  52.86000 26.09800 44.50300
C  54.59100 28.90600 46.23300
C  51.62700 27.99800 44.26400
O  51.24300 29.13600 44.27200
C  50.86300 26.88400 43.67200
C  50.40400 27.18200 42.30000
O  51.02700 27.55900 41.37800
O  49.07000 27.02300 42.22600
C  48.45600 28.02700 41.32900
H  52.00100 20.07700 42.94800
H  57.59500 20.72300 45.97100
H  56.65500 27.05500 46.31700
H  49.43700 24.34700 42.64800
H  50.00700 21.70300 42.07800
H  48.51400 22.73200 44.11900
H  49.71300 21.69000 44.95800
H  48.80800 21.04400 43.65900
H  50.92400 22.90900 40.52500
H  51.61500 24.44500 40.76100
H  49.15400 25.32600 40.46700
H  49.04600 23.86800 39.45100
H  52.97800 17.35700 43.95100
H  54.41800 17.47300 42.89600
H  52.98700 18.22400 42.33300
H  57.98100 17.09900 45.96500
H  57.31700 18.44900 46.90100
H  58.24500 18.72700 45.32500
H  59.06300 22.79000 46.04700
H  58.34600 25.28300 47.30800
H  58.65600 21.64400 48.08300
H  57.26200 22.64700 48.51200
H  58.93600 23.30200 48.62200
H  58.59300 25.27700 44.27400
H  60.02700 24.55200 44.96900
H  59.68100 26.93700 46.43800
H  59.23300 27.36500 44.73000
H  60.77500 26.68400 45.07100
H  54.75900 28.62600 47.27300
H  53.87700 29.72400 46.14700
H  55.45800 29.26000 45.67400
H  49.95200 26.72400 44.24700
H  48.86400 29.03000 41.45500
H  47.36900 27.97100 41.38300
H  48.60300 27.69200 40.30200

