158

Mg 2.22900 -1.07600 44.08000
C  5.76100 -0.80400 43.29500
C  1.89000 1.86700 42.42800
C  -1.10600 -1.66600 44.04900
C  2.84400 -4.28800 45.19700
N  3.70000 0.34000 42.81300
C  5.09000 0.25300 42.70100
C  5.61500 1.40700 41.91100
C  4.39800 2.46100 41.97700
C  3.23500 1.53700 42.52800
C  4.71000 3.57400 42.90100
C  6.06100 0.95200 40.43900
C  7.49200 1.46000 39.94400
H  7.56500 2.20100 38.67200
N  0.57200 0.04600 43.55600
C  0.71700 1.20100 42.86000
C  -0.65200 1.72700 42.63900
C  -1.59100 0.76600 43.18700
C  -0.71300 -0.29500 43.67100
C  -0.93800 3.07400 41.96900
C  -3.10400 0.80200 43.17700
O  -3.59300 1.79500 42.63400
C  -3.99200 -0.23300 43.92500
N  1.04500 -2.83000 44.43300
C  -0.28700 -2.72400 44.39800
C  -0.91000 -3.95800 45.13400
C  0.31900 -4.91900 45.22600
C  1.46400 -4.00400 44.89500
C  -1.71100 -3.73000 46.39700
C  0.28600 -6.01600 44.10800
C  0.27900 -7.49600 44.52500
N  3.92700 -2.25300 44.36600
C  4.00000 -3.57500 44.81000
C  5.41000 -3.92200 44.91500
C  6.11500 -2.82900 44.34600
C  5.17900 -1.87700 44.01200
C  6.01200 -5.29300 45.32000
C  7.44700 -2.39300 43.96500
O  8.51800 -2.94300 44.04900
C  7.24500 -1.04700 43.24800
C  7.95700 0.04000 43.96300
O  7.62100 0.63700 45.00600
O  8.97600 0.43700 43.16800
C  9.70300 1.56700 43.64800
H  1.72500 2.84700 41.97500
H  -2.13300 -2.01200 43.91300
H  3.11900 -5.26100 45.60900
H  6.49700 1.70700 42.47600
H  4.11700 2.88200 41.01200
H  5.13400 4.36900 42.28700
H  5.33800 3.16900 43.69500
H  3.83700 3.97000 43.41900
H  5.31800 1.39400 39.77500
H  6.10400 -0.13500 40.38000
H  8.06100 0.53000 39.93900
H  7.94200 2.04300 40.74800
H  -1.94700 3.13000 41.56100
H  -0.20200 3.29600 41.19600
H  -0.88300 3.77500 42.80200
H  -4.85800 0.40300 44.11100
H  -3.52000 -0.49100 44.87300
H  -4.23900 -1.08300 43.28800
H  -1.61400 -4.42600 44.44600
H  0.51000 -5.39300 46.19000
H  -2.67100 -4.24300 46.33500
H  -1.86900 -2.66100 46.54100
H  -1.27100 -4.09500 47.32500
H  1.10400 -5.88400 43.40000
H  -0.54300 -5.69200 43.47800
H  -0.67300 -7.88300 44.16200
H  0.23900 -7.57800 45.61100
H  1.14700 -7.97900 44.07600
H  5.32600 -5.99100 45.79900
H  6.90700 -5.07800 45.90400
H  6.22000 -5.79900 44.37700
H  7.59100 -1.05800 42.21400
H  10.50600 1.78100 42.94300
H  10.08300 1.48100 44.66600
H  9.05800 2.44400 43.68200
Mg 17.08800 -2.99200 27.57900
C  16.24900 -1.02400 30.24400
C  18.65700 -5.19000 29.68900
C  17.88600 -4.76600 24.89000
C  15.55500 -0.56100 25.42100
N  17.37600 -3.10800 29.69000
C  16.93000 -2.18600 30.60600
C  17.27200 -2.68900 32.06900
C  18.09500 -3.98900 31.81600
C  18.01500 -4.13400 30.29700
C  19.54200 -4.04400 32.45300
C  16.01100 -2.92100 32.93900
C  16.11800 -2.54200 34.48600
H  17.43500 -1.91800 35.07600
N  18.05300 -4.83000 27.34300
C  18.72100 -5.51700 28.32300
C  19.34200 -6.73400 27.70400
C  19.04900 -6.67200 26.27400
C  18.29400 -5.40300 26.11800
C  20.00000 -7.80400 28.55100
C  19.42000 -7.72300 25.25000
O  19.16200 -7.61400 24.01100
C  20.17600 -8.95100 25.55400
N  16.81200 -2.73100 25.42800
C  17.25300 -3.55500 24.52500
C  17.00000 -3.07500 23.03600
C  16.21700 -1.70200 23.27900
C  16.22400 -1.63400 24.82000
C  18.23100 -2.92700 22.11000
C  14.67000 -1.71300 22.88200
C  13.52200 -2.19600 23.79600
N  15.99300 -1.18200 27.77200
C  15.43300 -0.30700 26.82500
C  14.78700 0.79700 27.50400
C  15.05700 0.53200 28.89200
C  15.83300 -0.64800 28.96800
C  14.01200 1.94400 26.84400
C  14.91400 1.06900 30.16100
O  14.43300 2.08200 30.48900
C  15.61400 0.09000 31.17700
C  16.60400 0.80800 31.93300
O  17.77500 1.08000 31.59400
O  15.95400 1.19200 33.07700
C  16.79100 2.08000 33.95900
H  19.18800 -5.84500 30.38300
H  18.14900 -5.29100 23.97000
H  15.11300 0.20800 24.78500
H  17.96100 -2.00900 32.56900
H  17.53800 -4.85800 32.16600
H  19.80200 -3.06800 32.86300
H  20.28600 -4.28800 31.69500
H  19.66900 -4.78700 33.24100
H  15.66000 -3.95100 32.88200
H  15.19900 -2.34000 32.50000
H  15.85100 -3.37600 35.13500
H  15.36900 -1.75700 34.58400
H  19.41400 -8.72200 28.53700
H  20.13100 -7.45500 29.57500
H  20.98100 -8.01400 28.12400
H  21.11000 -8.90200 26.11300
H  20.40900 -9.43600 24.60600
H  19.43700 -9.55400 26.08200
H  16.22900 -3.74700 22.66200
H  16.64900 -0.76100 22.93700
H  18.49200 -1.88000 21.95600
H  18.14900 -3.59400 21.25200
H  19.16700 -3.15400 22.62000
H  14.62800 -2.24900 21.93300
H  14.45300 -0.66800 22.66200
H  12.68300 -2.45200 23.14900
H  13.16300 -1.33200 24.35600
H  13.83600 -2.98400 24.48100
H  13.94800 1.80300 25.76500
H  14.41200 2.89800 27.18800
H  12.99500 1.89300 27.23200
H  14.82100 -0.27400 31.83100
H  17.80400 1.71600 34.12800
H  16.39700 2.13000 34.97300
H  16.96700 3.06000 33.51500

