158

Mg 45.73000 4.72200 47.43300
C  43.52000 7.37400 46.58700
C  43.26300 2.42200 46.65000
C  48.05200 2.16300 47.74600
C  48.30700 7.01100 47.56200
N  43.60000 4.92700 46.85400
C  42.95700 6.06500 46.34700
C  41.47700 5.83700 45.95500
C  41.44200 4.25600 46.09400
C  42.88000 3.81500 46.52100
C  40.34900 3.72100 47.05000
C  41.39000 6.22200 44.40600
C  40.55500 7.45900 44.09600
H  41.11700 8.43600 43.02200
N  45.59400 2.53600 47.27300
C  44.51800 1.79400 46.93600
C  44.91500 0.39600 46.90300
C  46.35100 0.35500 47.17800
C  46.70700 1.75000 47.44400
C  43.93300 -0.66600 46.51900
C  47.14800 -0.97400 47.21200
O  46.58200 -2.04500 46.94100
C  48.68400 -1.02000 47.48600
N  47.79600 4.65500 47.76400
C  48.53900 3.48300 47.90400
C  50.02000 3.74800 48.09000
C  50.07400 5.26700 48.08600
C  48.63200 5.69800 47.75600
C  50.65800 3.16500 49.41600
C  51.13200 5.91900 47.12800
C  52.13200 6.90100 47.79300
N  45.94900 6.84900 47.24400
C  47.06000 7.58900 47.31000
C  46.68100 9.01200 47.21500
C  45.29300 8.96200 46.86800
C  44.84800 7.63700 46.91000
C  47.61500 10.17100 47.23800
C  44.14900 9.77400 46.54200
O  44.09800 10.93000 46.31700
C  42.97400 8.79900 46.37800
C  41.99600 9.16400 47.42700
O  41.72900 8.51800 48.38700
O  41.14500 10.11200 46.90000
C  39.87200 10.11500 47.54700
H  42.44300 1.70000 46.64200
H  48.84400 1.42400 47.88200
H  49.06500 7.79100 47.46900
H  40.78200 6.35000 46.61800
H  41.18400 3.83300 45.12300
H  39.42000 3.43400 46.55900
H  40.19000 4.56300 47.72400
H  40.65400 2.99800 47.80700
H  40.95000 5.39700 43.84600
H  42.38600 6.38400 43.99400
H  40.37200 8.05300 44.99100
H  39.58700 7.14200 43.70700
H  44.09100 -1.53900 47.15200
H  44.07500 -0.92800 45.47000
H  42.89100 -0.39400 46.68300
H  49.12100 -2.00200 47.30400
H  48.88100 -0.68700 48.50500
H  49.19700 -0.24900 46.91100
H  50.49900 3.32600 47.20700
H  50.13300 5.57600 49.13000
H  49.84100 2.60600 49.87300
H  51.06700 3.84000 50.16900
H  51.40800 2.51000 48.97300
H  50.73400 6.51700 46.30800
H  51.70400 5.14800 46.61300
H  53.08900 6.49000 47.47200
H  52.04200 7.01200 48.87300
H  51.98000 7.86300 47.30200
H  47.65500 10.53200 48.26600
H  47.26200 11.02600 46.66100
H  48.62300 9.88000 46.94400
H  42.65600 8.79000 45.33600
H  39.98500 10.69800 48.46100
H  39.51400 9.11900 47.81000
H  39.11400 10.58300 46.91900
Mg 49.63500 46.89300 42.59100
C  46.37000 47.08300 41.24600
C  49.67600 43.51200 41.90600
C  53.04800 47.01100 42.88400
C  49.56900 50.41700 43.06700
N  48.20700 45.57100 41.64600
C  46.92300 45.76700 41.18600
C  46.18900 44.40500 40.81700
C  47.29400 43.36600 41.12500
C  48.51700 44.20300 41.64900
C  46.95200 42.26200 42.20900
C  45.79300 44.52700 39.27600
C  44.38600 43.97600 38.88200
H  43.97500 44.35600 37.44400
N  51.14500 45.48200 42.52900
C  50.89200 44.16600 42.30000
C  52.13600 43.43300 42.52100
C  53.14800 44.44700 42.72200
C  52.46100 45.74100 42.74200
C  52.26000 41.90700 42.62600
C  54.64200 44.08600 42.82700
O  55.02700 42.91600 42.74900
C  55.76500 45.12000 43.00400
N  51.05900 48.46900 42.91900
C  52.37300 48.22400 43.03700
C  53.18200 49.46800 43.53200
C  52.05700 50.67000 43.49900
C  50.82300 49.79900 43.21500
C  53.81800 49.27400 44.95600
C  52.35900 51.91300 42.55300
C  53.25900 53.04300 43.15900
N  48.20600 48.54300 42.29100
C  48.30600 49.89600 42.52300
C  46.98400 50.49800 42.23000
C  46.21600 49.43700 41.75900
C  46.99300 48.25400 41.77400
C  46.60700 51.85600 42.46300
C  44.92300 49.12600 41.14100
O  44.05600 49.86000 40.72900
C  44.93800 47.55800 40.89800
C  43.91300 46.90800 41.80700
O  44.06500 46.61100 42.95900
O  42.65700 46.88300 41.29100
C  41.55000 46.93200 42.15400
H  49.84300 42.45000 41.71800
H  54.12000 47.21700 42.90800
H  49.59700 51.49500 43.23900
H  45.31800 44.32500 41.46800
H  47.55200 42.83600 40.20800
H  47.19500 41.25300 41.87500
H  45.87200 42.36200 42.31700
H  47.36400 42.43800 43.20300
H  46.46200 43.80200 38.81300
H  46.01800 45.49100 38.82000
H  43.59800 44.51100 39.41200
H  44.27300 42.89900 39.00900
H  52.93800 41.69700 43.45300
H  52.66600 41.49000 41.70500
H  51.38300 41.40400 43.03400
H  55.75600 45.76600 42.12600
H  56.71500 44.60500 43.14300
H  55.60600 45.74300 43.88400
H  53.98000 49.63200 42.80800
H  51.84700 51.05900 44.49600
H  53.46900 49.98700 45.70200
H  54.88500 49.38400 44.76100
H  53.52700 48.30400 45.35900
H  51.40300 52.27400 42.17400
H  52.85200 51.57100 41.64200
H  53.87300 52.65000 43.96900
H  52.59900 53.90300 43.27300
H  54.00200 53.39000 42.44000
H  47.18500 52.61300 41.93300
H  46.66500 51.99400 43.54200
H  45.53800 51.98000 42.28900
H  44.74100 47.40700 39.83600
H  41.39400 47.98900 42.37100
H  41.43000 46.27700 43.01700
H  40.75700 46.56700 41.50100

