158

Mg 1.98200 -2.13900 45.10400
C  5.41500 -1.58900 44.56100
C  1.31200 0.57000 43.10100
C  -1.27600 -3.02000 45.08100
C  2.78400 -4.94100 46.93700
N  3.23700 -0.87300 43.79500
C  4.65200 -0.72900 43.78500
C  5.13000 0.56300 43.05300
C  3.74600 1.23600 42.75600
C  2.62200 0.27700 43.26600
C  3.46300 2.65100 43.35400
C  5.92400 0.19500 41.73900
C  6.41200 1.37200 40.91500
H  6.26400 1.32800 39.46500
N  0.21500 -1.35200 44.21000
C  0.18900 -0.24000 43.43300
C  -1.17700 -0.00100 42.96900
C  -1.96700 -1.03900 43.53900
C  -1.02300 -1.87200 44.30500
C  -1.58900 1.13400 42.14000
C  -3.47500 -1.22000 43.25600
O  -4.16400 -0.37500 42.66600
C  -4.29000 -2.42400 43.81400
N  0.89500 -3.92500 45.68700
C  -0.46100 -3.97900 45.79300
C  -0.91700 -5.26400 46.46100
C  0.39600 -5.74600 47.12500
C  1.45500 -4.78500 46.58700
C  -2.21000 -5.20400 47.37300
C  0.73900 -7.23500 46.81600
C  0.52700 -8.29900 47.93100
N  3.77000 -3.09400 45.75000
C  3.91300 -4.21600 46.49600
C  5.32200 -4.45400 46.74900
C  5.94800 -3.38400 46.04000
C  4.96200 -2.62200 45.41600
C  6.01800 -5.52700 47.52800
C  7.26500 -2.69600 45.73700
O  8.39700 -2.89800 46.22900
C  6.88100 -1.52600 44.69100
C  7.35400 -0.21600 45.19400
O  7.03300 0.26300 46.29000
O  8.20300 0.39200 44.28000
C  8.41000 1.88700 44.35100
H  1.07000 1.51400 42.60900
H  -2.32800 -3.31400 45.07500
H  3.16400 -5.83000 47.44400
H  5.64600 1.27700 43.69600
H  3.63600 1.29300 41.67300
H  2.83400 3.25300 42.69800
H  4.37800 3.21200 43.54700
H  2.95900 2.42000 44.29200
H  5.14500 -0.32100 41.17800
H  6.74200 -0.42000 42.11300
H  7.48000 1.49300 41.09800
H  6.04000 2.31700 41.31200
H  -2.14000 0.79000 41.26400
H  -0.76200 1.73700 41.76600
H  -2.22600 1.77800 42.74600
H  -5.29500 -2.47400 43.39700
H  -4.40400 -2.32900 44.89400
H  -3.76600 -3.33200 43.51400
H  -1.17700 -5.88200 45.60200
H  0.28400 -5.57800 48.19600
H  -1.88100 -5.56300 48.34800
H  -2.91000 -5.91100 46.93000
H  -2.61800 -4.19900 47.49000
H  1.79100 -7.47100 46.65800
H  0.44900 -7.65500 45.85300
H  -0.38000 -8.76300 47.54500
H  0.58400 -7.78700 48.89100
H  1.33800 -9.02400 47.86000
H  6.85900 -5.93700 46.96900
H  5.40500 -6.42100 47.63800
H  6.36200 -5.09700 48.46900
H  7.35300 -1.73900 43.73200
H  9.03100 2.19300 45.19300
H  7.46100 2.38800 44.54100
H  8.98600 2.17400 43.47100
Mg 34.83700 3.31700 29.81500
C  32.69800 4.24500 32.45200
C  37.49100 3.29500 31.96200
C  36.72800 2.67900 27.20900
C  32.04300 3.78200 27.67300
N  35.03600 3.83100 32.03800
C  33.99900 3.99200 32.93500
C  34.54000 3.97300 34.36600
C  36.09000 3.78800 34.17100
C  36.27800 3.67700 32.60300
C  36.94700 4.98000 34.72100
C  33.89700 2.76900 35.16500
C  33.44800 3.12500 36.65000
H  34.14600 4.23600 37.48000
N  36.82300 2.94300 29.65200
C  37.78900 2.96300 30.62300
C  39.02900 2.50200 30.02100
C  38.84900 2.51200 28.62900
C  37.43600 2.65700 28.47500
C  40.27400 2.26500 30.78000
C  39.86900 2.46700 27.40100
O  39.59000 2.56800 26.26100
C  41.38300 2.44700 27.72700
N  34.40400 3.34700 27.68100
C  35.42000 3.05000 26.79400
C  34.89000 2.96100 25.39700
C  33.41100 3.15100 25.57200
C  33.24600 3.42800 27.05600
C  35.54300 4.02600 24.39600
C  32.56400 1.89500 25.11300
C  31.13100 2.18700 24.66600
N  32.80300 3.99100 29.94900
C  31.81600 4.13500 29.04000
C  30.59400 4.46500 29.64900
C  30.90900 4.52700 30.96100
C  32.27300 4.32300 31.06100
C  29.29700 4.72600 28.90600
C  30.29900 4.75500 32.28300
O  29.17900 5.00900 32.66500
C  31.54000 4.58600 33.29200
C  31.56500 5.92200 33.95100
O  32.16800 6.86100 33.45300
O  31.01300 5.76000 35.20500
C  31.17500 6.85200 36.14700
H  38.34900 3.11700 32.61300
H  37.26300 2.44600 26.28600
H  31.11000 3.79800 27.10600
H  34.23700 4.87700 34.89600
H  36.52600 2.93300 34.68700
H  36.42200 5.57800 35.46600
H  37.25800 5.63500 33.90700
H  37.86100 4.56800 35.15000
H  34.60300 1.95100 35.31100
H  33.06600 2.32300 34.61800
H  33.40500 2.19500 37.21600
H  32.42000 3.41700 36.43200
H  40.84100 1.40000 30.43400
H  39.95000 2.14900 31.81400
H  40.91600 3.12800 30.60500
H  41.90500 2.70300 26.80500
H  41.68700 1.42300 27.94500
H  41.61200 3.11200 28.56000
H  35.04500 1.93800 25.05400
H  33.20500 4.12800 25.13400
H  34.79100 4.55400 23.81000
H  36.03300 3.52400 23.56200
H  36.23700 4.67900 24.92500
H  32.67400 1.14300 25.89400
H  33.10800 1.42100 24.29500
H  30.45600 1.99000 25.49900
H  30.75300 1.46500 23.94100
H  30.91500 3.20400 24.33700
H  28.67600 3.83100 28.94100
H  29.46000 4.89200 27.84100
H  28.73600 5.46400 29.47900
H  31.28900 3.85800 34.06400
H  30.25800 7.43100 36.25800
H  31.96900 7.53800 35.85500
H  31.42200 6.44700 37.12900

