158

Mg 44.31100 4.73700 46.89600
C  42.28500 7.60800 46.37700
C  41.42500 2.76400 46.54700
C  46.39500 2.10200 46.53100
C  47.10200 6.95400 46.95800
N  42.10900 5.15000 46.43600
C  41.52300 6.39400 46.30900
C  39.95800 6.23000 46.17300
C  39.78700 4.69500 46.68700
C  41.22500 4.16700 46.48400
C  39.19300 4.52100 48.12600
C  39.44500 6.57200 44.77200
C  38.49800 7.75500 44.52200
H  38.94100 8.77000 43.47300
N  43.96600 2.73300 46.43500
C  42.71600 2.13400 46.42900
C  42.86200 0.69300 46.31900
C  44.25500 0.47100 46.21100
C  44.98800 1.77900 46.28000
C  41.66500 -0.24700 46.28200
C  44.89000 -0.95000 45.96700
O  44.30800 -2.03500 46.17900
C  46.31900 -1.02300 45.47500
N  46.40300 4.55500 46.72900
C  47.00700 3.32200 46.76600
C  48.47300 3.40400 47.02700
C  48.68800 4.97500 47.05400
C  47.23600 5.61700 46.90400
C  48.75700 2.73300 48.40800
C  49.70300 5.46300 45.90100
C  50.85700 6.36400 46.27200
N  44.67600 6.85900 46.84500
C  45.90300 7.59400 46.81000
C  45.62800 8.98000 46.77300
C  44.20800 9.06300 46.65400
C  43.68000 7.70300 46.57900
C  46.59000 10.07700 46.88900
C  43.11100 9.94100 46.51600
O  43.17000 11.16200 46.37800
C  41.85300 9.01900 46.33200
C  40.88600 9.39100 47.46100
O  41.03100 9.02900 48.63100
O  40.12400 10.50900 47.17000
C  39.40700 11.17100 48.24500
H  40.47400 2.22800 46.57600
H  46.96800 1.17800 46.64200
H  47.99100 7.57500 47.08000
H  39.61700 7.02400 46.83800
H  39.24100 4.00900 46.04000
H  38.32500 3.86400 48.06500
H  38.85200 5.51400 48.41900
H  39.91600 4.25800 48.89800
H  38.79600 5.75400 44.45800
H  40.31500 6.53300 44.11600
H  38.35600 8.40900 45.38300
H  37.49800 7.45000 44.21300
H  41.64300 -0.90900 47.14800
H  41.60400 -0.83500 45.36700
H  40.69100 0.23900 46.22300
H  47.10200 -0.91800 46.22500
H  46.44700 -0.08500 44.93400
H  46.43300 -1.94300 44.90200
H  48.93600 2.80000 46.24700
H  49.07600 5.15900 48.05600
H  49.76000 2.93700 48.78200
H  48.59200 1.66300 48.28400
H  48.18000 3.18900 49.21200
H  49.14500 6.05400 45.17400
H  50.03600 4.51400 45.48200
H  51.07600 7.14400 45.54300
H  51.77000 5.76900 46.26800
H  50.68400 6.80400 47.25400
H  47.15700 10.30100 45.98500
H  47.18700 9.82300 47.76400
H  45.93400 10.92000 47.11000
H  41.38400 9.21300 45.36700
H  40.00900 12.04800 48.48100
H  39.18600 10.63500 49.16800
H  38.48300 11.59900 47.85500
Mg 39.90000 10.23600 29.54900
C  41.97200 11.36400 32.15500
C  37.73700 9.17400 31.93700
C  37.96100 8.94600 27.12100
C  42.37400 11.10800 27.32900
N  39.90600 10.30500 31.87200
C  40.74900 11.00700 32.68200
C  40.24600 11.00200 34.14200
C  39.00900 10.07000 34.02100
C  38.88300 9.81400 32.50800
C  39.28600 8.71200 34.80500
C  39.75200 12.44500 34.62600
C  39.43100 12.51000 36.12400
H  40.42200 13.18700 37.08600
N  38.19000 9.16700 29.49700
C  37.41500 8.79100 30.59800
C  36.27400 8.02100 30.23700
C  36.40700 7.88500 28.76800
C  37.51500 8.77900 28.39600
C  35.23000 7.46300 31.23000
C  35.59700 7.03500 27.79800
O  35.77800 6.93600 26.59000
C  34.41000 6.25500 28.35000
N  40.14000 10.03200 27.53000
C  39.12700 9.46600 26.67200
C  39.54500 9.59800 25.16400
C  40.92900 10.38900 25.30600
C  41.19500 10.50200 26.82100
C  39.61600 8.24800 24.28600
C  40.83100 11.81600 24.74000
C  41.76500 12.30000 23.67900
N  41.86200 10.90700 29.68800
C  42.71400 11.34200 28.68000
C  43.81500 12.07400 29.25300
C  43.57500 12.04500 30.62400
C  42.36100 11.38600 30.79900
C  44.91000 12.76600 28.42200
C  44.06700 12.42900 31.95100
O  45.11000 12.99000 32.28400
C  43.01300 12.04800 32.95800
C  43.59700 11.26600 34.08100
O  43.73400 10.07400 34.17700
O  44.05200 12.15000 35.04200
C  44.78800 11.66400 36.22200
H  37.06500 8.90600 32.75500
H  37.28500 8.55000 26.36000
H  43.05200 11.55700 26.59900
H  41.03500 10.59000 34.77100
H  38.12000 10.62100 34.32600
H  38.65600 8.62700 35.69100
H  40.32400 8.69200 35.13600
H  39.12100 7.86100 34.14400
H  38.88200 12.75500 34.04700
H  40.52200 13.20600 34.50200
H  39.29700 11.46900 36.41800
H  38.50400 13.08300 36.14500
H  34.22700 7.72600 30.89500
H  35.37800 7.71200 32.28100
H  35.33300 6.38900 31.07500
H  34.82100 5.47200 28.98900
H  34.03900 5.75200 27.45800
H  33.66700 6.92900 28.77600
H  38.74700 10.20400 24.73400
H  41.77500 9.90000 24.82400
H  40.59000 7.89500 23.94900
H  38.98800 8.34700 23.40100
H  39.35500 7.33500 24.82300
H  40.99900 12.58300 25.49700
H  39.88300 11.91300 24.21100
H  41.24900 12.47600 22.73500
H  42.47400 11.57600 23.27800
H  42.41000 13.12300 23.98600
H  45.49500 13.45400 29.03200
H  44.56500 13.39700 27.60300
H  45.60800 12.00000 28.08500
H  42.58900 12.95900 33.38100
H  45.83800 11.79900 35.96000
H  44.76900 10.59900 36.45600
H  44.60500 12.25100 37.12200

