158

Mg -11.57300 38.69700 42.57300
C  -9.96700 35.79200 41.42000
C  -9.12300 40.51200 40.79700
C  -13.56200 41.38400 42.59600
C  -14.20300 36.67900 43.46900
N  -9.90300 38.18100 41.28300
C  -9.46600 36.95400 40.87800
C  -8.19500 37.02400 40.11600
C  -7.76200 38.51600 40.22200
C  -9.01200 39.16200 40.76400
C  -6.42400 38.75900 41.05400
C  -8.41600 36.54500 38.66900
C  -7.26700 35.45400 38.34500
H  -5.99300 35.95300 37.64500
N  -11.35200 40.65800 41.86200
C  -10.23500 41.21400 41.24300
C  -10.42100 42.67900 41.09300
C  -11.68300 42.99600 41.73800
C  -12.23400 41.68200 42.12800
C  -9.38700 43.47700 40.46700
C  -12.26000 44.45500 41.89400
O  -11.65100 45.38100 41.27600
C  -13.48200 44.80500 42.66300
N  -13.63000 39.03700 42.82000
C  -14.14600 40.25300 43.03200
C  -15.48300 40.18600 43.66500
C  -15.82600 38.71900 43.67900
C  -14.41900 38.08400 43.43600
C  -15.50500 40.80700 45.13600
C  -16.75000 38.29600 42.62200
C  -18.17800 38.23200 43.25000
N  -11.92900 36.67500 42.82800
C  -13.00000 36.01200 43.14000
C  -12.80400 34.57100 43.18600
C  -11.47300 34.42300 42.53600
C  -11.07500 35.71500 42.24600
C  -13.84900 33.61100 43.59700
C  -10.45200 33.50700 42.07500
O  -10.32700 32.28600 42.15000
C  -9.52700 34.30800 41.30400
C  -8.28800 34.21200 42.14900
O  -8.20400 34.63100 43.29900
O  -7.32800 33.51800 41.44200
C  -5.95800 33.45500 41.95200
H  -8.27700 41.04400 40.35600
H  -14.12300 42.31800 42.65900
H  -15.03200 36.03100 43.76200
H  -7.55100 36.38900 40.72400
H  -7.57000 38.92400 39.23000
H  -5.86400 37.82900 41.15700
H  -6.55700 39.23000 42.02700
H  -5.80000 39.37900 40.41000
H  -8.37300 37.42300 38.02400
H  -9.39400 36.07900 38.55200
H  -7.87100 34.92300 37.60900
H  -7.02700 34.69400 39.08800
H  -8.39800 43.12800 40.76300
H  -9.41500 44.48600 40.87800
H  -9.44600 43.54100 39.38000
H  -14.31000 44.36000 42.11200
H  -13.64600 45.88300 42.66200
H  -13.37200 44.39700 43.66800
H  -16.12300 40.71900 42.96100
H  -16.15100 38.33000 44.64400
H  -14.53000 41.04700 45.56100
H  -16.05600 40.16800 45.82700
H  -16.06100 41.74000 45.23200
H  -16.55600 37.40900 42.01900
H  -16.75600 39.13400 41.92500
H  -18.57500 37.23900 43.04100
H  -18.64600 39.06000 42.71700
H  -18.29500 38.50300 44.30000
H  -14.46700 33.95900 44.42500
H  -13.36100 32.70700 43.96200
H  -14.45700 33.42300 42.71300
H  -9.43400 33.99500 40.26400
H  -5.30600 33.07000 41.16700
H  -5.93300 32.71400 42.75000
H  -5.56800 34.41500 42.29200
Mg 1.19000 42.94000 26.05000
C  3.50800 42.75600 28.61400
C  -1.21100 41.99900 28.22900
C  -0.87100 42.27400 23.42500
C  3.82500 43.22400 23.77600
N  1.30400 42.28300 28.15600
C  2.25200 42.49600 29.10300
C  1.73900 42.32700 30.57400
C  0.36700 41.71300 30.26400
C  0.15200 42.07900 28.80200
C  0.11700 40.24300 30.67800
C  1.67200 43.70700 31.38400
C  1.93500 43.64500 32.94100
H  1.59500 42.28300 33.65100
N  -0.81400 42.35400 25.88800
C  -1.66700 42.14300 26.94600
C  -2.95100 41.85000 26.43400
C  -2.84400 41.83200 25.02400
C  -1.38400 42.13800 24.71900
C  -4.12300 41.45900 27.31800
C  -3.97400 41.58600 24.05400
O  -3.79700 41.73700 22.85800
C  -5.37300 41.26100 24.47800
N  1.44500 42.82000 23.87300
C  0.41700 42.58600 23.05600
C  0.88300 42.56100 21.59300
C  2.36400 42.78300 21.70300
C  2.59500 43.01600 23.18100
C  0.27700 41.29700 20.85100
C  2.90000 44.03900 20.91500
C  2.72200 45.41700 21.54600
N  3.26800 43.15100 26.09300
C  4.26900 43.15900 25.11000
C  5.57900 43.18300 25.67500
C  5.31000 43.10600 27.08000
C  3.92800 42.98700 27.28800
C  6.89200 43.27200 24.97200
C  5.91900 42.99500 28.38100
O  7.09600 43.07300 28.68800
C  4.76200 42.96500 29.45200
C  5.02800 41.86900 30.41300
O  5.04000 40.68500 30.16200
O  5.26000 42.45500 31.68300
C  5.76000 41.59600 32.72700
H  -1.90200 41.86300 29.06400
H  -1.57900 42.04000 22.62800
H  4.75200 43.37700 23.21900
H  2.38700 41.64000 31.11900
H  -0.45100 42.18400 30.80800
H  -0.81000 40.24000 31.25100
H  0.92400 39.86300 31.30500
H  0.03000 39.65600 29.76400
H  0.66900 44.11000 31.24000
H  2.32600 44.36700 30.81500
H  1.29700 44.38700 33.42100
H  2.99200 43.86100 33.10200
H  -3.89600 41.58000 28.37800
H  -4.41400 40.42400 27.14000
H  -4.96400 42.13600 27.16400
H  -5.77000 42.06600 25.09700
H  -5.25900 40.27300 24.92500
H  -6.10200 41.31200 23.66900
H  0.62700 43.53500 21.17600
H  2.95100 41.88000 21.53500
H  -0.47800 40.69800 21.36000
H  1.07800 40.60200 20.60300
H  -0.14400 41.59800 19.89100
H  2.40300 44.01400 19.94500
H  3.96300 43.83700 20.78300
H  2.02000 45.41600 22.38000
H  2.22000 46.01100 20.78200
H  3.61400 45.89200 21.95300
H  6.85500 42.66300 24.06800
H  7.65700 42.82200 25.60400
H  7.30000 44.25100 24.71900
H  4.74500 43.96200 29.89400
H  4.99300 41.05100 33.27700
H  6.47200 42.07700 33.39800
H  6.28700 40.78900 32.21800

