158

Mg 25.30800 1.58000 29.23300
C  27.50100 1.17000 32.07100
C  22.70100 1.91100 31.39300
C  23.51400 1.94800 26.47100
C  28.13200 0.85200 27.25300
N  25.10500 1.42900 31.52500
C  26.09200 1.40200 32.45500
C  25.55700 1.57800 33.87300
C  23.99400 1.76200 33.60100
C  23.90300 1.76100 32.03700
C  23.01500 0.70300 34.26400
C  26.33200 2.61800 34.78700
C  25.42000 3.32400 35.71900
H  25.97400 4.07400 36.95000
N  23.33100 1.92200 28.95200
C  22.36300 1.87500 29.97100
C  21.11100 1.89000 29.27600
C  21.32700 1.97400 27.89300
C  22.76400 1.97700 27.71000
C  19.84800 1.96200 30.00000
C  20.34200 1.95300 26.75800
O  20.61900 2.18100 25.57900
C  18.84200 1.48900 27.03200
N  25.79800 1.45900 27.20500
C  24.87800 1.79300 26.19400
C  25.47400 1.67400 24.77200
C  27.00400 1.39900 25.07600
C  27.01200 1.15900 26.58800
C  24.89800 0.49400 23.84700
C  27.93600 2.66300 24.71700
C  27.75700 3.86500 25.53100
N  27.39900 1.06400 29.53600
C  28.40700 0.74400 28.63100
C  29.56300 0.38800 29.34800
C  29.29700 0.56300 30.65900
C  27.97000 0.97400 30.75100
C  30.86700 0.09900 28.67800
C  29.84100 0.45300 31.94100
O  30.90900 -0.04400 32.27900
C  28.72000 0.99100 32.98700
C  28.48400 -0.02900 34.09800
O  27.60500 -0.89400 34.06100
O  29.29600 0.12600 35.16800
C  29.03000 -0.73500 36.26800
H  21.81100 2.04500 32.01100
H  22.95200 2.08500 25.54500
H  28.95100 0.56500 26.59000
H  25.77400 0.65800 34.41600
H  23.65700 2.71600 34.00800
H  22.45600 0.15200 33.50800
H  22.19800 1.06400 34.88900
H  23.49900 0.00400 34.94500
H  26.87300 3.32500 34.15900
H  27.12000 1.99200 35.20500
H  24.53100 2.75700 35.99800
H  25.03100 4.09600 35.05600
H  19.13400 2.57700 29.45200
H  20.02300 2.48800 30.93800
H  19.47700 0.93700 30.02800
H  18.67500 0.80900 27.86700
H  18.49900 1.15000 26.05400
H  18.20200 2.35800 27.18400
H  25.19400 2.56700 24.21400
H  27.40500 0.47000 24.67000
H  24.24600 -0.09300 24.49400
H  25.71000 -0.07700 23.39600
H  24.40400 1.00900 23.02400
H  27.68300 2.95900 23.69900
H  28.94000 2.23900 24.74500
H  27.24200 3.61400 26.45800
H  27.23200 4.68100 25.03500
H  28.67800 4.32300 25.89200
H  30.82000 -0.91100 28.27100
H  31.65100 0.13400 29.43400
H  31.01000 0.74000 27.80900
H  28.97400 1.96400 33.40800
H  28.01000 -0.57300 36.61700
H  29.72500 -0.43300 37.05200
H  29.23100 -1.77100 35.99600
Mg 0.51000 42.38200 26.88400
C  2.08100 42.41500 29.97400
C  -2.34800 41.23600 28.25500
C  -0.69200 41.72200 23.78600
C  3.64900 43.20500 25.37300
N  -0.02800 41.99000 28.83600
C  0.72700 42.15700 29.98800
C  -0.18100 41.96400 31.20100
C  -1.55500 41.35200 30.71400
C  -1.30400 41.59100 29.14100
C  -1.79000 39.90500 31.18300
C  -0.39400 43.25500 32.03100
C  -0.01200 43.11500 33.56800
H  -0.31200 41.84400 34.39900
N  -1.24600 41.60400 26.11400
C  -2.39600 41.23900 26.84700
C  -3.48500 40.82200 25.94900
C  -2.96000 40.92300 24.65100
C  -1.54500 41.45000 24.79300
C  -4.90300 40.37400 26.39900
C  -3.70500 40.73300 23.35400
O  -3.21500 41.04300 22.27300
C  -5.10400 40.22900 23.23800
N  1.31500 42.41900 24.87100
C  0.64700 42.14300 23.78700
C  1.43500 42.46400 22.53200
C  2.73500 43.12600 23.02000
C  2.52600 43.02700 24.57500
C  1.65500 41.25500 21.61200
C  2.95800 44.60300 22.48600
C  3.78200 44.73800 21.13800
N  2.42600 42.81000 27.51000
C  3.61000 43.04400 26.78800
C  4.75300 43.20000 27.73600
C  4.13100 42.99900 29.04400
C  2.80300 42.69600 28.82400
C  6.15900 43.51800 27.41100
C  4.36600 42.85500 30.51700
O  5.41200 42.93800 31.17700
C  3.02100 42.61500 31.23800
C  3.06800 41.34400 32.01000
O  2.92000 40.24900 31.51600
O  3.54000 41.55700 33.30700
C  3.74500 40.36600 34.23800
H  -3.27600 40.96600 28.76400
H  -1.11700 41.53400 22.79800
H  4.59100 43.62100 25.01100
H  0.42400 41.30600 31.82600
H  -2.41000 41.90700 31.09800
H  -2.77300 39.71100 31.61400
H  -0.95100 39.51700 31.76100
H  -1.93400 39.33100 30.26800
H  -1.37900 43.70800 31.91900
H  0.30800 43.95500 31.57700
H  -0.63200 43.87500 34.04500
H  1.04800 43.30700 33.73400
H  -5.73300 41.04500 26.17700
H  -4.81300 40.35900 27.48500
H  -5.05400 39.35000 26.05600
H  -5.26900 39.25700 23.70300
H  -5.30100 40.08300 22.17600
H  -5.92500 40.93000 23.38900
H  0.87700 43.27900 22.07200
H  3.57800 42.50700 22.71300
H  1.18700 41.51700 20.66400
H  1.06700 40.43200 22.01900
H  2.70900 40.98400 21.53600
H  3.41400 45.17300 23.29600
H  1.98100 45.06100 22.33600
H  3.23300 45.29600 20.37900
H  4.08600 43.78800 20.69900
H  4.68100 45.33200 21.30400
H  6.39200 43.23300 26.38400
H  6.82600 42.97600 28.08100
H  6.31400 44.57800 27.61000
H  2.82700 43.47900 31.87300
H  4.72000 40.38000 34.72400
H  3.62100 39.34100 33.88700
H  2.96300 40.54800 34.97500

