158

Mg 17.56600 -1.13600 27.80600
C  16.60700 0.96300 30.51700
C  19.29600 -3.05100 29.80900
C  18.84100 -2.60800 24.97100
C  15.87300 1.12300 25.62900
N  18.05000 -0.93100 30.04100
C  17.45600 -0.08800 30.94300
C  17.78700 -0.62900 32.38900
C  18.71400 -1.90100 32.10900
C  18.71200 -1.95600 30.55400
C  20.13600 -1.77600 32.78500
C  16.44700 -1.10000 33.02100
C  16.37100 -0.80000 34.57300
H  17.56300 -0.26200 35.42700
N  18.84100 -2.65400 27.40500
C  19.43900 -3.35600 28.42400
C  20.25400 -4.40600 27.94000
C  20.26700 -4.17600 26.48600
C  19.27700 -3.15900 26.24700
C  21.11800 -5.33100 28.77200
C  21.05000 -4.93200 25.43800
O  20.85900 -4.80100 24.22900
C  21.91800 -6.00900 25.88600
N  17.36800 -0.79400 25.58000
C  18.04800 -1.53900 24.64300
C  17.69400 -1.03300 23.20900
C  16.42000 -0.11200 23.48300
C  16.52600 0.07300 24.99500
C  18.85700 -0.28600 22.56800
C  15.05000 -0.67200 23.02200
C  13.96700 0.30100 22.70200
N  16.49400 0.64600 28.01700
C  15.87000 1.41100 27.04100
C  15.27300 2.51800 27.71100
C  15.42100 2.35000 29.02900
C  16.17300 1.18200 29.19200
C  14.44400 3.59800 27.10000
C  15.14400 2.95100 30.33500
O  14.53400 4.03000 30.62200
C  15.79400 1.94000 31.33000
C  16.62000 2.66600 32.35800
O  17.82700 2.80600 32.29400
O  15.68500 3.16200 33.26800
C  16.28900 3.78200 34.47600
H  19.84000 -3.60100 30.58000
H  19.08000 -3.19100 24.07900
H  15.40800 1.96100 25.10600
H  18.27800 0.12900 33.00000
H  18.27200 -2.82300 32.48600
H  20.22600 -1.00200 33.54700
H  20.83600 -1.55000 31.98100
H  20.45500 -2.75400 33.14500
H  16.28500 -2.17800 33.04700
H  15.58900 -0.64400 32.52900
H  15.99300 -1.67600 35.10000
H  15.67100 0.03500 34.55900
H  22.09800 -5.44200 28.30700
H  20.65500 -6.31200 28.88700
H  21.39400 -4.93000 29.74700
H  21.40100 -6.73000 26.51800
H  22.83100 -5.61700 26.33500
H  22.31500 -6.46400 24.97800
H  17.48800 -1.86200 22.53200
H  16.52300 0.83600 22.95400
H  18.76000 0.75100 22.89200
H  18.92400 -0.35200 21.48200
H  19.80400 -0.63100 22.98200
H  14.60000 -1.29900 23.79300
H  15.26000 -1.29200 22.15100
H  13.67300 0.24900 21.65300
H  14.38800 1.30300 22.61700
H  13.09800 0.24200 23.35800
H  13.42500 3.23300 26.97100
H  14.86400 3.86800 26.13100
H  14.42700 4.54800 27.63400
H  14.91400 1.51000 31.80800
H  16.10500 3.19100 35.37300
H  15.85100 4.73900 34.75900
H  17.35800 3.98500 34.54500
Mg 35.61600 2.25900 30.19200
C  33.31200 3.25600 32.51100
C  38.05100 2.62400 32.80700
C  38.05900 1.31900 28.06900
C  33.50200 2.73300 27.71700
N  35.65800 2.99600 32.41400
C  34.54800 3.12100 33.13800
C  34.86500 3.15200 34.64000
C  36.36000 3.18800 34.61200
C  36.75500 2.85600 33.21900
C  36.98600 4.56900 35.13400
C  34.19100 1.95000 35.45100
C  33.69500 2.38700 36.86200
H  34.43500 3.47200 37.62800
N  37.75200 1.96900 30.39100
C  38.50900 2.14400 31.55600
C  39.84600 1.86300 31.18900
C  39.96700 1.49700 29.78600
C  38.56500 1.52300 29.36500
C  41.06000 2.04900 32.11100
C  41.10800 1.04800 28.89200
O  40.91600 0.63600 27.76200
C  42.59200 1.05400 29.40200
N  35.84400 2.29700 28.15200
C  36.85200 1.65200 27.53000
C  36.54500 1.43700 26.04300
C  34.97900 1.56700 25.95200
C  34.71800 2.25500 27.32400
C  37.18300 2.47500 25.01900
C  34.27600 0.12600 25.97200
C  32.99600 0.07700 25.14700
N  33.71400 2.81700 30.13200
C  32.96800 3.01800 28.98300
C  31.61900 3.40100 29.38400
C  31.63700 3.40500 30.80600
C  33.03000 3.18100 31.16700
C  30.47600 3.52600 28.49300
C  30.87200 3.63700 31.97600
O  29.69600 3.98300 32.23000
C  31.96800 3.60800 33.15300
C  32.05400 5.00100 33.76700
O  32.52600 5.98100 33.22300
O  31.41000 4.97100 34.99100
C  31.45300 6.26300 35.80500
H  38.76800 2.70700 33.62600
H  38.71500 0.93000 27.28600
H  32.73600 2.76300 26.93900
H  34.43300 4.08100 35.01200
H  36.64700 2.36400 35.26600
H  36.18500 5.30700 35.18500
H  37.80500 4.84000 34.46700
H  37.31800 4.30400 36.13800
H  34.82900 1.07500 35.57900
H  33.28100 1.54200 35.01200
H  33.76600 1.58200 37.59300
H  32.64500 2.67500 36.82800
H  41.59500 1.11900 32.30100
H  40.68200 2.54600 33.00500
H  41.72200 2.78600 31.65500
H  42.62300 0.39000 30.26500
H  42.76500 2.03300 29.84900
H  43.26100 0.79900 28.58100
H  36.76000 0.38100 25.88300
H  34.62500 2.09200 25.06400
H  36.61800 2.65200 24.10400
H  38.15600 2.04000 24.79100
H  37.37300 3.41600 25.53600
H  34.13900 -0.22000 26.99600
H  34.97400 -0.56000 25.49200
H  32.74400 1.06100 24.75100
H  32.20600 -0.34200 25.77100
H  33.07600 -0.60400 24.30000
H  30.16200 2.57400 28.06200
H  30.66400 4.29900 27.74900
H  29.70800 3.89100 29.17500
H  31.79000 2.83900 33.90400
H  30.56600 6.25600 36.43800
H  31.41700 7.03500 35.03600
H  32.41400 6.24500 36.31900

