158

Mg 43.97800 4.27600 46.79800
C  41.61600 6.75000 46.09400
C  41.57400 1.98400 46.35900
C  46.45200 1.98100 46.54000
C  46.25400 6.79600 47.49100
N  41.96000 4.35500 46.10300
C  41.16200 5.44200 45.81400
C  39.72300 4.99900 45.47900
C  39.66200 3.67000 46.22700
C  41.14000 3.28200 46.23900
C  39.17600 3.81100 47.71800
C  39.36500 4.94500 43.93700
C  38.35100 5.87000 43.44100
H  38.80300 6.54000 42.14100
N  44.00200 2.18200 46.53200
C  42.89400 1.46700 46.45100
C  43.30800 0.04200 46.31300
C  44.74400 -0.00600 46.26700
C  45.14900 1.43200 46.43400
C  42.41700 -1.13900 46.44700
C  45.58300 -1.32500 46.28800
O  45.06300 -2.37400 46.47000
C  47.06900 -1.34200 45.97200
N  46.00800 4.37800 46.88800
C  46.86600 3.28400 46.87600
C  48.31800 3.73000 47.15500
C  48.14700 5.12200 47.70500
C  46.67800 5.47300 47.29400
C  49.17900 2.68800 48.04200
C  49.24700 6.08600 47.18700
C  49.90200 6.93800 48.26000
N  43.97700 6.41500 46.76000
C  44.89300 7.30400 47.19900
C  44.45000 8.65700 47.02300
C  43.10300 8.48000 46.66300
C  42.89500 7.08700 46.51400
C  45.24500 9.92300 47.30100
C  41.89500 9.13600 46.30500
O  41.65000 10.31900 46.33300
C  40.80200 8.09100 46.00900
C  39.84800 8.16700 47.08100
O  39.97800 7.77200 48.28800
O  38.65800 8.77200 46.60200
C  37.44900 8.85100 47.37800
H  40.71400 1.32200 46.23700
H  47.30500 1.30600 46.44300
H  46.94500 7.51600 47.93500
H  38.95300 5.58300 45.98200
H  39.14000 2.88600 45.67900
H  39.88300 3.25300 48.33200
H  38.16900 3.39300 47.72600
H  39.22200 4.77300 48.22900
H  38.93700 3.97000 43.70200
H  40.29200 5.19600 43.42100
H  38.25600 6.61000 44.23600
H  37.43900 5.32600 43.19700
H  42.81600 -1.82900 45.70300
H  41.38100 -0.86100 46.25500
H  42.34000 -1.53300 47.46000
H  47.27000 -0.37600 45.51000
H  47.31800 -2.09900 45.22800
H  47.69800 -1.36400 46.86300
H  48.90400 3.86200 46.24500
H  48.22200 5.17000 48.79100
H  49.54500 3.24000 48.90800
H  49.98600 2.38700 47.37500
H  48.56200 1.86000 48.39100
H  48.89800 6.86500 46.50900
H  50.03100 5.59800 46.60800
H  49.66000 7.98900 48.10400
H  50.96400 6.69600 48.21400
H  49.53500 6.64700 49.24400
H  45.69600 10.27700 46.37400
H  46.12200 9.80600 47.93600
H  44.51100 10.66300 47.62100
H  40.39900 8.19000 45.00100
H  37.49300 8.45800 48.39400
H  36.70000 8.22200 46.89800
H  37.01300 9.84900 47.43400
Mg -10.54900 16.24400 43.66800
C  -7.14700 16.66100 43.59800
C  -10.89300 19.68000 42.88700
C  -13.84100 15.79900 42.85000
C  -10.04700 12.75700 43.67600
N  -9.19400 17.94100 43.15900
C  -7.84700 17.84700 43.40400
C  -7.27200 19.31500 43.26400
C  -8.48900 20.12000 43.68000
C  -9.58700 19.17800 43.17800
C  -8.64500 20.38700 45.24300
C  -6.85800 19.58000 41.79800
C  -5.41300 19.99100 41.60400
H  -5.25000 20.93100 40.42000
N  -12.21400 17.62600 43.00100
C  -12.12900 18.95500 42.70800
C  -13.39100 19.44300 42.31600
C  -14.30600 18.31500 42.27000
C  -13.41600 17.10800 42.70600
C  -13.67500 20.92900 42.00500
C  -15.71500 18.30000 41.84300
O  -16.33600 19.33500 41.57400
C  -16.51800 16.91600 41.57600
N  -11.71500 14.49500 43.25200
C  -13.09200 14.61100 43.09400
C  -13.71900 13.15500 43.25600
C  -12.49700 12.19800 43.15200
C  -11.33100 13.21400 43.39100
C  -14.61700 12.93100 44.48000
C  -12.18800 11.76700 41.68400
C  -12.80700 10.41400 41.29600
N  -8.92200 14.95200 43.81800
C  -8.86100 13.59300 43.77600
C  -7.48000 13.11700 43.91100
C  -6.74100 14.31500 43.96800
C  -7.71100 15.40300 43.82400
C  -7.15300 11.70500 44.01000
C  -5.42800 14.91200 43.95800
O  -4.29800 14.43000 44.00300
C  -5.65000 16.45800 43.85800
C  -5.31500 16.95800 45.21500
O  -5.89000 16.78400 46.31200
O  -4.04600 17.50300 45.15200
C  -3.55600 18.18000 46.42700
H  -11.04400 20.75200 42.74000
H  -14.89500 15.57200 42.67800
H  -9.95700 11.66900 43.69100
H  -6.37500 19.53200 43.84300
H  -8.55600 21.11000 43.23000
H  -9.27600 19.68200 45.78300
H  -9.09100 21.38000 45.30400
H  -7.67100 20.59300 45.68800
H  -7.44900 20.38500 41.36000
H  -7.02400 18.66800 41.22400
H  -4.83100 19.07900 41.46900
H  -5.04100 20.50600 42.48900
H  -12.79700 21.51500 41.73100
H  -14.20500 21.38500 42.84100
H  -14.31000 21.13800 41.14500
H  -15.90400 16.13400 41.12800
H  -17.39100 16.98400 40.92700
H  -16.82200 16.52400 42.54700
H  -14.41400 13.01300 42.42900
H  -12.47000 11.37400 43.86600
H  -15.64600 13.06100 44.14500
H  -14.37800 13.71500 45.19900
H  -14.49200 11.93800 44.91300
H  -11.14300 11.51600 41.50300
H  -12.42200 12.63000 41.06100
H  -12.07800 9.64500 41.03700
H  -13.45400 10.65100 40.45200
H  -13.36300 10.02600 42.15000
H  -7.83900 11.31100 44.75900
H  -6.11400 11.53100 44.28900
H  -7.43900 11.26400 43.05500
H  -5.05100 16.85500 43.03800
H  -3.03200 17.50900 47.10600
H  -4.39600 18.72200 46.86100
H  -2.88800 18.96100 46.06200

