158

Mg 7.93200 3.06000 27.95800
C  9.25900 1.65800 30.89600
C  6.35400 5.32100 29.81000
C  6.29800 4.15300 25.17100
C  9.44500 0.55300 26.12400
N  7.71700 3.22900 30.14500
C  8.47400 2.77300 31.17500
C  8.39500 3.55700 32.43000
C  7.24000 4.51200 32.06600
C  7.12000 4.39200 30.54000
C  5.83600 4.25200 32.82000
C  9.76500 4.26700 32.62300
C  10.53100 3.96500 33.94100
H  10.13500 4.88800 35.10300
N  6.50800 4.51000 27.55400
C  5.99700 5.34900 28.48800
C  5.16800 6.36200 27.79800
C  5.11700 5.97700 26.44400
C  6.03200 4.83600 26.35900
C  4.64600 7.60200 28.47500
C  4.43300 6.67800 25.33300
O  4.38500 6.21400 24.22500
C  3.77100 8.07400 25.61400
N  7.87600 2.41900 25.97300
C  7.20000 3.06600 24.96100
C  7.40100 2.48500 23.59500
C  8.42700 1.29500 23.94100
C  8.59800 1.44200 25.48900
C  6.13900 2.13400 22.81800
C  9.76200 1.38500 23.24700
C  10.18400 0.09400 22.58700
N  9.23900 1.48000 28.39600
C  9.74200 0.51700 27.51600
C  10.56600 -0.41700 28.30100
C  10.42900 0.04600 29.61200
C  9.55500 1.11700 29.65400
C  11.31500 -1.58900 27.94200
C  10.88500 -0.16200 30.98900
O  11.68100 -0.92200 31.45500
C  10.03900 0.82600 31.85500
C  9.20300 0.04000 32.87200
O  8.35400 -0.78400 32.55300
O  9.54700 0.28100 34.24200
C  9.04600 -0.52500 35.35900
H  5.99400 6.19900 30.35000
H  5.77600 4.47300 24.26700
H  9.95800 -0.25500 25.59800
H  8.07900 2.83400 33.18200
H  7.52800 5.51300 32.38500
H  5.05900 4.02200 32.09100
H  5.54700 5.14300 33.37700
H  5.93600 3.32900 33.39200
H  9.63900 5.34100 32.76000
H  10.48100 4.14700 31.80900
H  11.60300 4.06100 33.76900
H  10.31400 2.92400 34.18000
H  5.00600 8.51600 28.00300
H  4.93700 7.64800 29.52400
H  3.56100 7.71300 28.45600
H  3.01500 7.89700 26.37900
H  3.22000 8.39900 24.73200
H  4.62400 8.70000 25.87800
H  7.87600 3.23800 22.96700
H  7.90900 0.38100 23.65000
H  5.23100 2.32700 23.39000
H  6.10600 1.10300 22.46600
H  6.15600 2.68500 21.87800
H  10.49700 1.81900 23.92700
H  9.64100 2.11600 22.44800
H  9.38900 -0.58200 22.27000
H  10.85300 -0.49100 23.21700
H  10.67800 0.27200 21.63200
H  11.11200 -1.77500 26.88700
H  10.90800 -2.30500 28.65600
H  12.36800 -1.42700 28.17300
H  10.85900 1.33400 32.36300
H  9.82600 -0.86900 36.03900
H  8.45700 -1.38100 35.02900
H  8.32900 0.01700 35.97500
Mg 46.69000 17.13900 28.14600
C  44.70500 16.79900 31.02100
C  48.62300 19.37500 29.82200
C  48.29800 17.87300 25.28400
C  44.10600 15.63100 26.29600
N  46.74600 17.90300 30.17600
C  45.91100 17.50900 31.19100
C  46.39900 18.08300 32.54800
C  47.51300 19.13500 32.19800
C  47.66200 18.79100 30.65900
C  47.27400 20.63700 32.59100
C  46.73800 16.98800 33.61700
C  45.95100 16.96000 34.85300
H  45.78200 18.32200 35.63800
N  48.34200 18.39400 27.62000
C  48.93900 19.24200 28.48200
C  50.07000 19.84800 27.77100
C  50.00300 19.40700 26.38100
C  48.85900 18.48700 26.42300
C  51.20300 20.69300 28.45700
C  50.90400 19.78700 25.19600
O  50.74200 19.22400 24.10200
C  52.01500 20.82100 25.32500
N  46.24800 16.79600 26.13200
C  47.12000 17.15900 25.13700
C  46.73100 16.67800 23.76600
C  45.40500 15.92400 24.05900
C  45.21600 16.16000 25.59200
C  46.55800 17.79400 22.67000
C  45.37000 14.41800 23.64700
C  46.14100 13.48500 24.53700
N  44.77500 16.37600 28.53700
C  43.88300 15.71300 27.71300
C  42.73800 15.26500 28.53000
C  43.03800 15.61000 29.82700
C  44.31200 16.29900 29.76500
C  41.54800 14.41700 28.11100
C  42.59200 15.57300 31.16000
O  41.64900 15.01400 31.67500
C  43.59900 16.36700 32.01000
C  42.87300 17.47400 32.59200
O  42.39700 18.37800 31.94700
O  42.53300 17.17900 33.87000
C  41.73700 18.10700 34.62900
H  49.25400 20.14300 30.27400
H  48.80600 18.03100 24.33000
H  43.32100 15.27900 25.62300
H  45.60600 18.69200 32.98200
H  48.37500 18.80400 32.77700
H  47.14000 21.28300 31.72300
H  48.12800 21.15000 33.03400
H  46.45300 20.83000 33.28000
H  47.76200 17.02500 33.98900
H  46.43300 16.04200 33.17000
H  46.59600 16.41800 35.54500
H  45.03400 16.38000 34.75500
H  52.23600 20.37300 28.32000
H  51.11400 20.85900 29.53100
H  51.13700 21.67900 27.99600
H  52.48200 21.14200 24.39400
H  52.83000 20.59500 26.01300
H  51.62300 21.70600 25.82700
H  47.54800 16.01600 23.48000
H  44.48000 16.27000 23.59700
H  45.52700 17.88200 22.32600
H  47.18800 17.68900 21.78800
H  46.60000 18.82100 23.03500
H  45.87100 14.30900 22.68500
H  44.37700 13.97300 23.59400
H  46.95000 13.11000 23.91100
H  45.55600 12.59800 24.78300
H  46.33300 13.99400 25.48100
H  40.69900 15.09600 28.19000
H  41.35000 13.64200 28.85300
H  41.59900 14.02800 27.09500
H  44.12300 15.79900 32.77800
H  40.68600 17.82100 34.59300
H  41.88400 19.13800 34.30400
H  42.13600 18.02100 35.63900

