158

Mg 8.69000 2.29400 27.70900
C  10.09900 0.60700 30.53900
C  7.27500 4.49300 29.83700
C  6.95100 3.42300 25.15200
C  9.93300 -0.40400 25.68800
N  8.64500 2.44800 29.85000
C  9.32900 1.74500 30.79300
C  9.27100 2.35000 32.15300
C  8.19700 3.37400 31.94800
C  8.07800 3.51100 30.43600
C  6.86000 3.24100 32.78800
C  10.60300 2.93500 32.62600
C  10.92900 2.82700 34.10100
H  9.85300 2.80000 35.23600
N  7.33200 3.76700 27.51200
C  6.93000 4.63300 28.47100
C  6.12000 5.63200 27.95300
C  6.06900 5.44700 26.54300
C  6.74300 4.10200 26.35700
C  5.30200 6.66700 28.78300
C  5.38600 6.32800 25.40200
O  5.27600 5.98900 24.20700
C  4.79300 7.68700 25.83000
N  8.39700 1.53200 25.63600
C  7.68600 2.24600 24.81800
C  7.84300 1.70200 23.35700
C  8.82200 0.54600 23.59000
C  9.18700 0.61800 24.99600
C  6.49800 1.38300 22.67200
C  10.12900 0.69400 22.72000
C  10.50700 -0.44700 21.78200
N  9.75000 0.46500 27.97800
C  10.11400 -0.51500 27.09500
C  10.82100 -1.53700 27.84100
C  10.88800 -1.08200 29.20400
C  10.16900 0.07700 29.23100
C  11.48900 -2.76300 27.24700
C  11.43400 -1.40000 30.51200
O  12.21600 -2.26900 30.82200
C  10.96400 -0.24700 31.41600
C  10.02400 -0.80300 32.45100
O  8.86200 -1.11200 32.17700
O  10.57100 -0.82400 33.74700
C  9.61700 -1.19600 34.79300
H  7.00500 5.29700 30.52500
H  6.41600 3.89300 24.32300
H  10.30000 -1.21800 25.05900
H  8.93700 1.60800 32.87800
H  8.53200 4.33000 32.35300
H  5.97500 2.99200 32.20200
H  6.70900 4.22400 33.23500
H  7.00400 2.41500 33.48400
H  10.66500 4.00900 32.45500
H  11.40200 2.36100 32.15600
H  11.70500 3.54000 34.37800
H  11.34100 1.81800 34.13000
H  5.79000 7.57800 28.43600
H  5.41300 6.50500 29.85500
H  4.26400 6.65200 28.45100
H  5.57100 8.42400 26.02800
H  4.01900 7.50500 26.57600
H  4.24400 8.12200 24.99400
H  8.21200 2.52100 22.73900
H  8.40900 -0.45500 23.46600
H  6.54400 0.39900 22.20500
H  6.24900 2.10400 21.89300
H  5.69200 1.34900 23.40400
H  11.00600 0.75600 23.36500
H  10.21300 1.61200 22.13800
H  9.65600 -1.10700 21.61200
H  11.35100 -1.08900 22.03600
H  10.83000 -0.00700 20.83900
H  12.46700 -2.44400 26.88700
H  10.82300 -3.28500 26.56000
H  11.69100 -3.54100 27.98300
H  11.82500 0.29800 31.80400
H  9.16500 -2.18200 34.69000
H  9.00600 -0.29400 34.83600
H  10.24500 -1.18900 35.68300
Mg -9.91000 17.43800 41.65000
C  -6.52800 16.35800 41.20200
C  -8.89200 20.61900 40.64300
C  -13.11600 18.27800 41.28100
C  -10.80200 14.10800 41.94300
N  -7.83500 18.37100 40.86100
C  -6.65300 17.74000 40.91400
C  -5.51000 18.76400 40.75800
C  -6.31400 20.22300 40.65300
C  -7.80100 19.68600 40.73600
C  -5.96700 21.12600 41.85700
C  -4.70700 18.42400 39.38900
C  -5.53000 17.97900 38.12700
H  -5.10700 18.57900 36.78000
N  -10.87900 19.24000 41.05600
C  -10.25900 20.39300 40.69700
C  -11.32800 21.41100 40.51200
C  -12.58400 20.79400 40.67100
C  -12.25700 19.36500 41.02600
C  -11.10500 22.92800 40.15200
C  -14.02700 21.43600 40.51800
O  -14.15700 22.61900 40.16100
C  -15.18300 20.68200 40.91100
N  -11.74800 16.27900 41.51900
C  -12.97500 16.87500 41.48400
C  -14.17600 15.77700 41.49300
C  -13.35900 14.51400 41.70600
C  -11.88500 14.95800 41.64800
C  -15.23200 16.04700 42.58900
C  -13.58900 13.38100 40.68400
C  -13.30700 11.93100 41.11900
N  -8.94600 15.59700 41.65000
C  -9.43700 14.34700 41.80700
C  -8.37600 13.35600 41.98500
C  -7.26400 14.14100 41.72400
C  -7.58300 15.48000 41.50800
C  -8.44500 11.84900 42.29700
C  -5.75700 14.08600 41.66600
O  -5.00500 13.13700 41.85000
C  -5.24700 15.53400 41.30700
C  -4.34500 15.91800 42.40900
O  -3.11200 16.05800 42.29700
O  -5.06100 16.18200 43.60100
C  -4.24500 16.69200 44.76400
H  -8.62800 21.66000 40.44700
H  -14.19400 18.43800 41.21600
H  -10.96100 13.02700 41.94300
H  -4.89400 18.65100 41.65000
H  -6.01200 20.67800 39.70900
H  -6.84900 21.28100 42.47800
H  -5.64500 22.08600 41.45300
H  -5.20000 20.69400 42.50000
H  -4.19600 17.50400 39.67200
H  -3.90000 19.11500 39.14400
H  -6.56100 18.31600 38.23300
H  -5.54400 16.89000 38.06600
H  -11.33000 23.00000 39.08800
H  -10.02500 23.06300 40.19600
H  -11.66000 23.71200 40.66700
H  -15.05000 20.36000 41.94400
H  -15.27200 19.91500 40.14200
H  -16.09100 21.28600 40.90900
H  -14.58400 15.98500 40.50300
H  -13.47200 14.21500 42.74800
H  -15.90400 16.84100 42.26200
H  -14.82300 16.22000 43.58500
H  -15.97300 15.26900 42.76900
H  -12.96500 13.57300 39.81100
H  -14.56600 13.54900 40.23200
H  -12.73800 11.41600 40.34600
H  -14.24900 11.41900 41.31700
H  -12.85800 11.96600 42.11200
H  -8.50900 11.37200 41.31900
H  -9.28400 11.55500 42.92700
H  -7.66500 11.50400 42.97600
H  -4.74400 15.39100 40.35100
H  -3.60300 15.84300 45.00200
H  -4.77100 16.88100 45.70000
H  -3.76700 17.63200 44.48700

