158

Mg 6.86300 53.90400 41.73800
C  6.24500 50.39400 41.65800
C  10.06000 53.33600 41.12800
C  7.16800 57.25500 41.29500
C  3.43900 54.37700 42.54200
N  7.89600 52.06500 41.31800
C  7.57400 50.78500 41.49500
C  8.79600 49.87600 41.33400
C  9.99300 50.83400 41.53000
C  9.27800 52.20400 41.38100
C  10.79500 50.72600 42.81100
C  8.87000 49.13100 39.96900
C  8.75200 49.96200 38.70700
H  7.36200 49.96800 38.12000
N  8.34900 55.06500 41.03600
C  9.64000 54.67400 40.96000
C  10.46800 55.80000 40.58300
C  9.69400 56.97600 40.76200
C  8.31000 56.47700 40.94600
C  11.93400 55.63800 40.14400
C  10.22700 58.42500 40.59300
O  11.39300 58.57000 40.34900
C  9.49700 59.69600 40.83400
N  5.36900 55.62700 41.66200
C  5.89900 56.87200 41.77000
C  4.83000 57.82200 42.32200
C  3.49900 56.95900 42.44100
C  4.12200 55.55100 42.30200
C  5.21500 58.62000 43.60600
C  2.46200 57.34400 41.32300
C  1.19200 56.49200 41.31200
N  5.20200 52.72000 42.00200
C  3.89100 53.03900 42.35100
C  3.11500 51.84100 42.57400
C  4.00700 50.71800 42.30600
C  5.20700 51.35500 41.97300
C  1.66500 51.67600 42.88400
C  4.14300 49.29300 42.35800
O  3.35400 48.39300 42.69300
C  5.57500 49.01400 41.80900
C  5.29900 48.35400 40.45000
O  4.59500 48.83800 39.49900
O  5.83700 47.06100 40.50200
C  5.52600 46.20100 39.40300
H  11.13000 53.11800 41.10000
H  7.25900 58.34000 41.37800
H  2.45500 54.43300 43.01500
H  8.85200 49.24200 42.22000
H  10.58500 50.68100 40.62800
H  11.75900 50.22200 42.74700
H  10.37300 50.16800 43.64600
H  10.98000 51.74500 43.15100
H  8.07300 48.38800 39.97700
H  9.73300 48.46700 39.89900
H  9.49600 49.57600 38.01000
H  9.03700 50.99900 38.88100
H  12.31400 54.62600 40.00400
H  12.51200 56.38700 40.68500
H  11.91100 56.11200 39.16300
H  8.86100 59.91200 39.97600
H  10.25100 60.47700 40.93500
H  8.98900 59.66300 41.79800
H  4.54900 58.48300 41.50200
H  2.98500 57.00200 43.40200
H  4.89200 58.18500 44.55100
H  4.87800 59.65300 43.68400
H  6.30200 58.56700 43.66400
H  2.87500 57.39700 40.31600
H  2.22800 58.39200 41.51100
H  1.47200 55.68900 40.63000
H  0.45200 57.10700 40.79900
H  0.76900 56.13700 42.25100
H  1.35400 50.80800 42.30300
H  1.28400 52.68900 42.75600
H  1.66500 51.35500 43.92600
H  5.94300 48.31300 42.55800
H  4.45900 45.99200 39.49200
H  6.07300 45.26400 39.50900
H  5.80700 46.75200 38.50500
Mg -11.88300 16.62300 42.38500
C  -8.52800 17.68600 42.67500
C  -12.83400 19.95800 42.19700
C  -14.87200 15.67800 41.46100
C  -10.68500 13.29800 42.17500
N  -10.85000 18.53400 42.40200
C  -9.41600 18.72400 42.49700
C  -9.13500 20.14800 42.26700
C  -10.39000 20.90500 42.60400
C  -11.46800 19.72800 42.46300
C  -10.46600 21.59000 44.03600
C  -8.59300 20.36300 40.77300
C  -7.20900 21.10100 40.58000
H  -6.13600 20.35200 39.84000
N  -13.65500 17.67700 42.01700
C  -13.82000 19.00300 41.94600
C  -15.17600 19.30200 41.39500
C  -15.82900 18.05300 41.17900
C  -14.74900 17.06300 41.50600
C  -15.71900 20.73300 41.26200
C  -17.29800 17.77100 40.84600
O  -18.04100 18.65400 40.51700
C  -17.84400 16.36300 40.85300
N  -12.60800 14.72300 41.52900
C  -13.99000 14.67300 41.66100
C  -14.44200 13.23500 41.83400
C  -13.07900 12.48300 41.81500
C  -12.04300 13.55000 41.89100
C  -15.24100 12.96800 43.08800
C  -12.84500 11.72300 40.48800
C  -13.48600 10.37100 40.51200
N  -10.07100 15.64800 42.56200
C  -9.71500 14.30000 42.44000
C  -8.26400 14.15800 42.60500
C  -7.81700 15.51800 42.71900
C  -8.94800 16.30900 42.74900
C  -7.51000 12.95600 42.47100
C  -6.57600 16.34600 42.73800
O  -5.42500 16.04800 42.66400
C  -7.03500 17.76400 42.76200
C  -6.57400 18.45200 43.91800
O  -6.53600 17.94500 45.02500
O  -6.16500 19.70900 43.61900
C  -5.61300 20.52100 44.76300
H  -13.18100 20.99400 42.18500
H  -15.81500 15.18200 41.22100
H  -10.44300 12.23800 42.27000
H  -8.31300 20.45500 42.91400
H  -10.53700 21.63700 41.81000
H  -10.68900 22.64500 43.87600
H  -9.49000 21.51700 44.51700
H  -11.17900 21.08800 44.69000
H  -9.25500 20.94800 40.13400
H  -8.50600 19.36500 40.34400
H  -6.88000 21.39800 41.57500
H  -7.48900 22.00500 40.03800
H  -16.21800 21.02100 42.18700
H  -16.53100 20.80000 40.53800
H  -14.96400 21.41600 40.87000
H  -18.91500 16.52400 40.72600
H  -17.82700 15.94300 41.85800
H  -17.34600 15.75500 40.09700
H  -14.99800 12.97900 40.93200
H  -12.74000 11.78000 42.57600
H  -16.30800 12.83200 42.91100
H  -15.09300 13.70600 43.87700
H  -14.91800 12.05500 43.58700
H  -11.78000 11.57200 40.30800
H  -13.28100 12.27900 39.65900
H  -14.09800 10.05900 41.35900
H  -12.67800 9.63900 40.52300
H  -13.98700 10.10100 39.58300
H  -6.49900 13.03400 42.86800
H  -7.36900 12.85500 41.39400
H  -7.98300 12.04400 42.83500
H  -6.55700 18.19200 41.88200
H  -6.04300 20.36300 45.75200
H  -5.87400 21.52200 44.42100
H  -4.52700 20.50200 44.67600

