158

Mg 39.49500 10.31900 29.70400
C  41.45500 11.75200 32.23900
C  37.37800 9.12600 32.04100
C  37.72600 8.81000 27.09900
C  42.19300 10.66700 27.58300
N  39.48500 10.34600 31.96600
C  40.33600 11.05600 32.74600
C  39.78400 11.08500 34.22900
C  38.64300 9.99500 34.15900
C  38.46400 9.77300 32.59500
C  38.85000 8.62300 34.85300
C  39.42400 12.52500 34.78600
C  40.14700 12.96200 36.05000
H  39.33300 13.57300 37.21600
N  37.73900 9.24800 29.57700
C  37.05300 8.75500 30.70700
C  35.77700 8.25600 30.23600
C  35.87200 8.11500 28.79500
C  37.19000 8.68800 28.44600
C  34.74800 7.87800 31.27100
C  34.84900 7.67300 27.78500
O  34.98700 7.61000 26.58000
C  33.58700 7.22500 28.35700
N  39.91000 9.77600 27.64100
C  38.95600 9.39000 26.71500
C  39.50600 9.44800 25.28800
C  40.98300 9.70600 25.57800
C  41.05300 10.11700 27.01500
C  39.27600 8.15600 24.43200
C  41.61200 10.71000 24.54400
C  41.36000 12.19700 24.73400
N  41.43600 11.05600 29.80500
C  42.41800 11.14800 28.87900
C  43.55100 11.81800 29.32100
C  43.25700 12.05200 30.66700
C  41.95300 11.52900 30.94400
C  44.69200 12.12100 28.56300
C  43.73400 12.61800 31.88300
O  44.79200 13.23200 31.98000
C  42.69000 12.35900 32.99700
C  43.20000 11.30400 33.93100
O  43.55900 10.17200 33.64300
O  43.29100 11.73000 35.25300
C  43.72100 10.76900 36.30200
H  36.67300 8.69100 32.75300
H  37.12800 8.39700 26.28400
H  43.03000 10.77500 26.88900
H  40.50300 10.74000 34.97200
H  37.68100 10.27700 34.58800
H  39.77100 8.62600 35.43700
H  38.92400 7.85000 34.08900
H  37.98800 8.30200 35.43700
H  38.35800 12.57600 35.00700
H  39.55900 13.23300 33.96800
H  41.01300 13.55800 35.76200
H  40.45500 12.01000 36.48200
H  34.91000 6.82600 31.50600
H  33.74900 8.04100 30.86600
H  34.75500 8.54200 32.13400
H  32.99400 7.91100 28.96100
H  33.78500 6.38200 29.01900
H  32.88600 6.82100 27.62600
H  39.11100 10.30000 24.73500
H  41.49900 8.74800 25.64900
H  39.15200 8.28800 23.35700
H  38.29300 7.77100 24.70200
H  39.90800 7.28400 24.60500
H  41.21000 10.37200 23.58900
H  42.68300 10.52300 24.46600
H  40.46100 12.46500 25.28900
H  41.26100 12.64400 23.74400
H  42.20600 12.65200 25.24800
H  45.47200 12.45700 29.24600
H  44.49700 12.99000 27.93400
H  44.93500 11.23900 27.97100
H  42.38400 13.24100 33.56100
H  44.73800 10.50200 36.01500
H  43.03200 9.92600 36.23700
H  43.73300 11.17700 37.31200
Mg 27.89200 51.02000 26.36400
C  25.85100 52.07100 28.94900
C  30.23400 50.04600 28.63600
C  29.78900 49.99700 23.80900
C  25.50300 52.27500 24.16800
N  27.99600 51.11000 28.50100
C  27.04700 51.55000 29.43900
C  27.51500 51.25000 30.86100
C  28.99200 50.88800 30.63900
C  29.04900 50.57500 29.12300
C  30.01400 51.88200 31.25000
C  26.73500 50.13100 31.57900
C  26.14500 50.39000 32.94600
H  25.71900 49.15200 33.80400
N  29.77300 50.11200 26.25600
C  30.57700 49.77700 27.31800
C  31.85500 49.34700 26.76900
C  31.73500 49.42200 25.34500
C  30.42000 49.92600 25.07300
C  32.99400 48.96900 27.63300
C  32.80700 49.13000 24.32600
O  32.55400 49.14000 23.13700
C  34.18200 48.65500 24.78400
N  27.66800 51.12900 24.26100
C  28.51300 50.47400 23.45700
C  27.96800 50.42400 22.03300
C  26.53400 50.99200 22.19000
C  26.54400 51.51800 23.62000
C  28.89900 51.20000 21.04600
C  25.34200 49.98500 21.96900
C  24.22900 50.60100 21.09700
N  26.06800 51.99700 26.46000
C  25.16900 52.41200 25.49000
C  24.01600 53.00300 26.04100
C  24.25200 52.84600 27.40600
C  25.52200 52.23500 27.62500
C  22.82500 53.71900 25.30600
C  23.64300 53.12700 28.68700
O  22.61400 53.71800 29.02900
C  24.69400 52.63200 29.76300
C  24.98300 53.78300 30.67200
O  26.02200 54.41700 30.65200
O  23.96900 53.80200 31.70000
C  24.20000 54.92300 32.61200
H  30.94800 49.67700 29.37500
H  30.28300 49.52200 22.95900
H  24.67600 52.45300 23.47700
H  27.27300 52.09200 31.50900
H  29.20600 49.89100 31.02700
H  30.76000 51.31500 31.80800
H  29.56900 52.53800 31.99800
H  30.44100 52.58900 30.53800
H  27.37400 49.25600 31.70100
H  25.92400 49.74100 30.96400
H  25.16900 50.85800 32.82200
H  26.82300 51.00900 33.53400
H  33.21200 47.92600 27.40100
H  32.62700 49.00300 28.65800
H  33.83200 49.66700 27.61500
H  34.83800 48.73100 23.91700
H  34.00800 47.61600 25.06500
H  34.63000 49.19400 25.61900
H  27.88800 49.38900 21.70200
H  26.51600 51.90800 21.59900
H  28.39300 52.14800 20.86600
H  29.05600 50.69100 20.09500
H  29.81400 51.35700 21.61700
H  24.89800 49.72100 22.92900
H  25.60900 49.02600 21.52400
H  24.51800 50.36000 20.07400
H  24.17300 51.68800 21.16700
H  23.24300 50.24900 21.39900
H  22.32100 54.47500 25.90900
H  22.16500 52.91100 24.98900
H  23.18600 54.25300 24.42700
H  24.29000 51.87000 30.42900
H  23.23900 55.00700 33.11900
H  24.62300 55.80200 32.12500
H  25.02000 54.70100 33.29500

