158

Mg 48.03000 34.17000 26.87800
C  45.98600 32.84300 29.43300
C  48.53000 36.96600 28.98600
C  49.37300 35.79300 24.31000
C  47.13800 31.52800 24.88500
N  47.44000 34.74300 29.05000
C  46.60300 34.02100 29.89700
C  46.76900 34.56300 31.32200
C  47.32300 36.00600 31.04100
C  47.88000 35.89000 29.63900
C  46.21700 37.07200 31.11900
C  47.87700 33.78400 32.05000
C  47.94200 33.94700 33.60200
H  47.01000 34.92700 34.32000
N  48.81200 36.05300 26.66500
C  48.99300 37.02400 27.61600
C  49.56500 38.19500 27.06400
C  49.87800 37.93800 25.66500
C  49.28000 36.58300 25.46600
C  49.80600 39.40600 27.91200
C  50.59200 38.78600 24.60500
O  50.81300 38.39600 23.47900
C  51.16700 40.13100 24.89700
N  48.30400 33.75500 24.95800
C  48.88000 34.51200 24.04700
C  49.07800 33.92500 22.71300
C  48.54200 32.52100 23.01000
C  47.89000 32.54000 24.40300
C  48.39900 34.68900 21.59300
C  49.53700 31.23900 22.85600
C  50.83700 31.35600 23.77400
N  46.79900 32.53900 27.03500
C  46.54200 31.50800 26.16800
C  45.68100 30.54900 26.76300
C  45.39600 31.08200 28.02500
C  46.18300 32.21100 28.16600
C  45.06100 29.30200 26.03200
C  44.53000 30.86400 29.13700
O  43.71000 29.99300 29.44400
C  44.79700 32.17100 30.05100
C  44.98500 31.67800 31.37900
O  45.87600 30.85500 31.75500
O  44.12300 32.22600 32.18900
C  44.19000 32.06700 33.59900
H  48.59200 37.85000 29.62400
H  49.67300 36.32500 23.40500
H  47.08000 30.60400 24.30400
H  45.80800 34.54200 31.83600
H  48.08700 36.21100 31.79100
H  45.19000 36.77300 31.32900
H  46.19600 37.53600 30.13300
H  46.50500 37.90100 31.76600
H  48.88200 34.05800 31.73100
H  47.70200 32.72100 31.88400
H  48.95100 34.29800 33.82100
H  47.84200 32.97700 34.08800
H  50.71300 39.94200 27.63300
H  49.79300 39.10600 28.96000
H  48.98500 40.10400 27.75000
H  51.92100 39.88800 25.64500
H  50.43300 40.80900 25.33400
H  51.67700 40.55500 24.03200
H  50.13700 33.78300 22.49600
H  47.68800 32.30800 22.36800
H  49.23400 35.21100 21.12500
H  47.69400 35.43500 21.95900
H  47.89400 34.03900 20.87800
H  49.97300 31.28200 21.85800
H  48.97900 30.30600 22.92600
H  51.73700 31.07900 23.22500
H  50.88300 30.56300 24.52000
H  50.96500 32.27700 24.34100
H  43.97700 29.30800 26.15100
H  45.39000 28.43200 26.60000
H  45.38600 29.13000 25.00600
H  43.93500 32.83900 30.06300
H  43.56700 32.86600 34.00100
H  45.20700 32.16300 33.98100
H  44.01900 31.04000 33.92200
Mg 16.17300 52.37500 27.13000
C  18.15700 50.99700 29.73100
C  13.77500 53.09800 29.44700
C  14.53000 53.58100 24.73600
C  18.56400 51.03000 24.80100
N  15.96400 51.95900 29.31900
C  16.93400 51.53000 30.20800
C  16.38600 51.33000 31.60700
C  14.97500 52.00900 31.49100
C  14.83600 52.34400 29.98800
C  13.73800 51.17000 31.98300
C  17.34100 51.81900 32.75400
C  17.16400 53.13500 33.61200
H  16.29700 53.04500 34.90100
N  14.33400 53.32400 27.15100
C  13.44800 53.57900 28.19300
C  12.31600 54.25800 27.69000
C  12.57700 54.52200 26.27700
C  13.85000 53.84800 25.98500
C  11.18500 54.57000 28.61000
C  11.80900 55.36800 25.29000
O  12.24900 55.68900 24.17500
C  10.38400 55.66200 25.53400
N  16.49600 52.26900 24.98800
C  15.66000 52.99600 24.18800
C  16.03500 52.92000 22.64800
C  17.47900 52.39000 22.82100
C  17.49600 51.77500 24.20800
C  15.03100 51.97000 21.87800
C  18.68200 53.32500 22.54500
C  19.91200 52.70000 21.79800
N  17.98200 51.02500 27.19500
C  18.87100 50.61200 26.16100
C  20.02400 49.92700 26.70200
C  19.76900 50.03400 28.07500
C  18.52300 50.75500 28.34600
C  21.24500 49.41800 26.04400
C  20.30800 49.67300 29.36000
O  21.26100 48.98600 29.62800
C  19.33600 50.31000 30.43600
C  18.82600 49.18000 31.33500
O  18.10100 48.25000 30.99600
O  19.42500 49.25500 32.58100
C  18.91500 48.34100 33.62400
H  13.02700 53.38700 30.18800
H  13.78700 53.89400 23.99900
H  19.30000 50.88100 24.00800
H  16.31400 50.25900 31.79500
H  14.90800 52.94200 32.05100
H  12.78200 51.68800 31.90200
H  13.97300 50.74700 32.96000
H  13.67200 50.31200 31.31400
H  18.27800 52.02800 32.23800
H  17.49000 51.00800 33.46700
H  16.80200 53.91700 32.94500
H  18.15200 53.45400 33.94600
H  10.54000 55.36200 28.22900
H  11.65700 54.88800 29.53900
H  10.60000 53.66600 28.77700
H  9.82900 54.78000 25.85400
H  10.01200 55.93500 24.54700
H  10.22800 56.44100 26.28100
H  16.00800 53.93800 22.25900
H  17.62200 51.52900 22.16800
H  14.40100 51.41400 22.57300
H  15.54100 51.33400 21.15500
H  14.43300 52.68700 21.31500
H  19.10300 53.64200 23.49900
H  18.40300 54.23100 22.00500
H  19.68000 51.72400 21.37300
H  20.79100 52.48200 22.40400
H  20.26800 53.37800 21.02300
H  21.49300 50.16300 25.28900
H  21.05200 48.49600 25.49600
H  22.00300 49.33800 26.82400
H  19.88600 50.99200 31.08400
H  18.59600 48.85000 34.53400
H  19.65900 47.59200 33.89500
H  18.07300 47.69300 33.37800

