158

Mg 40.62500 8.40600 29.33500
C  42.19100 9.65900 32.08900
C  38.27900 6.95900 31.26000
C  39.39000 6.77600 26.56700
C  43.37900 9.27300 27.36200
N  40.28300 8.31400 31.44400
C  40.93000 9.14200 32.36200
C  40.13500 9.15800 33.66200
C  38.89500 8.17900 33.43300
C  39.17500 7.75600 31.97400
C  38.58600 6.97900 34.37600
C  39.67800 10.55800 34.10000
C  38.78300 10.72200 35.31400
H  39.42800 11.39900 36.53200
N  39.00700 7.08600 28.99500
C  38.23900 6.55100 29.91200
C  37.27500 5.75700 29.27900
C  37.49700 5.79300 27.88900
C  38.76600 6.53200 27.78400
C  36.28800 4.74900 30.06400
C  36.74700 5.06200 26.78600
O  37.18800 4.79100 25.64800
C  35.32200 4.59400 27.08300
N  41.35000 7.95200 27.29300
C  40.56800 7.44200 26.33400
C  41.22900 7.49700 24.87700
C  42.37800 8.42600 25.14900
C  42.33500 8.58200 26.70300
C  41.67200 6.11800 24.34600
C  42.08700 9.92100 24.64700
C  40.66500 10.45100 24.45200
N  42.47200 9.17200 29.64500
C  43.41200 9.60100 28.76800
C  44.45200 10.37200 29.40400
C  44.01800 10.35700 30.74500
C  42.75800 9.65900 30.81600
C  45.67300 10.82500 28.67400
C  44.34100 10.83200 32.10600
O  45.35300 11.40600 32.57100
C  43.16200 10.45200 33.01900
C  43.60300 9.70300 34.26500
O  43.76200 8.45400 34.34000
O  43.76800 10.62300 35.29100
C  44.03600 10.10500 36.60300
H  37.44600 6.55200 31.83600
H  38.80200 6.39800 25.72700
H  44.19300 9.69100 26.76800
H  40.78400 8.67600 34.39400
H  38.00200 8.79500 33.32300
H  39.35500 6.98300 35.14800
H  38.59200 6.00800 33.88100
H  37.58100 7.22200 34.72200
H  39.07500 11.02200 33.31900
H  40.52200 11.19200 34.37500
H  38.39000 9.77000 35.67100
H  37.88000 11.30100 35.11900
H  35.39300 5.36100 30.17800
H  36.66500 4.54900 31.06600
H  36.16100 3.82600 29.49800
H  34.92400 4.30900 26.10900
H  34.81200 5.48400 27.45100
H  35.28300 3.63900 27.60700
H  40.57900 7.86600 24.08400
H  43.29500 7.96400 24.78400
H  42.76000 6.07500 24.40600
H  41.39700 6.02400 23.29500
H  41.38400 5.36000 25.07300
H  42.46000 9.92400 23.62300
H  42.65300 10.61400 25.27100
H  39.94800 9.79800 24.94900
H  40.35400 10.55600 23.41200
H  40.63700 11.44400 24.90100
H  46.00500 10.15700 27.87900
H  46.46400 10.75600 29.42000
H  45.57000 11.87200 28.38900
H  42.81200 11.43600 33.33200
H  43.27200 10.36500 37.33500
H  44.98400 10.43000 37.03100
H  43.95600 9.01800 36.59900
Mg 7.16400 54.49300 40.24300
C  6.07100 50.93500 39.85200
C  10.17400 53.49800 39.33900
C  7.64600 57.61100 39.61300
C  3.57600 55.08200 40.76800
N  7.96500 52.41800 39.35400
C  7.41700 51.17100 39.44100
C  8.55400 50.14400 39.20300
C  9.82500 50.94000 39.40300
C  9.30800 52.40900 39.27300
C  10.62900 50.65000 40.69900
C  8.49600 49.36800 37.87300
C  8.40200 50.10800 36.56000
H  7.14400 49.80000 35.75600
N  8.71200 55.44000 39.55000
C  9.90100 54.85000 39.29400
C  10.91600 55.91600 39.07800
C  10.25000 57.18800 39.22900
C  8.80900 56.80800 39.49100
C  12.32500 55.57900 38.74400
C  10.89100 58.61000 39.30100
O  12.12400 58.71100 39.26400
C  10.11800 59.90000 39.51700
N  5.83600 56.04700 40.25400
C  6.31400 57.26900 39.89600
C  5.24500 58.34700 39.92000
C  3.90100 57.51600 40.05800
C  4.45400 56.11100 40.46100
C  5.46600 59.43200 40.92600
C  3.02700 57.38100 38.80700
C  1.62800 57.95300 39.04400
N  5.26400 53.32500 40.48000
C  3.98200 53.72800 40.77500
C  3.10100 52.55900 40.97200
C  3.89100 51.52300 40.66600
C  5.16200 51.98600 40.23500
C  1.71300 52.65100 41.31200
C  3.87800 50.07500 40.65500
O  2.98000 49.28900 40.98400
C  5.29200 49.63100 40.08100
C  4.96300 48.75800 38.89100
O  4.39300 49.10700 37.87400
O  5.61900 47.53900 39.05700
C  5.35600 46.68300 37.90500
H  11.21600 53.18300 39.25100
H  7.80500 58.68100 39.46200
H  2.50400 55.28600 40.80600
H  8.49000 49.38900 39.98600
H  10.45600 50.83200 38.52100
H  11.66400 50.35400 40.52900
H  10.03400 49.94400 41.27900
H  10.72700 51.63400 41.15700
H  7.61700 48.73800 38.01100
H  9.31300 48.65200 37.78800
H  9.16800 49.81000 35.84300
H  8.48700 51.18700 36.68500
H  12.80100 54.90400 39.45500
H  12.99900 56.43600 38.75900
H  12.39100 55.09000 37.77200
H  9.69600 60.16600 38.54800
H  10.73800 60.62300 40.04600
H  9.30100 59.77900 40.22900
H  5.29600 58.88500 38.97400
H  3.38400 57.74800 40.99000
H  6.17900 59.11500 41.68800
H  4.56700 59.67200 41.49400
H  5.91000 60.32000 40.47600
H  2.91300 56.38800 38.37200
H  3.53400 58.00200 38.06800
H  1.65300 58.97200 38.65700
H  1.28400 57.90600 40.07700
H  0.89200 57.35600 38.50700
H  1.56300 53.67100 41.66600
H  1.39700 52.08300 42.18600
H  1.07000 52.61200 40.43300
H  5.82600 49.10200 40.86900
H  5.58500 47.30000 37.03600
H  4.32300 46.36000 37.77200
H  6.04000 45.83600 37.95700

