158

Mg 1.82200 -1.78400 43.55300
C  5.34000 -1.07100 43.01000
C  1.05100 0.97000 42.05800
C  -1.39100 -2.92000 43.51700
C  2.93600 -4.86900 44.93100
N  3.12900 -0.32200 42.51600
C  4.52400 -0.08200 42.49100
C  4.84900 1.26600 41.90400
C  3.43800 1.95200 41.60500
C  2.44700 0.83400 42.19100
C  3.28100 3.36600 42.21000
C  5.65900 1.26300 40.60400
C  5.49800 0.05300 39.70600
H  5.41400 0.31800 38.12800
N  0.03900 -1.03800 42.91400
C  -0.10700 0.15300 42.38700
C  -1.50500 0.43900 42.10000
C  -2.21100 -0.70900 42.56500
C  -1.19800 -1.63000 43.02800
C  -1.95300 1.83400 41.61600
C  -3.66500 -0.82600 42.70200
O  -4.35600 0.00500 42.15500
C  -4.33500 -1.83600 43.59200
N  0.91400 -3.67700 43.96200
C  -0.47300 -3.88700 43.96700
C  -0.82400 -5.24100 44.36200
C  0.53100 -5.72600 45.06700
C  1.56900 -4.65300 44.74300
C  -1.94700 -5.45700 45.37900
C  0.94400 -7.12400 44.57100
C  1.79400 -8.09500 45.48500
N  3.74700 -2.85600 43.96600
C  4.02300 -4.02900 44.57000
C  5.41000 -4.34800 44.68000
C  5.96500 -3.16500 44.06400
C  4.89500 -2.27900 43.68100
C  6.14000 -5.54700 45.22900
C  7.25400 -2.49100 43.70600
O  8.39200 -2.93500 43.80200
C  6.86900 -1.10900 43.02900
C  7.42900 0.12500 43.74400
O  6.81700 0.66600 44.66600
O  8.54500 0.65500 43.20400
C  9.01100 1.93600 43.59100
H  0.80300 2.00500 41.81400
H  -2.39900 -3.31100 43.36000
H  3.35000 -5.77000 45.38900
H  5.39800 1.71300 42.73300
H  3.23800 1.98200 40.53400
H  3.61900 4.14200 41.52400
H  3.84600 3.36300 43.14200
H  2.22100 3.41900 42.46000
H  6.68700 1.46400 40.90700
H  5.32200 2.10300 39.99600
H  4.79300 -0.71300 40.02900
H  6.39500 -0.56600 39.73400
H  -3.03400 1.94400 41.53000
H  -1.37100 2.09300 40.73200
H  -1.66300 2.59500 42.34100
H  -4.49100 -2.67300 42.91000
H  -5.28700 -1.44900 43.95500
H  -3.72400 -2.08900 44.45800
H  -1.06900 -5.83400 43.48000
H  0.48600 -5.82400 46.15200
H  -2.29400 -4.53600 45.84700
H  -1.74000 -6.21100 46.13800
H  -2.76300 -5.84500 44.76900
H  1.56900 -7.09600 43.67900
H  0.08600 -7.78300 44.43900
H  1.98200 -7.70200 46.48400
H  2.76400 -8.27500 45.02100
H  1.40100 -9.10600 45.59100
H  6.94900 -5.84300 44.56100
H  5.45600 -6.39200 45.30900
H  6.54800 -5.33000 46.21600
H  7.28000 -1.03800 42.02200
H  8.21500 2.66400 43.74900
H  9.72000 2.31600 42.85600
H  9.47400 2.00100 44.57500
Mg 47.57900 44.94700 42.93300
C  44.13300 44.96900 42.28100
C  47.56800 41.57000 42.30700
C  51.06300 45.00000 42.61100
C  47.50000 48.42900 43.06400
N  46.00200 43.51500 42.28400
C  44.66400 43.70200 42.20000
C  43.96000 42.36200 41.90200
C  45.02400 41.24000 41.97300
C  46.31700 42.15600 42.25200
C  44.96100 40.16300 43.09400
C  43.11400 42.41900 40.64100
C  43.79800 42.92100 39.36400
H  43.58000 42.12500 38.09500
N  49.12600 43.45900 42.74600
C  48.88900 42.12200 42.53500
C  50.15600 41.43700 42.62800
C  51.17500 42.40100 42.81400
C  50.47500 43.72000 42.79100
C  50.30900 39.88300 42.44000
C  52.68100 42.10000 42.86200
O  53.16400 40.98300 42.61500
C  53.59700 43.26400 43.29500
N  49.06400 46.46700 42.89600
C  50.44200 46.23700 42.66800
C  51.22700 47.61500 42.52500
C  50.11900 48.66700 42.88200
C  48.79400 47.86200 42.98700
C  52.50900 47.65200 43.42100
C  50.04100 49.91200 41.92500
C  49.74000 51.22000 42.56400
N  46.18200 46.41500 42.78900
C  46.27800 47.78700 42.83600
C  44.97000 48.42100 42.68900
C  44.11000 47.30500 42.47900
C  44.91100 46.15600 42.48800
C  44.60400 49.89300 42.61000
C  42.72300 46.97800 42.25100
O  41.74500 47.68700 42.12600
C  42.70400 45.43700 42.14400
C  41.78000 44.92700 43.20200
O  40.59400 45.03000 43.12400
O  42.43600 44.57600 44.39900
C  41.58600 44.26200 45.47800
H  47.52700 40.50200 42.08000
H  52.13100 45.03600 42.38700
H  47.37500 49.50300 43.21600
H  43.22800 42.25100 42.70200
H  45.14700 40.74600 41.01000
H  43.94100 40.02300 43.45200
H  45.70700 40.30400 43.87600
H  45.30000 39.25300 42.59800
H  42.15600 42.89900 40.84000
H  42.92800 41.34900 40.56000
H  44.85100 43.20100 39.39800
H  43.35800 43.89200 39.13700
H  51.03100 39.71000 41.64200
H  49.39700 39.35300 42.16500
H  50.67900 39.40800 43.34900
H  54.05400 43.66500 42.39100
H  54.35700 42.85300 43.95900
H  53.15100 44.00400 43.96000
H  51.61600 47.76700 41.51900
H  50.24000 49.02500 43.90400
H  52.78900 48.60100 43.87900
H  53.41000 47.35700 42.88300
H  52.35900 46.91400 44.20900
H  49.34400 49.63000 41.13600
H  50.99000 50.04900 41.40500
H  50.71100 51.70100 42.67900
H  49.20100 51.18000 43.51000
H  49.26400 51.79300 41.76800
H  44.99000 50.13500 41.62000
H  45.19900 50.59700 43.19200
H  43.54300 50.06300 42.79200
H  42.40700 45.12400 41.14300
H  42.21000 44.41400 46.35900
H  41.27800 43.21700 45.49600
H  40.81300 45.02500 45.56600

