158

Mg 6.19100 53.92600 41.15900
C  4.71700 50.90400 41.18400
C  8.81700 52.59800 39.55900
C  7.39900 57.18100 40.85300
C  3.23100 55.38900 42.64700
N  6.65600 51.99700 40.30700
C  5.94600 50.86900 40.53800
C  6.66000 49.64700 39.96300
C  8.11700 50.18800 39.84800
C  7.84000 51.67700 39.79100
C  9.07300 49.86300 41.03400
C  6.24200 49.04400 38.61700
C  5.51600 49.92500 37.58600
H  6.12900 50.08800 36.15200
N  7.88300 54.72900 40.39300
C  8.89200 54.04600 39.78000
C  9.98100 54.88500 39.37100
C  9.66800 56.18700 39.78800
C  8.23100 56.09800 40.39600
C  11.22100 54.33700 38.69300
C  10.62100 57.36000 39.66200
O  11.69400 57.15800 39.14600
C  10.32100 58.65200 40.41300
N  5.40500 55.97100 41.60700
C  6.11300 57.19300 41.43800
C  5.42000 58.49900 41.96600
C  4.05500 57.78700 42.44100
C  4.25400 56.28000 42.31000
C  6.10900 59.32400 43.03100
C  2.81900 58.37500 41.81400
C  2.27600 57.70500 40.54900
N  4.31400 53.37100 41.80300
C  3.28400 54.03000 42.39900
C  2.28700 53.07900 42.67300
C  2.81600 51.84100 42.29100
C  4.03600 52.09700 41.68800
C  0.85300 53.35200 43.21700
C  2.50900 50.43200 42.30600
O  1.59300 49.83500 42.84200
C  3.80100 49.71800 41.61200
C  3.30200 48.87400 40.51800
O  2.69100 49.20600 39.53700
O  3.79700 47.57200 40.69600
C  3.45500 46.59200 39.71900
H  9.68800 52.07500 39.15800
H  7.76100 58.20600 40.75400
H  2.32500 55.66400 43.19200
H  6.56400 48.94300 40.78900
H  8.67900 50.03600 38.92700
H  9.42200 50.68400 41.66000
H  9.92800 49.27100 40.70800
H  8.62400 49.10700 41.67900
H  5.68700 48.11100 38.71600
H  7.17200 48.71400 38.15300
H  5.36400 50.95900 37.89400
H  4.52300 49.47700 37.56000
H  11.16900 53.31100 38.32800
H  12.02600 54.32200 39.42900
H  11.54400 54.99400 37.88600
H  11.12300 59.37700 40.27400
H  10.07400 58.36200 41.43400
H  9.40800 58.94300 39.89400
H  5.24500 59.08500 41.06400
H  3.86800 57.84100 43.51400
H  6.34500 60.30100 42.60900
H  7.00100 58.92200 43.51100
H  5.44200 59.44000 43.88500
H  2.93800 59.45400 41.71600
H  2.11000 58.14500 42.60900
H  1.27300 57.30200 40.69400
H  2.93800 56.89800 40.23500
H  2.09200 58.51300 39.84100
H  0.45000 54.33700 42.98400
H  0.95600 53.27000 44.29900
H  0.23500 52.54200 42.83000
H  4.22000 48.98400 42.30100
H  2.37800 46.47000 39.83700
H  3.94500 45.63400 39.89300
H  3.66000 46.88100 38.68800
Mg 16.59500 51.91900 26.23300
C  18.16200 50.23200 28.92300
C  14.21900 52.96900 28.20800
C  15.39900 53.34500 23.53200
C  19.16100 50.28300 24.21500
N  16.17600 51.44000 28.31600
C  16.92700 50.90200 29.26300
C  16.38700 51.18900 30.68100
C  14.95000 51.64900 30.35400
C  15.12300 52.14100 28.89000
C  13.91000 50.51300 30.50900
C  17.21600 52.32000 31.37300
C  17.62500 52.01500 32.81100
H  16.56900 52.43500 33.86800
N  14.94400 52.89100 25.96400
C  14.05100 53.30500 26.84800
C  13.17300 54.28100 26.33000
C  13.51300 54.44300 24.97100
C  14.64800 53.53300 24.76200
C  12.22300 55.02600 27.33300
C  13.05900 55.42700 23.91400
O  13.36600 55.50000 22.71700
C  11.99700 56.40700 24.37400
N  17.25000 51.89600 24.23200
C  16.47500 52.56300 23.28400
C  17.15300 52.50500 21.92900
C  18.42000 51.65000 22.14300
C  18.34500 51.29300 23.61400
C  16.20600 52.09900 20.77400
C  19.81400 52.20200 21.58400
C  20.69800 53.18300 22.54600
N  18.34100 50.50600 26.47300
C  19.17900 49.93400 25.60300
C  20.20100 49.17400 26.26500
C  19.82700 49.23100 27.61400
C  18.72700 50.03400 27.63100
C  21.14200 48.30500 25.60000
C  20.15600 48.75900 28.91200
O  21.01300 47.96900 29.26600
C  19.18700 49.54900 29.82700
C  18.52700 48.74600 30.80200
O  17.58500 48.06500 30.60400
O  19.15800 48.79000 31.97600
C  18.53800 48.06800 33.08700
H  13.38900 53.42600 28.75100
H  15.12400 53.91900 22.64500
H  19.83100 49.73800 23.54700
H  16.39700 50.29700 31.30600
H  14.64100 52.53200 30.91300
H  14.17900 49.84900 31.33000
H  13.78700 50.04100 29.53400
H  13.01000 51.06100 30.79000
H  16.60200 53.21900 31.41300
H  18.12900 52.65000 30.87700
H  18.58900 52.50200 32.96100
H  17.80800 50.94600 32.92400
H  11.58700 55.82000 26.94400
H  12.76100 55.38500 28.21000
H  11.63900 54.26200 27.84700
H  12.47700 57.05400 25.10800
H  11.07100 55.92500 24.68600
H  11.70700 56.99000 23.50000
H  17.57200 53.50900 21.86700
H  18.12200 50.68500 21.73400
H  16.82800 52.09900 19.87900
H  15.46000 52.87800 20.61400
H  15.70900 51.13100 20.83800
H  19.53500 52.68500 20.64800
H  20.49100 51.40600 21.27400
H  20.99200 54.13200 22.09700
H  21.58500 52.60000 22.79500
H  20.09600 53.33900 23.44100
H  20.60100 47.73500 24.84500
H  21.72300 47.79600 26.37000
H  21.94200 48.88900 25.14400
H  19.66000 50.32300 30.43200
H  17.48100 48.29400 33.23000
H  19.12700 48.32000 33.96900
H  18.62100 46.98300 33.02500

