158

Mg 0.35300 7.85300 25.23600
C  1.16700 10.04300 27.87500
C  0.36600 5.12400 27.39300
C  -0.61600 5.95100 22.77100
C  0.60900 10.66400 23.03200
N  0.90200 7.61000 27.29700
C  1.00500 8.68100 28.20200
C  1.13600 8.04600 29.62700
C  0.98200 6.57200 29.46700
C  0.68600 6.42400 27.97700
C  2.20300 5.64300 29.92300
C  0.17600 8.57600 30.69100
C  0.53400 8.68100 32.16800
H  1.74900 7.92600 32.70300
N  -0.00200 5.80700 25.03200
C  0.01700 4.81900 26.02800
C  -0.37100 3.55500 25.51100
C  -0.65000 3.72200 24.11600
C  -0.50900 5.22800 23.91600
C  -0.48300 2.34600 26.40800
C  -0.85000 2.71700 23.09000
O  -0.98800 3.03900 21.93100
C  -0.83600 1.26300 23.35300
N  -0.03400 8.33200 23.24100
C  -0.37600 7.28500 22.48100
C  -0.55500 7.74300 21.01100
C  -0.28200 9.30800 21.10400
C  0.08900 9.44700 22.54700
C  0.21100 7.01400 19.93700
C  -1.45600 10.14500 20.66500
C  -1.17000 11.14100 19.55600
N  0.83100 9.92000 25.33700
C  0.96600 10.93800 24.34200
C  1.30300 12.19200 25.05800
C  1.36000 11.93000 26.44100
C  1.11600 10.47500 26.55800
C  1.43700 13.48100 24.41600
C  1.68400 12.38900 27.74800
O  2.12200 13.55800 28.06100
C  1.46300 11.20400 28.78700
C  2.66700 11.15600 29.65500
O  3.63000 10.45300 29.41100
O  2.46500 11.91000 30.80900
C  3.69300 12.01900 31.71600
H  0.25600 4.33000 28.13500
H  -0.97000 5.37500 21.91400
H  0.60300 11.49000 22.31800
H  2.12600 8.20800 30.05400
H  0.10300 6.28400 30.04500
H  2.89300 6.21600 30.54100
H  2.73900 5.20100 29.08200
H  1.88500 4.85700 30.60800
H  -0.81700 8.15200 30.53900
H  0.00300 9.60600 30.37900
H  -0.34000 8.28800 32.68800
H  0.53900 9.72100 32.49600
H  -1.49400 1.93700 26.40800
H  -0.32500 2.58000 27.46100
H  0.28400 1.58900 26.25100
H  -1.57100 0.99700 24.11200
H  0.09300 0.89900 23.79200
H  -0.96500 0.65600 22.45600
H  -1.62700 7.58600 20.89700
H  0.61600 9.53400 20.52900
H  -0.37200 6.18300 19.53900
H  1.14400 6.61900 20.33900
H  0.38000 7.76500 19.16500
H  -1.76600 10.76600 21.50500
H  -2.28300 9.51900 20.33000
H  -0.54400 10.80000 18.73200
H  -0.57900 11.82400 20.16600
H  -2.02200 11.71900 19.19600
H  0.68200 13.44400 23.63000
H  2.36100 13.47000 23.83800
H  1.40400 14.38500 25.02400
H  0.63000 11.51100 29.42000
H  4.58000 11.82500 31.11300
H  3.69300 11.38000 32.59900
H  3.90400 13.01400 32.10900
Mg 25.70900 1.63500 29.54800
C  27.76600 1.21700 32.35000
C  23.00700 1.82000 31.68300
C  23.72000 1.76800 26.88000
C  28.39700 0.57300 27.52700
N  25.49200 1.48000 31.76700
C  26.42900 1.36700 32.70600
C  25.77400 1.59200 34.12400
C  24.28000 1.69500 33.81200
C  24.24400 1.66700 32.30200
C  23.41100 0.62100 34.54700
C  26.32500 2.86200 34.85600
C  25.60500 3.10600 36.23400
H  26.48600 3.41800 37.44400
N  23.60400 1.70800 29.30900
C  22.70600 1.78100 30.32500
C  21.34600 1.93600 29.71400
C  21.60300 1.95800 28.29500
C  23.01700 1.86400 28.09200
C  20.12800 2.12000 30.59200
C  20.55300 2.01900 27.19400
O  20.76100 2.11700 25.96100
C  19.11700 2.13400 27.64000
N  26.05300 1.34200 27.45700
C  25.08800 1.55900 26.59400
C  25.72200 1.61100 25.16700
C  27.15800 1.18700 25.41500
C  27.23700 1.00000 26.91700
C  24.93100 0.83400 24.05200
C  28.21600 2.24900 24.85900
C  29.57700 1.53800 24.52100
N  27.71700 1.03300 29.80000
C  28.65000 0.63600 28.87100
C  29.87900 0.35500 29.54700
C  29.61100 0.56200 30.89600
C  28.30200 1.01300 31.01700
C  31.21400 0.03200 28.98900
C  30.17700 0.44100 32.22200
O  31.26300 0.11400 32.69700
C  28.96900 0.88500 33.17500
C  28.65500 -0.23200 34.04400
O  28.19600 -1.29000 33.66700
O  28.95300 0.08200 35.35000
C  28.72400 -0.93800 36.33700
H  22.21200 2.00000 32.41000
H  23.10400 1.99300 26.00700
H  29.24400 0.41500 26.85700
H  26.02100 0.66800 34.64600
H  23.96900 2.69800 34.10400
H  22.50400 1.16200 34.81600
H  23.87100 0.21700 35.44900
H  23.03500 -0.18600 33.91900
H  26.16700 3.67100 34.14300
H  27.40200 2.77100 34.99900
H  25.08800 2.18000 36.48500
H  24.95900 3.89400 35.84700
H  19.55300 1.21900 30.37500
H  19.66400 3.10000 30.48300
H  20.34900 2.01100 31.65300
H  19.01800 2.99100 28.30700
H  18.95300 1.21700 28.20500
H  18.47800 2.28500 26.77000
H  25.70900 2.64700 24.82900
H  27.34200 0.20200 24.98400
H  24.60900 1.51400 23.26300
H  24.11500 0.20000 24.39800
H  25.53900 0.12400 23.49200
H  28.24500 3.08000 25.56300
H  27.90300 2.62400 23.88400
H  29.70500 1.73100 23.45600
H  29.53300 0.45200 24.44300
H  30.47000 1.95400 24.98800
H  31.52200 0.69000 28.17600
H  31.16900 -0.97500 28.57600
H  31.95400 0.05200 29.78800
H  29.27900 1.79700 33.68400
H  29.59700 -1.01900 36.98400
H  28.51900 -1.98500 36.11500
H  27.92500 -0.53500 36.95900

