158

Mg -12.91700 16.26300 41.74800
C  -10.16400 14.29000 41.03100
C  -11.40000 18.92500 40.16100
C  -15.96600 17.86700 41.59500
C  -14.60000 13.39000 42.75000
N  -11.00500 16.54800 40.62500
C  -10.00800 15.60900 40.49500
C  -8.74800 16.24800 39.90700
C  -9.14300 17.73100 39.70000
C  -10.54200 17.78600 40.30400
C  -8.19500 18.72900 40.48000
C  -8.08100 15.56400 38.68100
C  -6.60100 15.18700 38.83300
H  -5.59300 15.82200 37.78900
N  -13.56500 18.18000 41.24600
C  -12.81500 19.08700 40.49900
C  -13.55900 20.26500 40.31300
C  -14.90200 20.01900 40.90200
C  -14.83300 18.64100 41.28900
C  -13.00300 21.53400 39.61800
C  -15.97400 20.93400 41.08300
O  -15.85600 22.04800 40.58700
C  -17.25400 20.67300 41.91100
N  -15.03000 15.70300 42.15300
C  -16.09000 16.46200 41.90400
C  -17.46100 15.81100 42.21300
C  -16.92400 14.37200 42.61400
C  -15.45200 14.47500 42.50700
C  -18.26400 16.59800 43.26200
C  -17.58700 13.22200 41.91200
C  -18.59900 12.39400 42.74500
N  -12.48700 14.20800 42.06800
C  -13.23900 13.15200 42.49700
C  -12.44900 11.94400 42.46400
C  -11.28200 12.37400 41.95000
C  -11.32300 13.73300 41.64700
C  -12.91000 10.59400 42.86700
C  -9.93000 11.87400 41.54000
O  -9.41900 10.75700 41.55000
C  -9.13600 13.11400 41.02900
C  -7.84200 13.50800 41.69800
O  -7.80100 14.20000 42.71200
O  -6.78500 12.87700 41.10100
C  -5.48000 13.30800 41.64200
H  -10.90800 19.75600 39.64900
H  -16.94800 18.32700 41.46600
H  -15.09600 12.42400 42.86900
H  -8.03800 16.11300 40.72300
H  -9.13500 17.99100 38.64100
H  -8.84600 19.53500 40.81900
H  -7.41500 19.17900 39.86600
H  -7.80400 18.32300 41.41300
H  -8.15500 16.05000 37.70900
H  -8.65000 14.65500 38.48700
H  -6.66900 14.13400 38.56000
H  -6.25600 15.44100 39.83600
H  -13.73500 22.22900 39.20600
H  -12.21800 21.27000 38.90900
H  -12.42700 22.18500 40.27600
H  -17.91600 20.00000 41.36500
H  -17.70400 21.64700 42.10300
H  -17.16900 20.14400 42.86100
H  -18.00300 15.69700 41.27400
H  -17.01400 14.08600 43.66200
H  -17.94600 17.57400 43.62900
H  -18.54500 15.99900 44.12800
H  -19.16700 16.85900 42.71000
H  -16.76300 12.59300 41.57400
H  -18.19400 13.66000 41.12000
H  -18.34100 11.44500 43.21400
H  -19.40100 12.01800 42.11000
H  -18.99700 13.00500 43.55600
H  -13.04000 9.95400 41.99400
H  -13.91100 10.62600 43.29800
H  -12.09200 10.23100 43.48900
H  -8.84500 13.06400 39.98000
H  -5.49800 14.37800 41.85200
H  -4.76600 13.04800 40.86100
H  -5.17500 12.73300 42.51600
Mg -5.68600 25.17000 26.04700
C  -4.23400 26.65200 28.84800
C  -7.35600 23.07200 28.08300
C  -6.67600 23.44000 23.27900
C  -3.40300 26.99500 24.03700
N  -5.55400 24.74300 28.21000
C  -5.09800 25.57200 29.20400
C  -5.66300 25.22600 30.62100
C  -6.18200 23.78600 30.26900
C  -6.37000 23.80000 28.74400
C  -5.22700 22.58700 30.68200
C  -6.71800 26.25200 31.26700
C  -6.88400 26.16600 32.80800
H  -6.11200 25.08500 33.56500
N  -7.00600 23.58700 25.71800
C  -7.65600 22.90200 26.69200
C  -8.63400 21.97700 26.12100
C  -8.47400 22.11900 24.67200
C  -7.37600 23.16200 24.47600
C  -9.53300 21.12800 26.99300
C  -9.26200 21.43900 23.52900
O  -8.95700 21.63100 22.31000
C  -10.45800 20.62200 23.76400
N  -5.28100 25.44900 23.84500
C  -5.71100 24.51400 22.98200
C  -4.90900 24.54400 21.58000
C  -3.95200 25.79900 21.84000
C  -4.28500 26.16400 23.28300
C  -4.19600 23.09900 21.28700
C  -4.19900 26.99500 20.85000
C  -5.17800 28.07200 21.28500
N  -4.30300 26.67800 26.31300
C  -3.42400 27.33200 25.43800
C  -2.56400 28.24800 26.20700
C  -2.92900 28.10900 27.52000
C  -3.82100 27.00500 27.57700
C  -1.63800 29.22500 25.68100
C  -2.62100 28.53000 28.82200
O  -1.90200 29.37400 29.25100
C  -3.48700 27.57400 29.75000
C  -2.67800 26.88700 30.73100
O  -2.13100 25.82700 30.45100
O  -2.64600 27.51500 31.93400
C  -2.14300 26.71800 33.10200
H  -7.92300 22.34600 28.66900
H  -6.84000 22.80000 22.41000
H  -2.61600 27.38100 23.38500
H  -4.86300 25.18300 31.36000
H  -7.12300 23.48300 30.72800
H  -5.83100 21.84500 31.20500
H  -4.38300 22.96200 31.26100
H  -4.69600 22.19000 29.81700
H  -7.61000 26.09400 30.66000
H  -6.51200 27.27800 30.96100
H  -7.93900 26.07800 33.06900
H  -6.58000 27.12900 33.21800
H  -10.39600 21.62100 27.43900
H  -8.91400 20.61900 27.73300
H  -9.83300 20.25900 26.40700
H  -10.13300 19.59500 23.92900
H  -10.93400 20.62400 22.78300
H  -11.10200 21.06400 24.52400
H  -5.61300 24.77000 20.77900
H  -2.93900 25.41200 21.95800
H  -3.17900 23.22600 20.91700
H  -4.77000 22.64800 20.47700
H  -4.23900 22.34800 22.07500
H  -4.45200 26.58900 19.87100
H  -3.19500 27.39400 20.70400
H  -5.66000 28.29600 20.33400
H  -4.65800 28.89900 21.76900
H  -6.02100 27.68500 21.85800
H  -1.21500 28.82800 24.75800
H  -0.74100 29.30400 26.29500
H  -2.03300 30.22600 25.50900
H  -4.21700 28.23000 30.22300
H  -1.28700 26.10000 32.83100
H  -2.91500 26.03500 33.45800
H  -1.85400 27.34100 33.94800

