158

Mg 6.91100 56.87600 41.37800
C  6.45200 53.27900 41.27900
C  9.91100 56.34700 39.70300
C  6.83300 60.03600 40.55600
C  3.66800 57.13800 42.80300
N  8.08800 55.00300 40.53200
C  7.70500 53.67700 40.65200
C  8.80500 52.81600 40.03300
C  10.06300 53.73000 40.02700
C  9.37000 55.12600 40.13700
C  10.93800 53.56400 41.26700
C  8.41000 52.33200 38.62600
C  8.63100 50.77400 38.28300
H  7.45800 50.10800 37.49500
N  8.22800 58.05800 40.36000
C  9.41600 57.64100 39.75700
C  10.03100 58.86200 39.21000
C  9.27900 59.95100 39.48700
C  7.99100 59.37800 40.09200
C  11.36700 58.80800 38.58800
C  9.59200 61.39500 39.25300
O  10.65900 61.65000 38.67100
C  8.77800 62.63900 39.70200
N  5.42900 58.31500 41.55500
C  5.71900 59.58500 41.23300
C  4.60200 60.54500 41.61800
C  3.54900 59.63900 42.29800
C  4.28000 58.30600 42.25300
C  4.88600 61.81000 42.47000
C  2.12000 59.59200 41.67800
C  0.95700 60.17200 42.57200
N  5.40900 55.46400 42.08900
C  4.22900 55.80800 42.74300
C  3.67000 54.54800 43.24900
C  4.47900 53.51100 42.67700
C  5.43400 54.14200 41.90900
C  2.47100 54.38300 44.10800
C  4.69700 52.06200 42.55200
O  4.13400 51.12700 43.08100
C  5.91200 51.89800 41.57100
C  5.43700 51.28000 40.31100
O  5.16300 51.85900 39.24400
O  5.38200 49.98800 40.56900
C  4.49600 49.17600 39.63800
H  10.89000 56.17900 39.24700
H  6.79800 61.12400 40.46500
H  2.73800 57.17000 43.37500
H  9.04600 51.96100 40.66500
H  10.63400 53.57900 39.11100
H  10.75000 54.18200 42.14400
H  11.90400 53.93000 40.91800
H  10.96300 52.50900 41.53900
H  8.99300 52.91300 37.91100
H  7.36000 52.55400 38.43500
H  8.94800 50.26300 39.19200
H  9.50700 50.71800 37.63700
H  11.91100 57.86300 38.59600
H  12.04600 59.42000 39.18300
H  11.34700 59.13800 37.55000
H  8.57500 62.39000 40.74400
H  7.82900 62.67700 39.16700
H  9.38700 63.53200 39.56400
H  4.30600 60.73900 40.58700
H  3.51200 59.92700 43.34900
H  4.75400 62.67100 41.81500
H  5.91000 61.69500 42.82500
H  4.17700 61.93600 43.28800
H  1.95400 58.52900 41.50400
H  2.21900 60.14000 40.74000
H  0.33300 60.86200 42.00300
H  1.34300 60.68200 43.45500
H  0.39800 59.32900 42.97700
H  1.56100 54.50100 43.51900
H  2.46200 54.96700 45.02800
H  2.46300 53.40300 44.58500
H  6.77800 51.34800 41.94000
H  3.48100 49.06300 40.02000
H  4.82900 48.13900 39.68100
H  4.42400 49.67700 38.67200
Mg -5.45300 25.17900 27.23600
C  -3.39300 27.12800 29.50700
C  -6.08400 23.04500 29.87700
C  -6.80100 23.07800 25.03600
C  -4.10600 27.16500 24.75000
N  -4.84800 25.19300 29.42100
C  -4.07500 26.08100 30.11500
C  -4.14000 25.72300 31.63800
C  -4.77700 24.29500 31.69700
C  -5.24700 24.15600 30.20200
C  -3.74500 23.19900 32.18500
C  -4.98100 26.83600 32.32500
C  -6.00800 26.53600 33.43500
H  -5.61600 25.91300 34.77200
N  -6.43500 23.36600 27.43900
C  -6.52000 22.60800 28.58200
C  -7.31400 21.39500 28.35700
C  -7.60100 21.45300 26.96300
C  -6.95800 22.69500 26.39700
C  -7.45100 20.30600 29.42700
C  -8.14400 20.39300 26.09000
O  -8.30600 20.50700 24.90400
C  -8.80400 19.12000 26.66100
N  -5.43100 25.12800 25.13000
C  -6.19100 24.22000 24.43600
C  -6.27100 24.56500 22.97400
C  -5.33300 25.80600 22.82400
C  -4.88200 26.04500 24.33500
C  -5.73300 23.36700 22.07100
C  -5.92700 27.05000 22.09000
C  -5.26800 27.63200 20.84900
N  -3.92800 26.76100 27.03200
C  -3.60900 27.55000 25.99600
C  -2.67400 28.52400 26.41800
C  -2.59200 28.46100 27.79400
C  -3.39700 27.34200 28.11600
C  -1.76000 29.42700 25.59300
C  -1.92100 28.93400 28.93900
O  -1.08900 29.82400 29.06300
C  -2.49100 28.11600 30.17100
C  -1.42600 27.54700 31.02700
O  -0.58300 26.78100 30.63800
O  -1.49700 28.03300 32.27400
C  -0.80500 27.31700 33.38200
H  -6.34600 22.42700 30.73900
H  -7.37100 22.45600 24.34200
H  -3.73400 27.85300 23.98800
H  -3.13100 25.75200 32.05100
H  -5.63900 24.30800 32.36400
H  -3.59700 22.47700 31.38200
H  -4.14400 22.78000 33.10900
H  -2.73300 23.55800 32.37500
H  -5.52400 27.37200 31.54700
H  -4.22000 27.48600 32.75600
H  -6.82700 25.99000 32.96700
H  -6.32800 27.52700 33.75500
H  -8.28300 19.62900 29.23000
H  -7.71900 20.69000 30.41200
H  -6.50700 19.78000 29.57200
H  -8.14900 18.41900 27.17900
H  -9.14000 18.53300 25.80600
H  -9.52900 19.38200 27.43100
H  -7.33400 24.74300 22.80900
H  -4.41400 25.50800 22.31700
H  -5.17900 23.67800 21.18500
H  -6.58200 22.86100 21.61100
H  -5.12500 22.66300 22.64000
H  -6.04300 27.97600 22.65400
H  -6.94600 26.78700 21.80600
H  -6.06000 27.60300 20.10000
H  -4.44000 27.01800 20.49500
H  -4.94100 28.66700 20.95500
H  -2.32200 29.77400 24.72600
H  -0.91000 28.82800 25.26500
H  -1.42000 30.30700 26.13800
H  -3.19200 28.66900 30.79800
H  0.26100 27.53700 33.32300
H  -0.88600 26.23300 33.30600
H  -1.16900 27.57900 34.37600

