158

Mg 49.33400 45.62600 43.32400
C  45.77900 45.68300 42.40200
C  49.36100 42.38300 42.57100
C  52.60300 45.92900 43.32200
C  49.00400 49.16100 43.64200
N  47.75300 44.24600 42.42900
C  46.35300 44.43400 42.27700
C  45.70300 43.11100 41.98800
C  46.81700 42.07100 42.25200
C  48.08900 42.89300 42.36200
C  46.46900 41.31600 43.59300
C  45.12200 43.00500 40.55100
C  46.01300 43.56800 39.37000
H  45.87400 42.86000 38.04000
N  50.84100 44.30200 43.04300
C  50.61600 42.98900 42.73900
C  51.86500 42.28500 42.79800
C  52.86000 43.25100 43.10000
C  52.14100 44.54800 43.20900
C  52.04300 40.72000 42.71800
C  54.36100 42.99800 43.27300
O  54.85600 41.86400 43.19300
C  55.31500 44.09400 43.56900
N  50.59900 47.34200 43.32400
C  51.91800 47.18400 43.38200
C  52.68000 48.49100 43.56600
C  51.52700 49.49500 43.67800
C  50.31700 48.63200 43.56700
C  53.47600 48.48600 44.87100
C  51.52700 50.63000 42.60900
C  52.17300 52.04200 42.84700
N  47.72800 47.12000 43.24300
C  47.76800 48.51500 43.37600
C  46.46100 49.10700 43.37900
C  45.70500 48.00900 42.91600
C  46.46800 46.85900 42.84900
C  45.93700 50.34900 43.69700
C  44.29800 47.60000 42.49500
O  43.28000 48.24200 42.46400
C  44.40500 46.11100 41.88300
C  43.26700 45.30700 42.46300
O  42.45300 44.71200 41.83300
O  43.22200 45.38100 43.84100
C  42.14300 44.58100 44.48700
H  49.37800 41.29300 42.51500
H  53.68500 45.91600 43.17500
H  48.93100 50.24300 43.77400
H  44.83700 42.99700 42.64000
H  46.97400 41.36900 41.43400
H  45.56600 41.66600 44.09400
H  47.27300 41.35500 44.32700
H  46.24400 40.30000 43.26800
H  44.13200 43.45500 40.47500
H  45.00600 41.96800 40.23600
H  47.06800 43.43300 39.60800
H  45.92200 44.65100 39.28500
H  51.22200 40.32600 42.11800
H  51.90100 40.32800 43.72500
H  53.07000 40.42400 42.50800
H  54.97600 44.66800 44.43200
H  55.41900 44.80700 42.75200
H  56.29700 43.70300 43.83600
H  53.31900 48.60900 42.69000
H  51.46700 49.86100 44.70200
H  54.51300 48.61100 44.56000
H  53.31400 47.52400 45.35800
H  53.10900 49.20300 45.60500
H  50.52800 50.98600 42.35700
H  51.92200 50.11500 41.73300
H  53.03300 52.33700 42.24500
H  52.66100 51.91500 43.81300
H  51.48000 52.88100 42.91200
H  45.30000 50.76500 42.91600
H  46.74200 51.07400 43.81700
H  45.36600 50.26300 44.62100
H  44.21000 46.17200 40.81200
H  42.28900 43.52000 44.28500
H  41.22200 45.02900 44.11400
H  42.24100 44.74400 45.56000
Mg -1.30600 33.88900 25.99000
C  -3.18700 32.15900 28.61300
C  0.01400 35.99500 28.24900
C  -0.08600 35.48300 23.50600
C  -3.12600 31.86600 23.74300
N  -1.69800 34.06500 28.10200
C  -2.40600 33.27100 29.00700
C  -2.06800 33.71300 30.43600
C  -1.16900 35.01000 30.24000
C  -0.86800 34.99700 28.79700
C  -1.92900 36.30700 30.79700
C  -1.36700 32.54100 31.26300
C  -2.01400 32.29800 32.70700
H  -1.10900 32.25300 33.99800
N  -0.16600 35.54300 25.83500
C  0.29300 36.33400 26.85100
C  1.21800 37.28300 26.39400
C  1.21300 37.12500 25.02100
C  0.29400 36.07000 24.72600
C  2.07400 38.16300 27.32000
C  2.14100 37.89200 24.03200
O  2.11900 37.76600 22.78400
C  3.13000 38.88900 24.51400
N  -1.81300 33.91800 23.80600
C  -1.00800 34.57100 22.99900
C  -1.05600 34.08300 21.57400
C  -1.67100 32.67700 21.73600
C  -2.27400 32.79500 23.17000
C  -1.66100 34.87000 20.48000
C  -0.60500 31.52100 21.62500
C  -1.15800 30.35000 20.80100
N  -2.82300 32.32900 26.09500
C  -3.47100 31.62300 25.07600
C  -4.42100 30.67000 25.60600
C  -4.21100 30.79500 26.99700
C  -3.35800 31.85100 27.23100
C  -5.32300 29.76400 24.84300
C  -4.67000 30.25300 28.25600
O  -5.39300 29.28300 28.44400
C  -4.03600 31.13500 29.32200
C  -5.20600 31.73800 30.02400
O  -5.74600 32.78100 29.75200
O  -5.38700 31.08200 31.21200
C  -6.20300 31.80600 32.19300
H  0.54600 36.59700 28.98900
H  0.28900 36.04800 22.65000
H  -3.68700 31.23100 23.05400
H  -3.07100 33.75600 30.86000
H  -0.25700 34.91300 30.83000
H  -1.40700 36.84400 31.58900
H  -2.87000 35.87300 31.13500
H  -2.14700 36.93900 29.93700
H  -0.35000 32.78700 31.56700
H  -1.45900 31.70300 30.57200
H  -2.64900 31.41300 32.76000
H  -2.74600 33.10200 32.78400
H  1.86300 38.09100 28.38700
H  2.04300 39.22200 27.06800
H  3.12200 37.90000 27.17800
H  2.57200 39.63600 25.07800
H  3.80200 39.38300 23.81100
H  3.84400 38.47100 25.22400
H  0.00900 34.04800 21.34500
H  -2.49900 32.43800 21.06900
H  -2.63100 34.52400 20.12300
H  -0.96000 34.97000 19.65100
H  -1.83900 35.83000 20.96400
H  -0.31500 31.17000 22.61500
H  0.26400 32.00800 21.18100
H  -0.47700 30.36200 19.95000
H  -2.13900 30.39200 20.32700
H  -1.12700 29.36500 21.26800
H  -6.20600 29.51200 25.43100
H  -4.78200 28.89000 24.48000
H  -5.62400 30.40000 24.01000
H  -3.52400 30.49300 30.03800
H  -5.55500 32.41000 32.83000
H  -6.75100 31.15600 32.87500
H  -6.78800 32.58200 31.70000

