158

Mg 41.88400 41.04700 27.39800
C  41.12100 43.53400 29.91700
C  42.75800 39.00600 29.95200
C  42.54700 38.83200 25.10000
C  41.45700 43.60200 24.97600
N  42.03500 41.38600 29.70900
C  41.53000 42.31200 30.52500
C  41.52700 41.86700 31.99100
C  42.32500 40.47800 31.93200
C  42.41700 40.28000 30.43700
C  43.68300 40.34500 32.55600
C  40.11400 41.84200 32.61300
C  39.97400 42.75000 33.89700
H  39.08500 42.07100 34.99900
N  42.52900 39.14700 27.50600
C  42.87400 38.35000 28.64100
C  43.28500 37.04000 28.20200
C  43.20600 37.05700 26.78700
C  42.70700 38.37600 26.40800
C  43.74000 35.97300 29.16200
C  43.48100 35.88200 25.87300
O  43.55700 36.05000 24.61900
C  43.89200 34.53500 26.31400
N  42.29300 41.34600 25.28900
C  42.32800 40.18200 24.60000
C  42.32600 40.47500 23.11100
C  41.83400 41.94800 23.05500
C  41.80100 42.34000 24.54400
C  43.62300 40.12900 22.33600
C  40.54300 42.24200 22.21800
C  39.30100 41.60000 22.78500
N  41.41200 43.06600 27.37900
C  41.24400 43.98000 26.32600
C  40.72500 45.23300 26.87300
C  40.71100 45.04100 28.23000
C  41.12900 43.72100 28.49900
C  40.42800 46.45300 26.17100
C  40.22300 45.73200 29.42400
O  39.77700 46.86800 29.62700
C  40.49700 44.69600 30.63500
C  41.42500 45.33900 31.62400
O  42.62100 45.41400 31.56800
O  40.78100 45.92400 32.64100
C  41.47900 46.79100 33.54700
H  42.85200 38.33200 30.80600
H  42.49800 38.04700 24.34300
H  41.31200 44.36900 24.21300
H  42.04400 42.57600 32.63800
H  41.67600 39.72700 32.38300
H  43.88300 41.21900 33.17600
H  44.41700 40.28700 31.75300
H  43.84600 39.45200 33.16000
H  39.92300 40.84600 33.01300
H  39.30200 42.08800 31.92900
H  39.40000 43.63900 33.63700
H  40.80100 43.30200 34.34300
H  43.04800 35.13400 29.08500
H  43.76100 36.36000 30.18100
H  44.70300 35.53400 28.90500
H  43.42300 34.14700 27.21900
H  44.95200 34.52300 26.56700
H  43.95800 33.81000 25.50300
H  41.60500 39.70700 22.83100
H  42.56900 42.60500 22.59000
H  44.40800 40.03500 23.08600
H  43.97500 40.90700 21.65800
H  43.63800 39.17200 21.81600
H  40.64100 41.98400 21.16300
H  40.36700 43.30900 22.08500
H  38.65300 42.41300 23.11200
H  39.48200 41.09600 23.73500
H  38.86300 40.98600 21.99900
H  41.21600 46.67800 25.45200
H  40.39100 47.24700 26.91700
H  39.47300 46.46000 25.64500
H  39.56700 44.37300 31.10300
H  41.86400 46.23800 34.40400
H  40.80900 47.60100 33.83400
H  42.30100 47.30100 33.04400
Mg -1.86300 35.01000 27.31900
C  -3.48600 33.17900 29.94800
C  -0.43100 36.97200 29.64400
C  -0.52500 36.59700 24.89500
C  -3.57700 32.69300 24.98800
N  -2.01800 35.07700 29.56000
C  -2.73900 34.28600 30.43200
C  -2.54400 34.71100 31.90600
C  -1.76500 36.10700 31.70700
C  -1.33900 36.02500 30.19800
C  -2.63200 37.43100 31.99800
C  -1.70600 33.56200 32.64900
C  -2.28000 32.92300 33.86800
H  -1.35600 32.86200 35.10600
N  -0.70900 36.57500 27.31400
C  -0.11200 37.32200 28.31200
C  0.76600 38.25500 27.82300
C  0.63900 38.20100 26.44000
C  -0.27300 37.13200 26.11600
C  1.58300 39.16000 28.73300
C  1.30200 39.10100 25.32600
O  0.96000 39.08900 24.17400
C  2.32100 40.19400 25.80300
N  -2.23500 34.82700 25.27200
C  -1.37100 35.56900 24.48000
C  -1.40800 35.14900 22.98600
C  -2.31000 33.96300 23.00800
C  -2.76700 33.81300 24.53600
C  -1.83300 36.30400 22.10700
C  -1.64700 32.66000 22.37900
C  -0.37700 32.00700 22.96200
N  -3.23600 33.23300 27.39600
C  -3.84800 32.50700 26.40400
C  -4.64200 31.42800 27.00900
C  -4.61600 31.66600 28.40400
C  -3.72800 32.79600 28.57400
C  -5.42300 30.43500 26.22900
C  -5.05800 31.29100 29.70800
O  -5.76400 30.38900 29.96200
C  -4.43800 32.28100 30.75000
C  -5.44900 33.03800 31.58300
O  -6.00300 34.05700 31.22200
O  -5.51600 32.44300 32.84600
C  -6.44700 33.11700 33.73300
H  0.06100 37.64400 30.35100
H  -0.01500 36.91200 23.98200
H  -3.85100 31.98300 24.20500
H  -3.53700 34.84500 32.33400
H  -0.92800 36.15700 32.40400
H  -3.69000 37.34800 31.74800
H  -2.11900 38.24400 31.48500
H  -2.59200 37.68600 33.05700
H  -0.78200 33.99100 33.03500
H  -1.40900 32.80600 31.92200
H  -2.52600 31.87300 33.71000
H  -3.11500 33.55700 34.16600
H  2.61400 39.19900 28.38200
H  1.55600 38.95100 29.80300
H  1.23600 40.18800 28.62700
H  1.69600 40.86300 26.39400
H  2.74300 40.85400 25.04600
H  3.15800 39.67700 26.27200
H  -0.41400 34.84900 22.65400
H  -3.12800 34.22700 22.33800
H  -0.98100 36.86800 21.72800
H  -2.52200 36.89400 22.71000
H  -2.35300 36.00600 21.19700
H  -1.51900 32.74500 21.30000
H  -2.45500 31.93600 22.48800
H  -0.29800 32.45600 23.95300
H  0.43100 32.25200 22.27300
H  -0.43700 30.92400 23.07000
H  -5.03600 29.42500 26.36400
H  -5.24400 30.62200 25.17000
H  -6.49700 30.50900 26.39900
H  -3.95100 31.66300 31.50500
H  -7.11300 33.77700 33.17700
H  -5.98800 33.58300 34.60500
H  -7.14700 32.36700 34.09900

