158

Mg 16.52100 -1.52800 28.19100
C  15.19900 0.56200 30.78300
C  18.29400 -3.21600 30.48200
C  17.96100 -3.43200 25.72000
C  14.89700 0.46900 25.86000
N  16.81300 -1.26900 30.25300
C  16.17700 -0.38800 31.18900
C  16.44600 -0.81500 32.64600
C  17.56900 -1.86800 32.52400
C  17.59000 -2.10100 30.98700
C  19.08300 -1.63600 32.95800
C  15.08200 -1.22900 33.28000
C  14.72500 -0.77800 34.69200
H  15.70600 0.04000 35.49700
N  17.77800 -3.17900 28.16400
C  18.42200 -3.72300 29.14600
C  19.23200 -4.89200 28.77600
C  19.03800 -5.06700 27.36300
C  18.22700 -3.80000 27.02000
C  20.01800 -5.72900 29.79300
C  19.67100 -6.01200 26.37600
O  19.57000 -5.87600 25.14900
C  20.50300 -7.20900 26.93100
N  16.40100 -1.44100 26.12100
C  17.05800 -2.37100 25.31600
C  16.71900 -2.10200 23.80900
C  15.65400 -0.93400 23.92800
C  15.63600 -0.61100 25.39300
C  17.96000 -1.83100 23.04100
C  14.28700 -1.51400 23.34500
C  14.20300 -1.52700 21.80500
N  15.37500 0.27100 28.25300
C  14.78900 0.90800 27.23800
C  13.96600 1.98700 27.75200
C  14.02200 1.86400 29.15100
C  14.97900 0.84400 29.44000
C  13.10000 2.76000 26.87700
C  13.65900 2.42500 30.38500
O  13.03600 3.41400 30.65500
C  14.36000 1.56700 31.49300
C  15.22700 2.54700 32.27700
O  16.41200 2.81200 32.00000
O  14.46400 3.03200 33.28700
C  14.96400 4.14300 34.12100
H  18.91200 -3.67100 31.25900
H  18.36000 -3.97500 24.86100
H  14.23900 1.01200 25.17900
H  16.86600 0.05100 33.15800
H  17.31300 -2.75900 33.09800
H  19.08000 -0.85500 33.71900
H  19.67700 -1.43200 32.06700
H  19.45200 -2.55600 33.41100
H  15.07800 -2.31700 33.35400
H  14.20600 -1.01000 32.67100
H  14.34400 -1.62000 35.27100
H  13.83800 -0.17000 34.51100
H  20.01000 -6.81100 29.66200
H  19.76900 -5.61500 30.84800
H  21.01800 -5.30900 29.69100
H  21.03900 -7.74700 26.14900
H  19.76500 -7.85500 27.40700
H  21.19300 -6.86000 27.69800
H  16.29300 -3.05500 23.49600
H  15.97300 -0.08800 23.31900
H  17.88200 -0.97100 22.37500
H  18.24800 -2.66900 22.40700
H  18.78500 -1.61900 23.72100
H  13.35800 -1.04500 23.66600
H  14.09400 -2.54400 23.64700
H  13.22000 -1.13700 21.54000
H  14.27100 -2.57400 21.51100
H  15.04900 -0.98900 21.37900
H  12.52500 2.10900 26.21900
H  13.76600 3.30200 26.20600
H  12.41300 3.43900 27.38200
H  13.65700 1.09900 32.18100
H  15.00100 3.85000 35.17000
H  14.30500 5.00500 34.01900
H  15.89500 4.60300 33.78800
Mg 49.53300 46.16800 42.88400
C  45.97200 46.46900 41.89700
C  49.23300 42.87400 42.01000
C  52.80500 45.96100 43.08000
C  49.63400 49.64100 43.03000
N  47.81500 44.87800 42.00700
C  46.47200 45.21500 41.54800
C  45.70300 43.95500 41.08000
C  46.64000 42.77600 41.48300
C  47.96400 43.59800 41.87000
C  46.15600 42.00000 42.75600
C  45.23700 43.84000 39.57500
C  46.31400 44.38800 38.52800
H  46.69800 43.54100 37.30000
N  50.87900 44.63300 42.55100
C  50.53600 43.30400 42.28000
C  51.77800 42.50500 42.34500
C  52.87900 43.38600 42.53700
C  52.23000 44.76800 42.76700
C  51.76600 41.02700 42.10300
C  54.28400 42.97000 42.36900
O  54.54100 41.84100 41.93100
C  55.40900 43.93200 42.52500
N  50.97100 47.59900 42.87500
C  52.28200 47.28300 43.15100
C  53.09900 48.51100 43.56800
C  52.03800 49.65200 43.35900
C  50.79300 48.92500 42.95300
C  53.53700 48.32200 45.09300
C  52.31900 50.76700 42.28200
C  52.11400 52.21100 42.82400
N  48.06700 47.80500 42.73900
C  48.34100 49.13500 42.76900
C  46.99400 49.82400 42.67600
C  46.12900 48.86300 42.23500
C  46.79000 47.55100 42.34200
C  46.73900 51.28500 42.79500
C  44.75600 48.60900 41.81100
O  43.84600 49.34600 41.69000
C  44.64800 47.06700 41.44000
C  43.41300 46.44200 42.01900
O  42.42200 46.05100 41.40400
O  43.50600 46.52500 43.40000
C  42.25100 46.08800 44.11500
H  49.10000 41.83000 41.72000
H  53.86700 45.88900 43.32600
H  49.72800 50.71800 43.18700
H  44.82100 43.98200 41.72000
H  46.75100 42.20300 40.56200
H  46.88200 42.04900 43.56700
H  46.22800 40.92700 42.57500
H  45.22400 42.40700 43.14900
H  44.39900 44.49600 39.33700
H  44.88200 42.82600 39.39300
H  47.29300 44.59900 38.95900
H  45.91900 45.32000 38.12300
H  52.48300 40.48100 42.71700
H  52.15400 40.86500 41.09700
H  50.81900 40.49000 42.15400
H  55.34500 44.71100 41.76500
H  56.35000 43.39200 42.42000
H  55.40900 44.40000 43.50900
H  53.95200 48.59000 42.89400
H  51.97300 50.24900 44.26800
H  54.05500 47.40000 45.35800
H  52.62100 48.26500 45.68100
H  54.13700 49.17500 45.41000
H  51.64100 50.72500 41.42900
H  53.34300 50.73200 41.91100
H  52.07100 52.23800 43.91300
H  51.19900 52.69600 42.48400
H  53.01100 52.76600 42.54700
H  46.81200 51.57800 41.74800
H  47.46700 51.68300 43.50200
H  45.75000 51.52700 43.18200
H  44.60100 46.96900 40.35500
H  41.83500 45.25600 43.54900
H  41.66000 47.00300 44.08400
H  42.35200 45.84700 45.17300

