158

Mg 0.82900 7.73600 25.49400
C  1.49500 9.52900 28.30800
C  0.94100 4.87100 27.31700
C  0.48200 5.94900 22.55300
C  1.14700 10.58800 23.45700
N  1.12300 7.26900 27.56400
C  1.36700 8.14600 28.56800
C  1.49700 7.44900 29.99300
C  1.49900 5.99500 29.55100
C  1.11400 6.01400 28.07000
C  2.85700 5.14100 29.87200
C  0.32600 7.84900 30.99000
C  0.67300 7.87000 32.45400
H  1.92000 7.07100 32.94000
N  0.73700 5.69900 24.99600
C  0.72100 4.64600 25.86800
C  0.33700 3.40200 25.19100
C  0.20300 3.75100 23.82100
C  0.51700 5.17600 23.68700
C  0.14500 2.11700 25.93800
C  -0.15800 2.83300 22.71100
O  -0.28700 3.31300 21.58300
C  -0.50700 1.42400 22.85300
N  0.92600 8.21400 23.22600
C  0.63300 7.29700 22.28500
C  0.52300 7.93100 20.86600
C  0.68100 9.45900 21.17200
C  0.88500 9.44900 22.70800
C  1.74300 7.37300 19.94000
C  -0.65300 10.26800 20.86500
C  -0.56200 11.77600 20.36800
N  1.23700 9.66100 25.73700
C  1.28900 10.72100 24.82900
C  1.51500 11.96100 25.54100
C  1.58600 11.55000 26.90200
C  1.40600 10.17400 27.00700
C  1.57400 13.32300 24.88600
C  1.76000 12.06900 28.31300
O  2.11400 13.20800 28.57700
C  1.56000 10.79900 29.25600
C  2.68500 10.70300 30.22400
O  3.77700 10.32700 29.88900
O  2.35600 11.39900 31.39400
C  3.35200 11.28600 32.47200
H  1.12100 3.98000 27.92300
H  0.26700 5.46400 21.59800
H  1.10400 11.55000 22.94300
H  2.47600 7.73500 30.38000
H  0.62600 5.50900 29.98700
H  2.73500 4.13900 30.28500
H  3.55400 5.69200 30.50300
H  3.35500 5.12500 28.90200
H  -0.60900 7.29200 30.92800
H  0.04200 8.85100 30.67000
H  -0.27000 7.77500 32.99100
H  1.02800 8.89000 32.60200
H  -0.93000 1.94900 25.86300
H  0.45700 2.14000 26.98200
H  0.73100 1.29000 25.53800
H  -0.97000 1.09200 21.92400
H  -1.18800 1.20700 23.67700
H  0.35600 0.77900 23.01900
H  -0.37000 7.53400 20.38300
H  1.53100 9.99300 20.74700
H  1.44900 7.57200 18.91000
H  1.97900 6.31400 20.04600
H  2.67400 7.91500 20.10500
H  -1.29900 10.15000 21.73500
H  -1.29100 9.70500 20.18300
H  -1.20200 11.87600 19.49100
H  0.45700 12.00700 20.05900
H  -0.85000 12.48000 21.14900
H  2.44400 13.45800 24.24400
H  1.55700 14.15600 25.58900
H  0.70900 13.47500 24.24100
H  0.66700 11.12000 29.79200
H  3.73500 10.26900 32.55800
H  3.01100 11.64800 33.44200
H  4.17900 11.92200 32.15600
Mg 44.11200 3.86800 47.55500
C  42.19900 6.70400 46.96400
C  41.50800 1.90400 47.23100
C  46.32200 1.19000 47.50600
C  46.98200 6.00400 47.34700
N  42.09800 4.31500 47.00100
C  41.47500 5.50500 46.87000
C  40.02300 5.30300 46.65300
C  39.88800 3.82800 47.14300
C  41.28100 3.29000 47.03400
C  39.18100 3.64200 48.52300
C  39.51600 5.69100 45.18600
C  38.43000 6.78700 44.94400
H  37.85200 6.77000 43.52200
N  43.93600 1.79500 47.49100
C  42.73000 1.15500 47.43600
C  42.92800 -0.28000 47.46100
C  44.34100 -0.46200 47.51600
C  44.95700 0.88400 47.46100
C  41.79900 -1.32700 47.17900
C  44.99300 -1.86300 47.55000
O  44.33200 -2.88000 47.35300
C  46.52900 -2.04400 47.53100
N  46.30400 3.69900 47.25900
C  46.88700 2.47500 47.51300
C  48.39200 2.67200 47.83300
C  48.61900 4.19200 47.41800
C  47.23500 4.66400 47.23500
C  48.79400 2.32500 49.24100
C  49.41600 4.54200 46.16200
C  50.92500 4.43500 46.19900
N  44.59300 5.95000 47.23600
C  45.71700 6.68800 47.24100
C  45.42700 8.09300 47.24900
C  44.01800 8.14900 47.18200
C  43.56000 6.77600 47.14500
C  46.40300 9.18300 47.34100
C  42.88500 8.97200 47.23800
O  42.87100 10.16600 47.60600
C  41.62900 8.09100 47.02400
C  40.68600 8.37900 48.20100
O  40.84500 7.95400 49.28600
O  39.59700 9.07800 47.76400
C  38.67400 9.44600 48.82900
H  40.57400 1.35900 47.38300
H  47.00900 0.36900 47.72200
H  47.76800 6.75400 47.46200
H  39.42500 5.99500 47.24700
H  39.19600 3.36400 46.44100
H  38.40200 2.89100 48.38700
H  38.67800 4.54100 48.87900
H  39.91900 3.36500 49.27600
H  39.03100 4.80500 44.77600
H  40.38700 5.81000 44.54100
H  38.80000 7.77600 45.21400
H  37.54900 6.70300 45.58000
H  41.73500 -1.42300 46.09600
H  40.85800 -0.97400 47.60200
H  41.96900 -2.32600 47.58000
H  46.92800 -1.87900 48.53200
H  46.90600 -1.37000 46.76200
H  46.79700 -3.08000 47.32600
H  48.94800 2.01600 47.16300
H  48.96600 4.80400 48.25000
H  48.17700 1.47500 49.53600
H  48.61100 3.19900 49.86600
H  49.80100 1.90800 49.25300
H  49.04600 5.47700 45.74200
H  49.02800 3.87800 45.39000
H  51.45800 4.25900 47.13300
H  51.33900 5.36400 45.80600
H  51.35900 3.68900 45.53300
H  46.06000 9.95600 46.65400
H  47.39200 8.85500 47.02000
H  46.45100 9.50500 48.38200
H  40.98700 8.39500 46.19800
H  39.24100 9.79200 49.69300
H  37.93200 8.70800 49.13300
H  38.12000 10.31600 48.47600

