158

Mg 8.15700 2.32800 28.54200
C  9.65600 0.87900 31.44100
C  6.32000 4.38600 30.68800
C  6.69800 3.48800 25.95700
C  9.59100 -0.33900 26.69400
N  8.00100 2.60900 30.80800
C  8.81900 2.03400 31.76000
C  8.48800 2.59600 33.17000
C  7.29600 3.58300 32.90400
C  7.22400 3.57000 31.34900
C  6.07600 3.16100 33.59500
C  9.68000 3.13600 33.82800
C  10.11100 2.60000 35.15900
H  10.71200 3.52800 36.16700
N  6.60000 3.72100 28.28300
C  6.00300 4.48300 29.32700
C  5.15100 5.42800 28.65400
C  5.23800 5.26200 27.20400
C  6.15800 4.11400 27.08300
C  4.25800 6.34700 29.27300
C  4.71200 5.97700 26.09900
O  4.95200 5.64300 24.94900
C  3.84400 7.26300 26.29000
N  8.12100 1.62300 26.59800
C  7.53800 2.40100 25.69800
C  7.64800 1.73000 24.24700
C  8.73000 0.68800 24.50700
C  8.82600 0.66100 25.99900
C  6.30200 1.22400 23.66100
C  10.14300 1.06400 23.81500
C  11.34500 1.66000 24.70100
N  9.41300 0.60400 28.94900
C  9.88600 -0.37200 28.11100
C  10.73900 -1.22000 28.78600
C  10.70000 -0.78600 30.17300
C  9.86200 0.33600 30.18600
C  11.71900 -2.25800 28.17400
C  11.13800 -1.05800 31.50700
O  11.77600 -2.03800 31.89600
C  10.53600 0.04100 32.42400
C  9.74300 -0.69700 33.44500
O  8.60300 -1.13100 33.26100
O  10.39300 -0.67800 34.67400
C  9.66400 -1.07700 35.92600
H  5.74700 5.02000 31.36800
H  6.30300 3.77000 24.97900
H  9.96600 -1.07800 25.98200
H  8.09300 1.77200 33.76300
H  7.68800 4.54400 33.23900
H  5.50500 2.45100 32.99600
H  5.27800 3.90200 33.63000
H  6.27400 2.85600 34.62300
H  9.64400 4.22000 33.93700
H  10.50800 2.95100 33.14400
H  10.85700 1.84500 34.91200
H  9.29600 2.05300 35.63400
H  4.65100 7.33200 29.02200
H  4.12600 6.12200 30.33100
H  3.33500 6.13500 28.73300
H  2.82000 7.03300 26.58700
H  3.90300 7.69700 25.29200
H  4.30100 7.97400 26.97800
H  8.05400 2.50600 23.59800
H  8.35000 -0.25300 24.10900
H  5.48400 1.20500 24.38000
H  6.38900 0.18800 23.33600
H  5.98100 1.73600 22.75400
H  10.00400 1.71700 22.95300
H  10.39200 0.13000 23.31300
H  10.91400 1.75200 25.69800
H  11.53700 2.67300 24.34500
H  12.21300 1.00200 24.67000
H  12.34900 -1.82200 27.39800
H  11.24300 -3.12300 27.71300
H  12.34400 -2.52700 29.02600
H  11.35200 0.63100 32.84100
H  8.85300 -0.37900 36.13900
H  10.37300 -1.09900 36.75300
H  9.17400 -2.05000 35.90800
Mg 46.51500 25.16300 28.70500
C  47.60000 27.50400 31.08200
C  45.67800 23.10900 31.25600
C  45.97500 22.75000 26.42400
C  47.97900 27.11800 26.18500
N  46.55700 25.37800 30.85700
C  46.87700 26.45000 31.67800
C  46.56700 26.22200 33.13100
C  46.01800 24.73600 33.17300
C  46.09600 24.36700 31.65200
C  46.67600 23.79500 34.16100
C  45.68500 27.40400 33.74200
C  46.16900 28.01500 35.05900
H  45.09500 28.27200 36.20400
N  45.83200 23.14500 28.81300
C  45.56100 22.53700 30.00800
C  45.06800 21.17800 29.60700
C  45.20300 21.00400 28.18300
C  45.71100 22.30600 27.72700
C  44.55000 20.14700 30.60400
C  44.88600 19.87100 27.33700
O  44.93100 19.89300 26.11300
C  44.56700 18.52400 27.97200
N  46.99200 24.94700 26.62600
C  46.47000 23.91000 25.89400
C  46.59200 24.22100 24.40500
C  47.01600 25.68800 24.38300
C  47.42000 25.93500 25.78500
C  47.50100 23.26100 23.60300
C  45.86600 26.68300 23.94000
C  46.26200 27.55900 22.74800
N  47.51500 26.95700 28.59700
C  48.03500 27.63000 27.48200
C  48.68000 28.85700 27.97900
C  48.51500 28.79700 29.37000
C  47.79500 27.71700 29.68300
C  49.47400 29.79500 27.17400
C  48.86300 29.42100 30.54500
O  49.64300 30.38200 30.71700
C  48.23600 28.73300 31.74100
C  49.33800 28.24200 32.63700
O  50.33000 27.60300 32.29200
O  49.12300 28.67500 33.88900
C  50.12300 28.43800 35.02400
H  45.30200 22.52000 32.09500
H  45.66400 22.04200 25.65300
H  48.27200 27.90600 25.48800
H  47.44400 26.24000 33.77800
H  44.96200 24.93100 33.35600
H  46.89200 24.48300 34.97800
H  47.59900 23.43300 33.70800
H  46.07400 22.94400 34.47800
H  44.68600 27.02700 33.95900
H  45.48000 28.09500 32.92400
H  46.38000 29.03100 34.72600
H  47.06500 27.56200 35.48300
H  43.52900 19.77100 30.55700
H  44.57400 20.42400 31.65800
H  45.16000 19.26900 30.39100
H  43.74400 18.67000 28.67100
H  45.43100 18.18300 28.54300
H  44.42600 17.68800 27.28600
H  45.61200 24.13900 23.93500
H  47.93900 25.91500 23.84900
H  46.95600 22.69000 22.85100
H  47.90600 22.55400 24.32800
H  48.22600 23.86000 23.05200
H  45.67500 27.32500 24.79900
H  44.90900 26.20300 23.73600
H  45.63600 27.32300 21.88800
H  47.31500 27.37600 22.53400
H  46.11700 28.58200 23.09600
H  49.12400 30.04600 26.17300
H  50.43300 29.31700 26.97100
H  49.54700 30.72300 27.74200
H  47.60200 29.44500 32.26800
H  49.75500 28.75900 35.99800
H  51.04500 28.98600 34.82900
H  50.33900 27.39600 35.26100

