158

Mg 27.64900 49.70800 26.91200
C  25.48600 50.72800 29.67100
C  29.99000 48.90500 29.17100
C  29.67100 49.30400 24.35600
C  25.08100 50.88800 24.72100
N  27.68400 49.77400 29.27200
C  26.69200 50.16300 30.12000
C  27.12500 49.85500 31.51400
C  28.67600 49.39200 31.37600
C  28.80400 49.30700 29.86200
C  29.78300 50.26100 32.03600
C  26.13900 48.87200 32.21800
C  25.38900 49.27700 33.50400
H  26.15900 49.86100 34.73200
N  29.53300 49.22000 26.79900
C  30.37300 48.85900 27.84800
C  31.68300 48.41800 27.31800
C  31.56300 48.53800 25.90000
C  30.19700 48.98900 25.61600
C  32.91100 48.05700 28.15000
C  32.62700 48.29700 24.79900
O  32.45800 48.50600 23.57700
C  33.95600 47.65600 25.24300
N  27.43800 50.13600 24.83300
C  28.44700 49.80600 23.96100
C  27.99500 49.99600 22.45100
C  26.42100 50.18500 22.62100
C  26.24900 50.31200 24.10100
C  28.82200 51.12800 21.74000
C  25.62300 49.02000 22.01100
C  24.48500 49.45600 21.10700
N  25.78500 50.66500 27.08200
C  24.87900 51.04100 26.10100
C  23.72900 51.62400 26.73000
C  23.95600 51.52700 28.14200
C  25.18300 50.90000 28.28100
C  22.62900 52.27000 25.91500
C  23.36800 51.78100 29.43200
O  22.32400 52.39900 29.75700
C  24.35300 51.24300 30.51100
C  24.74100 52.37600 31.41000
O  25.65100 53.17400 31.30800
O  23.85000 52.34000 32.47200
C  24.06900 53.31800 33.56500
H  30.77900 48.70400 29.90000
H  30.21200 48.97000 23.46800
H  24.18000 51.12700 24.15300
H  27.06100 50.80200 32.04800
H  28.69400 48.34400 31.67800
H  30.08300 49.72500 32.93600
H  29.55700 51.31000 32.22500
H  30.70700 50.25200 31.45800
H  26.69300 48.07800 32.72000
H  25.38900 48.35200 31.62100
H  24.93300 48.32000 33.76000
H  24.56900 49.92700 33.19800
H  33.62600 48.81400 27.82700
H  33.31200 47.07100 27.91800
H  32.78100 48.13400 29.22900
H  33.79200 46.76900 25.85400
H  34.49800 48.47300 25.72100
H  34.54700 47.40100 24.36300
H  28.32800 49.15700 21.84000
H  26.09600 51.17500 22.30300
H  29.41700 51.60500 22.51900
H  28.12600 51.70900 21.13500
H  29.51000 50.66000 21.03600
H  25.24000 48.46900 22.87000
H  26.41400 48.62400 21.37500
H  24.59800 50.46600 20.71400
H  23.62300 49.46900 21.77400
H  24.35700 48.64900 20.38600
H  23.00600 52.98800 25.18700
H  22.06300 52.81700 26.66900
H  22.08500 51.44300 25.45800
H  23.86300 50.48800 31.12600
H  23.47600 52.96800 34.41000
H  23.70500 54.34100 33.47700
H  25.11500 53.49200 33.81500
Mg -6.27800 24.76900 25.32200
C  -4.58600 26.26200 28.15700
C  -7.63300 22.52200 27.49200
C  -7.09300 23.06800 22.72200
C  -3.90100 26.61100 23.44900
N  -6.11900 24.37200 27.63900
C  -5.49400 25.20800 28.55000
C  -6.06200 24.86700 29.98100
C  -6.79500 23.46900 29.70700
C  -6.90600 23.46400 28.20800
C  -6.09700 22.16500 30.28700
C  -6.90200 26.04800 30.53300
C  -6.98800 26.28300 32.05200
H  -6.42700 25.20500 32.96100
N  -7.36300 23.11400 25.16300
C  -7.90400 22.32800 26.06800
C  -8.78000 21.34500 25.50100
C  -8.67200 21.59000 24.09000
C  -7.65800 22.67900 23.94500
C  -9.77600 20.36300 26.26200
C  -9.30200 20.84300 22.96100
O  -9.08300 21.15700 21.75600
C  -10.21900 19.64300 23.15600
N  -5.49700 24.80300 23.39500
C  -6.14000 24.04500 22.45500
C  -5.43600 24.17600 21.08500
C  -4.77500 25.58500 21.22700
C  -4.67700 25.67300 22.78400
C  -4.46700 23.05100 20.69400
C  -5.63400 26.80900 20.80400
C  -5.29400 27.16000 19.29700
N  -4.69100 26.33700 25.66800
C  -3.77200 26.94500 24.80600
C  -2.85800 27.86300 25.53800
C  -3.18200 27.60200 26.92500
C  -4.22800 26.64000 26.88900
C  -1.81400 28.76800 24.96900
C  -2.77600 27.95000 28.32100
O  -1.85400 28.61900 28.83200
C  -3.76500 27.11000 29.16300
C  -2.98600 26.25000 30.07800
O  -2.32100 25.32700 29.68700
O  -2.97900 26.71900 31.34100
C  -2.24600 26.08700 32.41700
H  -8.12000 21.74900 28.08900
H  -7.42800 22.52200 21.83800
H  -3.28400 27.18300 22.75300
H  -5.15900 24.72300 30.57500
H  -7.82300 23.53500 30.06300
H  -5.80000 21.57000 29.42300
H  -6.85300 21.61300 30.84400
H  -5.16500 22.29900 30.83500
H  -7.93600 25.93100 30.20700
H  -6.55700 27.01200 30.15800
H  -8.05800 26.32000 32.25800
H  -6.63300 27.28500 32.29400
H  -9.41700 19.36100 26.02700
H  -10.80000 20.60200 25.97200
H  -9.62200 20.28800 27.33800
H  -11.13900 20.00600 23.61400
H  -9.67800 18.92100 23.76700
H  -10.49200 19.25500 22.17400
H  -6.25500 24.24100 20.37000
H  -3.77900 25.61300 20.78600
H  -3.45700 23.39800 20.91100
H  -4.57000 22.70300 19.66700
H  -4.66700 22.13600 21.25300
H  -5.37500 27.63600 21.46500
H  -6.71700 26.72200 20.89200
H  -5.02900 26.24500 18.76700
H  -4.41700 27.79700 19.40900
H  -6.15300 27.61700 18.80600
H  -1.28600 29.36300 25.71400
H  -2.26800 29.33800 24.15800
H  -1.15100 28.03100 24.51500
H  -4.40800 27.69900 29.81700
H  -1.40300 26.72200 32.69000
H  -1.85900 25.13300 32.06100
H  -2.90700 25.88100 33.25900

