158

Mg 25.73100 0.36400 29.41900
C  27.81000 0.21200 32.32100
C  23.01800 0.82100 31.52900
C  23.77000 0.10200 26.71200
C  28.55000 -0.70200 27.50800
N  25.42900 0.47900 31.65400
C  26.42800 0.40100 32.62200
C  25.80300 0.53200 34.03100
C  24.26900 0.65500 33.74800
C  24.21400 0.67300 32.20000
C  23.31600 -0.36800 34.46000
C  26.50100 1.59100 34.94300
C  25.50400 2.09000 36.06300
H  25.95500 1.97800 37.44300
N  23.73100 0.60000 29.12900
C  22.79100 0.79100 30.10200
C  21.48200 0.85100 29.45900
C  21.74600 0.86400 28.02700
C  23.17600 0.46900 27.94300
C  20.20300 1.01800 30.28300
C  20.79200 1.11100 26.82200
O  21.02100 1.11100 25.57700
C  19.52600 1.76300 27.21600
N  26.15300 -0.39700 27.37800
C  25.16100 -0.27800 26.40600
C  25.61200 -0.85500 25.03800
C  27.17400 -0.96600 25.25200
C  27.33100 -0.65500 26.76100
C  24.99300 -2.17000 24.74300
C  28.02000 0.06400 24.40900
C  27.56500 1.46600 24.54900
N  27.76300 -0.05800 29.75300
C  28.73200 -0.52600 28.93800
C  29.98600 -0.62900 29.67600
C  29.65800 -0.37600 31.02100
C  28.28700 -0.10100 31.05700
C  31.23800 -1.07000 29.01300
C  30.18200 -0.25900 32.37000
O  31.36600 -0.33200 32.78200
C  29.02200 0.03200 33.27200
C  28.82400 -1.00900 34.33900
O  28.64000 -2.17800 34.11300
O  29.11400 -0.45900 35.59800
C  29.10200 -1.42600 36.79000
H  22.11800 0.97900 32.12600
H  23.03600 -0.11000 25.93200
H  29.40200 -1.11400 26.96400
H  26.05200 -0.41000 34.52000
H  23.91200 1.64100 34.04400
H  22.51900 0.16800 34.97500
H  23.84800 -1.02700 35.14700
H  22.92700 -1.00400 33.66500
H  26.96500 2.34200 34.30300
H  27.34900 1.03100 35.33700
H  24.59100 1.49700 36.11100
H  25.34400 3.16300 35.95400
H  20.33600 0.59000 31.27700
H  19.26200 0.67600 29.85200
H  19.93200 2.07100 30.37000
H  18.83400 1.08900 27.72000
H  19.02300 2.14400 26.32700
H  19.81300 2.67900 27.73200
H  25.34000 -0.19400 24.21500
H  27.55800 -1.96700 25.05500
H  24.17600 -2.37000 25.43600
H  25.73000 -2.91300 25.04800
H  24.63300 -2.27700 23.71900
H  28.00200 -0.30800 23.38400
H  29.06300 -0.07900 24.69200
H  26.72200 1.67100 25.20900
H  27.35600 1.85800 23.55400
H  28.32200 2.10700 25.00000
H  31.75700 -1.43200 29.90000
H  31.89900 -0.30900 28.59900
H  30.94800 -1.79500 28.25200
H  29.23600 1.01300 33.69600
H  29.03100 -2.47500 36.50000
H  28.23200 -1.36600 37.44400
H  29.97200 -1.33300 37.44000
Mg 44.08200 5.43800 47.49100
C  41.66600 7.86200 47.27300
C  41.61400 3.13100 47.08100
C  46.56700 3.00400 47.12800
C  46.50800 7.80100 47.59000
N  41.82800 5.52700 47.30200
C  41.06100 6.61000 47.26100
C  39.57800 6.30200 47.00600
C  39.54300 4.75600 47.03100
C  41.03100 4.40500 47.15300
C  38.83900 4.07100 48.16100
C  39.03500 6.80200 45.66500
C  40.03300 6.67400 44.40800
H  39.37400 6.85900 43.06100
N  44.09200 3.40300 47.21900
C  42.96600 2.59300 47.04400
C  43.39900 1.24800 46.77100
C  44.77100 1.20300 46.71200
C  45.23400 2.57100 47.06300
C  42.38700 0.07700 46.57200
C  45.50700 -0.02600 46.52500
O  44.91000 -1.06200 46.22100
C  47.03800 -0.12700 46.48700
N  46.24200 5.40300 47.38400
C  47.05200 4.25400 47.34300
C  48.51700 4.69600 47.34500
C  48.48600 6.22600 47.61400
C  46.96600 6.49300 47.59500
C  49.64900 3.80800 48.19400
C  49.33100 7.08300 46.64000
C  50.87900 7.23800 46.89000
N  44.18000 7.42200 47.39200
C  45.21100 8.30100 47.42700
C  44.67000 9.66900 47.25200
C  43.27800 9.57100 47.34100
C  43.00700 8.17100 47.37300
C  45.47700 10.95100 47.35700
C  42.04300 10.31500 47.49400
O  41.88100 11.49400 47.63100
C  40.90300 9.13100 47.41100
C  40.19700 9.30500 48.67800
O  40.51200 8.80100 49.76700
O  39.16400 10.12100 48.40600
C  38.22500 10.43100 49.48900
H  40.81300 2.39200 47.15100
H  47.36300 2.30900 46.85400
H  47.31800 8.49500 47.82500
H  38.87000 6.67900 47.74300
H  39.31700 4.39400 46.02700
H  37.86600 4.55400 48.25400
H  39.48200 4.14300 49.03800
H  38.72100 3.03500 47.84500
H  38.63200 7.78400 45.91300
H  38.12900 6.28100 45.35500
H  40.58000 5.73200 44.45700
H  40.72800 7.50300 44.54200
H  42.59300 -0.33700 45.58500
H  41.34100 0.37600 46.64900
H  42.49800 -0.64600 47.37900
H  47.59100 0.09200 47.40100
H  47.50500 0.36300 45.63300
H  47.16300 -1.18700 46.26500
H  48.74500 4.58600 46.28400
H  48.98100 6.48000 48.55100
H  50.19800 3.04200 47.64600
H  49.20100 3.29900 49.04800
H  50.42200 4.55900 48.35900
H  48.89500 8.06200 46.44200
H  49.21900 6.58700 45.67600
H  51.29500 6.59600 46.11400
H  51.11500 6.89900 47.89900
H  51.19900 8.26200 46.69800
H  44.77900 11.75400 47.11900
H  46.33500 11.03100 46.68900
H  45.81000 11.09400 48.38500
H  40.37200 9.38500 46.49400
H  38.51400 11.44600 49.76000
H  38.36800 9.84500 50.39700
H  37.20400 10.41700 49.10900

