158

Mg 35.80300 50.04800 25.14600
C  36.12100 47.98000 27.96400
C  34.19800 52.47800 27.07900
C  35.30200 51.81700 22.34300
C  37.08200 47.41500 23.14400
N  35.27900 50.22700 27.32200
C  35.59200 49.24100 28.25300
C  35.21500 49.83800 29.59000
C  34.35800 51.20800 29.31100
C  34.53200 51.29600 27.78100
C  32.92600 51.15000 29.87600
C  36.64400 50.22500 30.23200
C  36.76200 50.25300 31.83900
H  35.41900 50.13400 32.69000
N  34.85300 51.89700 24.77200
C  34.44000 52.82000 25.69700
C  34.11700 54.03100 25.00100
C  34.49700 53.91200 23.69500
C  34.87500 52.45200 23.54500
C  33.41300 55.17000 25.70800
C  34.50400 54.93000 22.59900
O  34.70100 54.65200 21.39800
C  34.07800 56.34800 22.78300
N  35.91100 49.61000 22.93300
C  35.85400 50.56900 22.07300
C  36.05600 50.11200 20.64300
C  36.78400 48.74400 20.88900
C  36.58700 48.54900 22.40700
C  34.74900 49.97600 19.75300
C  38.34700 48.74900 20.40600
C  39.44900 49.12100 21.49300
N  36.49900 48.08700 25.40700
C  37.04300 47.15200 24.55000
C  37.64100 46.06600 25.34100
C  37.21400 46.31900 26.68200
C  36.51100 47.53600 26.65000
C  38.44300 44.93800 24.78900
C  37.23700 45.77400 28.02900
O  37.61500 44.67700 28.35600
C  36.49800 46.88900 28.95700
C  35.32900 46.41000 29.76100
O  34.15200 46.64300 29.45000
O  35.75300 45.74800 30.85200
C  34.95400 45.76300 32.11900
H  33.69400 53.19500 27.73000
H  35.29500 52.45400 21.45600
H  37.58400 46.65900 22.53600
H  34.65000 49.11000 30.17300
H  34.75000 52.05900 29.86700
H  32.78200 50.13900 30.25700
H  32.27800 51.28000 29.01000
H  32.68700 51.85900 30.66900
H  36.89500 51.17400 29.75800
H  37.45200 49.58000 29.88800
H  37.18200 51.23600 32.05200
H  37.42800 49.49600 32.25300
H  32.41900 55.36700 25.30600
H  33.97100 56.05200 25.39300
H  33.42600 55.08300 26.79400
H  34.12300 56.93500 21.86600
H  34.88100 56.75300 23.39900
H  33.08200 56.45100 23.21200
H  36.73100 50.77600 20.10200
H  36.12700 48.04900 20.36700
H  34.81500 49.29300 18.90600
H  34.55500 50.99200 19.41100
H  33.88700 49.83800 20.40600
H  38.41500 49.59000 19.71600
H  38.46100 47.75800 19.96600
H  40.01100 48.19400 21.60200
H  39.00400 49.53500 22.39800
H  40.02300 49.91100 21.00800
H  37.78700 44.07400 24.68100
H  39.29600 44.73000 25.43500
H  38.83000 45.28700 23.83100
H  37.35800 47.14300 29.57800
H  33.92700 46.11800 32.03800
H  35.48700 46.40200 32.82300
H  35.07900 44.80100 32.61600
Mg 9.95100 47.97500 26.29700
C  8.22800 47.71500 29.37100
C  12.50500 49.67000 27.96500
C  11.72300 48.12600 23.36800
C  7.18800 46.90800 24.55700
N  10.26600 48.69300 28.40400
C  9.53500 48.32300 29.47800
C  10.14000 48.86200 30.77200
C  11.23500 49.76400 30.21600
C  11.35900 49.34200 28.79100
C  11.23600 51.27700 30.46800
C  10.55700 47.68800 31.66600
C  10.06200 47.68700 33.17600
H  10.19000 46.33400 33.94700
N  11.86300 48.63000 25.79800
C  12.77500 49.22200 26.65800
C  14.04300 49.22200 25.92400
C  13.79900 48.84700 24.61100
C  12.34100 48.56200 24.49300
C  15.36700 49.52400 26.67400
C  14.84100 48.61400 23.44300
O  14.54100 48.26600 22.28200
C  16.36100 48.77700 23.75400
N  9.53700 47.61600 24.19100
C  10.38800 47.75000 23.18200
C  9.83100 47.11500 21.86700
C  8.43800 46.55300 22.39600
C  8.33800 47.10800 23.75500
C  9.73200 48.06500 20.61500
C  8.40800 44.99700 22.29900
C  9.31400 44.22700 23.19200
N  8.06200 47.44100 26.78900
C  7.06200 47.02600 25.98800
C  5.87700 46.82400 26.82300
C  6.29000 47.01900 28.14300
C  7.66600 47.37000 28.09000
C  4.54600 46.50400 26.37300
C  5.89600 47.09800 29.55700
O  4.76400 46.81900 30.07100
C  7.19300 47.36600 30.35700
C  7.42500 46.03600 30.97100
O  8.09500 45.17500 30.57100
O  6.59500 45.81700 32.03600
C  6.74700 44.54600 32.73400
H  13.30600 50.23900 28.44200
H  12.24800 48.19200 22.41300
H  6.31700 46.67300 23.94100
H  9.31700 49.45500 31.17200
H  12.17100 49.40800 30.64800
H  10.55200 51.58500 31.25800
H  10.96400 51.78700 29.54400
H  12.17800 51.66500 30.85600
H  11.63600 47.65900 31.51100
H  10.14300 46.84100 31.11900
H  8.99500 47.91300 33.17400
H  10.52500 48.56900 33.61700
H  15.24600 49.72700 27.73800
H  15.91800 50.30300 26.14700
H  16.09300 48.72300 26.53200
H  16.70000 49.80100 23.91100
H  16.87400 48.37700 22.88000
H  16.70000 48.11200 24.54800
H  10.47800 46.28300 21.59000
H  7.55600 46.93100 21.88000
H  8.71300 48.41500 20.45300
H  10.11800 47.47800 19.78200
H  10.40100 48.92200 20.69900
H  8.68800 44.78000 21.26900
H  7.38900 44.66200 22.49500
H  9.66500 44.90800 23.96800
H  10.25300 44.01700 22.68000
H  8.83100 43.32500 23.56700
H  3.93700 47.38600 26.17400
H  3.98000 45.89500 27.07800
H  4.56100 45.88200 25.47800
H  7.04100 48.09100 31.15700
H  6.10200 43.79200 32.28200
H  6.48100 44.85000 33.74600
H  7.74700 44.11500 32.78600

