158

Mg 0.04000 7.64200 27.73200
C  1.07900 10.05100 30.13300
C  -0.46300 5.43600 30.43500
C  -1.04300 5.35300 25.59700
C  1.06600 9.80400 25.23300
N  0.30100 7.75200 29.96400
C  0.60800 8.86200 30.70600
C  0.29500 8.55600 32.18800
C  0.25100 6.98900 32.28800
C  0.06600 6.69400 30.76600
C  1.48600 6.31000 32.98500
C  -1.04200 9.23200 32.50300
C  -1.69800 9.00500 33.90300
H  -0.85500 8.67400 35.09500
N  -0.68400 5.67700 27.93800
C  -0.98100 5.01700 29.13200
C  -1.63800 3.78600 28.75200
C  -1.82500 3.78100 27.38700
C  -1.17100 4.92800 26.94300
C  -2.08100 2.84100 29.81500
C  -2.54200 2.77800 26.53100
O  -2.76300 2.90600 25.31400
C  -3.16600 1.62100 27.20700
N  0.17600 7.55000 25.69600
C  -0.44100 6.51600 25.00800
C  -0.70900 6.90900 23.56100
C  0.08400 8.30400 23.41600
C  0.50200 8.57400 24.84100
C  -0.25100 5.70000 22.65400
C  -0.74900 9.47100 22.83900
C  0.01200 10.40300 21.77300
N  0.76900 9.55600 27.66400
C  1.25900 10.29900 26.54300
C  1.72600 11.63200 27.03300
C  1.66300 11.54500 28.36200
C  1.12100 10.26000 28.71800
C  2.20000 12.83900 26.24000
C  1.87000 12.29700 29.62200
O  2.23300 13.46400 29.79000
C  1.49700 11.31600 30.87300
C  2.66100 10.99700 31.69700
O  3.53000 10.14600 31.50500
O  2.78400 11.94400 32.65000
C  4.01200 11.90200 33.46900
H  -0.62400 4.73200 31.25400
H  -1.63400 4.96600 24.76400
H  1.29600 10.48400 24.41000
H  1.05600 8.95000 32.86200
H  -0.63300 6.80800 32.89900
H  1.90400 5.51000 32.37500
H  1.07200 5.96700 33.93400
H  2.19000 7.11600 33.18900
H  -1.80100 8.97000 31.76600
H  -0.82500 10.30000 32.48500
H  -2.49300 8.26100 33.87000
H  -2.20500 9.92900 34.18100
H  -2.36000 3.42600 30.69100
H  -1.29100 2.14000 30.08300
H  -2.96200 2.22000 29.65300
H  -3.63600 1.04700 26.40900
H  -3.96600 2.04400 27.81500
H  -2.34600 1.19700 27.78700
H  -1.76000 7.16900 23.43900
H  0.91500 8.07700 22.74900
H  -1.10400 5.22500 22.16900
H  0.25000 4.95200 23.26800
H  0.42000 5.93400 21.82700
H  -1.04700 10.17500 23.61700
H  -1.61400 8.97900 22.39500
H  -0.57500 10.51100 20.86100
H  1.04700 10.12600 21.57400
H  0.12100 11.35400 22.29600
H  2.76500 13.51300 26.88400
H  1.30900 13.39500 25.94700
H  2.67700 12.55500 25.30200
H  0.66600 11.47400 31.56100
H  4.70400 12.45900 32.83700
H  4.31900 10.87300 33.65500
H  3.73200 12.40500 34.39500
Mg 24.84700 1.25000 30.33200
C  27.01700 1.24400 33.03000
C  22.22200 0.91700 32.56300
C  22.87100 0.87900 27.78600
C  27.70500 0.92000 28.19500
N  24.70600 1.11500 32.53200
C  25.66700 1.26300 33.47700
C  25.19500 1.37800 34.90000
C  23.66800 0.93300 34.72600
C  23.50600 0.92300 33.20300
C  23.21700 -0.43400 35.40100
C  25.35800 2.78300 35.48300
C  26.32000 2.77800 36.71000
H  26.01500 3.66900 37.88000
N  22.85700 0.93200 30.19400
C  21.93800 0.89800 31.20300
C  20.61500 0.80200 30.59500
C  20.72100 0.73400 29.19100
C  22.22600 0.88800 29.03200
C  19.34300 0.74500 31.44100
C  19.72800 0.64000 28.09100
O  20.00700 0.66700 26.90300
C  18.27000 0.39500 28.44700
N  25.27700 0.85500 28.25800
C  24.25200 0.90100 27.33500
C  24.67500 1.10000 25.88500
C  26.25300 1.07800 26.09500
C  26.45200 0.95300 27.59500
C  24.14900 0.04300 24.84400
C  27.15900 2.13000 25.40700
C  28.40700 1.72700 24.72000
N  27.02700 1.03300 30.50400
C  28.00000 0.90200 29.60400
C  29.29400 0.80500 30.23100
C  28.95000 1.07500 31.57900
C  27.57200 1.13300 31.67300
C  30.62300 0.52600 29.51700
C  29.42000 1.17700 32.96800
O  30.53200 1.10300 33.42400
C  28.19700 1.44000 33.88600
C  28.33400 0.53900 35.04500
O  28.16200 -0.62100 35.02600
O  28.79700 1.25400 36.08500
C  29.20700 0.63100 37.30900
H  21.38000 0.79900 33.24900
H  22.27700 0.63200 26.90400
H  28.62300 0.94600 27.60400
H  25.72400 0.66000 35.52700
H  22.92200 1.62700 35.11100
H  22.32600 -0.27100 36.00700
H  23.92100 -0.85700 36.11700
H  22.98300 -1.20000 34.66100
H  24.42400 3.27500 35.75500
H  25.93900 3.36100 34.76400
H  27.24400 3.21000 36.32400
H  26.53300 1.74800 36.99800
H  19.11300 -0.29600 31.66500
H  18.44100 1.13600 30.96900
H  19.46000 1.31600 32.36200
H  17.64600 0.21600 27.57100
H  17.89300 1.29200 28.93800
H  18.07300 -0.41500 29.14900
H  24.37900 2.12400 25.66000
H  26.63200 0.10900 25.76900
H  23.66800 -0.80200 25.33600
H  24.86300 -0.49700 24.22300
H  23.48300 0.48400 24.10300
H  27.44800 2.86200 26.16000
H  26.47800 2.65000 24.73400
H  28.29600 0.64700 24.62600
H  29.34700 1.83900 25.26000
H  28.47100 2.38000 23.85000
H  30.53600 0.68600 28.44200
H  30.85000 -0.51700 29.73500
H  31.32200 1.30100 29.83100
H  28.27700 2.51700 34.03500
H  28.39300 0.69600 38.03100
H  30.03000 1.23200 37.69600
H  29.59100 -0.37400 37.13200

