158

Mg 47.40100 16.00900 28.19300
C  45.68100 15.37300 31.20100
C  49.73700 17.75100 30.11200
C  48.99600 16.80000 25.42100
C  45.01600 14.26100 26.39500
N  47.62800 16.46900 30.43700
C  46.82500 16.05800 31.46300
C  47.20600 16.69400 32.78000
C  48.50300 17.55100 32.36500
C  48.70900 17.25600 30.83500
C  48.59500 19.05900 32.72800
C  47.33700 15.66000 34.01000
C  48.52200 15.81200 34.96700
H  48.61300 17.12600 35.74900
N  49.10900 17.25100 27.80300
C  49.94700 17.82900 28.71100
C  50.96000 18.62000 27.96500
C  50.59300 18.47100 26.57500
C  49.49300 17.49600 26.52700
C  51.99200 19.47100 28.60100
C  51.08900 19.17100 25.34800
O  50.66600 18.83800 24.22200
C  52.12700 20.19800 25.47300
N  47.07300 15.45900 26.19300
C  47.89400 15.94200 25.23700
C  47.32300 15.60800 23.78500
C  46.05200 14.64600 24.11400
C  46.07400 14.76400 25.65800
C  46.97400 16.80100 22.87500
C  46.04800 13.25300 23.48700
C  45.36300 13.19900 22.09800
N  45.75000 14.90900 28.64200
C  44.85600 14.29200 27.79200
C  43.74200 13.84700 28.62500
C  44.00600 14.16200 29.95900
C  45.27200 14.81700 29.92900
C  42.52400 13.20900 28.17900
C  43.52300 14.10400 31.27600
O  42.46600 13.65200 31.69500
C  44.55100 14.86600 32.12500
C  43.84100 15.96200 32.83300
O  43.29900 16.89300 32.34100
O  43.89300 15.88000 34.24500
C  43.37900 16.93400 35.06600
H  50.48700 18.34100 30.64300
H  49.34800 16.97000 24.40200
H  44.17500 13.95600 25.76900
H  46.45800 17.47200 32.93100
H  49.33400 17.00200 32.80800
H  47.78900 19.58000 32.21100
H  49.62000 19.28300 32.43000
H  48.43200 19.19500 33.79700
H  47.51000 14.72500 33.47700
H  46.39900 15.79200 34.54900
H  49.45000 15.68900 34.40800
H  48.55700 14.93400 35.61200
H  52.92100 19.43800 28.03000
H  52.03100 19.17100 29.64800
H  51.68000 20.51300 28.66800
H  51.77100 20.97100 26.15500
H  52.09800 20.73600 24.52600
H  53.11200 19.80600 25.72600
H  48.11600 14.97200 23.39300
H  45.09200 15.04900 23.79100
H  47.18200 17.75300 23.36500
H  45.93500 16.82000 22.54600
H  47.59700 16.81500 21.98100
H  45.65400 12.59700 24.26400
H  47.08500 12.92800 23.41100
H  46.18600 13.15700 21.38300
H  44.73500 14.06300 21.88200
H  44.71700 12.32100 22.11700
H  42.49300 12.93500 27.12400
H  41.61500 13.77500 28.38100
H  42.40900 12.32600 28.80800
H  44.93900 14.14500 32.84400
H  43.16300 17.84100 34.50200
H  44.14500 17.10800 35.82100
H  42.50600 16.69100 35.67100
Mg 41.52000 41.21200 26.77500
C  40.61100 43.73400 29.08800
C  42.30300 39.24500 29.30400
C  42.50900 38.99500 24.49600
C  40.63600 43.46500 24.10600
N  41.68500 41.54300 28.92000
C  41.16300 42.60200 29.69000
C  41.17300 42.32100 31.24300
C  41.83200 40.91000 31.24700
C  41.92700 40.52100 29.73800
C  43.15300 40.86900 32.11000
C  39.76500 42.40300 31.86700
C  39.52400 43.21700 33.14200
H  39.14400 42.39000 34.31900
N  42.38400 39.42800 26.91100
C  42.55000 38.72800 28.05800
C  43.24500 37.43800 27.74500
C  43.31600 37.36600 26.35600
C  42.71000 38.66900 25.84400
C  43.83200 36.51800 28.80600
C  43.99500 36.30600 25.41300
O  44.10300 36.39000 24.16000
C  44.59700 35.11200 26.08500
N  41.57000 41.20800 24.59100
C  41.89100 40.13000 23.91600
C  41.82700 40.30200 22.41700
C  41.02500 41.65200 22.38100
C  41.15800 42.23300 23.74200
C  43.19000 40.34900 21.74400
C  39.54500 41.44200 21.96600
C  38.63900 40.50600 22.82400
N  40.87100 43.20500 26.61400
C  40.47200 43.98500 25.48500
C  39.97600 45.28500 25.88900
C  40.08100 45.24100 27.28900
C  40.54500 43.95900 27.68200
C  39.63100 46.38200 24.96600
C  39.89300 45.93100 28.54800
O  39.58000 47.09300 28.75400
C  40.11000 44.96300 29.75900
C  41.20200 45.56800 30.59700
O  42.37800 45.68000 30.27800
O  40.58600 46.33300 31.56200
C  41.43400 47.18000 32.39900
H  42.50100 38.44800 30.02500
H  42.66500 38.16400 23.80500
H  40.26700 44.08900 23.28800
H  41.79100 43.12700 31.64000
H  41.12100 40.20400 31.67600
H  44.00900 40.36600 31.66200
H  42.96500 40.39600 33.07400
H  43.41000 41.85500 32.49700
H  39.37600 41.39600 32.01900
H  39.02700 42.66800 31.11000
H  38.66600 43.86900 32.97900
H  40.41600 43.80500 33.36000
H  43.96400 37.16500 29.67300
H  44.85000 36.16700 28.63700
H  43.17500 35.66600 28.98400
H  43.87900 34.57000 26.70000
H  45.50600 35.33200 26.64600
H  44.88800 34.45600 25.26400
H  41.18200 39.48900 22.08300
H  41.42900 42.29800 21.60200
H  43.92600 40.52800 22.52800
H  43.19700 41.20900 21.07500
H  43.35200 39.51300 21.06300
H  39.56200 41.01600 20.96300
H  39.07300 42.42400 21.93900
H  37.64200 40.86800 23.07500
H  39.07900 40.14500 23.75300
H  38.40600 39.72500 22.10000
H  38.91500 45.92900 24.28000
H  40.25800 46.90100 24.24100
H  38.97400 47.04200 25.53300
H  39.22100 44.89100 30.38600
H  41.46300 46.85300 33.43900
H  41.01900 48.18200 32.28900
H  42.50600 47.21100 32.20600

