158

Mg 47.45700 16.69200 28.48000
C  45.52800 16.47400 31.53600
C  49.94000 18.18400 30.25000
C  48.95600 17.09600 25.61800
C  44.60600 15.44700 26.89000
N  47.60700 17.26600 30.62800
C  46.77400 17.08500 31.70700
C  47.43100 17.64800 33.02000
C  48.58900 18.49300 32.40600
C  48.70500 17.95200 31.00400
C  48.41900 20.02500 32.54800
C  47.84000 16.54400 34.02900
C  47.24600 16.70300 35.50300
H  47.00900 18.21000 35.92100
N  49.26500 17.29900 28.00400
C  50.20400 17.80800 28.86900
C  51.47400 17.88300 28.17200
C  51.21400 17.63900 26.81000
C  49.75900 17.26600 26.80600
C  52.82300 18.11800 28.88100
C  52.16400 17.60900 25.56100
O  51.74600 17.34100 24.42600
C  53.60300 18.02800 25.75900
N  46.87100 16.30600 26.59600
C  47.63800 16.69700 25.52500
C  46.91400 16.50200 24.19800
C  45.61400 15.72200 24.59900
C  45.70400 15.80000 26.10300
C  46.62200 17.91400 23.59400
C  45.62700 14.21700 24.02200
C  44.44300 13.86400 23.13200
N  45.48100 15.95000 29.03500
C  44.47900 15.48100 28.28500
C  43.38300 14.99300 29.07900
C  43.84500 15.32400 30.37800
C  45.07900 15.96300 30.25300
C  42.07200 14.41000 28.61500
C  43.43600 15.32100 31.75200
O  42.34400 14.87700 32.18500
C  44.52800 16.07600 32.58400
C  43.82500 17.17200 33.32600
O  43.56000 18.28600 32.84500
O  43.59000 16.84800 34.65800
C  42.83800 17.75600 35.56400
H  50.83400 18.60800 30.71200
H  49.39100 17.26800 24.63200
H  43.71000 15.13400 26.35100
H  46.72800 18.33600 33.49000
H  49.51500 18.26100 32.93300
H  47.40100 20.28500 32.84000
H  48.56100 20.52600 31.59100
H  49.12200 20.42100 33.28100
H  48.92400 16.45200 34.09000
H  47.38700 15.61900 33.67100
H  47.85300 16.27000 36.29800
H  46.32500 16.12600 35.59800
H  53.49500 17.36000 28.47900
H  52.70300 17.77600 29.90900
H  53.13800 19.15900 28.80100
H  53.52500 18.96900 26.30400
H  54.00700 18.23500 24.76800
H  54.28200 17.42200 26.35700
H  47.61600 15.93400 23.58800
H  44.73200 16.23100 24.21000
H  47.02400 17.98100 22.58300
H  47.28800 18.66100 24.02700
H  45.60300 18.30000 23.56600
H  45.61700 13.58800 24.91200
H  46.53000 14.09800 23.42300
H  44.76100 13.32200 22.24200
H  44.02200 14.80400 22.77300
H  43.81600 13.19600 23.72200
H  42.29300 13.35700 28.44000
H  41.74600 14.88100 27.68700
H  41.34900 14.45700 29.43000
H  44.91700 15.43600 33.37600
H  42.85100 17.34900 36.57500
H  41.93100 18.11000 35.07400
H  43.36400 18.70700 35.65200
Mg 0.95200 42.74900 26.09400
C  2.20900 42.77300 29.35900
C  -2.07300 41.78900 27.54600
C  -0.14400 41.70300 23.11900
C  4.04600 43.48600 24.86400
N  0.22000 42.43400 28.34700
C  0.87200 42.46800 29.45900
C  -0.02400 42.43600 30.66400
C  -1.47200 42.15100 29.99400
C  -1.08900 42.06400 28.51900
C  -2.08200 40.84300 30.52800
C  0.08700 43.59600 31.69600
C  0.45500 43.15800 33.21600
H  -0.59100 43.72800 34.19800
N  -0.92200 42.05200 25.35300
C  -2.01800 41.73000 26.08300
C  -3.13700 41.26100 25.23100
C  -2.63100 41.30500 23.90400
C  -1.18200 41.69000 24.07200
C  -4.61200 40.99200 25.65400
C  -3.34300 41.11800 22.54300
O  -2.68800 41.23000 21.52500
C  -4.89800 40.90200 22.30900
N  1.80500 42.77400 24.29800
C  1.16500 42.18200 23.19400
C  2.10500 42.04400 22.04800
C  3.33600 42.99800 22.48000
C  3.11800 43.03600 23.98000
C  2.46400 40.59800 21.58100
C  3.46100 44.41400 21.71800
C  4.07500 44.31300 20.32600
N  2.83400 43.09600 26.89300
C  4.00800 43.40800 26.23800
C  5.06500 43.45400 27.21200
C  4.43500 43.23900 28.45200
C  3.08400 43.04200 28.23100
C  6.56000 43.48300 26.93300
C  4.65200 42.99000 29.86600
O  5.67600 42.90900 30.49100
C  3.21400 42.82200 30.54400
C  3.17200 41.59900 31.39900
O  3.03600 40.44300 31.03400
O  3.39800 41.92900 32.78700
C  3.34500 40.74500 33.65200
H  -3.07000 41.58000 27.93900
H  -0.49800 41.36400 22.14300
H  4.94800 43.74400 24.30500
H  0.20600 41.56000 31.27100
H  -2.18600 42.95100 30.18800
H  -3.13900 41.04800 30.70000
H  -1.66700 40.56800 31.49800
H  -1.88700 39.99500 29.87200
H  -0.78900 44.24000 31.77500
H  0.87600 44.26700 31.35800
H  1.38600 43.68200 33.43000
H  0.63600 42.09100 33.34600
H  -4.76400 41.26100 26.70000
H  -5.03800 40.00500 25.47900
H  -5.24600 41.78200 25.25100
H  -5.41000 41.82000 22.59500
H  -5.02400 40.19100 23.12600
H  -5.13100 40.42500 21.35700
H  1.55700 42.40700 21.17900
H  4.21900 42.37200 22.35500
H  2.55700 39.87400 22.39000
H  3.41500 40.63500 21.04900
H  1.72900 40.27600 20.84300
H  3.93300 45.19500 22.31300
H  2.43100 44.75000 21.59400
H  4.42400 43.30700 20.09300
H  4.94800 44.96600 20.33400
H  3.41200 44.65000 19.52900
H  6.80800 44.54400 26.95500
H  6.76400 43.04200 25.95700
H  7.02600 42.96900 27.77400
H  3.16500 43.72100 31.15800
H  2.51300 40.11200 33.34600
H  3.30300 41.15000 34.66400
H  4.25400 40.14400 33.63700

