158

Mg 40.72800 8.28100 29.34000
C  42.53700 9.85600 32.25100
C  38.88700 6.76700 31.76400
C  39.37500 6.77100 26.94200
C  43.50700 9.38300 27.46800
N  40.83900 8.12800 31.78500
C  41.48500 8.97000 32.75800
C  40.93800 8.81600 34.21700
C  39.88200 7.69400 33.97100
C  39.88800 7.46800 32.42200
C  40.11300 6.47700 34.84700
C  40.31500 10.12600 34.57900
C  40.90000 10.97800 35.78600
H  41.39300 10.29300 37.10800
N  39.25900 7.00100 29.34700
C  38.57400 6.54200 30.39000
C  37.39700 5.89700 29.91500
C  37.46800 5.87100 28.50300
C  38.79500 6.54000 28.21600
C  36.39900 5.18100 30.82600
C  36.39300 5.40000 27.47700
O  36.73700 5.21700 26.31600
C  34.96800 5.13300 27.93500
N  41.57700 7.91600 27.52300
C  40.67300 7.29200 26.63500
C  41.22100 7.29200 25.14700
C  42.39600 8.28200 25.26600
C  42.55000 8.53800 26.84900
C  41.68400 5.88800 24.67600
C  42.19000 9.63000 24.47500
C  40.99100 10.46200 24.97000
N  42.63300 9.38300 29.72200
C  43.57500 9.77400 28.82700
C  44.54800 10.59200 29.43800
C  44.12100 10.71700 30.77000
C  42.96900 9.94100 30.90200
C  45.72400 11.26100 28.66300
C  44.59300 11.16900 32.08800
O  45.55200 11.81900 32.54900
C  43.55400 10.66900 33.02800
C  44.27000 9.82000 34.06000
O  44.34500 8.60200 33.97000
O  44.78400 10.59100 35.13500
C  45.41400 9.94300 36.28000
H  38.19000 6.43500 32.53700
H  38.84300 6.36900 26.07700
H  44.19300 9.91600 26.80600
H  41.73000 8.61800 34.93900
H  38.86100 7.97600 34.22600
H  39.19400 6.00700 35.19800
H  40.54800 6.80300 35.79200
H  40.77800 5.74800 34.38400
H  39.27400 9.93600 34.84000
H  40.39000 10.88200 33.79700
H  40.12700 11.65800 36.14200
H  41.71100 11.56600 35.35600
H  36.67200 5.40100 31.85800
H  36.47900 4.10800 30.65500
H  35.37600 5.55200 30.76500
H  34.50300 6.04900 28.29700
H  35.09400 4.43900 28.76600
H  34.42100 4.76300 27.06900
H  40.37200 7.61300 24.54400
H  43.31100 7.83900 24.87300
H  41.25000 5.67900 23.69800
H  41.11600 5.26300 25.36400
H  42.73400 5.62100 24.56100
H  41.83400 9.27400 23.50800
H  43.07800 10.26100 24.42600
H  41.28400 11.40200 25.43900
H  40.49200 10.00600 25.82400
H  40.27200 10.70300 24.18700
H  46.10200 12.16600 29.13900
H  45.26500 11.62300 27.74300
H  46.48800 10.51900 28.43000
H  43.01300 11.45600 33.55400
H  44.83300 9.76900 37.18500
H  46.26500 10.57300 36.53900
H  45.84300 8.97100 36.03700
Mg 47.24500 16.31000 28.45400
C  45.06400 15.59300 31.03400
C  48.65800 18.69100 30.31500
C  49.10100 17.26300 25.71300
C  45.16500 14.46300 26.34500
N  46.94100 16.94900 30.43000
C  46.08500 16.40200 31.41900
C  46.38900 16.88000 32.86300
C  47.23600 18.14900 32.43500
C  47.72700 17.91100 30.98100
C  46.34000 19.43500 32.52700
C  47.19300 15.80600 33.60800
C  47.00900 15.73500 35.17400
H  48.25200 15.74400 36.07500
N  48.84300 17.54200 28.12600
C  49.23700 18.51000 29.07600
C  50.21200 19.38600 28.49800
C  50.42100 18.96300 27.20300
C  49.43900 17.82500 26.93300
C  50.83900 20.57400 29.17400
C  51.48500 19.43500 26.14300
O  51.65900 18.93300 25.05400
C  52.44100 20.56500 26.38700
N  47.20400 15.96300 26.35600
C  48.09900 16.39000 25.42800
C  47.75400 15.82700 24.03500
C  46.49600 15.02400 24.22800
C  46.27800 15.13600 25.73500
C  47.74800 16.86800 22.92700
C  46.66300 13.52700 23.73500
C  47.46100 12.56900 24.62400
N  45.47600 15.19500 28.51700
C  44.67300 14.45300 27.66100
C  43.51800 13.90400 28.31900
C  43.67600 14.28500 29.66500
C  44.89200 15.05600 29.71900
C  42.45300 12.99400 27.72600
C  43.12300 14.12700 31.04100
O  42.08500 13.58000 31.47200
C  43.97100 14.97700 31.90600
C  43.19200 16.06200 32.49500
O  42.58200 16.94300 31.91600
O  43.26600 15.92900 33.81700
C  42.91600 17.12500 34.61800
H  49.13200 19.49100 30.88800
H  49.72100 17.55700 24.86300
H  44.35000 14.12600 25.70100
H  45.51100 17.15400 33.44900
H  48.12900 18.19100 33.05900
H  45.28100 19.18100 32.58700
H  46.54100 19.88600 31.55500
H  46.68100 20.06600 33.34700
H  48.25000 15.90200 33.35900
H  46.87300 14.83800 33.22200
H  46.57100 14.74400 35.29100
H  46.24400 16.41900 35.54300
H  51.81200 20.24000 29.53500
H  50.24200 21.02200 29.96800
H  51.06700 21.46800 28.59300
H  51.93700 21.49400 26.12300
H  53.31300 20.41800 25.74900
H  52.84600 20.61200 27.39700
H  48.54700 15.18200 23.65800
H  45.63500 15.47300 23.73400
H  47.71800 17.80100 23.49000
H  46.95700 16.83300 22.17800
H  48.67300 16.76900 22.36000
H  47.08200 13.65500 22.73700
H  45.66200 13.10900 23.62200
H  48.31800 12.22500 24.04500
H  46.87100 11.72700 24.98800
H  47.90100 13.12200 25.45400
H  42.15100 13.53100 26.82600
H  41.58900 12.78200 28.35700
H  42.84900 12.05800 27.33400
H  44.39900 14.33600 32.67600
H  41.84200 17.31200 34.58400
H  43.39500 18.03400 34.25400
H  43.23200 16.87100 35.63000

