158

Mg 35.48500 2.83200 30.51500
C  33.09200 3.83700 32.85100
C  37.85700 2.77300 32.97800
C  37.72000 1.97700 28.24200
C  33.08800 3.36900 27.93400
N  35.41300 3.20800 32.70900
C  34.31100 3.47700 33.44800
C  34.63100 3.12900 34.97000
C  36.24300 3.33900 34.94100
C  36.54300 3.05800 33.50300
C  36.76800 4.74700 35.39100
C  34.06600 1.73100 35.34700
C  33.99900 1.40000 36.83200
H  34.74400 2.17200 37.81700
N  37.51900 2.38700 30.59500
C  38.33900 2.41300 31.70200
C  39.65300 2.03100 31.34000
C  39.59700 1.75400 29.95400
C  38.27300 2.07000 29.50800
C  40.74000 1.94000 32.35700
C  40.73200 1.22800 29.00800
O  40.66900 1.09200 27.80000
C  41.92300 0.71100 29.58800
N  35.34000 2.52400 28.44300
C  36.44400 2.22200 27.71100
C  36.16400 2.23800 26.18700
C  34.62200 2.46600 26.19800
C  34.35000 2.89300 27.60300
C  37.02000 3.33800 25.43700
C  33.67900 1.26400 25.81500
C  32.55500 1.52100 24.75700
N  33.51000 3.56700 30.37200
C  32.68100 3.70700 29.26900
C  31.35900 4.25600 29.70900
C  31.51000 4.31800 31.11600
C  32.79600 3.81800 31.48900
C  30.18300 4.67900 28.90900
C  30.85600 4.68400 32.28900
O  29.76600 5.22500 32.49900
C  31.73600 4.12900 33.47000
C  31.95900 5.20000 34.45100
O  32.56600 6.25400 34.32700
O  31.08800 4.82900 35.49800
C  31.00800 5.77500 36.55900
H  38.64500 2.90300 33.72400
H  38.51600 1.86500 27.50200
H  32.42200 3.53300 27.08400
H  34.13700 3.86100 35.60900
H  36.70100 2.55000 35.53700
H  35.90000 5.17400 35.89300
H  37.11400 5.20800 34.46600
H  37.67000 4.61300 35.98900
H  34.59400 0.90000 34.87800
H  33.07000 1.78000 34.90700
H  34.13000 0.32700 36.97300
H  32.96300 1.59000 37.11400
H  40.57200 0.98200 32.85000
H  40.79700 2.73900 33.09600
H  41.71300 1.98000 31.86900
H  42.44800 0.07200 28.87900
H  41.69500 0.19400 30.52000
H  42.55800 1.55000 29.87300
H  36.30600 1.20400 25.87200
H  34.45800 3.31600 25.53500
H  36.40900 4.06900 24.90800
H  37.58600 2.91900 24.60500
H  37.59800 3.92300 26.15300
H  33.27100 0.68000 26.64000
H  34.24400 0.46500 25.33500
H  32.86400 1.19800 23.76300
H  32.35700 2.59300 24.77100
H  31.65700 0.99600 25.08200
H  29.55600 5.33400 29.51300
H  29.64500 3.75800 28.68600
H  30.49800 5.20200 28.00600
H  31.30400 3.25300 33.95500
H  30.45900 5.36200 37.40600
H  30.56400 6.74100 36.31900
H  32.04800 5.92700 36.84700
Mg -6.36000 25.03600 25.97300
C  -4.57000 26.59100 28.51900
C  -8.13200 23.30600 28.38400
C  -7.48400 22.89300 23.56800
C  -4.16000 26.52900 23.68900
N  -6.20900 24.85300 28.25100
C  -5.48400 25.70200 29.09200
C  -5.88200 25.50600 30.54700
C  -6.90100 24.31500 30.46700
C  -7.09000 24.11600 28.93100
C  -6.48400 22.99800 31.28500
C  -6.36600 26.83600 31.19000
C  -6.04000 27.00500 32.64100
H  -5.84900 25.84100 33.55300
N  -7.71300 23.38900 25.96400
C  -8.44800 22.96100 27.02800
C  -9.43400 22.02700 26.50700
C  -9.22600 21.89400 25.07700
C  -8.06000 22.70000 24.81800
C  -10.49600 21.39100 27.35400
C  -10.04300 20.96700 24.01100
O  -9.80900 21.00800 22.78800
C  -11.13900 20.07500 24.52900
N  -5.83000 24.75100 23.96500
C  -6.42900 23.78800 23.11200
C  -5.65600 23.70700 21.76100
C  -4.95500 25.16000 21.73600
C  -4.94600 25.49900 23.24200
C  -4.70600 22.47500 21.76300
C  -5.67300 26.29500 20.93200
C  -4.72700 27.13300 19.97400
N  -4.84900 26.40400 25.97200
C  -4.10400 26.90900 25.00600
C  -3.15700 27.89300 25.55000
C  -3.40400 27.80000 26.95200
C  -4.36700 26.84900 27.12600
C  -2.12300 28.66200 24.79000
C  -2.86900 28.29500 28.22300
O  -1.89600 28.99800 28.48300
C  -3.63600 27.45400 29.35000
C  -2.63000 26.77500 30.24000
O  -2.41700 25.56500 30.23000
O  -2.26600 27.57500 31.24800
C  -1.68100 27.04800 32.47200
H  -8.61500 22.67600 29.13400
H  -7.86000 22.26800 22.75500
H  -3.44000 27.02100 23.03300
H  -4.97100 25.19600 31.05900
H  -7.80400 24.73600 30.91000
H  -6.38800 22.11400 30.65400
H  -7.17800 22.90600 32.12000
H  -5.48100 23.06700 31.70500
H  -7.44300 26.89900 31.34400
H  -6.08600 27.68300 30.56400
H  -6.68600 27.76300 33.08200
H  -5.02300 27.39300 32.70300
H  -11.47100 21.46900 26.87400
H  -10.55000 21.86000 28.33600
H  -10.35400 20.31400 27.43600
H  -12.06700 20.59000 24.77600
H  -10.69900 19.39800 25.26100
H  -11.37400 19.41200 23.69600
H  -6.27200 23.57800 20.87100
H  -3.92600 25.08600 21.38300
H  -4.88800 21.99300 20.80300
H  -4.91200 21.79500 22.58900
H  -3.68500 22.85600 21.78100
H  -6.26900 26.93700 21.58000
H  -6.39700 25.72300 20.35000
H  -4.81100 28.15700 20.33800
H  -5.18300 27.09200 18.98500
H  -3.65700 26.94900 20.07200
H  -1.71600 28.18000 23.90200
H  -1.32900 28.88700 25.50200
H  -2.53100 29.58700 24.38100
H  -4.20300 28.22800 29.86600
H  -0.87700 26.34100 32.26600
H  -2.50300 26.63500 33.05600
H  -1.26400 27.93200 32.95300

