158

Mg 47.68300 25.11000 28.47900
C  48.68000 27.30700 31.20800
C  46.49900 22.92700 30.90700
C  47.33600 23.03000 26.10700
C  49.13900 27.52800 26.25600
N  47.60700 25.12300 30.78100
C  48.05500 26.11000 31.60500
C  47.64600 25.80000 33.10300
C  47.16700 24.27500 32.98500
C  47.15900 24.03000 31.45800
C  48.06900 23.32500 33.70800
C  46.64100 26.78800 33.70400
C  47.05200 27.56900 34.98200
H  45.97700 27.84500 35.97800
N  46.88400 23.29300 28.49000
C  46.44900 22.58200 29.55500
C  45.84100 21.41000 28.98600
C  46.03600 21.37000 27.56400
C  46.87400 22.56100 27.36500
C  45.06500 20.35500 29.84700
C  45.49300 20.45400 26.45600
O  45.62000 20.60000 25.27000
C  44.58300 19.28400 26.95500
N  48.05500 25.35000 26.46200
C  47.85100 24.26000 25.68800
C  48.40500 24.40400 24.24200
C  48.82800 25.93900 24.22700
C  48.70000 26.35400 25.72800
C  49.64300 23.45900 23.96400
C  47.95200 26.74800 23.29200
C  46.71100 27.44000 23.85500
N  48.71200 26.98600 28.61200
C  49.16800 27.86100 27.64800
C  49.83700 28.99800 28.22100
C  49.64300 28.81400 29.63100
C  48.92600 27.58700 29.81200
C  50.62000 30.15500 27.66500
C  49.96400 29.39300 30.92900
O  50.60500 30.37800 31.30900
C  49.22900 28.49100 31.94900
C  50.26900 28.09000 32.91500
O  51.20000 27.30500 32.68700
O  50.14100 28.71700 34.15600
C  51.17800 28.47100 35.12100
H  46.09000 22.19200 31.60300
H  47.34400 22.33900 25.26100
H  49.51800 28.22900 25.51000
H  48.53300 25.89100 33.72900
H  46.17400 24.12700 33.40900
H  48.79000 22.94300 32.98600
H  47.50900 22.47200 34.09100
H  48.55600 23.80500 34.55600
H  45.78600 26.19200 34.02100
H  46.37400 27.57800 33.00200
H  47.35900 28.57200 34.68800
H  47.88200 27.08800 35.50000
H  44.00500 20.38200 29.59600
H  45.21100 20.59100 30.90100
H  45.41400 19.32400 29.77500
H  44.84900 18.65900 27.80800
H  44.57200 18.62600 26.08700
H  43.56300 19.64700 27.08400
H  47.58600 24.03900 23.62200
H  49.87500 26.05100 23.94500
H  50.02900 23.07100 24.90600
H  50.49100 23.85600 23.40600
H  49.22100 22.56500 23.50400
H  47.67800 26.24500 22.36400
H  48.58100 27.53500 22.87600
H  46.61300 27.60700 24.92800
H  45.78600 26.96700 23.52500
H  46.64700 28.49800 23.60200
H  50.84300 30.01100 26.60800
H  51.55400 30.12100 28.22600
H  50.20400 31.13200 27.91100
H  48.42500 29.06400 32.41200
H  50.93800 27.49500 35.54500
H  51.12700 29.34500 35.76900
H  52.15800 28.42200 34.64600
Mg 6.62200 52.61700 41.32800
C  5.84500 49.18200 41.14600
C  9.84200 51.94300 40.42200
C  7.02600 55.96900 40.58500
C  3.16600 53.22500 41.75700
N  7.65600 50.76800 40.61500
C  7.17700 49.48300 40.83800
C  8.34200 48.51200 40.72300
C  9.59700 49.42200 40.74600
C  9.03800 50.77500 40.50100
C  10.37400 49.37100 42.10900
C  8.45600 47.62900 39.36300
C  8.39200 48.33500 37.95000
H  7.34300 47.87600 36.90400
N  8.29400 53.74200 40.69200
C  9.54600 53.28800 40.37000
C  10.39200 54.46400 40.01200
C  9.51900 55.60200 40.13400
C  8.16400 55.11000 40.41000
C  11.85600 54.32900 39.69500
C  10.03100 57.03600 39.98100
O  11.19300 57.16400 39.68500
C  9.22900 58.30300 40.18800
N  5.29300 54.32700 41.08100
C  5.76800 55.56400 40.96700
C  4.65500 56.63300 40.96300
C  3.36400 55.66800 40.84400
C  3.94100 54.34900 41.33200
C  4.58400 57.66100 42.20500
C  2.68100 55.64800 39.35900
C  1.34100 56.35800 39.26500
N  4.90600 51.48300 41.58500
C  3.52700 51.87400 41.86000
C  2.70100 50.62500 42.00900
C  3.67300 49.63800 41.72500
C  4.92600 50.15800 41.42900
C  1.31900 50.54500 42.53900
C  3.79500 48.16800 41.78400
O  2.92700 47.38500 42.16300
C  5.22000 47.79900 41.21900
C  4.99600 47.08000 39.91500
O  4.48700 47.64700 38.94100
O  5.36200 45.77100 39.96100
C  5.15900 45.04900 38.76700
H  10.91100 51.73800 40.33200
H  7.01100 57.05500 40.70000
H  2.07800 53.26400 41.83900
H  8.42100 47.86800 41.59800
H  10.28800 49.12300 39.95800
H  11.36000 48.92700 41.97300
H  9.79900 48.87500 42.89100
H  10.52600 50.37300 42.51100
H  7.59700 46.95900 39.37700
H  9.31200 46.97300 39.52500
H  9.43400 48.26500 37.63600
H  8.19700 49.38700 38.15500
H  12.07700 54.65100 38.67800
H  12.30200 53.34600 39.84600
H  12.51500 55.00500 40.24200
H  9.88400 59.17400 40.19400
H  8.78300 58.28900 41.18300
H  8.44300 58.34200 39.43300
H  4.61100 57.11200 39.98500
H  2.68300 56.13900 41.55300
H  4.42400 58.65300 41.78300
H  5.49800 57.63900 42.79800
H  3.80000 57.43500 42.92700
H  2.45700 54.59400 39.19800
H  3.35200 56.02500 38.58700
H  0.47300 55.71700 39.11500
H  1.27200 56.89200 38.31800
H  1.06500 57.08500 40.02800
H  1.00400 49.50200 42.51900
H  0.64100 51.18000 41.96900
H  1.35900 50.82400 43.59200
H  5.67800 47.16300 41.97700
H  4.42300 44.32500 39.11800
H  5.99400 44.40000 38.50500
H  4.82700 45.42500 37.79900

