158

Mg 0.81800 8.88200 26.71900
C  1.26700 10.91500 29.41600
C  0.55200 6.13500 28.98800
C  0.74700 6.75100 24.06000
C  1.09600 11.58100 24.59400
N  0.85400 8.58600 28.97800
C  1.08200 9.58900 29.84200
C  1.11400 9.08200 31.30700
C  1.13700 7.50700 31.14100
C  0.78100 7.37800 29.64200
C  2.45400 6.78000 31.43600
C  -0.01100 9.63800 32.23500
C  -0.28400 8.88500 33.61800
H  0.86800 8.42500 34.46100
N  0.61000 6.80600 26.54900
C  0.47700 5.90200 27.57500
C  0.22100 4.57800 26.98800
C  0.47100 4.61300 25.57400
C  0.57400 6.10800 25.35500
C  -0.00100 3.33500 27.82100
C  0.45900 3.45100 24.57500
O  0.54600 3.74300 23.42100
C  0.22400 1.99300 25.01300
N  0.79600 9.16300 24.63800
C  0.82300 8.14500 23.76800
C  0.92600 8.77700 22.33700
C  0.53400 10.18200 22.56400
C  0.83300 10.31200 23.98900
C  2.37300 8.56100 21.74400
C  -0.97900 10.44900 22.26700
C  -1.36800 11.35700 21.10100
N  1.23400 10.84800 26.89900
C  1.27500 11.85400 26.01300
C  1.69200 13.09600 26.67100
C  1.54400 12.76100 27.99300
C  1.34900 11.39300 28.06000
C  1.84200 14.43000 25.96300
C  1.73100 13.33000 29.30400
O  1.93700 14.46100 29.59600
C  1.45900 12.12100 30.24300
C  2.53400 11.96700 31.22400
O  3.67900 11.67500 30.94300
O  2.04500 12.25200 32.46300
C  2.93800 12.06500 33.63300
H  0.59200 5.25200 29.63000
H  0.60900 6.20500 23.12500
H  1.06300 12.41500 23.89100
H  2.10400 9.39000 31.64500
H  0.35500 7.00700 31.71100
H  3.30700 7.37400 31.76300
H  2.88100 6.53600 30.46400
H  2.27000 5.96900 32.14100
H  -0.89800 9.41900 31.64000
H  0.22000 10.66400 32.52100
H  -1.08300 8.15000 33.51500
H  -0.84500 9.67300 34.12100
H  -0.95700 2.91600 27.50500
H  -0.23900 3.57400 28.85800
H  0.85500 2.66000 27.83900
H  0.54600 1.24400 24.29000
H  -0.81300 1.88600 25.33200
H  0.93700 1.75000 25.80100
H  0.28500 8.26400 21.62000
H  1.27200 10.74900 21.99800
H  2.23500 8.06500 20.78300
H  3.00400 7.92600 22.36600
H  2.92600 9.48600 21.58100
H  -1.30200 11.09500 23.08300
H  -1.61200 9.56200 22.29100
H  -0.57900 11.46500 20.35700
H  -1.74700 12.31000 21.47200
H  -2.21000 10.81800 20.66600
H  2.40900 14.35500 25.03500
H  2.19800 15.10600 26.74000
H  0.84600 14.77400 25.68500
H  0.56000 12.36500 30.80900
H  3.57400 12.94000 33.76600
H  3.47100 11.11400 33.60800
H  2.31200 12.16100 34.52000
Mg -10.89900 39.53000 40.61300
C  -9.45900 36.43300 39.72400
C  -8.42400 41.14600 39.07500
C  -12.85300 42.29900 40.75900
C  -13.86600 37.52400 41.62500
N  -9.29400 38.76900 39.21600
C  -8.78000 37.53600 39.08600
C  -7.43100 37.51700 38.34900
C  -7.07200 39.06500 38.37600
C  -8.33500 39.70100 38.90100
C  -5.76600 39.40200 39.13000
C  -7.47600 36.77000 37.00500
C  -6.95300 37.49700 35.74900
H  -8.02100 38.22300 34.91400
N  -10.65600 41.46700 39.98700
C  -9.49100 42.00600 39.47200
C  -9.53800 43.42300 39.45800
C  -10.83300 43.77100 39.95600
C  -11.53400 42.46100 40.26900
C  -8.38200 44.33600 38.99400
C  -11.38900 45.23700 40.01800
O  -10.66800 46.15800 39.76600
C  -12.86200 45.58300 40.23600
N  -13.15000 39.81500 40.78600
C  -13.57500 41.10200 40.98900
C  -15.00200 41.11800 41.60400
C  -15.41700 39.67300 41.72000
C  -14.11700 38.93800 41.38500
C  -15.07200 41.93000 42.93000
C  -16.46800 39.26800 40.69700
C  -17.30300 37.98800 40.94300
N  -11.52200 37.45200 40.85400
C  -12.69100 36.84100 41.28800
C  -12.38700 35.44200 41.50100
C  -11.15500 35.23300 40.93400
C  -10.69200 36.45700 40.43800
C  -13.35700 34.39900 42.11000
C  -10.18500 34.24100 40.52600
O  -10.17000 33.02900 40.69900
C  -9.05300 34.99300 39.74700
C  -7.79200 34.66700 40.46500
O  -7.33800 33.53400 40.43800
O  -7.22400 35.75400 41.15900
C  -6.18400 35.32100 42.11400
H  -7.54100 41.67900 38.71700
H  -13.37900 43.24100 40.92800
H  -14.61900 36.97800 42.19800
H  -6.71500 36.95500 38.94900
H  -6.88700 39.47100 37.38100
H  -5.20900 40.05100 38.45500
H  -5.26700 38.48100 39.43300
H  -6.03300 40.05900 39.95700
H  -8.52900 36.52900 36.86500
H  -6.75500 35.96900 37.16800
H  -6.38800 36.91500 35.02100
H  -6.15300 38.18800 36.01900
H  -7.47900 43.73500 38.88100
H  -8.16100 45.09700 39.74200
H  -8.62300 44.75100 38.01500
H  -12.99200 46.56500 39.78000
H  -13.12000 45.56100 41.29500
H  -13.43800 44.83800 39.68800
H  -15.61100 41.63100 40.86000
H  -15.73000 39.45700 42.74100
H  -15.73800 41.45900 43.65300
H  -15.51100 42.90600 42.72700
H  -14.10900 42.04000 43.43000
H  -15.97100 39.23500 39.72800
H  -17.20600 40.05800 40.55700
H  -17.11200 37.24800 40.16500
H  -18.36300 38.23900 40.97900
H  -17.12800 37.54500 41.92300
H  -13.15700 33.41300 41.69200
H  -14.39300 34.72200 42.01200
H  -13.12700 34.43600 43.17500
H  -9.09700 34.55700 38.74900
H  -6.51800 34.66800 42.92000
H  -5.67900 36.15000 42.60900
H  -5.36200 34.82500 41.59700

