158

Mg 26.13000 51.09500 26.70500
C  23.75500 51.74100 29.25200
C  28.43700 50.42900 29.16800
C  28.44000 50.57100 24.34000
C  23.79800 52.08700 24.31500
N  26.05800 51.23300 28.92000
C  24.99400 51.49500 29.73500
C  25.39100 51.20600 31.18600
C  26.88900 51.00500 31.13700
C  27.18600 50.91500 29.61500
C  27.81000 51.91000 32.01400
C  24.63800 49.97200 31.70800
C  24.13900 50.01700 33.15900
H  24.77800 50.99600 34.23700
N  28.12600 50.48400 26.72600
C  28.92000 50.26200 27.82100
C  30.14900 49.65100 27.43500
C  30.16500 49.66800 26.04900
C  28.86400 50.27900 25.64700
C  31.20000 49.25700 28.46400
C  31.40800 49.30100 25.10500
O  31.34000 49.45900 23.89000
C  32.74600 48.81100 25.67300
N  26.20700 51.61500 24.65100
C  27.25200 51.20100 23.87900
C  26.95700 51.49600 22.36400
C  25.43000 51.88800 22.35200
C  25.08700 51.83300 23.86600
C  27.94500 52.37300 21.61000
C  24.50400 50.92700 21.45900
C  24.15000 49.48400 22.04500
N  24.16800 51.74300 26.74700
C  23.38400 52.09700 25.67200
C  22.05600 52.51700 26.21800
C  22.16800 52.46700 27.58100
C  23.47800 51.91500 27.86300
C  20.88500 53.06100 25.44700
C  21.55100 52.76700 28.83300
O  20.42800 53.24000 29.05300
C  22.51000 52.31700 29.90200
C  22.97500 53.57200 30.68100
O  23.73800 54.46200 30.27400
O  22.23300 53.57000 31.86300
C  22.21200 54.82800 32.68800
H  29.08000 50.20900 30.02400
H  29.06900 50.35600 23.47300
H  23.04700 52.38200 23.58000
H  25.17500 52.09200 31.78200
H  27.12700 50.02300 31.54400
H  27.21700 52.30100 32.84000
H  28.28100 52.64600 31.36200
H  28.67800 51.33400 32.33400
H  25.25500 49.07600 31.63300
H  23.77800 49.75300 31.07600
H  24.22100 49.02200 33.59600
H  23.09300 50.27100 32.98700
H  32.16200 49.65300 28.13900
H  31.30700 48.17200 28.48100
H  30.97200 49.63400 29.46100
H  32.58100 48.10200 26.48500
H  33.13200 49.72400 26.12500
H  33.37200 48.25800 24.97300
H  26.94900 50.55200 21.81900
H  25.39100 52.97300 22.25100
H  28.69700 52.57200 22.37300
H  27.66400 53.30700 21.12400
H  28.45200 51.75200 20.87100
H  25.03800 50.89500 20.50900
H  23.53400 51.39400 21.28800
H  24.59700 48.76400 21.36000
H  23.07200 49.32500 22.08300
H  24.53800 49.35600 23.05500
H  20.99000 54.14000 25.33500
H  20.01600 52.94700 26.09500
H  20.82400 52.62400 24.45100
H  22.02700 51.61900 30.58500
H  23.16700 54.86000 33.21200
H  21.29400 54.92400 33.26700
H  22.27200 55.74600 32.10300
Mg -10.35400 17.17300 43.48800
C  -6.84200 16.86000 43.10700
C  -10.11900 20.43100 42.36600
C  -13.63500 17.18300 43.15700
C  -10.43900 13.62300 43.83200
N  -8.57400 18.45500 42.71300
C  -7.27800 18.17600 42.73400
C  -6.39800 19.48800 42.35600
C  -7.52400 20.59900 42.45000
C  -8.82500 19.81100 42.47000
C  -7.28400 21.61500 43.60900
C  -5.57300 19.20900 40.97800
C  -5.94100 20.05900 39.76100
H  -5.52500 19.52500 38.46000
N  -11.69300 18.55800 42.97600
C  -11.40700 19.85200 42.51800
C  -12.63500 20.57500 42.24900
C  -13.67800 19.70200 42.55500
C  -13.04000 18.36700 42.92200
C  -12.70800 22.03000 41.86500
C  -15.15300 20.05600 42.52700
O  -15.49900 21.22800 42.31700
C  -16.23600 19.07400 42.80200
N  -11.86200 15.64700 43.48700
C  -13.12300 15.95500 43.38400
C  -13.99500 14.76800 43.77600
C  -13.04800 13.55600 43.71200
C  -11.67400 14.31200 43.64000
C  -14.90900 14.90300 44.98000
C  -13.24200 12.67300 42.45100
C  -13.59900 11.20800 42.76900
N  -8.93200 15.46500 43.59300
C  -9.09400 14.15300 43.73800
C  -7.84200 13.45900 43.68500
C  -6.92600 14.50900 43.48100
C  -7.61600 15.70700 43.38700
C  -7.57000 12.01000 43.77600
C  -5.50600 14.79900 43.29500
O  -4.54200 14.07300 43.17800
C  -5.44500 16.37000 43.13100
C  -4.62600 16.97300 44.29700
O  -3.37600 16.85000 44.35700
O  -5.37700 17.51300 45.27500
C  -4.74800 17.79500 46.57600
H  -10.11400 21.51300 42.21500
H  -14.72400 17.16600 43.07500
H  -10.44500 12.53800 43.95500
H  -5.71700 19.68900 43.18300
H  -7.56000 21.27000 41.59200
H  -8.03400 21.44300 44.38200
H  -7.47900 22.58500 43.15200
H  -6.32800 21.56700 44.12900
H  -5.71700 18.16600 40.69700
H  -4.51800 19.34500 41.21700
H  -5.63000 21.07200 40.01700
H  -7.02800 20.06600 39.84000
H  -13.49400 22.14000 41.11800
H  -11.79200 22.36300 41.37800
H  -13.00700 22.71100 42.66200
H  -16.26700 18.78300 43.85200
H  -16.04100 18.27700 42.08500
H  -17.20600 19.45700 42.48500
H  -14.72900 14.63900 42.98100
H  -13.14900 13.08000 44.68700
H  -14.93500 14.12200 45.74000
H  -15.95100 15.00800 44.67700
H  -14.61800 15.83200 45.46900
H  -12.38500 12.66200 41.77700
H  -14.05700 13.03900 41.82600
H  -14.51700 10.97000 42.23100
H  -13.56400 11.02000 43.84200
H  -12.86100 10.57700 42.27400
H  -6.97200 11.66400 44.61900
H  -7.02300 11.67000 42.89600
H  -8.52300 11.48300 43.72600
H  -4.83000 16.57800 42.25500
H  -5.30900 17.78500 47.51100
H  -4.18200 18.70500 46.38000
H  -4.00700 17.01500 46.74900

