158

Mg 47.25600 25.85900 28.37100
C  48.29500 27.99000 30.84700
C  46.42600 23.45900 30.78500
C  46.62600 23.64300 25.91400
C  48.48600 28.16400 25.99600
N  47.54300 25.75900 30.50900
C  47.73400 26.80300 31.40300
C  47.68900 26.42200 32.82600
C  47.31900 24.87400 32.69100
C  47.07700 24.64100 31.20600
C  48.27000 23.81000 33.35000
C  46.62700 27.25200 33.66300
C  47.29800 28.04100 34.76900
H  46.50100 28.17100 36.09700
N  46.62700 23.77900 28.33300
C  46.29700 23.02300 29.46400
C  45.78300 21.68600 28.94700
C  45.79500 21.71500 27.52500
C  46.32900 23.06300 27.21100
C  45.09300 20.66200 29.97600
C  45.35400 20.66500 26.50500
O  45.45400 20.81700 25.27700
C  44.85200 19.39000 27.08400
N  47.53100 25.91200 26.22700
C  47.12700 24.89200 25.43300
C  47.33800 25.23900 23.89600
C  47.92600 26.68600 23.94200
C  47.92300 26.95600 25.44900
C  48.31400 24.20700 23.25300
C  47.02500 27.76100 23.22100
C  47.60000 29.16900 22.88500
N  48.12000 27.69800 28.34500
C  48.61400 28.50000 27.33300
C  49.16300 29.71500 27.90200
C  49.12400 29.53800 29.23900
C  48.41600 28.30100 29.48000
C  49.58200 30.98000 27.21200
C  49.22700 30.25600 30.50700
O  49.54800 31.42500 30.66400
C  48.78600 29.26600 31.62400
C  49.94500 28.91100 32.41800
O  50.75500 27.98400 32.26500
O  49.98900 29.73700 33.52400
C  50.93800 29.38900 34.59500
H  46.00100 22.80600 31.55000
H  46.38900 22.92300 25.12800
H  48.64300 29.02500 25.34400
H  48.72400 26.63100 33.09600
H  46.38300 24.66100 33.20700
H  49.12200 24.35000 33.76300
H  48.66800 23.19800 32.54100
H  47.80600 23.17700 34.10700
H  45.87500 26.68800 34.21500
H  46.06400 28.01700 33.12800
H  47.47700 29.07000 34.45600
H  48.25700 27.57000 34.98500
H  44.00800 20.70100 29.88000
H  45.26000 20.94700 31.01500
H  45.52300 19.66400 29.88400
H  45.52500 18.80300 27.70900
H  44.47400 18.81100 26.24200
H  43.98700 19.78800 27.61600
H  46.34600 25.18900 23.44500
H  48.95800 26.70400 23.59300
H  48.47400 23.37500 23.93800
H  49.24100 24.71500 22.98800
H  47.82200 23.94600 22.31600
H  46.06200 27.84200 23.72600
H  46.85000 27.30900 22.24500
H  48.66300 28.92900 22.88000
H  47.25900 29.81700 23.69200
H  47.30900 29.51600 21.89400
H  50.62500 30.82500 26.93800
H  49.44300 31.84400 27.86100
H  49.05400 31.09900 26.26600
H  47.99000 29.52300 32.32300
H  51.91600 29.54400 34.13900
H  50.80600 28.39400 35.01900
H  50.86600 30.10600 35.41200
Mg 6.16900 53.42300 40.64600
C  5.43900 49.92600 40.40700
C  9.33800 52.64600 39.48500
C  6.69200 56.61100 40.09500
C  2.73300 53.96500 41.10700
N  7.22000 51.49200 40.18900
C  6.70200 50.23100 39.98100
C  7.81700 49.21900 39.55300
C  9.15900 50.12600 39.82400
C  8.55200 51.52300 39.75400
C  9.88200 49.83900 41.20700
C  7.66800 48.73400 37.97600
C  6.93300 49.73600 37.01700
H  6.16600 49.24800 35.63900
N  7.83700 54.51000 39.95300
C  9.08400 53.99200 39.54900
C  9.99400 55.02500 39.44800
C  9.21500 56.23200 39.65000
C  7.86600 55.86100 39.91400
C  11.42400 54.83400 39.11100
C  9.88000 57.58000 39.73700
O  11.06000 57.66400 39.63300
C  9.20400 58.80500 39.98600
N  4.85600 55.08800 40.58400
C  5.32400 56.34600 40.37800
C  4.17600 57.41300 40.52700
C  2.96700 56.55000 40.86000
C  3.50500 55.12900 40.86600
C  4.52100 58.52100 41.56500
C  1.70500 56.54500 39.90900
C  0.27400 56.45700 40.51300
N  4.42200 52.24900 40.83400
C  3.09000 52.59400 41.10300
C  2.31000 51.44900 41.36400
C  3.21100 50.40200 41.07800
C  4.45600 50.90400 40.79100
C  0.91400 51.39100 41.80300
C  3.31000 48.94000 40.97600
O  2.49300 48.05700 41.20000
C  4.71800 48.59800 40.43700
C  4.60100 48.01700 39.09700
O  4.24800 48.53500 38.05300
O  4.80100 46.68400 39.29900
C  4.66800 45.77400 38.13600
H  10.39400 52.46500 39.27400
H  6.81400 57.66600 39.84000
H  1.71500 54.27900 41.34700
H  7.66900 48.35900 40.20600
H  9.87100 50.05500 39.00200
H  9.32000 49.19000 41.87800
H  9.99300 50.76300 41.77500
H  10.83700 49.39900 40.92000
H  7.22200 47.74100 37.91500
H  8.71300 48.67400 37.67300
H  7.72900 50.36000 36.61000
H  6.21500 50.35000 37.56100
H  11.77800 53.84300 39.39600
H  12.00000 55.47300 39.78000
H  11.56600 54.98400 38.04100
H  8.51200 58.74200 40.82600
H  8.55000 59.00600 39.13700
H  9.90500 59.63000 40.11600
H  3.87200 57.91800 39.61000
H  2.63700 56.66700 41.89200
H  5.34800 58.18800 42.19200
H  3.68700 58.71200 42.24000
H  4.71500 59.44900 41.02700
H  1.79700 55.73900 39.18100
H  1.66200 57.48400 39.35700
H  0.29600 56.04000 41.52000
H  -0.49600 55.97400 39.91200
H  -0.14100 57.46400 40.55300
H  0.52100 52.38400 42.02300
H  0.94000 50.85800 42.75300
H  0.29300 50.99600 40.99900
H  5.33300 47.99000 41.10000
H  5.47000 45.03600 38.14600
H  4.52100 46.22100 37.15300
H  3.76600 45.20700 38.36600

