158

Mg 53.37400 23.93500 44.55200
C  50.96100 26.28300 43.69200
C  51.40200 21.38900 43.30800
C  56.07200 21.70900 44.66800
C  55.33600 26.53000 45.56300
N  51.38800 23.86200 43.49400
C  50.57500 24.96400 43.34600
C  49.30300 24.47800 42.62900
C  49.39100 22.91500 42.92200
C  50.79400 22.70300 43.32000
C  48.41900 22.41000 43.97100
C  49.11900 24.69900 41.09800
C  50.34100 25.02800 40.24900
H  50.01500 25.58100 38.83700
N  53.67700 21.80900 44.02900
C  52.73100 20.97400 43.51100
C  53.32400 19.66200 43.26300
C  54.67200 19.74100 43.73600
C  54.85200 21.06800 44.27200
C  52.64500 18.56400 42.52500
C  55.56200 18.51600 43.69600
O  55.30200 17.52200 43.04900
C  56.77800 18.46600 44.48200
N  55.43400 24.17500 44.94000
C  56.31500 23.08000 44.94000
C  57.66700 23.55200 45.44700
C  57.49200 25.08600 45.60000
C  56.03000 25.29500 45.38100
C  58.16500 22.87400 46.75400
C  58.49400 25.87900 44.63900
C  59.56300 26.74900 45.34500
N  53.22900 25.98900 44.71000
C  54.09500 26.90700 45.16000
C  53.43100 28.18900 45.19900
C  52.16600 28.02300 44.60100
C  52.13600 26.63500 44.37400
C  53.98100 29.45900 45.74800
C  50.90500 28.66200 44.23500
O  50.49900 29.83300 44.31400
C  50.03800 27.50800 43.57200
C  49.73500 28.08600 42.17100
O  50.50900 28.36100 41.28200
O  48.36000 28.15500 42.12800
C  47.60700 28.29700 40.89900
H  50.67800 20.59800 43.10100
H  56.97400 21.12600 44.46800
H  55.97100 27.34100 45.92600
H  48.46700 24.95600 43.14000
H  49.25800 22.28300 42.04400
H  48.01200 23.21900 44.57700
H  48.87300 21.76500 44.72300
H  47.52600 22.02600 43.47700
H  48.41900 25.53300 41.03300
H  48.61800 23.81200 40.71100
H  50.84900 24.06700 40.17600
H  51.01100 25.81600 40.59400
H  53.15700 18.24200 41.61800
H  51.61400 18.83900 42.30200
H  52.59200 17.66300 43.13600
H  56.91300 17.40400 44.68700
H  56.74500 18.98500 45.44000
H  57.59800 18.92200 43.92700
H  58.52400 23.44400 44.78200
H  57.80200 25.33900 46.61400
H  57.90000 21.81700 46.74400
H  57.74600 23.43300 47.59000
H  59.23900 22.97700 46.90700
H  57.82800 26.58600 44.14300
H  59.01200 25.27600 43.89300
H  59.73000 26.46600 46.38500
H  59.52000 27.82700 45.18700
H  60.55400 26.56800 44.93000
H  55.05400 29.56400 45.58800
H  53.79800 29.45200 46.82200
H  53.58700 30.38500 45.32800
H  49.14000 27.39800 44.18000
H  48.26500 28.18100 40.03800
H  47.07500 29.23900 41.03600
H  46.82800 27.53800 40.82600
Mg 46.20600 16.15200 28.24000
C  44.15400 15.64000 31.01700
C  48.43800 17.96000 30.13500
C  48.08100 16.73500 25.42600
C  43.84000 14.44400 26.15100
N  46.22300 16.65600 30.30700
C  45.31300 16.33300 31.32700
C  45.82200 16.98500 32.65200
C  47.10400 17.77300 32.26300
C  47.28600 17.40400 30.77900
C  47.04300 19.34600 32.37600
C  45.97800 15.98700 33.79500
C  45.59100 16.43200 35.21100
H  45.45800 18.02400 35.47900
N  47.98400 17.24300 27.85000
C  48.82600 17.81200 28.78900
C  50.10500 18.18300 28.16800
C  49.90200 17.94200 26.73900
C  48.57300 17.25100 26.58900
C  51.32900 18.73000 28.99200
C  50.82200 18.29700 25.61000
O  50.60300 18.01800 24.44000
C  52.08800 18.92800 25.85100
N  46.04600 15.59600 26.16500
C  47.01600 15.95000 25.28800
C  46.66300 15.34700 23.88400
C  45.27300 14.64400 24.07600
C  45.04200 14.82600 25.64000
C  46.81100 16.30300 22.71600
C  45.20500 13.15200 23.62500
C  45.95300 12.19800 24.57300
N  44.42700 15.12500 28.48900
C  43.51800 14.54100 27.58800
C  42.31300 14.06500 28.29400
C  42.50300 14.57200 29.66200
C  43.80100 15.11800 29.75900
C  41.13300 13.43400 27.68900
C  41.90600 14.61500 31.00800
O  40.84100 14.11400 31.41900
C  43.02800 15.36300 31.91800
C  42.48200 16.45300 32.71100
O  42.33200 17.62900 32.35500
O  42.16700 15.96300 33.97900
C  41.35600 16.78900 34.90600
H  49.15700 18.54300 30.71400
H  48.67400 16.81600 24.51200
H  43.18100 13.97700 25.41600
H  45.04000 17.67700 32.96200
H  47.91400 17.43100 32.90700
H  46.24300 19.81100 32.95200
H  47.05900 19.81500 31.39300
H  47.99500 19.60100 32.84300
H  47.00200 15.64200 33.93600
H  45.34900 15.16000 33.46800
H  46.38600 16.15800 35.90400
H  44.70300 15.88400 35.52700
H  51.21700 18.60600 30.06900
H  51.32300 19.76500 28.65200
H  52.21700 18.16200 28.71200
H  52.07100 19.82300 26.47300
H  52.61100 19.14200 24.91900
H  52.68200 18.18300 26.38100
H  47.39600 14.57600 23.64700
H  44.46600 15.19700 23.59500
H  45.85100 16.41000 22.21100
H  47.55600 16.07300 21.95400
H  46.99900 17.31400 23.07600
H  45.56300 13.02000 22.60400
H  44.16100 12.86300 23.50800
H  45.25400 11.66800 25.22000
H  46.78700 12.60500 25.14500
H  46.29000 11.39900 23.91200
H  40.79300 12.70100 28.42000
H  41.41700 13.10800 26.68800
H  40.34300 14.16500 27.51900
H  43.22900 14.56700 32.63400
H  40.41500 17.12200 34.46900
H  41.88200 17.64000 35.34000
H  40.91100 16.20700 35.71300

