158

Mg 35.47400 2.94100 30.49000
C  33.00400 3.92100 32.86600
C  37.85800 2.92600 32.82000
C  37.49500 2.43200 27.99300
C  32.80300 3.46000 27.99400
N  35.42400 3.42800 32.62900
C  34.29400 3.68800 33.39000
C  34.70600 3.64400 34.89200
C  36.28600 3.46500 34.85400
C  36.58200 3.30000 33.31600
C  37.04600 4.48200 35.61700
C  34.09200 2.33700 35.51600
C  33.37300 2.59100 36.85600
H  34.18400 3.45700 37.83700
N  37.47100 2.62300 30.40400
C  38.34800 2.53600 31.47300
C  39.59500 2.10000 31.02500
C  39.55400 2.06200 29.63200
C  38.14300 2.35000 29.26000
C  40.76700 1.99400 32.05600
C  40.57200 1.76000 28.57300
O  40.43200 1.82100 27.34500
C  41.90100 1.34100 29.06100
N  35.23000 3.02900 28.31500
C  36.20600 2.64100 27.56400
C  35.90300 2.74600 26.04600
C  34.30000 2.91500 26.04300
C  34.06700 3.12900 27.56500
C  36.60900 3.99100 25.40400
C  33.61700 1.61900 25.51000
C  32.27500 1.79800 24.81200
N  33.37100 3.51800 30.43700
C  32.43300 3.74300 29.37400
C  31.10200 4.20500 29.76700
C  31.29600 4.24000 31.19700
C  32.66800 3.86900 31.50400
C  29.90700 4.57600 28.96900
C  30.62000 4.44200 32.43300
O  29.41100 4.70200 32.60000
C  31.68900 4.17300 33.58600
C  31.75500 5.28100 34.56400
O  32.38100 6.35700 34.44100
O  30.94900 4.93000 35.62300
C  30.84600 5.91900 36.76200
H  38.58100 2.88700 33.63700
H  38.26200 2.17700 27.25800
H  32.04000 3.73800 27.26500
H  34.32800 4.50700 35.44100
H  36.57200 2.55700 35.38500
H  36.40600 5.12100 36.22600
H  37.64200 5.06100 34.91200
H  37.65500 3.91200 36.31800
H  34.83200 1.57400 35.75600
H  33.42200 1.88100 34.78700
H  33.01900 1.70100 37.37700
H  32.49900 3.19600 36.61200
H  40.47800 2.52600 32.96300
H  41.71600 2.43200 31.74700
H  40.88600 0.91300 32.13700
H  42.29600 2.22100 29.56800
H  42.54700 0.87200 28.32000
H  41.75500 0.60600 29.85300
H  36.19900 1.79600 25.60100
H  34.00300 3.76400 25.42500
H  36.46800 4.93800 25.92700
H  36.35400 4.11900 24.35200
H  37.67400 3.80000 25.53400
H  33.33700 0.97800 26.34700
H  34.17900 1.05600 24.76500
H  32.28100 2.71800 24.22800
H  31.39800 1.73900 25.45600
H  32.27600 1.10700 23.96900
H  29.35100 3.67000 28.72900
H  30.32200 5.08900 28.10100
H  29.33900 5.28800 29.56900
H  31.46700 3.28000 34.17000
H  30.37000 5.28400 37.51000
H  30.32200 6.86400 36.61700
H  31.89400 6.01700 37.04400
Mg 16.55800 51.53300 26.15700
C  18.35600 49.97300 28.81900
C  14.43400 52.88700 28.47200
C  14.73900 52.73100 23.57000
C  18.65700 49.86800 23.85200
N  16.33500 51.32100 28.38600
C  17.21800 50.75500 29.27400
C  16.88800 51.00600 30.77700
C  15.45200 51.69400 30.63500
C  15.34900 51.99400 29.09500
C  14.25900 50.88700 31.12600
C  17.92500 51.82000 31.60500
C  17.58000 52.06500 33.11800
H  16.44600 51.27000 33.77000
N  14.91100 52.76400 26.02800
C  14.13900 53.17600 27.09900
C  13.06200 54.10800 26.63900
C  13.27700 54.12700 25.22500
C  14.37900 53.17500 24.84600
C  11.93400 54.59900 27.55600
C  12.52300 54.96800 24.17600
O  12.80500 54.96500 23.00900
C  11.50900 56.00400 24.64900
N  16.61100 51.23900 24.03900
C  15.72700 51.77900 23.19500
C  15.81600 51.03600 21.82200
C  17.24500 50.50900 21.87300
C  17.53200 50.54900 23.34900
C  14.68000 49.99700 21.69800
C  18.31700 51.39000 21.20100
C  19.58800 50.59200 20.79000
N  18.20500 50.25200 26.28800
C  18.92800 49.62000 25.25900
C  20.09100 48.82400 25.82200
C  19.83400 48.96900 27.21800
C  18.79700 49.86700 27.47000
C  21.20400 48.02300 25.16800
C  20.30600 48.48800 28.53700
O  21.26800 47.77800 28.77500
C  19.44200 49.19500 29.63700
C  18.87900 48.24000 30.56900
O  17.97700 47.46600 30.29200
O  19.47100 48.24400 31.78500
C  18.88800 47.47100 32.85900
H  13.86800 53.44800 29.21900
H  14.01300 53.05200 22.82100
H  19.19400 49.21300 23.16300
H  16.81900 49.97900 31.13700
H  15.39600 52.64000 31.17300
H  13.74900 51.43100 31.92000
H  14.59000 49.93300 31.53600
H  13.49200 50.72600 30.36900
H  18.09100 52.78000 31.11600
H  18.89300 51.32800 31.50900
H  17.29300 53.11700 33.13300
H  18.49400 51.89900 33.68700
H  11.75100 55.66500 27.69700
H  11.99200 54.20300 28.57000
H  10.98900 54.27100 27.12400
H  11.01700 56.46500 23.79300
H  11.95800 56.87200 25.13000
H  10.80700 55.38100 25.20400
H  15.69400 51.90900 21.18000
H  17.26100 49.53500 21.38400
H  14.03300 50.34400 20.89200
H  14.11500 49.87500 22.62200
H  14.97500 48.97900 21.44200
H  18.62300 52.20900 21.85200
H  17.93200 51.95700 20.35400
H  19.73100 50.59100 19.70900
H  19.47200 49.52400 20.97400
H  20.49100 51.03700 21.20800
H  21.94600 48.78100 24.91700
H  20.82400 47.63000 24.22500
H  21.69400 47.25200 25.76300
H  20.17400 49.90600 30.01900
H  19.14300 46.41200 32.82400
H  17.82400 47.69500 32.93100
H  19.15400 47.93900 33.80700

