158

Mg 2.23900 -3.04800 44.95900
C  5.36100 -1.82100 44.00600
C  0.76800 -0.73300 42.81300
C  -0.76700 -4.54700 45.64000
C  3.86000 -5.75900 46.49200
N  3.08400 -1.56700 43.31200
C  4.37600 -1.15400 43.33600
C  4.53800 0.02100 42.25700
C  3.10600 0.42100 42.11000
C  2.24600 -0.70000 42.75300
C  2.87400 1.72200 42.85400
C  5.33100 -0.56800 40.97600
C  6.69000 -0.03100 40.58700
H  7.08400 0.23000 39.15900
N  0.27300 -2.64100 44.35600
C  -0.12600 -1.71100 43.39500
C  -1.58600 -1.65500 43.50100
C  -2.05700 -2.76500 44.22000
C  -0.84500 -3.38300 44.84500
C  -2.36400 -0.63700 42.64700
C  -3.48500 -3.12700 44.51200
O  -4.43100 -2.57900 43.92100
C  -3.86000 -4.19400 45.56800
N  1.59300 -4.88500 46.01100
C  0.34600 -5.32000 46.07500
C  0.24800 -6.70600 46.61100
C  1.69800 -7.08400 46.79000
C  2.47000 -5.81300 46.47000
C  -0.75500 -6.89100 47.78200
C  2.17500 -8.20200 45.77200
C  3.19300 -9.19000 46.37100
N  4.12900 -3.68000 45.27000
C  4.64000 -4.75600 45.95700
C  6.08300 -4.69100 46.03800
C  6.43400 -3.52200 45.37400
C  5.19700 -3.02700 44.79400
C  7.00300 -5.56100 46.80800
C  7.55000 -2.65900 44.94800
O  8.78700 -2.77800 45.05500
C  6.87600 -1.49100 44.08900
C  7.11700 -0.25300 44.93200
O  6.33400 0.21400 45.72500
O  8.35300 0.26800 44.69400
C  8.67800 1.60300 45.22400
H  0.29300 0.17300 42.43000
H  -1.57600 -5.24600 45.86100
H  4.42900 -6.61400 46.86500
H  5.14000 0.78000 42.75600
H  2.83600 0.49000 41.05600
H  3.20200 1.66800 43.89200
H  1.80300 1.85500 42.69900
H  3.41600 2.53800 42.37800
H  4.69300 -0.33500 40.12400
H  5.51800 -1.64200 40.98900
H  7.40600 -0.75500 40.97600
H  6.97300 0.78100 41.25800
H  -2.81400 0.06300 43.35100
H  -3.17700 -1.12700 42.11200
H  -1.73800 -0.05900 41.96700
H  -3.70400 -5.15400 45.07600
H  -4.90900 -3.93100 45.70200
H  -3.28400 -3.98900 46.47000
H  -0.20300 -7.21200 45.75800
H  1.90300 -7.34400 47.82800
H  -1.27300 -5.96900 48.04500
H  -0.19800 -7.18600 48.67100
H  -1.44700 -7.63100 47.38100
H  2.68500 -7.89600 44.85800
H  1.36600 -8.85900 45.45100
H  2.77700 -10.16700 46.61700
H  3.68100 -8.77800 47.25500
H  3.89900 -9.31300 45.55000
H  7.66800 -6.10200 46.13400
H  6.57900 -6.22000 47.56700
H  7.63300 -4.87100 47.36900
H  7.41100 -1.38200 43.14600
H  7.82100 2.20300 45.53200
H  9.30500 2.16200 44.52900
H  9.30000 1.36800 46.08700
Mg 6.72600 54.37700 41.45900
C  5.92900 50.90700 41.29600
C  9.71700 53.78900 40.08600
C  7.28000 57.66400 41.46500
C  3.28200 54.92200 42.52100
N  7.66100 52.51500 40.53700
C  7.22500 51.20900 40.79500
C  8.28700 50.23400 40.30300
C  9.56700 51.21100 40.32800
C  8.98200 52.62700 40.28100
C  10.43000 51.10000 41.57000
C  8.06700 49.58900 38.82900
C  7.21400 50.39200 37.82100
H  6.57700 49.67800 36.65500
N  8.30400 55.60400 40.77600
C  9.43000 55.18700 40.22000
C  10.33100 56.31300 40.09400
C  9.66500 57.45300 40.58700
C  8.38900 56.98000 41.00400
C  11.70200 56.33200 39.53500
C  10.20200 58.92600 40.52800
O  11.22300 59.31100 39.97500
C  9.31700 60.02800 41.07600
N  5.35800 56.06900 41.76900
C  5.90100 57.28500 41.76900
C  4.82500 58.39500 42.11800
C  3.52200 57.50300 42.34000
C  4.08400 56.05000 42.24800
C  5.30500 59.35700 43.25600
C  2.34700 57.85800 41.35200
C  0.91900 57.38800 41.74700
N  4.95800 53.21200 41.94500
C  3.70300 53.62000 42.37000
C  2.90100 52.43000 42.59500
C  3.70600 51.35700 42.33000
C  4.94700 51.83800 41.75500
C  1.44200 52.41000 43.11400
C  3.77400 49.88900 42.27300
O  2.93500 49.11600 42.65800
C  5.22700 49.58000 41.52300
C  5.04700 48.70000 40.39300
O  4.40900 48.94500 39.33800
O  5.80100 47.57300 40.70800
C  5.70400 46.54300 39.64900
H  10.76300 53.62800 39.81500
H  7.42400 58.73100 41.64300
H  2.26700 55.12700 42.86500
H  8.41100 49.41000 41.00500
H  10.13500 51.09500 39.40500
H  10.08500 50.20500 42.08700
H  10.39700 51.94000 42.26400
H  11.47600 50.94800 41.30200
H  7.60900 48.62300 39.04200
H  9.03900 49.47900 38.34900
H  7.97100 50.98900 37.31200
H  6.56700 51.10100 38.33600
H  11.97400 55.36400 39.11400
H  12.42700 56.64700 40.28600
H  11.71900 56.99200 38.66700
H  9.91300 60.94000 41.05900
H  9.03700 59.82600 42.11000
H  8.37400 60.17000 40.54900
H  4.68200 59.02700 41.24200
H  3.23800 57.59700 43.38800
H  4.84600 59.13400 44.21900
H  5.02800 60.35300 42.91100
H  6.36800 59.27400 43.48300
H  2.56400 57.32700 40.42500
H  2.38700 58.94200 41.24800
H  0.56300 56.81900 40.88800
H  0.26000 58.20700 42.03200
H  0.90800 56.75800 42.63600
H  0.94500 51.57900 42.61500
H  0.94000 53.33800 42.84100
H  1.43800 52.19200 44.18200
H  5.82500 49.08500 42.28900
H  6.08000 46.93300 38.70400
H  4.66600 46.22100 39.56100
H  6.37400 45.69800 39.80600

