158

Mg 17.14400 -1.05600 28.80200
C  15.89700 1.17900 31.29300
C  18.61300 -2.90500 31.32200
C  18.64700 -2.91000 26.47300
C  15.43900 0.74200 26.32100
N  17.15100 -0.85200 31.06900
C  16.66900 0.17300 31.87200
C  17.07200 -0.00100 33.35300
C  17.98000 -1.26900 33.28900
C  17.91100 -1.69900 31.78600
C  19.44100 -0.96400 33.76000
C  15.85300 -0.05300 34.33300
C  15.82800 -1.03500 35.50100
H  16.81400 -0.91200 36.64200
N  18.39000 -2.71600 28.86400
C  18.92700 -3.27500 30.00100
C  19.76700 -4.46400 29.62100
C  19.86900 -4.45200 28.19900
C  18.93700 -3.36600 27.77400
C  20.54400 -5.33900 30.63400
C  20.72400 -5.20200 27.23700
O  20.85700 -5.10600 26.02100
C  21.62400 -6.20200 27.90700
N  17.23800 -0.93200 26.65500
C  17.89900 -1.84300 26.01600
C  17.85300 -1.44300 24.47000
C  16.73900 -0.40400 24.36500
C  16.37100 -0.17300 25.86000
C  19.16600 -0.87400 23.95700
C  15.50900 -0.93200 23.57400
C  15.35500 -0.31900 22.20800
N  15.96500 0.62300 28.75400
C  15.22700 1.19100 27.70800
C  14.52000 2.39400 28.23300
C  14.76100 2.37900 29.61900
C  15.56700 1.29100 29.88300
C  13.65400 3.30200 27.45100
C  14.60000 3.20600 30.78200
O  14.05400 4.26000 30.89700
C  15.28100 2.37400 31.99800
C  16.23900 3.30200 32.76400
O  17.24200 3.83500 32.41100
O  15.76500 3.43500 34.03900
C  16.70400 3.71300 35.14100
H  18.96300 -3.54200 32.13700
H  18.98700 -3.58800 25.68800
H  14.82100 1.33500 25.64400
H  17.57500 0.91400 33.66300
H  17.73800 -2.18000 33.83800
H  19.88200 -1.69400 34.43800
H  19.43700 0.09000 34.03900
H  20.00900 -0.97600 32.82900
H  14.91300 -0.25100 33.81700
H  15.67200 0.86600 34.88900
H  15.78400 -2.03800 35.07700
H  14.86700 -0.86400 35.98500
H  20.35600 -6.40600 30.52100
H  20.25200 -5.07300 31.65000
H  21.59800 -5.06200 30.67200
H  21.04100 -7.01000 28.34900
H  22.41400 -5.83800 28.56400
H  22.10400 -6.62500 27.02400
H  17.65100 -2.38900 23.96800
H  17.08000 0.55700 23.97900
H  19.60000 -1.46500 23.15100
H  19.91700 -0.78000 24.74200
H  19.09100 0.09700 23.46600
H  14.64600 -0.76000 24.21700
H  15.50900 -2.00400 23.37800
H  16.30500 0.15400 21.95900
H  14.59600 0.46100 22.15100
H  15.13300 -1.05100 21.43200
H  13.68700 4.33300 27.80400
H  12.63100 2.96100 27.61300
H  13.69900 3.16000 26.37100
H  14.54400 1.97100 32.69300
H  17.70700 3.30500 35.01800
H  16.12300 3.16800 35.88400
H  16.84300 4.78200 35.30600
Mg 44.98800 3.13200 46.65200
C  42.63900 5.54500 45.81200
C  42.30900 0.84300 46.43500
C  47.04600 0.61300 46.85200
C  47.39400 5.52600 46.71800
N  42.82400 3.12700 45.95600
C  42.07200 4.29500 45.78400
C  40.53100 4.01200 45.43800
C  40.43900 2.60000 46.15300
C  41.94100 2.14200 46.23800
C  39.50900 2.59300 47.40100
C  40.41700 4.07800 43.82700
C  39.45200 5.17600 43.16400
H  39.99000 5.88900 41.85600
N  44.69600 0.99900 46.65800
C  43.52500 0.21400 46.54100
C  43.84800 -1.20800 46.62700
C  45.23000 -1.26100 46.76900
C  45.74700 0.12300 46.67800
C  42.83000 -2.26300 46.55800
C  46.07400 -2.56100 46.81500
O  45.42100 -3.57700 46.84300
C  47.55600 -2.61900 46.87600
N  47.05600 3.06100 46.74500
C  47.65500 1.89300 46.97900
C  49.20100 2.07800 46.95700
C  49.23100 3.66900 47.12700
C  47.84200 4.13700 46.83600
C  49.88500 1.31900 48.12900
C  50.33700 4.35400 46.23200
C  51.71900 4.33300 46.92700
N  45.11300 5.15800 46.30000
C  46.10700 6.00600 46.52600
C  45.62800 7.41700 46.31000
C  44.27600 7.23400 46.00900
C  44.02400 5.86500 45.99400
C  46.43000 8.69900 46.50500
C  43.03200 7.97400 45.68700
O  42.77300 9.10700 45.49600
C  41.96400 6.87600 45.59400
C  40.90700 7.24600 46.60800
O  40.78300 6.79500 47.71300
O  39.98200 8.01700 45.92400
C  38.86900 8.47400 46.77500
H  41.37300 0.29000 46.33000
H  47.80400 -0.16100 46.98500
H  48.10800 6.35100 46.70400
H  39.85600 4.68700 45.96600
H  40.06400 1.86900 45.43700
H  38.93400 3.51900 47.42300
H  40.13700 2.60100 48.29200
H  38.87900 1.70300 47.39200
H  40.09600 3.07100 43.55900
H  41.43700 4.20200 43.46400
H  39.21000 5.92400 43.91900
H  38.51000 4.68300 42.92500
H  41.92800 -1.89100 47.04400
H  42.95900 -3.22600 47.05100
H  42.55300 -2.41800 45.51500
H  47.89200 -2.21000 45.92300
H  47.88700 -3.65600 46.92300
H  47.84900 -2.04800 47.75700
H  49.67600 1.68100 46.06100
H  49.46100 4.00600 48.13700
H  50.72800 0.73800 47.75600
H  49.28600 0.59700 48.68500
H  50.29300 2.05500 48.82100
H  50.04000 5.39600 46.11500
H  50.55200 3.83900 45.29600
H  51.68800 3.75400 47.85100
H  52.11600 5.31400 47.18900
H  52.49700 4.01600 46.23200
H  47.11000 9.00600 45.71100
H  46.87000 8.72300 47.50200
H  45.70800 9.50700 46.62800
H  41.62200 6.97100 44.56300
H  38.33000 9.32300 46.35400
H  39.26600 8.88200 47.70500
H  38.29700 7.56200 46.94300

