158

Mg 40.90000 8.37700 29.25700
C  42.43900 9.78300 32.09900
C  38.49100 7.01000 31.28400
C  39.68400 6.97200 26.50400
C  43.85600 9.30200 27.54500
N  40.53900 8.33500 31.51700
C  41.23600 9.10500 32.44500
C  40.47800 9.11900 33.81700
C  39.33700 8.12500 33.52500
C  39.43900 7.79400 31.98600
C  39.45900 6.68800 34.21600
C  40.07300 10.50300 34.32700
C  39.97900 10.57700 35.83600
H  40.95100 11.49300 36.61800
N  39.20200 7.17600 28.93300
C  38.33400 6.70600 29.90900
C  37.26100 6.02400 29.22400
C  37.56000 6.03400 27.87000
C  38.86300 6.69400 27.70500
C  36.08400 5.38400 29.92800
C  36.68100 5.53300 26.73100
O  36.97700 5.61000 25.55100
C  35.22200 5.06900 27.01500
N  41.67100 8.20500 27.34800
C  40.92400 7.61700 26.35200
C  41.65200 7.58000 25.03900
C  42.89000 8.62900 25.23200
C  42.81800 8.68400 26.84700
C  42.16200 6.20700 24.53100
C  42.92700 9.92900 24.44800
C  42.15800 11.08700 25.01500
N  42.78700 9.32800 29.70000
C  43.76000 9.71700 28.86700
C  44.70600 10.62200 29.59300
C  44.26600 10.63700 30.92400
C  43.05100 9.85000 30.90100
C  45.87300 11.30700 29.04900
C  44.53900 11.14900 32.25400
O  45.44600 11.75200 32.73500
C  43.35000 10.50800 33.07300
C  44.05300 9.61400 34.04600
O  44.79100 8.71100 33.69700
O  43.56200 9.84200 35.31400
C  43.95900 8.84000 36.31700
H  37.60900 6.80500 31.89300
H  39.29900 6.57800 25.56100
H  44.55400 9.88600 26.94100
H  41.08300 8.60900 34.56600
H  38.33100 8.42000 33.82400
H  39.92100 5.93100 33.58200
H  38.47500 6.26200 34.41200
H  40.02600 6.64000 35.14600
H  39.11500 10.75300 33.87100
H  40.72200 11.20200 33.79800
H  40.00600 9.58200 36.28100
H  38.96000 10.92400 36.00500
H  35.09900 5.75700 29.64600
H  36.19000 5.46700 31.00900
H  36.12500 4.33100 29.64700
H  35.20000 4.09100 27.49600
H  34.72700 5.03800 26.04400
H  34.81300 5.88600 27.61000
H  41.11200 8.03300 24.20800
H  43.75100 8.03700 24.92100
H  41.84600 6.09900 23.49400
H  41.70600 5.35300 25.03100
H  43.24500 6.08500 24.56100
H  42.40500 9.61300 23.54500
H  43.94900 10.15100 24.13800
H  41.66200 11.55700 24.16600
H  42.91500 11.70200 25.50300
H  41.46800 10.77600 25.80000
H  45.87800 11.36900 27.96100
H  46.71700 10.65400 29.27100
H  46.00400 12.27400 29.53500
H  42.93800 11.39400 33.55600
H  43.75700 9.12800 37.34800
H  45.02900 8.63500 36.28100
H  43.32100 7.97000 36.16600
Mg 35.84300 50.04900 25.56400
C  35.48600 48.49800 28.63000
C  35.12900 53.13000 27.04700
C  35.49800 51.64000 22.46400
C  36.39000 47.07400 23.97700
N  35.18200 50.63900 27.52400
C  35.20800 49.88600 28.67500
C  35.05800 50.66900 29.99800
C  34.90600 52.10600 29.43400
C  35.08400 51.97000 27.90600
C  33.53800 52.81100 29.90200
C  36.16300 50.54400 31.14400
C  35.72600 49.92600 32.44000
H  34.29600 50.21200 33.11500
N  35.39500 52.15300 24.88100
C  35.16200 53.21900 25.64700
C  34.86600 54.36900 24.84700
C  34.94800 53.94800 23.52300
C  35.28100 52.58900 23.56800
C  34.51800 55.76500 25.32900
C  34.84900 54.74100 22.18500
O  34.91100 54.16700 21.09800
C  34.84000 56.22400 22.23400
N  35.81900 49.36900 23.46100
C  35.74600 50.26200 22.40800
C  36.04800 49.57100 21.06000
C  36.40200 48.07700 21.57400
C  36.19700 48.16100 23.11200
C  34.77500 49.54900 20.09500
C  37.80800 47.53700 21.03400
C  38.95000 48.03200 21.96900
N  35.87900 48.14600 26.17700
C  36.24200 47.09700 25.40300
C  36.31500 45.93000 26.33500
C  35.93800 46.43500 27.62900
C  35.74300 47.78300 27.43200
C  36.79500 44.58500 25.93800
C  35.88800 46.11400 29.01700
O  36.02400 45.02400 29.69900
C  35.56200 47.46100 29.75400
C  34.24100 47.10000 30.34400
O  33.20000 47.61900 29.96800
O  34.34900 46.38600 31.54500
C  33.17100 46.02400 32.28100
H  34.94400 54.03100 27.63500
H  35.47700 51.96300 21.42100
H  36.76400 46.14300 23.54700
H  34.10500 50.37600 30.43700
H  35.76000 52.69300 29.77000
H  33.78900 53.85800 30.07300
H  33.10100 52.38100 30.80200
H  32.78200 52.76100 29.11800
H  36.73700 51.46700 31.22600
H  36.85500 49.82400 30.71000
H  36.36200 50.38900 33.19500
H  36.01100 48.87500 32.40900
H  34.35800 55.78500 26.40700
H  33.66900 56.15600 24.76800
H  35.54300 56.12400 25.24000
H  35.46800 56.65300 23.01400
H  33.87600 56.67300 22.47200
H  35.23000 56.48800 21.25100
H  36.92300 49.97900 20.55200
H  35.62300 47.38500 21.25400
H  33.98900 50.24000 20.40000
H  34.22900 48.60900 20.17100
H  35.02900 49.80600 19.06600
H  38.06700 47.79700 20.00800
H  37.70300 46.46800 21.22100
H  39.23300 47.19200 22.60400
H  38.59200 48.74400 22.71300
H  39.70600 48.64100 21.47400
H  36.01800 43.99300 25.45300
H  37.09600 44.12400 26.87900
H  37.63700 44.59100 25.24600
H  36.44400 47.49700 30.39400
H  32.87300 45.00400 32.03700
H  32.33300 46.66800 32.01100
H  33.45700 45.98500 33.33200

