158

Mg 9.15000 3.63000 27.42800
C  10.70200 2.22500 30.26200
C  7.68400 5.95600 29.26000
C  7.93800 5.02700 24.48000
C  10.43800 1.00400 25.54700
N  9.18400 3.98100 29.53200
C  9.85800 3.32800 30.53300
C  9.62100 3.96300 31.88900
C  8.62900 5.20100 31.53100
C  8.49200 5.08100 30.00600
C  7.27000 4.97100 32.22300
C  10.95400 4.41500 32.52600
C  10.79400 5.08300 34.02000
H  11.51200 4.51800 35.26600
N  7.95400 5.26400 26.93000
C  7.33700 6.04800 27.89800
C  6.54300 7.06400 27.26900
C  6.68000 6.89900 25.82800
C  7.52800 5.70700 25.68800
C  5.54600 7.95400 28.00600
C  5.98600 7.62600 24.72400
O  6.08900 7.24000 23.55200
C  5.07200 8.79900 25.03200
N  9.17100 3.07800 25.32400
C  8.60700 3.82100 24.32400
C  8.84500 3.14900 22.99800
C  9.54200 1.83100 23.33100
C  9.77100 1.97300 24.82700
C  7.49000 2.99400 22.18000
C  10.76100 1.65900 22.51200
C  10.80400 0.45600 21.56100
N  10.28300 1.85000 27.81800
C  10.80600 0.89600 26.86800
C  11.52000 -0.08300 27.59900
C  11.55600 0.41400 28.91800
C  10.76600 1.61500 29.01200
C  12.24500 -1.32400 27.13300
C  12.03200 0.08900 30.22900
O  12.68600 -0.86800 30.63000
C  11.50400 1.28000 31.18800
C  10.66800 0.66900 32.25400
O  9.59400 0.05700 32.09200
O  11.27400 0.73600 33.48400
C  10.69000 -0.10100 34.51800
H  7.33700 6.74300 29.93300
H  7.61300 5.54900 23.57800
H  10.70100 0.17600 24.88500
H  9.23000 3.14900 32.50000
H  9.07100 6.19000 31.65200
H  6.89900 5.92800 32.58900
H  7.39300 4.30500 33.07800
H  6.46700 4.52000 31.63900
H  11.38800 5.14700 31.84600
H  11.66000 3.59400 32.65300
H  9.72700 5.10700 34.24400
H  10.95700 6.16100 34.00300
H  5.81800 9.00900 27.98800
H  5.67200 7.56300 29.01500
H  4.56100 7.76900 27.57900
H  4.05100 8.58000 25.34400
H  4.90400 9.45200 24.17500
H  5.54500 9.38600 25.81900
H  9.49400 3.83100 22.44900
H  8.88300 0.98200 23.14800
H  7.35200 3.78700 21.44400
H  6.69300 3.07800 22.91900
H  7.62700 2.05000 21.65200
H  11.67800 1.62100 23.10100
H  10.82100 2.50300 21.82500
H  10.04700 0.55800 20.78300
H  10.76100 -0.48900 22.10100
H  11.78600 0.46200 21.08700
H  12.34700 -1.84400 28.08600
H  13.21300 -1.07200 26.70100
H  11.62000 -1.90000 26.45000
H  12.32000 1.80900 31.68000
H  10.09200 -0.93700 34.15700
H  10.19400 0.51900 35.26500
H  11.44300 -0.60000 35.12800
Mg 25.75400 51.13900 26.51300
C  23.39600 52.44000 28.92800
C  27.94700 50.52200 29.03700
C  28.07600 51.09200 24.23600
C  23.34000 52.37400 24.15000
N  25.66300 51.47000 28.62100
C  24.64600 51.98900 29.48600
C  25.04100 51.93700 30.95200
C  26.60200 51.56200 30.90500
C  26.77600 51.25000 29.44600
C  27.56400 52.55700 31.56500
C  24.09400 51.10700 31.91700
C  24.54200 50.42500 33.25300
H  25.00100 51.42000 34.37800
N  27.77500 50.75200 26.64100
C  28.48500 50.44400 27.73700
C  29.85300 50.16900 27.35600
C  29.87300 50.32100 25.92000
C  28.52400 50.71100 25.53300
C  30.83900 49.76800 28.40000
C  31.00300 50.04400 24.94200
O  30.83600 49.90900 23.74000
C  32.37600 49.82400 25.58000
N  25.76600 51.85500 24.60700
C  26.89100 51.65200 23.82900
C  26.60300 52.07300 22.40200
C  25.09400 52.11500 22.27200
C  24.63800 52.08400 23.74900
C  27.35300 53.27200 21.95700
C  24.38400 51.00900 21.45400
C  22.85900 51.25300 21.09900
N  23.60000 51.99300 26.43100
C  22.82700 52.42000 25.41300
C  21.61700 53.00700 25.90700
C  21.79200 53.01500 27.30100
C  23.00600 52.41700 27.56000
C  20.57400 53.68600 25.00300
C  21.25300 53.48900 28.63200
O  20.28900 54.18700 28.89600
C  22.27000 52.96400 29.70400
C  22.70200 54.25100 30.45500
O  23.05500 55.31600 29.93700
O  22.67900 54.06500 31.82400
C  22.65500 55.29800 32.61700
H  28.56000 50.06700 29.81700
H  28.89000 51.17800 23.51300
H  22.63600 52.86300 23.47400
H  24.91100 52.95900 31.30700
H  26.67400 50.60400 31.42000
H  28.22200 53.05800 30.85500
H  28.17000 51.99800 32.27800
H  26.98800 53.32000 32.08800
H  23.49100 50.43800 31.30300
H  23.38600 51.83600 32.31200
H  25.36300 49.74400 33.02900
H  23.75000 49.81800 33.69200
H  30.63200 49.96300 29.45200
H  31.77700 50.28000 28.18500
H  30.95500 48.73000 28.08600
H  33.07100 49.42300 24.84200
H  32.39600 49.08000 26.37600
H  32.71700 50.78900 25.95500
H  26.87200 51.26800 21.71800
H  24.74800 53.02100 21.77600
H  27.62700 53.13000 20.91200
H  28.18600 53.51600 22.61700
H  26.69500 54.13400 22.06600
H  24.45000 50.09400 22.04300
H  24.98000 50.94700 20.54400
H  22.65700 52.27400 21.42300
H  22.20000 50.52600 21.57300
H  22.66900 51.26200 20.02500
H  20.56300 53.50000 23.92900
H  20.86800 54.73000 25.10600
H  19.61800 53.40800 25.44700
H  21.93900 52.22500 30.43400
H  23.23900 55.18700 33.53100
H  21.58200 55.37400 32.79300
H  22.92800 56.28400 32.24000

