158

Mg -2.30900 34.95800 27.12000
C  -4.01800 33.27200 29.76400
C  -0.77600 36.88500 29.49500
C  -0.70000 36.65100 24.64700
C  -4.18700 33.20600 24.85300
N  -2.40000 35.09700 29.48800
C  -3.13600 34.22700 30.32300
C  -2.86900 34.54000 31.80900
C  -2.03100 35.93000 31.68600
C  -1.67500 35.97400 30.15700
C  -2.73600 37.23600 32.06400
C  -1.99400 33.37200 32.48400
C  -2.68300 32.79000 33.78900
H  -1.79900 32.66800 35.07700
N  -0.84300 36.47800 27.06300
C  -0.41600 37.18200 28.13600
C  0.54800 38.15400 27.68900
C  0.66000 38.06700 26.31900
C  -0.26400 37.00100 25.96800
C  1.23000 39.10500 28.65100
C  1.56500 38.80200 25.33000
O  1.73800 38.36200 24.22500
C  2.40400 39.99000 25.82400
N  -2.48100 35.00100 25.02700
C  -1.64600 35.73400 24.20100
C  -1.92900 35.49300 22.75900
C  -2.99100 34.34100 22.77900
C  -3.34000 34.15200 24.28600
C  -2.44100 36.76600 21.95000
C  -2.63200 32.98500 22.10300
C  -1.44300 32.22200 22.74500
N  -3.84400 33.63000 27.23100
C  -4.51200 32.94700 26.18100
C  -5.29500 31.88600 26.67300
C  -5.04500 32.02500 28.07300
C  -4.24100 33.08300 28.36600
C  -6.16800 30.87800 25.98900
C  -5.45700 31.35600 29.29600
O  -6.27200 30.45900 29.43600
C  -4.88000 32.17600 30.45600
C  -5.97200 32.49700 31.42700
O  -6.84100 33.28900 31.14700
O  -5.96400 31.67400 32.52500
C  -7.02300 31.71200 33.50200
H  -0.13600 37.40100 30.21300
H  -0.23900 37.19600 23.82100
H  -4.67600 32.52600 24.15400
H  -3.84900 34.73300 32.24500
H  -1.14200 35.85300 32.31200
H  -3.16700 37.75500 31.20700
H  -2.07100 37.90300 32.61300
H  -3.54200 36.99900 32.75900
H  -1.02800 33.68700 32.87900
H  -1.90600 32.56000 31.76200
H  -2.97000 31.76400 33.56000
H  -3.61300 33.34200 33.92600
H  0.83000 40.07500 28.35600
H  2.31500 39.06800 28.54700
H  0.95200 38.90800 29.68600
H  1.80000 40.66200 26.43300
H  2.86500 40.49200 24.97300
H  3.23300 39.52800 26.36000
H  -1.09100 35.12400 22.16800
H  -3.86100 34.74400 22.26100
H  -3.45500 36.58500 21.59400
H  -1.71000 37.03200 21.18700
H  -2.35200 37.63700 22.59900
H  -2.41900 33.22800 21.06200
H  -3.56100 32.41600 22.12500
H  -0.75800 32.00300 21.92700
H  -1.90800 31.28400 23.05100
H  -0.92400 32.65900 23.59900
H  -7.08100 30.60900 26.52000
H  -5.63800 30.02800 25.55700
H  -6.55200 31.45200 25.14700
H  -4.08000 31.60000 30.92200
H  -6.75500 32.42700 34.28000
H  -7.26500 30.75700 33.96800
H  -7.89400 32.18700 33.05000
Mg -12.41200 17.38900 41.49500
C  -9.25800 15.65400 40.82800
C  -10.91400 20.15400 40.12700
C  -15.45700 18.76200 41.58300
C  -13.78700 14.25100 42.23000
N  -10.22400 17.79000 40.65400
C  -9.17500 17.01500 40.53200
C  -8.02300 17.83400 39.84800
C  -8.52200 19.28500 39.92700
C  -9.96200 19.08800 40.20200
C  -7.90700 20.06700 41.09400
C  -7.79000 17.36000 38.36000
C  -6.38600 17.00400 37.88400
H  -6.31500 15.73800 37.08200
N  -13.08800 19.29100 41.03600
C  -12.30900 20.28700 40.42000
C  -13.16700 21.48200 40.33600
C  -14.52600 21.14900 40.67700
C  -14.42300 19.71700 41.14200
C  -12.59500 22.87500 39.89100
C  -15.73000 21.91800 40.57500
O  -15.71600 23.08600 40.22100
C  -17.20900 21.33800 40.92600
N  -14.38900 16.54900 41.63100
C  -15.52200 17.34100 41.74000
C  -16.74400 16.55300 42.14500
C  -16.13100 15.19700 42.52400
C  -14.67300 15.36500 42.15300
C  -17.55600 17.17000 43.28700
C  -16.76500 14.10100 41.62100
C  -17.12000 12.86400 42.37300
N  -11.66900 15.38000 41.48300
C  -12.34200 14.27200 41.94400
C  -11.53000 13.10000 41.81000
C  -10.28300 13.61700 41.48400
C  -10.42600 14.96800 41.25200
C  -11.97500 11.72300 42.16100
C  -8.87400 13.24900 41.28000
O  -8.18000 12.22700 41.33100
C  -8.14700 14.59600 40.85200
C  -7.15600 14.93200 41.91200
O  -7.48900 15.27100 43.00700
O  -5.90300 14.79000 41.47600
C  -4.88300 15.24000 42.45400
H  -10.48900 21.14400 39.95100
H  -16.51300 19.04100 41.57300
H  -14.35600 13.36400 42.51900
H  -7.05600 17.61800 40.30100
H  -8.29400 19.80700 38.99800
H  -6.94300 19.69800 41.44500
H  -8.68700 20.04600 41.85400
H  -7.83300 21.13700 40.90000
H  -8.14400 18.03400 37.58000
H  -8.49400 16.52800 38.38400
H  -5.62400 16.90600 38.65700
H  -6.03100 17.84800 37.29200
H  -11.92400 22.73100 39.04400
H  -11.79200 22.98800 40.61900
H  -13.34300 23.66800 39.88200
H  -17.28000 20.49400 40.24000
H  -17.99000 22.03600 40.62400
H  -17.22400 21.10800 41.99100
H  -17.16200 16.48900 41.14000
H  -16.20400 14.97800 43.59000
H  -17.65600 16.61700 44.22100
H  -18.59300 17.16700 42.95000
H  -17.35800 18.23400 43.41700
H  -15.96700 13.75600 40.96400
H  -17.68100 14.37300 41.09700
H  -17.02100 13.03600 43.44500
H  -16.41200 12.07600 42.11700
H  -18.14400 12.53900 42.18800
H  -12.62900 11.35400 41.37100
H  -12.52800 11.71900 43.10100
H  -11.23600 10.92600 42.23800
H  -7.61300 14.57500 39.90200
H  -4.06100 14.52600 42.40300
H  -5.26600 15.39100 43.46400
H  -4.59100 16.24200 42.14200

