158

Mg -2.88100 16.54200 27.75000
C  -3.49700 14.35300 30.43100
C  -3.57700 19.12400 29.98100
C  -2.95700 18.66400 25.25600
C  -3.23600 13.82600 25.61700
N  -3.43800 16.68300 29.94800
C  -3.52800 15.66600 30.83400
C  -3.78900 16.15100 32.22800
C  -4.02000 17.69200 32.03300
C  -3.72200 17.82300 30.55300
C  -5.34600 18.30000 32.50200
C  -2.69700 15.97300 33.25200
C  -3.23500 15.78200 34.76000
H  -2.18700 16.04600 35.81600
N  -2.96100 18.64900 27.63500
C  -3.20300 19.52700 28.66300
C  -3.15200 20.83000 28.08900
C  -2.95600 20.74900 26.75200
C  -2.88900 19.30500 26.46700
C  -3.36600 22.12700 28.85400
C  -2.75900 21.89000 25.67000
O  -2.73100 21.72400 24.43100
C  -2.66000 23.33600 26.16600
N  -3.14600 16.32300 25.81100
C  -3.20300 17.33300 24.88000
C  -3.24700 16.96100 23.39600
C  -3.29500 15.37700 23.60500
C  -3.17600 15.10900 25.14000
C  -4.43800 17.44800 22.56300
C  -2.13600 14.75400 22.77600
C  -0.76000 14.59600 23.44800
N  -3.24400 14.49000 27.86900
C  -3.29000 13.48500 26.98600
C  -3.58200 12.22300 27.60400
C  -3.61800 12.45200 28.98100
C  -3.49400 13.86800 29.13400
C  -3.74100 10.93500 26.90600
C  -3.77100 11.84800 30.28300
O  -3.89800 10.69500 30.69900
C  -3.64100 13.12000 31.20800
C  -2.52500 12.75100 32.05200
O  -1.33000 12.89800 31.76200
O  -2.95800 12.24700 33.24800
C  -1.97200 11.87000 34.23100
H  -3.60000 20.00400 30.62700
H  -3.08600 19.32800 24.39800
H  -3.29000 12.98700 24.92100
H  -4.76500 15.75200 32.50400
H  -3.27400 18.32000 32.52000
H  -6.22400 17.65800 32.58600
H  -5.50600 19.16000 31.85200
H  -5.14200 18.74400 33.47700
H  -1.93300 16.74900 33.18700
H  -2.10800 15.07800 33.05300
H  -3.66700 14.78200 34.81700
H  -4.06900 16.45800 34.94800
H  -4.15300 22.75300 28.43500
H  -2.44600 22.71200 28.87000
H  -3.60900 21.83400 29.87600
H  -3.55400 23.66400 26.69500
H  -2.52800 23.93000 25.26100
H  -1.76800 23.38300 26.79000
H  -2.26100 17.21200 23.00500
H  -4.26100 15.00100 23.26900
H  -5.21900 16.70600 22.39800
H  -4.21800 17.86200 21.57900
H  -4.97200 18.18500 23.16300
H  -1.96200 15.39200 21.91000
H  -2.47700 13.77100 22.45000
H  -0.79000 14.55600 24.53700
H  -0.26900 15.51200 23.12300
H  -0.26800 13.77000 22.93400
H  -2.76400 10.50500 26.68400
H  -4.30000 11.04800 25.97700
H  -4.32600 10.25300 27.52300
H  -4.57900 13.23400 31.75100
H  -1.14600 11.28200 33.83100
H  -2.51100 11.28200 34.97400
H  -1.62700 12.79800 34.68800
Mg 16.03600 -1.62800 27.92200
C  15.13000 0.38600 30.57500
C  18.06400 -3.36000 30.02300
C  17.32300 -3.25400 25.28500
C  13.97700 0.15200 25.82500
N  16.56400 -1.45500 30.03000
C  16.11300 -0.55000 30.98500
C  16.64700 -0.79600 32.36200
C  17.70700 -1.96400 32.12300
C  17.31900 -2.44800 30.66000
C  19.17500 -1.54700 32.50100
C  15.50700 -1.09600 33.41300
C  15.28900 0.04800 34.49000
H  16.44800 0.92600 35.01900
N  17.36700 -3.24800 27.75300
C  18.13400 -3.81300 28.71700
C  18.91900 -4.90800 28.26900
C  18.67700 -5.02500 26.86400
C  17.76500 -3.80300 26.54700
C  19.77000 -5.63700 29.27600
C  19.23700 -6.03100 25.83200
O  18.89300 -5.94400 24.62800
C  20.13000 -7.18300 26.21800
N  15.69700 -1.45600 25.88800
C  16.52100 -2.12500 24.97500
C  16.23900 -1.73100 23.50400
C  14.94600 -0.89200 23.70200
C  14.74200 -0.77700 25.19900
C  17.43600 -1.06200 22.75700
C  13.68300 -1.21600 22.88100
C  13.70600 -1.19100 21.34400
N  14.84700 0.05700 28.08500
C  14.00100 0.63400 27.13100
C  13.22600 1.65500 27.71500
C  13.58400 1.51300 29.09400
C  14.63400 0.59700 29.23900
C  12.31100 2.69300 27.00500
C  13.32600 2.07000 30.39900
O  12.44900 2.87600 30.68500
C  14.31400 1.42400 31.38500
C  15.15500 2.55900 31.99600
O  16.34500 2.79400 31.76000
O  14.45800 3.37800 32.87400
C  15.25900 4.47100 33.49500
H  18.63600 -3.85300 30.81200
H  17.75100 -3.67600 24.37300
H  13.32900 0.74100 25.17200
H  17.09100 0.18200 32.54900
H  17.43200 -2.79000 32.78000
H  19.75500 -1.39400 31.59200
H  19.57800 -2.38100 33.07600
H  19.26900 -0.76000 33.25000
H  15.59300 -2.09900 33.83000
H  14.49800 -1.13400 33.00100
H  14.84500 -0.45200 35.35000
H  14.52600 0.75600 34.16600
H  20.73500 -5.13100 29.31500
H  19.81600 -6.69000 29.00000
H  19.29200 -5.58800 30.25400
H  20.90600 -6.71900 26.82600
H  20.46100 -7.71800 25.32800
H  19.39600 -7.78300 26.75700
H  15.92500 -2.59200 22.91300
H  15.20400 0.11300 23.36800
H  17.67200 -1.68800 21.89700
H  18.26500 -0.76200 23.39900
H  17.00600 -0.21300 22.22500
H  12.96100 -0.50600 23.28600
H  13.26000 -2.19200 23.11700
H  13.08900 -0.34700 21.03600
H  13.43900 -2.21300 21.07500
H  14.66300 -0.91700 20.89900
H  11.75000 3.24000 27.76300
H  11.60300 2.29700 26.27700
H  12.97700 3.33700 26.43000
H  13.66900 0.93800 32.11700
H  14.91000 5.45500 33.18100
H  16.34600 4.55200 33.48500
H  14.94800 4.42200 34.53900

