158

Mg 51.09600 47.04100 42.06700
C  47.86400 48.23400 41.16700
C  50.17000 44.07500 40.73900
C  54.22600 46.13700 42.67600
C  51.84500 50.17600 43.40400
N  49.19800 46.29500 41.08800
C  48.05300 46.94600 40.77100
C  47.09500 46.10100 39.94600
C  47.80500 44.70600 39.97800
C  49.14400 45.05900 40.64800
C  47.05100 43.64600 40.86100
C  46.85500 46.75700 38.52900
C  45.33900 46.85600 38.41000
H  44.69500 46.15100 37.09500
N  52.08500 45.33800 41.72100
C  51.48400 44.19700 41.15200
C  52.51000 43.14500 41.08500
C  53.72400 43.72200 41.61500
C  53.38800 45.09700 42.08800
C  52.30200 41.75400 40.53600
C  55.05500 42.98900 41.72900
O  55.12300 41.84800 41.25100
C  56.20500 43.61700 42.44800
N  52.84900 48.09900 42.84300
C  54.02500 47.49000 42.96100
C  55.05100 48.37800 43.58400
C  54.29300 49.71500 43.77700
C  52.91600 49.33300 43.28500
C  55.76000 47.75000 44.84400
C  54.90400 50.88100 42.93800
C  54.41300 52.35200 43.36600
N  50.12500 48.88100 42.28600
C  50.52100 50.05300 42.88700
C  49.48800 51.06300 42.90000
C  48.41200 50.32100 42.22800
C  48.87000 49.05700 41.85600
C  49.42700 52.45600 43.42200
C  47.05000 50.49500 41.66100
O  46.27700 51.42800 41.69400
C  46.63400 49.12600 40.97900
C  45.47200 48.70900 41.76000
O  45.41900 48.18500 42.85800
O  44.37500 48.92700 40.99600
C  43.10500 48.39400 41.53000
H  49.71800 43.14100 40.39700
H  55.26900 45.90900 42.90600
H  52.02600 51.21600 43.68600
H  46.25500 45.98200 40.63000
H  47.95000 44.35400 38.95600
H  46.71100 42.84400 40.20600
H  46.14900 43.98700 41.37100
H  47.77800 43.28000 41.58600
H  47.31900 46.10400 37.78900
H  47.40900 47.68700 38.39800
H  45.06900 47.90400 38.27700
H  44.78900 46.50500 39.28300
H  53.13200 41.34400 39.96100
H  51.38800 41.82500 39.94600
H  52.15300 41.02400 41.33200
H  57.06200 42.96400 42.60900
H  55.87600 43.77900 43.47400
H  56.53200 44.51700 41.92700
H  55.72600 48.62700 42.76500
H  54.34000 50.01800 44.82300
H  55.47600 46.72400 45.08000
H  55.60400 48.42400 45.68600
H  56.83200 47.72000 44.64600
H  54.53800 50.65600 41.93600
H  55.96900 50.78100 42.72900
H  55.24800 52.98400 43.66600
H  53.78800 52.40600 44.25800
H  53.72500 52.69500 42.59400
H  49.47300 53.09000 42.53600
H  50.34800 52.51700 44.00000
H  48.51700 52.70000 43.97000
H  46.53200 49.25500 39.90100
H  43.06000 48.37900 42.61900
H  42.92200 47.36500 41.22000
H  42.29700 49.01700 41.14600
Mg -1.14800 34.25000 27.37100
C  -3.01000 32.20500 29.44700
C  0.16700 35.76000 30.08900
C  0.50500 36.25400 25.25600
C  -2.61600 32.60800 24.52500
N  -1.46000 34.13000 29.50100
C  -2.20000 33.12800 30.11800
C  -2.09200 33.21600 31.63000
C  -1.13600 34.51100 31.83800
C  -0.82800 34.84200 30.40600
C  -1.70500 35.76700 32.58500
C  -1.50100 31.91000 32.32400
C  -2.40300 31.27100 33.36600
H  -1.73500 31.28300 34.77700
N  0.14500 35.82000 27.68100
C  0.60600 36.25900 28.88200
C  1.60200 37.31100 28.61000
C  1.66200 37.56400 27.22400
C  0.76300 36.47300 26.69400
C  2.28800 37.98200 29.76500
C  2.49600 38.48000 26.46100
O  2.47400 38.58500 25.23600
C  3.37900 39.48100 27.20700
N  -1.07600 34.46500 25.21100
C  -0.27800 35.37600 24.58100
C  -0.53600 35.45900 23.03500
C  -1.34200 34.15000 22.79000
C  -1.71200 33.66500 24.24400
C  -1.23600 36.72800 22.63100
C  -0.62900 33.04300 21.97000
C  -1.53000 32.39400 20.91000
N  -2.62500 32.70400 26.99000
C  -3.11400 32.20200 25.83100
C  -4.06000 31.18200 26.20500
C  -3.99500 31.10000 27.63000
C  -3.16400 32.10800 28.06200
C  -4.71600 30.30300 25.28400
C  -4.38900 30.34600 28.79300
O  -5.12300 29.31900 28.86500
C  -3.84400 31.07100 30.02900
C  -5.04800 31.60900 30.82000
O  -5.87200 32.44000 30.40900
O  -5.15100 30.87000 31.96300
C  -6.32000 31.07400 32.85400
H  0.50600 36.08000 31.07600
H  0.96800 37.04700 24.66400
H  -3.15700 32.13100 23.70500
H  -3.04000 33.50100 32.08600
H  -0.22300 34.15100 32.31200
H  -1.89200 36.60700 31.91600
H  -1.03400 36.04900 33.39700
H  -2.62000 35.46900 33.09700
H  -0.52200 32.15200 32.73800
H  -1.30100 31.17800 31.54100
H  -2.40800 30.23800 33.01700
H  -3.40200 31.68500 33.22500
H  1.87700 37.70600 30.73600
H  2.05600 39.04200 29.66500
H  3.37200 37.88000 29.71300
H  3.72800 40.13300 26.40600
H  4.24300 38.96200 27.62200
H  2.75600 40.05900 27.88800
H  0.46400 35.40700 22.60300
H  -2.30600 34.37800 22.33600
H  -0.53700 37.51000 22.92800
H  -2.03600 36.93000 23.34300
H  -1.45300 36.61700 21.56800
H  -0.25700 32.33200 22.70900
H  0.24100 33.41200 21.42700
H  -1.00000 32.53500 19.96800
H  -2.56400 32.73500 20.94700
H  -1.59400 31.30800 20.97900
H  -4.09100 30.33500 24.39100
H  -5.68200 30.61800 24.89000
H  -4.79300 29.32100 25.75100
H  -3.24700 30.37900 30.62200
H  -7.03900 31.84300 32.56900
H  -5.87100 31.52100 33.74100
H  -6.67500 30.10300 33.19800

