158

Mg 27.69200 50.32500 25.35100
C  25.72700 51.70500 27.74800
C  29.80300 49.26400 27.74400
C  29.69200 49.23700 22.77500
C  25.71500 51.86200 22.87400
N  27.77700 50.62800 27.43900
C  26.80500 51.09600 28.28600
C  27.12400 50.76800 29.76700
C  28.66500 50.28900 29.75700
C  28.78300 50.08300 28.19900
C  29.66100 51.31100 30.37700
C  26.09600 49.98600 30.58100
C  25.47900 50.62000 31.81100
H  26.41600 50.92800 33.05300
N  29.50200 49.34800 25.28300
C  30.19100 48.99400 26.41700
C  31.25400 48.07100 26.00900
C  31.12100 47.99800 24.55600
C  30.12200 48.93900 24.12100
C  32.36100 47.60300 26.98100
C  31.87800 47.10400 23.57500
O  31.78000 47.15900 22.33800
C  32.62700 45.93500 24.13400
N  27.68300 50.52000 23.14500
C  28.57100 49.95000 22.28900
C  28.35300 50.26300 20.76200
C  26.89400 50.80900 20.85700
C  26.79700 51.16300 22.33400
C  29.35900 51.37600 20.33000
C  25.74900 49.90100 20.32900
C  25.69500 48.40500 20.71000
N  26.06700 51.58300 25.31300
C  25.38100 52.13700 24.23100
C  24.32300 52.93100 24.71800
C  24.37500 52.76400 26.09200
C  25.46000 51.96300 26.41600
C  23.27900 53.62500 23.88500
C  23.75300 53.14500 27.41900
O  22.80800 53.90900 27.65200
C  24.61500 52.38400 28.50400
C  24.98900 53.46800 29.44400
O  25.89400 54.24400 29.40300
O  24.07000 53.47400 30.50900
C  24.26900 54.52800 31.56900
H  30.47000 48.89400 28.52500
H  30.38600 48.83600 22.03300
H  25.00200 52.18100 22.11100
H  27.25500 51.70300 30.31200
H  28.74700 49.30900 30.22500
H  30.49200 51.50000 29.69700
H  30.18500 50.71200 31.12200
H  29.28500 52.27500 30.71900
H  26.66700 49.11600 30.90600
H  25.22800 49.67500 29.99900
H  24.77100 49.84700 32.11000
H  24.95800 51.53200 31.52000
H  32.37300 48.00500 27.99400
H  33.34500 47.82500 26.56800
H  32.32100 46.51600 27.04200
H  32.94000 45.27300 23.32700
H  31.98500 45.44100 24.86300
H  33.51700 46.26600 24.67100
H  28.44800 49.33200 20.20300
H  26.93700 51.83100 20.48100
H  28.90100 52.30000 20.68400
H  29.56000 51.45000 19.26100
H  30.28600 51.23300 20.88500
H  25.53300 50.04100 19.27000
H  24.88200 50.29700 20.85700
H  25.23700 47.78800 19.93700
H  25.00900 48.26700 21.54500
H  26.64500 47.96200 21.01000
H  22.57300 52.90000 23.48000
H  23.58800 54.23600 23.03800
H  22.64700 54.27500 24.49100
H  24.02500 51.61700 29.00400
H  25.29300 54.29400 31.86300
H  23.41000 54.38000 32.22200
H  24.29100 55.58500 31.30300
Mg -10.48100 39.18400 41.15800
C  -9.06800 35.85000 40.39100
C  -7.65900 40.45300 39.76100
C  -12.02800 42.01700 41.15800
C  -13.41500 37.39100 42.19600
N  -8.79300 38.23000 39.85300
C  -8.35300 36.92400 39.87200
C  -7.04600 36.81200 39.18700
C  -6.46300 38.28000 39.32700
C  -7.70800 39.02200 39.72900
C  -5.38200 38.46500 40.41200
C  -7.20900 36.16300 37.79600
C  -6.00500 35.43200 37.21800
H  -5.39900 36.18100 35.97000
N  -9.94500 41.05000 40.54500
C  -8.66300 41.33900 40.07500
C  -8.73100 42.76900 39.70300
C  -9.92200 43.35500 40.25200
C  -10.66500 42.16700 40.74400
C  -7.70400 43.57100 38.95400
C  -10.33000 44.74200 40.32300
O  -9.77700 45.59100 39.68300
C  -11.42400 45.18200 41.16400
N  -12.41700 39.62300 41.66800
C  -12.82200 40.91800 41.57900
C  -14.31700 40.95600 41.94000
C  -14.66300 39.55100 42.38900
C  -13.43300 38.80500 42.13200
C  -14.94300 42.16400 42.73000
C  -15.91600 38.98600 41.63100
C  -16.91100 38.18900 42.43500
N  -11.15200 37.05700 41.35200
C  -12.26300 36.56300 41.89300
C  -12.13400 35.18000 42.11000
C  -10.88500 34.85800 41.53700
C  -10.35600 35.98200 40.99300
C  -13.17000 34.30500 42.64000
C  -10.00300 33.77000 41.24900
O  -10.04400 32.56100 41.60300
C  -8.85000 34.39700 40.32500
C  -7.51400 33.88300 40.72900
O  -6.67900 33.49600 39.95800
O  -7.36600 33.95100 42.07300
C  -6.12600 33.60600 42.68600
H  -6.79900 40.92800 39.28500
H  -12.60200 42.93200 40.99400
H  -14.27500 36.85100 42.59900
H  -6.30200 36.21000 39.70900
H  -6.07300 38.58100 38.35500
H  -5.65200 39.07900 41.27000
H  -4.40600 38.77400 40.03600
H  -5.25900 37.50000 40.90400
H  -7.49000 36.89500 37.03900
H  -7.94800 35.36700 37.88400
H  -6.29600 34.41600 36.95000
H  -5.22800 35.50000 37.98000
H  -7.33100 44.51800 39.34600
H  -7.89600 43.80900 37.90800
H  -6.80200 42.98500 38.77900
H  -11.21600 46.18300 41.54300
H  -11.39200 44.50100 42.01400
H  -12.33500 45.21500 40.56600
H  -14.65500 41.10000 40.91400
H  -14.86600 39.53500 43.46000
H  -15.72300 42.51900 42.05700
H  -14.11400 42.85100 42.89600
H  -15.52900 41.89100 43.60800
H  -15.49700 38.44900 40.78000
H  -16.42500 39.77200 41.07300
H  -16.74000 38.11400 43.50900
H  -16.82300 37.20700 41.97200
H  -17.91900 38.59500 42.35900
H  -14.12800 34.33800 42.12000
H  -13.34600 34.43200 43.70800
H  -12.73800 33.31200 42.51400
H  -9.06100 34.16000 39.28200
H  -5.58500 32.73000 42.32700
H  -6.31700 33.47000 43.75100
H  -5.43700 34.43700 42.53600

