158

Mg 9.54500 47.93500 25.95200
C  7.79200 47.88000 29.00400
C  12.37500 48.62400 27.72800
C  11.02000 47.94100 23.03300
C  6.48400 47.01300 24.38700
N  9.90700 48.52000 28.09900
C  9.15500 48.36800 29.17700
C  9.88600 48.84600 30.47600
C  11.22800 49.33600 29.94000
C  11.23200 48.83500 28.50500
C  11.51600 50.95600 30.18100
C  9.94300 47.69000 31.45600
C  10.95700 47.92900 32.53100
H  10.56500 47.55300 33.99100
N  11.39700 48.36500 25.42100
C  12.49500 48.44500 26.27700
C  13.68700 48.57800 25.47800
C  13.34500 48.19900 24.18800
C  11.88100 48.08500 24.16700
C  15.06400 48.81800 26.11500
C  14.23600 47.87400 23.03200
O  13.84400 47.45500 21.95900
C  15.69600 47.99600 23.13900
N  8.83500 47.62200 23.91300
C  9.67700 47.58200 22.90900
C  8.94400 47.31400 21.59100
C  7.64300 46.78300 22.09400
C  7.60000 47.18300 23.58000
C  8.77800 48.72400 20.90800
C  7.41300 45.23800 21.93100
C  8.37400 44.28200 22.64600
N  7.47700 47.68600 26.50200
C  6.44100 47.22000 25.74300
C  5.21800 47.02700 26.60300
C  5.74200 47.24500 27.89500
C  7.10900 47.65800 27.76400
C  3.85700 46.72600 26.09200
C  5.38900 47.24100 29.35800
O  4.34800 46.97100 29.86700
C  6.69800 47.62100 30.18400
C  6.95400 46.34400 30.95500
O  7.71900 45.41600 30.65400
O  6.20100 46.30800 32.10100
C  6.57200 45.28700 33.11500
H  13.32200 48.56800 28.26900
H  11.50600 48.02200 22.05800
H  5.62400 46.65100 23.82100
H  9.25700 49.61400 30.92600
H  12.03500 48.75500 30.38600
H  11.76100 51.44000 29.23600
H  12.42200 51.05200 30.78000
H  10.72700 51.31300 30.84300
H  10.09800 46.68000 31.07600
H  8.99200 47.70700 31.98700
H  11.29600 48.96500 32.56600
H  11.82600 47.35200 32.21500
H  14.95900 49.13000 27.15400
H  15.57000 49.55700 25.49400
H  15.59200 47.86600 26.08000
H  16.19100 47.23500 23.74200
H  15.92900 49.01800 23.43800
H  16.08400 47.81800 22.13600
H  9.48700 46.63600 20.93300
H  6.77900 47.24200 21.61400
H  9.34400 48.85200 19.98600
H  9.07300 49.50900 21.60500
H  7.73700 48.94200 20.66800
H  7.39400 45.01600 20.86400
H  6.40200 44.98900 22.25300
H  8.98600 44.80400 23.38100
H  9.02000 43.79500 21.91500
H  7.78300 43.58800 23.24400
H  3.46200 47.70100 25.80700
H  3.26700 46.42900 26.96000
H  3.89000 45.97200 25.30600
H  6.48500 48.46400 30.84200
H  7.62700 45.35700 33.38200
H  6.41300 44.29600 32.69000
H  5.96400 45.37000 34.01500
Mg 0.69300 42.34300 25.54600
C  2.36700 42.54200 28.73700
C  -2.02700 41.10200 27.16600
C  -0.62000 41.74300 22.56300
C  3.79900 43.06400 24.04800
N  0.22600 42.00300 27.67900
C  1.01800 42.18500 28.80600
C  0.18100 41.93600 30.09700
C  -1.18700 41.34500 29.48500
C  -0.99500 41.48200 28.00100
C  -1.38100 39.88400 29.95000
C  -0.02200 43.22800 31.03300
C  0.34900 42.98500 32.50500
H  0.03400 41.66400 33.07400
N  -1.08600 41.46900 24.96700
C  -2.13800 41.10800 25.77000
C  -3.24300 40.72100 24.98400
C  -2.82600 40.95100 23.59600
C  -1.46700 41.32500 23.64100
C  -4.53000 40.10000 25.57900
C  -3.67200 40.94300 22.35000
O  -3.18000 41.14900 21.21000
C  -5.18000 40.78700 22.50700
N  1.45800 42.43400 23.60300
C  0.69900 42.24800 22.57300
C  1.51900 42.48400 21.26500
C  2.87400 42.98400 21.76000
C  2.70600 42.84600 23.25600
C  1.46300 41.29000 20.23900
C  3.27800 44.41100 21.42800
C  4.37800 44.57500 20.28500
N  2.58700 42.81100 26.20600
C  3.77600 43.08500 25.51000
C  4.92500 43.37200 26.39000
C  4.36400 43.14400 27.63400
C  3.00300 42.81600 27.49100
C  6.29600 43.86200 26.06200
C  4.63900 43.18500 29.06500
O  5.61000 43.57100 29.66400
C  3.39100 42.83100 29.85200
C  3.71700 41.64800 30.55600
O  4.09300 40.60100 30.01200
O  3.62100 41.86400 31.90100
C  4.21000 40.83200 32.75700
H  -2.90800 40.63000 27.60500
H  -1.03100 41.71100 21.55100
H  4.75000 43.26800 23.55100
H  0.65400 41.16100 30.70000
H  -1.92300 41.96000 30.00200
H  -2.46700 39.89500 30.04500
H  -0.86200 39.61400 30.87000
H  -1.21000 39.16400 29.14900
H  -1.07500 43.50600 31.08100
H  0.53400 44.14700 30.84500
H  -0.20500 43.70000 33.11400
H  1.39700 43.16100 32.74800
H  -4.24600 39.36300 26.33100
H  -5.00700 39.51100 24.79600
H  -5.21800 40.82000 26.02200
H  -5.61000 40.95700 21.52000
H  -5.61600 41.46000 23.24500
H  -5.44000 39.74200 22.67800
H  0.89100 43.25300 20.81600
H  3.63000 42.22900 21.54400
H  1.22600 40.30300 20.63700
H  2.42100 41.10700 19.75200
H  0.76700 41.47800 19.42200
H  3.70700 44.88000 22.31400
H  2.39400 44.98400 21.15000
H  3.91200 44.12600 19.40800
H  5.30900 44.11800 20.61900
H  4.55100 45.61800 20.02000
H  6.25400 44.42200 25.12800
H  6.88300 42.94500 26.01500
H  6.74600 44.52200 26.80400
H  3.10400 43.64900 30.51400
H  4.27500 39.89600 32.20200
H  3.53600 40.68200 33.60000
H  5.15400 41.23200 33.12800

