158

Mg 47.87100 24.83200 29.32300
C  48.38000 27.46000 31.80500
C  46.64500 22.89100 31.96300
C  47.46500 22.51600 27.13100
C  49.45400 26.93300 27.01000
N  47.69500 25.09700 31.67400
C  47.82600 26.29800 32.43000
C  47.29800 26.25200 33.87900
C  46.87500 24.70500 33.90000
C  47.00200 24.17400 32.42700
C  47.48500 23.77900 34.98700
C  46.10000 27.23400 34.23500
C  46.19700 27.83100 35.65700
H  47.05900 27.27500 36.75400
N  47.16400 22.91200 29.53400
C  46.61100 22.29800 30.63000
C  46.10900 21.04000 30.20100
C  46.26300 20.94500 28.79800
C  46.98900 22.14800 28.42900
C  45.61400 20.02100 31.16800
C  45.78900 19.85100 27.84800
O  45.84100 19.90900 26.64100
C  45.06600 18.57700 28.29200
N  48.69100 24.51500 27.43600
C  48.32500 23.48300 26.67200
C  48.78200 23.58400 25.20300
C  49.13900 25.12100 25.22200
C  49.12000 25.59600 26.66000
C  49.92900 22.65400 24.77900
C  48.29200 25.94900 24.17000
C  46.81200 26.01400 24.52400
N  48.79500 26.78000 29.32100
C  49.36900 27.46300 28.32500
C  49.79600 28.74400 28.74300
C  49.36100 28.84600 30.06300
C  48.80500 27.59200 30.42200
C  50.52500 29.79200 27.91700
C  49.23300 29.71400 31.20800
O  49.47900 30.87800 31.29000
C  48.59200 28.85500 32.35000
C  49.61800 28.90600 33.46700
O  50.74800 28.45800 33.35200
O  49.17600 29.47800 34.58700
C  50.24600 29.70400 35.61100
H  46.24800 22.33200 32.81400
H  47.34800 21.75500 26.35600
H  49.84400 27.43100 26.12000
H  48.10300 26.33700 34.60800
H  45.82800 24.58100 34.17600
H  48.45600 23.33400 34.76700
H  46.68100 23.06500 35.16500
H  47.49700 24.41700 35.87000
H  45.09500 26.81300 34.28100
H  46.13500 28.11100 33.59000
H  45.16300 27.97100 35.97200
H  46.52500 28.86500 35.55200
H  45.38100 20.56600 32.08300
H  46.30400 19.18200 31.25600
H  44.64400 19.56400 30.97400
H  45.82900 18.13900 28.93500
H  44.78100 17.95100 27.44700
H  44.24300 19.05800 28.82000
H  47.95900 23.45500 24.50000
H  50.15400 25.29900 24.86400
H  49.62700 22.12000 23.87800
H  50.12700 21.91900 25.55900
H  50.84300 23.17600 24.49800
H  48.44400 25.32700 23.28800
H  48.62700 26.97700 24.03300
H  46.72400 26.10700 25.60600
H  46.23700 25.22900 24.03100
H  46.44800 26.95900 24.12100
H  51.17400 30.33200 28.60600
H  49.88000 30.54900 27.47100
H  51.18500 29.30300 27.20100
H  47.72000 29.36500 32.75900
H  50.57000 28.80300 36.13200
H  50.04700 30.46700 36.36300
H  51.10200 30.16400 35.11700
Mg 48.27500 45.64500 43.48300
C  44.85600 45.63600 42.63300
C  48.51400 42.61400 42.13500
C  51.69900 46.13100 43.57800
C  47.92000 49.02700 44.13800
N  46.78500 44.23500 42.66600
C  45.44600 44.39700 42.42000
C  44.80000 43.10000 41.79400
C  46.02400 42.07700 41.93900
C  47.19800 42.99300 42.25000
C  45.73200 40.86500 42.86600
C  44.37600 43.41400 40.33900
C  43.04800 42.82600 39.79800
H  43.24300 41.96600 38.58100
N  49.83900 44.49700 43.05500
C  49.71800 43.26500 42.53800
C  51.08500 42.72100 42.40300
C  52.02300 43.60500 42.80000
C  51.24600 44.79800 43.25100
C  51.20600 41.35700 41.73900
C  53.50800 43.31900 42.81200
O  53.99200 42.27000 42.40800
C  54.49300 44.21300 43.43900
N  49.64100 47.40800 43.72800
C  50.95500 47.28800 43.76700
C  51.64400 48.60000 44.07000
C  50.43700 49.54800 44.30700
C  49.24900 48.69300 44.01800
C  52.79200 48.63100 45.02200
C  50.40400 50.80300 43.45100
C  50.20500 52.15200 44.23300
N  46.80400 47.11000 43.30600
C  46.74300 48.39800 43.78500
C  45.41700 48.94400 43.88000
C  44.64800 47.92900 43.27800
C  45.52300 46.81500 43.05500
C  44.99600 50.33000 44.40700
C  43.40100 47.58900 42.70200
O  42.40700 48.29300 42.50400
C  43.50100 46.09700 42.28000
C  42.34700 45.31000 42.79800
O  41.68900 44.60500 42.08700
O  42.22900 45.46300 44.20900
C  41.11700 44.78800 44.80700
H  48.66600 41.56100 41.88500
H  52.78300 46.11100 43.70800
H  47.70500 50.02400 44.53000
H  43.96800 42.83300 42.44600
H  46.19500 41.67800 40.94000
H  44.66300 40.70700 42.72400
H  45.88800 41.01000 43.93500
H  46.28200 39.98800 42.52700
H  45.12700 43.02100 39.65400
H  44.26600 44.45800 40.04700
H  42.30500 43.60300 39.61500
H  42.61400 42.26400 40.62500
H  50.43900 41.14100 40.99600
H  51.31000 40.57300 42.48800
H  52.18700 41.43800 41.27100
H  54.88400 44.93600 42.72400
H  55.32900 43.56900 43.71300
H  54.11500 44.60600 44.38300
H  52.03500 48.84400 43.08300
H  50.38000 49.77400 45.37200
H  52.92400 47.66300 45.50600
H  52.80400 49.47800 45.70800
H  53.68300 48.65300 44.39400
H  49.81200 50.59300 42.56100
H  51.35500 50.95800 42.94200
H  51.21400 52.56100 44.29000
H  49.83500 51.98500 45.24500
H  49.51900 52.82400 43.71900
H  43.98300 50.30200 44.00500
H  45.55700 51.20200 44.07200
H  45.10200 50.36100 45.49200
H  43.23700 46.10300 41.22200
H  41.00500 44.70900 45.88800
H  41.05900 43.71400 44.63000
H  40.20200 45.27200 44.46400

