158

Mg 29.38800 57.77700 40.68500
C  26.38100 56.14800 39.75300
C  31.01000 55.12000 39.28300
C  32.16700 59.59400 40.90600
C  27.46500 60.67300 41.10600
N  28.75400 55.78000 39.84500
C  27.52200 55.46000 39.38300
C  27.48700 54.41600 38.24600
C  28.87600 53.84400 38.65800
C  29.65400 54.97000 39.30000
C  28.82400 52.63200 39.66500
C  27.36200 55.00100 36.75700
C  26.04100 54.69900 36.00700
H  26.06900 54.40800 34.49900
N  31.34500 57.25300 40.38300
C  31.79200 56.15700 39.77500
C  33.27400 56.22800 39.78900
C  33.69100 57.47100 40.18200
C  32.38700 58.14000 40.51900
C  34.14500 55.11100 39.23100
C  35.08600 58.04800 40.22700
O  36.02200 57.34100 39.93000
C  35.44500 59.58000 40.50100
N  29.73300 59.83500 40.84700
C  30.97100 60.36900 41.05300
C  30.96200 61.91000 41.22100
C  29.46800 62.12900 41.44700
C  28.81600 60.79900 41.11700
C  32.06600 62.49500 42.23500
C  28.76500 63.24300 40.60500
C  28.54200 62.87300 39.12100
N  27.32200 58.26500 40.69400
C  26.69300 59.46500 40.87900
C  25.25300 59.18700 40.91300
C  25.10000 57.91800 40.43600
C  26.43500 57.41900 40.34100
C  24.23200 60.30200 41.15300
C  24.07800 57.00800 40.10100
O  22.82900 57.15800 40.13300
C  24.82800 55.77100 39.51100
C  24.40600 54.48800 40.19200
O  24.41000 54.23700 41.44800
O  23.69600 53.63400 39.34000
C  22.77000 52.85800 40.13400
H  31.52600 54.27800 38.81800
H  33.08700 60.15200 41.09000
H  26.80600 61.51500 41.32600
H  26.59700 53.84700 38.51300
H  29.44000 53.46300 37.80700
H  27.81200 52.40900 40.00300
H  29.21800 52.90300 40.64500
H  29.36900 51.73500 39.37000
H  28.15600 54.76400 36.04800
H  27.49700 56.06600 36.94900
H  25.37900 55.55300 36.14700
H  25.50900 53.93300 36.57000
H  33.65600 54.21400 39.61100
H  35.11900 54.96200 39.69800
H  34.01600 55.19300 38.15200
H  35.30400 59.87800 41.54000
H  35.05300 60.25000 39.73500
H  36.50700 59.69800 40.29000
H  31.27500 62.37600 40.28700
H  29.31300 62.39500 42.49200
H  32.85000 62.99000 41.66100
H  32.40500 61.65600 42.84300
H  31.43200 63.21300 42.75400
H  29.46600 64.07700 40.60600
H  27.78600 63.54300 40.97900
H  28.95900 61.92800 38.77400
H  28.99400 63.64700 38.50000
H  27.49700 62.98100 38.82800
H  24.28500 60.99000 40.30900
H  24.53900 60.81800 42.06200
H  23.21900 59.92200 41.28700
H  24.49600 55.77300 38.47300
H  22.14300 52.43600 39.34900
H  22.19900 53.46900 40.83300
H  23.27100 52.05100 40.66900
Mg 16.42200 52.21500 25.67400
C  18.28600 51.00600 28.21500
C  14.09600 53.40400 27.96700
C  14.52400 53.23300 23.17700
C  18.77900 50.83900 23.43600
N  16.26600 52.29400 27.88500
C  17.16100 51.77800 28.76800
C  16.71300 51.84100 30.23700
C  15.25700 52.66800 30.05700
C  15.21000 52.84000 28.53100
C  14.01000 52.02700 30.68900
C  17.72300 52.54400 31.17800
C  17.93200 52.00000 32.57900
H  16.85700 51.13500 33.24300
N  14.55500 53.23100 25.61000
C  13.70600 53.56300 26.64300
C  12.62000 54.32400 26.08600
C  12.75200 54.30000 24.65200
C  14.02100 53.51000 24.40700
C  11.56200 54.89300 27.02700
C  11.85900 54.96100 23.55100
O  12.01800 54.93300 22.32500
C  10.61500 55.65400 23.88000
N  16.58100 51.86600 23.50600
C  15.72400 52.61400 22.73600
C  16.18500 52.64200 21.27200
C  17.54900 51.85600 21.39800
C  17.69500 51.51700 22.83000
C  15.17700 51.93400 20.28900
C  18.76700 52.66400 20.85100
C  19.90600 51.89900 20.18100
N  18.07900 51.06200 25.74800
C  18.98800 50.59400 24.79500
C  20.09000 49.98000 25.38500
C  19.77300 50.03500 26.76600
C  18.57300 50.72200 26.89900
C  21.20600 49.26900 24.70100
C  20.24900 49.58000 28.08800
O  21.26500 49.01400 28.49600
C  19.26100 50.13500 28.99700
C  18.66300 48.98800 29.71400
O  17.66100 48.39200 29.32800
O  19.20000 48.76000 30.95700
C  18.50100 47.63600 31.71300
H  13.26800 53.68900 28.61900
H  13.95500 53.68300 22.36100
H  19.62600 50.74400 22.75300
H  16.47600 50.86200 30.65200
H  15.44500 53.61900 30.55700
H  14.28300 51.13900 31.25900
H  13.32900 51.55200 29.98400
H  13.37200 52.73500 31.21900
H  17.35200 53.55900 31.31900
H  18.68900 52.62000 30.67900
H  18.10200 52.85200 33.23900
H  18.85600 51.42300 32.61100
H  11.37600 55.84600 26.53200
H  11.98100 55.01200 28.02600
H  10.66300 54.27900 27.07600
H  10.13400 55.84400 22.92000
H  11.02800 56.51700 24.40300
H  9.93900 55.02000 24.45200
H  16.37000 53.65400 20.91000
H  17.56300 50.96600 20.76800
H  14.76300 52.64000 19.57000
H  14.34800 51.55400 20.88600
H  15.60400 51.11400 19.71100
H  19.23900 53.33000 21.57300
H  18.41700 53.22100 19.98200
H  20.81600 51.83700 20.77700
H  20.04500 52.24100 19.15500
H  19.53700 50.87500 20.22500
H  22.17200 49.39200 25.19200
H  21.22500 49.66500 23.68500
H  21.05800 48.19000 24.73400
H  19.70300 50.72600 29.80000
H  18.77500 47.89700 32.73500
H  18.91700 46.68200 31.39000
H  17.42400 47.74900 31.59000

