158

Mg 15.94200 -2.22500 28.64200
C  15.02900 0.18000 31.05900
C  17.97900 -3.77900 31.00000
C  17.49000 -4.07800 26.23800
C  14.48100 -0.24100 26.23800
N  16.61400 -1.68600 30.80100
C  16.03500 -0.75700 31.54700
C  16.61100 -1.02400 32.94600
C  17.64400 -2.19200 32.86100
C  17.40600 -2.63100 31.46600
C  19.10400 -1.63500 33.22600
C  15.55600 -1.20100 34.01000
C  15.61500 -0.18400 35.15000
H  16.90300 0.52100 35.55500
N  17.33700 -3.83500 28.66800
C  17.88800 -4.46000 29.74900
C  18.63700 -5.63800 29.31800
C  18.55200 -5.67600 27.85700
C  17.76600 -4.50700 27.51200
C  19.57500 -6.40200 30.20500
C  19.14200 -6.66500 26.91400
O  19.03000 -6.56500 25.73200
C  19.93000 -7.84900 27.45200
N  16.19500 -2.04200 26.62000
C  16.80800 -2.94600 25.81700
C  16.58100 -2.61600 24.31300
C  15.44500 -1.61300 24.37600
C  15.36600 -1.28200 25.85900
C  17.88900 -2.00600 23.68200
C  14.04800 -2.09300 23.91600
C  13.23900 -1.17200 22.98000
N  14.87000 -0.50400 28.58800
C  14.36300 0.22800 27.53200
C  13.53300 1.26600 28.06400
C  13.80800 1.27000 29.43000
C  14.67600 0.27600 29.70800
C  12.64000 2.21900 27.32700
C  13.41500 1.98900 30.64600
O  12.67400 2.98200 30.78400
C  14.23600 1.31800 31.78900
C  15.05500 2.43900 32.30900
O  16.13700 2.77500 31.88700
O  14.30100 3.05500 33.32300
C  14.87200 4.22800 33.93100
H  18.58200 -4.30500 31.74300
H  17.97300 -4.52700 25.36700
H  13.82900 0.15800 25.45800
H  17.10800 -0.08400 33.18500
H  17.54500 -3.03600 33.54400
H  19.05400 -0.89300 34.02300
H  19.53700 -1.18100 32.33500
H  19.88800 -2.34100 33.50100
H  15.76200 -2.23400 34.29000
H  14.57300 -1.25900 33.54300
H  15.31900 -0.77600 36.01600
H  14.90500 0.62800 34.99000
H  20.61500 -6.15400 29.99300
H  19.36700 -7.46300 30.06600
H  19.33200 -6.32600 31.26500
H  19.35900 -8.38100 28.21300
H  20.90800 -7.54600 27.82600
H  20.14200 -8.60600 26.69700
H  16.24700 -3.45100 23.69800
H  15.63400 -0.74400 23.74500
H  18.10800 -1.03100 24.11900
H  17.57800 -1.89300 22.64400
H  18.82500 -2.56100 23.62000
H  13.40300 -2.37700 24.74700
H  14.18400 -3.01400 23.34900
H  12.20600 -1.50900 23.06100
H  13.74000 -1.22200 22.01300
H  13.36800 -0.11200 23.19800
H  12.61400 1.93100 26.27600
H  13.11800 3.18100 27.14700
H  11.68200 2.35200 27.83100
H  13.66800 0.84300 32.58900
H  14.25700 4.57400 34.76200
H  15.23000 5.08300 33.35700
H  15.73700 3.78200 34.42200
Mg 43.08700 42.36900 27.18900
C  42.19000 44.58900 29.66200
C  43.92200 40.01200 29.48200
C  44.54500 40.49900 24.80600
C  42.75500 45.05600 24.89500
N  43.13900 42.38100 29.25300
C  42.51100 43.29000 30.06200
C  42.49100 42.85500 31.58500
C  43.17600 41.46100 31.49600
C  43.39400 41.22000 29.97900
C  44.47800 41.22200 32.31400
C  41.02700 42.81600 32.12200
C  40.74900 43.72800 33.34200
H  40.48000 43.06200 34.71500
N  43.93500 40.50500 27.17300
C  44.21800 39.67000 28.21800
C  44.95900 38.48700 27.76900
C  45.05800 38.59500 26.31200
C  44.49200 39.89800 26.03900
C  45.47900 37.40900 28.64900
C  45.63500 37.59500 25.36100
O  45.87100 37.79300 24.19100
C  45.80900 36.20600 25.86500
N  43.45400 42.69500 25.16600
C  44.13000 41.76900 24.41600
C  44.02600 42.17000 22.93400
C  43.50700 43.63500 22.99800
C  43.15400 43.84300 24.40100
C  45.39100 42.02800 22.10100
C  42.55000 44.10400 21.93800
C  41.07100 44.31100 22.30800
N  42.55800 44.44600 27.19500
C  42.44800 45.37800 26.23200
C  41.91100 46.60100 26.77200
C  41.83300 46.32800 28.14700
C  42.25100 44.96700 28.32700
C  41.46100 47.88000 26.01900
C  41.64200 46.95700 29.43800
O  41.38800 48.09400 29.78300
C  41.73400 45.75300 30.52200
C  42.70000 46.13000 31.56900
O  43.93900 46.17700 31.51200
O  42.02600 46.48600 32.66300
C  42.79500 47.05200 33.78200
H  44.15800 39.20600 30.18000
H  45.11700 39.98400 24.03100
H  42.60500 45.86500 24.17600
H  42.99300 43.65400 32.13200
H  42.50200 40.68500 31.86000
H  44.64200 42.18000 32.80800
H  45.30600 40.94200 31.66300
H  44.42800 40.32200 32.92700
H  40.77900 41.78300 32.36700
H  40.39300 43.01500 31.25800
H  39.93600 44.41000 33.09400
H  41.61400 44.33100 33.61700
H  45.46400 37.58700 29.72400
H  46.51100 37.39100 28.29900
H  45.09000 36.40000 28.51400
H  46.06000 35.49200 25.08000
H  44.83700 35.87900 26.23400
H  46.58400 36.26300 26.63000
H  43.31500 41.61000 22.32600
H  44.36400 44.29800 22.88700
H  46.14700 41.89700 22.87600
H  45.66900 42.87500 21.47400
H  45.55100 41.21500 21.39200
H  42.54100 43.38700 21.11600
H  42.95600 45.02300 21.51500
H  40.92500 43.96400 23.33000
H  40.36500 43.83300 21.62900
H  40.78700 45.36200 22.24800
H  41.48100 47.80200 24.93200
H  42.05500 48.76700 26.23900
H  40.44100 48.08600 26.34500
H  40.75400 45.60300 30.97300
H  43.12600 48.05900 33.52500
H  43.66400 46.45700 34.06000
H  42.21100 47.04400 34.70200

