158

Mg 35.88500 1.10700 29.78400
C  33.61100 2.00500 32.37000
C  38.39300 0.90500 32.07600
C  37.99500 0.45300 27.20200
C  33.21700 1.57300 27.53000
N  35.99300 1.48000 31.92600
C  34.91400 1.75600 32.87700
C  35.36000 1.72100 34.31600
C  36.90400 1.66300 34.09800
C  37.09400 1.39200 32.60200
C  37.60400 2.96400 34.47900
C  34.84100 0.46900 35.03300
C  34.04400 0.74200 36.28200
H  34.47900 1.84400 37.18900
N  37.83300 0.58700 29.66400
C  38.72600 0.52500 30.73800
C  40.00300 0.09100 30.27500
C  39.94400 0.01400 28.87400
C  38.57500 0.35200 28.46600
C  41.14700 -0.17200 31.23900
C  41.03700 -0.24100 27.86500
O  40.87200 -0.12000 26.65600
C  42.39000 -0.74700 28.36900
N  35.69600 1.21100 27.73600
C  36.72800 0.85300 26.85800
C  36.29700 0.75900 25.38700
C  34.74700 0.92000 25.49000
C  34.53200 1.29800 26.95900
C  36.96000 1.78600 24.40200
C  33.91100 -0.28900 24.93800
C  33.67400 -1.43600 25.97400
N  33.82100 1.74600 29.83300
C  32.87600 1.84300 28.87300
C  31.62400 2.27700 29.46000
C  31.86900 2.38100 30.80200
C  33.20200 2.03500 31.02800
C  30.32900 2.49300 28.82500
C  31.23600 2.66500 32.10100
O  30.05900 2.94400 32.33200
C  32.37800 2.39400 33.12900
C  32.51300 3.68000 33.79200
O  32.89300 4.67900 33.23200
O  31.90200 3.64400 35.02400
C  31.79600 4.94400 35.70600
H  39.19500 0.75000 32.80100
H  38.64600 0.12100 26.39000
H  32.38600 1.55300 26.82200
H  35.01100 2.64900 34.76900
H  37.44900 0.93400 34.69800
H  38.67900 2.90300 34.30700
H  37.29200 3.32700 35.45800
H  37.29300 3.58400 33.63800
H  35.64500 -0.14200 35.44300
H  34.35200 -0.23100 34.35500
H  33.94800 -0.14000 36.91500
H  33.02100 0.90900 35.94500
H  40.81100 -0.62800 32.17000
H  41.54100 0.79700 31.54600
H  41.93200 -0.78200 30.79200
H  42.25600 -1.64800 28.96800
H  42.89100 0.00500 28.97800
H  43.05000 -0.82900 27.50600
H  36.55800 -0.27900 25.18100
H  34.31700 1.80100 25.01300
H  36.22300 2.44700 23.94400
H  37.47300 1.15700 23.67600
H  37.69300 2.38800 24.93900
H  34.58500 -0.54400 24.12100
H  33.00300 0.11700 24.49100
H  34.06500 -1.27100 26.97700
H  34.19600 -2.30700 25.57800
H  32.62200 -1.71500 26.03800
H  30.09700 3.55600 28.76300
H  29.59200 1.99600 29.45500
H  30.43800 2.06400 27.82900
H  32.13300 1.58800 33.82100
H  32.83200 5.25100 35.84900
H  31.28400 4.85100 36.66400
H  31.25200 5.71800 35.16400
Mg 41.02600 41.23800 27.56200
C  40.14800 43.71200 29.79300
C  41.72400 39.26200 30.12700
C  41.83900 38.73000 25.21100
C  40.60100 43.35000 24.89900
N  40.84500 41.49500 29.78100
C  40.34400 42.53100 30.50100
C  40.07300 42.21200 31.97400
C  40.63600 40.72300 31.98100
C  41.08700 40.42300 30.53400
C  41.68100 40.37000 33.06100
C  38.59300 42.37500 32.41800
C  38.41500 41.93500 33.82300
H  38.75400 42.83500 35.06900
N  41.67300 39.27100 27.70400
C  41.92900 38.62300 28.91600
C  42.34400 37.28900 28.63400
C  42.41600 37.19000 27.20900
C  41.95200 38.46000 26.59500
C  42.58800 36.26400 29.78200
C  42.96300 36.03500 26.39500
O  43.22100 36.05500 25.22800
C  43.20700 34.66500 27.08600
N  41.17900 41.05000 25.39700
C  41.41800 39.91400 24.66100
C  41.36000 40.12300 23.13200
C  40.71200 41.54200 23.07200
C  40.79900 42.03400 24.55300
C  42.73100 40.04900 22.46800
C  39.24700 41.63500 22.52800
C  38.12500 41.13700 23.48300
N  40.52500 43.17600 27.35100
C  40.47200 43.92200 26.19300
C  40.14600 45.31000 26.57500
C  40.02800 45.25100 27.99400
C  40.24900 43.94800 28.40200
C  39.92500 46.51400 25.59500
C  39.79200 46.02000 29.19800
O  39.71400 47.23000 29.29500
C  39.78100 45.07100 30.37000
C  40.87800 45.46600 31.29200
O  42.04900 45.26800 31.15800
O  40.35700 46.08900 32.40100
C  41.30700 46.24800 33.54300
H  41.86100 38.69700 31.05100
H  42.24500 38.02600 24.48100
H  40.61600 44.01900 24.03600
H  40.68100 42.84100 32.62300
H  39.74100 40.10400 32.03800
H  41.24500 39.65200 33.75600
H  41.99200 41.27600 33.58200
H  42.58200 39.88200 32.69000
H  37.86800 41.82600 31.81600
H  38.41500 43.44800 32.47900
H  39.00000 41.03400 34.00400
H  37.35500 41.71500 33.95100
H  43.62400 35.94900 29.90600
H  41.91500 35.41900 29.63300
H  42.39400 36.71900 30.75300
H  42.35100 34.46400 27.73100
H  44.14700 34.92400 27.57200
H  43.36000 33.87200 26.35300
H  40.67900 39.41900 22.65300
H  41.37500 42.21700 22.53000
H  42.95500 40.71800 21.63700
H  42.88700 39.06200 22.03300
H  43.43800 40.08200 23.29700
H  39.22900 41.13400 21.56000
H  39.02100 42.67500 22.29000
H  38.61500 40.83400 24.40900
H  37.55500 40.30000 23.08000
H  37.46600 41.95300 23.77800
H  39.81900 46.17800 24.56300
H  40.70900 47.22500 25.85300
H  38.99700 46.93200 25.98400
H  38.83100 45.07300 30.90400
H  42.16900 46.76600 33.12300
H  41.59200 45.26800 33.92600
H  40.81300 46.74500 34.37800

