158

Mg 41.03400 8.88600 29.02800
C  43.10700 9.91500 31.66200
C  38.96500 7.54500 31.29000
C  39.22400 7.70000 26.46000
C  43.62800 9.73200 26.89500
N  41.06000 8.84100 31.16500
C  41.94600 9.32900 32.05800
C  41.45500 9.24300 33.52700
C  40.11700 8.51100 33.36300
C  40.09600 8.19200 31.88100
C  39.92600 7.23100 34.20500
C  41.42800 10.67100 34.19300
C  40.24200 11.10500 35.14000
H  40.67700 11.68900 36.49900
N  39.27700 7.86400 28.86400
C  38.60600 7.32000 29.93800
C  37.39200 6.70600 29.43100
C  37.44100 6.66200 28.01700
C  38.67300 7.49300 27.71500
C  36.42500 5.98400 30.38500
C  36.47500 5.99700 26.96200
O  36.78800 5.86300 25.76300
C  35.10200 5.49300 27.39700
N  41.43100 8.67200 27.04700
C  40.49900 8.19400 26.13500
C  41.03100 8.27300 24.70100
C  42.45000 8.97000 24.84900
C  42.48800 9.23300 26.35800
C  41.05400 6.93400 24.01000
C  42.59700 10.14500 23.87600
C  42.24300 11.63400 24.30600
N  43.02000 9.68700 29.17900
C  43.98200 10.00400 28.24800
C  45.19500 10.63900 28.75700
C  44.86000 10.70100 30.18600
C  43.59700 10.03700 30.34500
C  46.52600 11.01900 28.00600
C  45.22200 11.14500 31.50100
O  46.19200 11.82000 31.81200
C  44.14600 10.64000 32.48100
C  44.70100 9.71500 33.44200
O  44.59700 8.50800 33.41800
O  45.20400 10.40000 34.47200
C  45.40700 9.50200 35.63500
H  38.11800 7.38100 31.95900
H  38.66700 7.30100 25.61000
H  44.37200 10.01800 26.14800
H  42.12800 8.51300 33.97600
H  39.23000 9.13000 33.49600
H  38.97600 6.93400 34.64900
H  40.62800 7.05500 35.02000
H  40.11900 6.34700 33.59800
H  41.38300 11.42300 33.40600
H  42.37000 10.74200 34.73700
H  39.56400 10.28300 35.36700
H  39.68200 11.84500 34.56800
H  35.48900 6.54100 30.33500
H  36.82800 5.85700 31.39000
H  36.11600 5.01500 29.99300
H  35.35500 4.57200 27.92300
H  34.53500 5.24700 26.49900
H  34.47000 6.05500 28.08400
H  40.24900 8.89700 24.26900
H  43.30600 8.31600 24.68000
H  42.11000 6.74100 23.82000
H  40.27000 6.96900 23.25400
H  40.80000 6.13100 24.70200
H  41.87300 9.91100 23.09600
H  43.56400 10.05300 23.38100
H  41.39200 11.98800 23.72400
H  43.07600 12.27700 24.02200
H  42.20700 11.54100 25.39100
H  46.32500 12.04100 27.68600
H  46.69700 10.36700 27.14900
H  47.39300 11.06400 28.66500
H  43.66600 11.56500 32.80200
H  45.99400 8.59900 35.47000
H  44.55700 9.19500 36.24500
H  45.87200 10.21400 36.31800
Mg 6.77500 54.49200 42.29100
C  5.97200 51.18900 41.71800
C  9.99100 53.94800 41.35000
C  7.15400 57.93700 41.65200
C  3.27900 55.14500 42.93800
N  7.83600 52.75800 41.41300
C  7.34600 51.47600 41.39700
C  8.51900 50.54000 40.98400
C  9.77300 51.40500 41.34900
C  9.16700 52.80100 41.30300
C  10.36200 50.93900 42.65000
C  8.52600 50.07700 39.48100
C  8.34600 51.18000 38.44800
H  7.02000 51.19800 37.70900
N  8.36200 55.69600 41.68400
C  9.63600 55.34500 41.35800
C  10.47800 56.49000 40.96300
C  9.66000 57.61300 41.14100
C  8.31100 57.10300 41.55300
C  11.92400 56.28500 40.51200
C  10.20500 59.03900 40.89700
O  11.35400 59.27500 40.55800
C  9.28200 60.22700 41.06200
N  5.39500 56.32200 42.23200
C  5.82600 57.60100 42.15400
C  4.78700 58.65300 42.56500
C  3.56300 57.77800 42.88800
C  4.05400 56.31800 42.70500
C  5.25300 59.56600 43.78400
C  2.24000 57.97700 42.07100
C  0.87600 57.79700 42.84300
N  4.96800 53.41200 42.47500
C  3.68900 53.75600 42.78500
C  2.86000 52.55400 43.01700
C  3.73600 51.54200 42.58800
C  4.99000 52.08000 42.26000
C  1.44500 52.52300 43.52300
C  3.83900 50.14900 42.33100
O  3.03000 49.24300 42.47100
C  5.28800 49.86500 41.75200
C  5.16500 49.31900 40.40200
O  4.64200 49.77700 39.37800
O  5.77800 48.07800 40.44800
C  5.71600 47.13700 39.30200
H  11.06400 53.74300 41.36300
H  7.12300 59.02200 41.53400
H  2.21900 55.21400 43.19000
H  8.46800 49.57800 41.49500
H  10.53700 51.20000 40.59800
H  9.65700 50.34700 43.23400
H  10.73000 51.80000 43.20600
H  11.19100 50.30900 42.32600
H  7.61700 49.48900 39.35500
H  9.39500 49.44200 39.30700
H  9.15400 51.05000 37.72700
H  8.37600 52.18100 38.87900
H  11.84900 55.98800 39.46600
H  12.41000 55.46100 41.03500
H  12.49000 57.19500 40.70700
H  9.75700 61.15300 40.73800
H  8.89000 60.25500 42.07800
H  8.45600 60.01700 40.38200
H  4.66600 59.31500 41.70700
H  3.21700 57.96400 43.90500
H  6.30300 59.41200 44.03100
H  4.54500 59.49500 44.61100
H  5.19600 60.59400 43.42700
H  2.29000 57.20300 41.30500
H  2.26900 58.96400 41.61100
H  0.10700 58.54700 42.65600
H  1.15400 57.78500 43.89700
H  0.40500 56.85800 42.55000
H  1.05700 51.52700 43.30800
H  0.91200 53.23300 42.89000
H  1.50700 52.67600 44.60100
H  5.85300 49.19200 42.39600
H  5.31000 46.17300 39.60700
H  6.73800 47.08800 38.92800
H  5.08000 47.48400 38.48700

