158

Mg 47.83500 16.22800 27.72900
C  46.09100 16.35200 30.74900
C  50.37100 17.96300 29.21900
C  49.31900 16.60700 24.80200
C  45.01300 14.95200 26.19400
N  48.12000 17.04600 29.68500
C  47.28900 16.93600 30.78400
C  47.92300 17.63100 32.01700
C  49.20200 18.26600 31.46900
C  49.24200 17.69300 30.03500
C  49.14500 19.80300 31.57100
C  48.18600 16.56900 33.13900
C  47.61500 16.88900 34.51600
H  47.46000 18.37900 34.82700
N  49.65600 17.08600 27.12600
C  50.55200 17.70900 27.88900
C  51.74900 17.94100 27.13000
C  51.52900 17.59300 25.81000
C  50.10300 17.06600 25.85000
C  52.94600 18.74500 27.78900
C  52.36600 17.67900 24.55800
O  51.96200 17.24500 23.49600
C  53.79800 18.18600 24.64600
N  47.14200 15.99600 25.69200
C  48.02400 16.07300 24.70200
C  47.33100 15.75400 23.35400
C  46.02800 15.08200 23.89800
C  45.99400 15.39500 25.34900
C  47.14200 17.03200 22.46200
C  45.83000 13.57600 23.65800
C  44.73700 13.25100 22.72600
N  45.89700 15.75000 28.28100
C  44.92700 15.13500 27.61200
C  43.77700 14.84900 28.49400
C  44.16600 15.33700 29.72900
C  45.47200 15.78400 29.60100
C  42.51000 14.16300 28.08900
C  43.75700 15.49300 31.11100
O  42.76700 15.21300 31.75200
C  45.02600 16.16100 31.81200
C  44.54000 17.43500 32.45600
O  44.48200 18.54700 31.94300
O  44.07700 17.16900 33.72900
C  43.44800 18.20500 34.51800
H  51.24900 18.27300 29.78900
H  49.78000 16.71300 23.81700
H  44.17100 14.36600 25.81900
H  47.17600 18.35300 32.34900
H  50.08500 17.93500 32.01600
H  50.11700 20.25600 31.77100
H  48.52800 19.88000 32.46600
H  48.58600 20.14300 30.69900
H  49.24300 16.39300 33.33600
H  47.67600 15.67800 32.77300
H  48.29000 16.34500 35.17700
H  46.67600 16.33800 34.58400
H  53.83200 18.48800 27.20700
H  53.16800 18.28500 28.75100
H  52.77500 19.82000 27.85500
H  54.34800 17.40300 25.16600
H  53.82500 19.15100 25.15300
H  54.16400 18.23700 23.62000
H  47.94400 15.02400 22.82500
H  45.23600 15.63900 23.39600
H  46.19800 16.79900 21.96900
H  47.81700 17.26500 21.63900
H  46.92400 17.88600 23.10300
H  45.59000 13.09000 24.60300
H  46.75600 13.17900 23.24100
H  44.17100 12.33900 22.91400
H  45.22700 12.92700 21.80700
H  44.13500 14.09400 22.38800
H  42.58100 13.11900 27.78600
H  41.88800 14.71400 27.38300
H  41.91600 14.13100 29.00200
H  45.37900 15.42200 32.53100
H  43.49800 17.91100 35.56700
H  42.40500 18.05700 34.23800
H  43.70800 19.21300 34.19500
Mg 48.20900 25.34500 27.73300
C  48.94900 27.82700 30.18900
C  47.40500 23.30200 30.44800
C  47.63200 22.81700 25.55900
C  49.62500 27.35100 25.35300
N  48.15100 25.62300 30.07100
C  48.40200 26.72500 30.83500
C  48.12500 26.49800 32.32800
C  48.02800 24.93500 32.39600
C  47.79300 24.57800 30.83400
C  49.31700 24.38700 33.01200
C  46.87900 27.27300 32.93100
C  47.25900 28.27900 34.02400
H  46.22800 28.44900 35.13200
N  47.57500 23.35800 28.01000
C  47.18300 22.70500 29.17900
C  46.45800 21.59000 28.77400
C  46.49700 21.41900 27.36600
C  47.28500 22.54200 26.93300
C  45.91000 20.67700 29.77400
C  45.95700 20.35900 26.38500
O  46.11900 20.36600 25.20400
C  45.00300 19.39900 26.98700
N  48.87400 25.01900 25.78300
C  48.39200 23.92500 25.09300
C  48.71300 24.12900 23.54500
C  49.11400 25.71700 23.48600
C  49.26800 26.08000 24.97500
C  49.74800 23.11900 22.98200
C  48.05400 26.50300 22.61900
C  48.31300 26.73600 21.12800
N  49.13800 27.22300 27.69600
C  49.69200 27.89700 26.67900
C  50.20400 29.16900 27.09900
C  49.91100 29.19800 28.48800
C  49.26000 28.00600 28.81400
C  50.79900 30.12900 26.11300
C  50.07400 29.97400 29.74400
O  50.62400 31.03000 29.96800
C  49.46400 29.05300 30.89700
C  50.62600 28.89800 31.83600
O  51.17400 27.85800 32.02400
O  50.78800 30.01300 32.63200
C  51.34700 29.54500 33.89200
H  47.03600 22.68500 31.27000
H  47.38500 22.26900 24.64800
H  50.07200 27.91500 24.53200
H  49.05700 26.80600 32.80300
H  47.26600 24.61800 33.10700
H  49.81000 23.71600 32.30800
H  49.06700 23.71600 33.83400
H  50.12500 25.10100 33.17300
H  46.14800 26.53000 33.25000
H  46.39400 27.85200 32.14500
H  47.50900 29.26400 33.63000
H  48.16200 27.86500 34.47200
H  46.55000 19.80400 29.64700
H  44.92000 20.36000 29.44700
H  45.99300 20.98200 30.81800
H  44.57500 18.85500 26.14500
H  44.20500 19.94700 27.48700
H  45.52000 18.74400 27.68900
H  47.77100 23.97900 23.01800
H  50.09500 25.81700 23.02200
H  50.74400 23.55300 22.90500
H  49.47500 23.00000 21.93400
H  49.70200 22.13200 23.44400
H  48.09300 27.50000 23.05800
H  47.03300 26.12400 22.64200
H  49.14200 26.08000 20.86100
H  48.53600 27.76400 20.84400
H  47.41900 26.49400 20.55500
H  50.18800 30.07100 25.21200
H  51.83600 29.93100 25.84300
H  50.75000 31.15700 26.47100
H  48.59500 29.55900 31.31700
H  51.35900 30.38600 34.58700
H  52.39400 29.24400 33.85000
H  50.65000 28.76600 34.19800

