158

Mg -2.15600 17.04600 26.64000
C  -2.60000 14.83800 29.36300
C  -2.56500 19.63000 28.83800
C  -2.39100 19.14800 23.98600
C  -2.56500 14.42200 24.45500
N  -2.41300 17.12800 28.88400
C  -2.58800 16.17800 29.75200
C  -2.81700 16.68800 31.08900
C  -3.03700 18.21700 30.98200
C  -2.69100 18.35500 29.44300
C  -4.49100 18.80900 31.27100
C  -1.75700 16.24100 32.18300
C  -1.05600 17.17700 33.09400
H  -0.38300 16.59700 34.26500
N  -2.33700 19.12800 26.46800
C  -2.41600 20.02800 27.48100
C  -2.50000 21.40900 26.94600
C  -2.33000 21.33100 25.49200
C  -2.31600 19.85900 25.25300
C  -2.73700 22.57300 27.91200
C  -2.13500 22.45200 24.47100
O  -1.90100 22.12800 23.28000
C  -2.19800 23.88500 24.80300
N  -2.45000 16.83300 24.45900
C  -2.51000 17.84100 23.59500
C  -2.96700 17.35700 22.19600
C  -2.77200 15.83100 22.29200
C  -2.59700 15.64200 23.78000
C  -4.40900 17.87000 21.89700
C  -1.54300 15.28600 21.50900
C  -1.72500 13.99600 20.71700
N  -2.43700 15.02100 26.85200
C  -2.54500 14.06900 25.84900
C  -2.73600 12.78700 26.36400
C  -2.73500 13.08000 27.82300
C  -2.53800 14.43500 28.02000
C  -3.01300 11.44900 25.62100
C  -3.01400 12.41100 29.05200
O  -3.32900 11.25100 29.34700
C  -2.86000 13.54200 30.14000
C  -1.97600 13.28800 31.27200
O  -0.77900 13.25000 31.14400
O  -2.72800 12.99700 32.43900
C  -1.98500 12.62900 33.63700
H  -2.86200 20.47100 29.46700
H  -2.45600 19.79900 23.11200
H  -2.77700 13.52200 23.87500
H  -3.75300 16.27500 31.46500
H  -2.41800 18.78000 31.68100
H  -5.14000 18.15300 31.85000
H  -5.07000 18.97200 30.36200
H  -4.30100 19.73300 31.81800
H  -0.99900 15.70100 31.61600
H  -2.22900 15.55600 32.88800
H  -1.76000 17.97800 33.32000
H  -0.22900 17.58500 32.51300
H  -2.52900 23.52700 27.42700
H  -2.25000 22.53200 28.88700
H  -3.82100 22.46900 27.96300
H  -2.44800 24.37800 23.86300
H  -1.31700 24.23900 25.33900
H  -3.16000 23.97500 25.30800
H  -2.23400 17.77400 21.50500
H  -3.71000 15.41500 21.92400
H  -4.72400 18.63400 22.60700
H  -5.09700 17.02800 21.97500
H  -4.52800 18.32500 20.91300
H  -0.67100 15.19000 22.15700
H  -1.19300 15.99100 20.75600
H  -0.80800 13.43500 20.89800
H  -1.84700 14.22900 19.65900
H  -2.59200 13.39500 20.99300
H  -2.08300 10.89000 25.73200
H  -3.18500 11.66000 24.56500
H  -3.80600 10.90100 26.13000
H  -3.86200 13.48200 30.56500
H  -2.70500 12.86900 34.42000
H  -1.04500 13.16300 33.77800
H  -1.86600 11.55200 33.51900
Mg 48.36700 35.78100 28.11000
C  46.28800 34.02700 30.39900
C  48.66900 38.18700 30.32100
C  49.93500 37.47700 25.64800
C  47.39000 33.38200 25.69100
N  47.59200 36.00900 30.02500
C  46.89900 35.14600 30.79200
C  46.83000 35.64800 32.19700
C  47.12000 37.18400 32.10200
C  47.84000 37.15900 30.72600
C  45.84500 38.15000 32.18000
C  47.67400 34.81200 33.25600
C  48.68400 35.60800 34.18400
H  48.21500 36.66600 35.21100
N  49.32900 37.51900 28.06900
C  49.39400 38.38100 29.15300
C  50.16300 39.48300 28.81200
C  50.59700 39.32800 27.43400
C  49.95100 38.07400 26.95400
C  50.37400 40.66800 29.71400
C  51.36400 40.31800 26.52400
O  51.63900 40.01200 25.34700
C  51.92900 41.69700 26.92900
N  48.51500 35.47100 26.01600
C  49.26400 36.34700 25.19300
C  49.49300 35.80600 23.71500
C  48.96300 34.33200 23.96700
C  48.20900 34.43900 25.30300
C  48.83000 36.69800 22.60000
C  50.06100 33.27200 23.91400
C  49.70400 31.92400 23.27600
N  47.07600 34.06900 28.00400
C  46.77000 33.19500 26.93900
C  45.82800 32.15700 27.35500
C  45.51000 32.48700 28.68600
C  46.39700 33.58800 29.02700
C  45.35500 31.04100 26.36700
C  44.70900 32.17900 29.82400
O  43.92400 31.30700 30.10300
C  45.09700 33.22900 30.89300
C  45.32200 32.62200 32.21000
O  46.23300 31.87800 32.52400
O  44.36200 33.04900 33.09700
C  44.43500 32.63900 34.52900
H  48.70000 39.06200 30.97400
H  50.50100 37.98500 24.86400
H  47.15200 32.71100 24.86300
H  45.81700 35.49500 32.56900
H  47.82800 37.57400 32.83300
H  44.91500 37.61100 32.35600
H  45.72000 38.62900 31.20800
H  45.91100 38.98000 32.88300
H  48.14100 33.92900 32.82100
H  46.90500 34.35100 33.87600
H  49.44700 36.04200 33.53800
H  49.29700 34.87300 34.70400
H  50.10800 40.63200 30.77100
H  49.81500 41.47400 29.23800
H  51.42800 40.86000 29.91700
H  51.14200 42.44300 27.03900
H  52.52400 42.04400 26.08400
H  52.48700 41.58500 27.85900
H  50.55800 35.83100 23.48700
H  48.22000 34.03000 23.22900
H  49.49600 36.91900 21.76600
H  48.52500 37.64900 23.03600
H  47.94700 36.22400 22.17100
H  50.42400 33.10500 24.92800
H  50.80500 33.79100 23.31000
H  50.35600 31.74400 22.42200
H  48.71400 31.87600 22.82100
H  49.87400 31.11700 23.98900
H  44.49000 30.49000 26.73500
H  46.15900 30.32000 26.21900
H  45.18400 31.37000 25.34200
H  44.28400 33.95500 30.91500
H  45.47600 32.50700 34.82600
H  43.88100 31.76800 34.87900
H  43.92700 33.42600 35.08600

