158

Mg 53.06100 24.67800 45.43400
C  50.47400 26.71000 44.36500
C  51.45500 22.01300 43.83900
C  55.80200 22.76100 45.80400
C  54.81300 27.43600 46.52800
N  51.31100 24.39500 44.21900
C  50.41000 25.36700 43.91500
C  49.37600 24.94900 42.90200
C  49.41800 23.35600 43.12300
C  50.83300 23.22900 43.78900
C  48.33100 22.94300 44.07100
C  49.79200 25.48100 41.51900
C  48.68900 25.96400 40.57000
H  48.33300 24.98500 39.45200
N  53.59500 22.65800 44.95800
C  52.75800 21.73100 44.34400
C  53.42100 20.45800 44.28500
C  54.66000 20.63400 44.90300
C  54.74300 22.01700 45.31300
C  52.82300 19.17000 43.79300
C  55.69100 19.53200 45.08000
O  55.50700 18.37100 44.68300
C  57.03000 19.75200 45.79200
N  55.12300 25.01200 45.91500
C  56.01500 24.07000 46.09900
C  57.35400 24.75100 46.60200
C  57.04100 26.28600 46.65900
C  55.56300 26.20800 46.39100
C  57.95200 24.22700 47.92700
C  57.79600 26.97400 45.52700
C  59.28100 27.28700 45.73200
N  52.72600 26.70300 45.65300
C  53.43900 27.70900 46.13300
C  52.63200 28.91200 46.16200
C  51.42100 28.50300 45.60100
C  51.60000 27.22400 45.10900
C  53.04500 30.18700 46.78800
C  50.02100 28.92800 45.28300
O  49.35500 29.88200 45.74300
C  49.34900 27.72800 44.34400
C  49.04800 28.21200 43.02100
O  49.78000 28.74900 42.20000
O  47.65500 28.23800 42.91600
C  47.11500 29.04000 41.79100
H  50.83200 21.17800 43.51300
H  56.70000 22.15400 45.93600
H  55.36500 28.30200 46.90200
H  48.48000 25.48800 43.21000
H  49.43200 22.90500 42.13100
H  48.79600 22.94900 45.05600
H  47.98100 21.96500 43.74000
H  47.43600 23.56500 44.08600
H  50.24700 24.60900 41.04900
H  50.53600 26.26900 41.63400
H  48.87600 26.91200 40.06600
H  47.74100 26.01400 41.10600
H  51.74600 19.25900 43.65400
H  52.94300 18.30500 44.44600
H  53.51200 18.87100 43.00200
H  57.78700 20.25500 45.19200
H  57.50700 18.79200 45.99200
H  56.77000 20.32700 46.68100
H  58.09300 24.54400 45.82900
H  57.14000 26.65000 47.68200
H  57.91400 24.91000 48.77500
H  58.95100 23.82100 47.76500
H  57.36300 23.44400 48.40500
H  57.34800 27.93900 45.28900
H  57.48500 26.41800 44.64300
H  59.62200 27.20200 46.76400
H  59.44300 28.26600 45.28100
H  59.86800 26.64100 45.07900
H  53.42200 30.17600 47.81100
H  52.28700 30.95900 46.91800
H  53.87300 30.62400 46.23000
H  48.47300 27.36100 44.87800
H  47.72500 29.66500 41.13900
H  46.20100 29.58100 42.03700
H  46.76600 28.28800 41.08400
Mg 29.81900 58.65000 39.04000
C  27.02900 56.70100 38.14800
C  31.85600 56.01500 38.50900
C  32.38300 60.81100 39.13500
C  27.61700 61.35000 39.30200
N  29.46200 56.66000 38.02300
C  28.18700 56.03800 37.92000
C  28.40800 54.57500 37.51500
C  29.83100 54.25500 38.20400
C  30.46300 55.72700 38.25000
C  29.77300 53.57800 39.59100
C  28.41700 54.44700 35.96000
C  27.23300 53.67100 35.30200
H  26.21700 54.48700 34.43700
N  31.97000 58.40600 39.01700
C  32.59600 57.25900 38.73100
C  34.01500 57.46200 38.75700
C  34.26200 58.82400 39.05700
C  32.86800 59.42000 39.01900
C  34.96500 56.34700 38.67700
C  35.51000 59.52600 39.17500
O  36.59500 59.01800 38.99900
C  35.56000 60.92000 39.51100
N  30.02300 60.76300 39.45200
C  31.18200 61.43700 39.29300
C  30.95700 62.96400 39.45200
C  29.48000 63.11600 39.61400
C  29.01400 61.64300 39.45600
C  31.83700 63.58900 40.61200
C  28.75100 64.08000 38.64600
C  28.15300 65.29000 39.18800
N  27.73900 59.05700 38.82400
C  26.98800 60.15100 38.98600
C  25.64700 59.86200 38.85200
C  25.55000 58.56700 38.51900
C  26.87900 58.07300 38.51800
C  24.50900 60.74700 39.22100
C  24.69300 57.47200 38.28000
O  23.47200 57.41900 38.19300
C  25.58300 56.21300 38.01500
C  25.17400 55.10900 38.94400
O  25.32000 55.10700 40.15400
O  24.57700 54.12200 38.19100
C  23.89100 52.95100 38.78400
H  32.44600 55.09700 38.46400
H  33.17100 61.55100 39.28900
H  26.93600 62.16000 39.57400
H  27.57500 53.93100 37.79900
H  30.45000 53.53600 37.66800
H  30.47200 52.74500 39.66800
H  28.78500 53.11900 39.57100
H  29.90000 54.23200 40.45400
H  29.28500 53.84300 35.69700
H  28.55300 55.45500 35.56800
H  26.66300 53.11200 36.04500
H  27.66700 52.88100 34.68800
H  35.92100 56.65500 39.10000
H  35.16300 56.16400 37.62100
H  34.53800 55.47800 39.17800
H  36.57500 61.22700 39.76500
H  34.85800 61.27200 40.26700
H  35.38700 61.48000 38.59200
H  31.26400 63.40200 38.50300
H  29.18900 63.32200 40.64400
H  31.94100 64.66900 40.50300
H  32.82100 63.14000 40.48200
H  31.27300 63.34100 41.51100
H  27.94800 63.61900 38.07100
H  29.51400 64.40800 37.94000
H  28.64200 66.09000 38.63300
H  28.51800 65.42500 40.20700
H  27.07200 65.31900 39.05300
H  24.88700 61.44300 39.97000
H  23.61300 60.17900 39.47200
H  24.24400 61.45900 38.43900
H  25.47900 55.90900 36.97400
H  23.15500 52.46500 38.14300
H  23.31900 53.12500 39.69500
H  24.66500 52.23400 39.06100

