158

Mg -0.02900 43.74500 26.19000
C  2.52300 43.20700 28.72900
C  -2.34900 42.52600 28.44300
C  -2.27800 43.75800 23.65300
C  2.52800 44.19500 23.93600
N  0.06400 43.14000 28.39900
C  1.17500 43.19400 29.21100
C  0.70200 43.00000 30.70200
C  -0.78100 42.55500 30.51600
C  -1.07800 42.89900 29.05400
C  -0.96000 41.05300 30.94300
C  1.02100 44.30500 31.54200
C  1.76400 43.98300 32.88700
H  1.41100 42.63600 33.55500
N  -1.99200 43.34200 26.14500
C  -2.78900 42.78700 27.14200
C  -4.10400 42.56000 26.58500
C  -4.11500 42.91000 25.22600
C  -2.74600 43.37200 24.96200
C  -5.21100 41.87800 27.38500
C  -5.24800 42.94500 24.20800
O  -5.22900 43.17900 23.00000
C  -6.64400 42.79900 24.78600
N  0.08000 44.17900 24.09900
C  -0.97800 44.15800 23.28200
C  -0.54000 44.48900 21.79200
C  0.94000 44.68600 21.96100
C  1.27200 44.35400 23.41800
C  -0.88800 43.28400 20.83500
C  1.48600 46.06500 21.64500
C  0.82000 47.21800 22.33000
N  2.06800 43.81000 26.28600
C  2.94800 44.00200 25.26900
C  4.30600 43.83100 25.72100
C  4.16600 43.64100 27.08800
C  2.83100 43.48400 27.35300
C  5.68000 44.09900 25.07300
C  4.90300 43.33800 28.30600
O  6.10300 43.34700 28.50500
C  3.86700 43.17600 29.43800
C  4.17400 41.94800 30.24700
O  3.84500 40.77400 29.91200
O  5.01500 42.19000 31.31800
C  5.25800 41.00300 32.18900
H  -3.10000 42.27900 29.19600
H  -3.01000 43.60300 22.85700
H  3.43500 44.44700 23.38300
H  1.36800 42.27900 31.17700
H  -1.40000 43.17200 31.16800
H  -0.09700 40.59500 31.42600
H  -1.35400 40.34600 30.21200
H  -1.76200 41.04200 31.68000
H  0.06700 44.82600 31.61400
H  1.61800 45.00900 30.96200
H  1.60900 44.81200 33.57800
H  2.78000 43.95600 32.49400
H  -5.91900 42.65700 27.67000
H  -4.78300 41.36200 28.24400
H  -5.62400 41.12100 26.71800
H  -7.44800 43.14000 24.13300
H  -6.56500 43.38300 25.70300
H  -6.88000 41.76000 25.01400
H  -1.10300 45.33700 21.40100
H  1.49700 44.05700 21.26700
H  -1.82200 43.45400 20.29900
H  -0.95100 42.34800 21.38800
H  -0.07300 43.36000 20.11500
H  1.49500 46.11000 20.55600
H  2.48900 46.13800 22.06600
H  1.51000 47.68400 23.03300
H  -0.13500 46.85800 22.71400
H  0.55800 48.03100 21.65300
H  5.85900 43.20400 24.47800
H  6.38400 44.14600 25.90400
H  5.56500 45.08200 24.61700
H  3.90700 44.04000 30.10100
H  6.29700 40.72800 32.00800
H  4.61000 40.13200 32.09900
H  5.18000 41.28400 33.23900
Mg -11.11700 16.54600 43.25900
C  -7.61000 17.47600 42.83400
C  -11.76300 19.94300 42.88200
C  -14.27500 15.70500 42.65600
C  -10.16700 13.21200 43.04400
N  -9.84800 18.41000 42.82300
C  -8.47300 18.56600 42.69200
C  -7.98500 19.94200 42.52700
C  -9.23800 20.68700 42.99700
C  -10.38300 19.64100 42.92000
C  -9.09600 21.46200 44.33700
C  -7.54400 20.24100 41.07200
C  -6.19000 20.63400 40.90100
H  -5.15800 19.72800 40.18600
N  -12.81800 17.66600 42.98400
C  -12.86000 18.99000 42.77600
C  -14.20800 19.45600 42.65100
C  -15.01300 18.24600 42.62200
C  -14.06000 17.11400 42.69400
C  -14.69000 20.80900 42.41500
C  -16.48300 18.20900 42.42800
O  -17.14800 19.23800 42.27800
C  -17.23300 16.82900 42.41000
N  -12.07400 14.73500 42.77100
C  -13.42800 14.60700 42.71300
C  -13.95500 13.12700 42.66900
C  -12.60300 12.35100 42.88900
C  -11.56400 13.45600 42.93200
C  -14.93800 12.80900 43.89700
C  -12.39600 11.26400 41.79600
C  -11.66300 11.68700 40.52600
N  -9.34100 15.51500 43.12800
C  -9.13300 14.19700 43.17200
C  -7.71000 13.89800 43.08900
C  -7.07100 15.14200 43.05500
C  -8.07400 16.12400 43.01800
C  -7.08800 12.54200 43.05400
C  -5.79300 15.83600 42.92000
O  -4.67400 15.38600 42.89800
C  -6.14600 17.40600 42.86500
C  -5.54400 18.00400 44.09500
O  -5.37600 17.39700 45.13900
O  -5.06900 19.25700 43.91000
C  -4.46600 19.86700 45.06500
H  -11.94700 21.02000 42.88600
H  -15.29700 15.32100 42.65800
H  -9.88800 12.15600 43.05700
H  -7.20600 20.14800 43.26100
H  -9.51800 21.51500 42.34500
H  -8.33100 21.14000 45.04400
H  -10.00800 21.15800 44.85000
H  -9.02300 22.54300 44.22000
H  -8.13500 21.00100 40.56200
H  -7.62800 19.31900 40.49700
H  -5.71000 20.89700 41.84300
H  -6.05400 21.57700 40.37100
H  -13.84800 21.36400 42.00000
H  -15.01900 21.26400 43.34800
H  -15.41600 20.84800 41.60300
H  -18.25800 17.14100 42.20800
H  -17.03800 16.35800 43.37300
H  -16.78200 16.23500 41.61600
H  -14.38700 12.92800 41.68800
H  -12.45300 11.95500 43.89300
H  -15.30700 13.77500 44.24300
H  -14.59400 12.20100 44.73400
H  -15.78400 12.27900 43.46000
H  -13.35300 10.78300 41.59000
H  -11.81000 10.46200 42.24500
H  -11.62000 12.77400 40.45000
H  -12.12600 11.39000 39.58500
H  -10.65500 11.28300 40.43100
H  -6.10100 12.55400 43.51600
H  -7.02100 12.14900 42.04000
H  -7.77100 11.87100 43.57700
H  -5.80500 17.86100 41.93500
H  -3.92900 20.76700 44.76500
H  -3.66500 19.22000 45.42300
H  -5.17300 20.18200 45.83300

