158

Mg 30.95100 57.68600 40.11300
C  28.51900 55.34900 39.01100
C  33.29800 55.27200 39.64200
C  33.25500 60.07500 40.25600
C  28.39400 60.12800 40.13000
N  30.85600 55.49000 39.35200
C  29.80300 54.82600 38.90800
C  30.29800 53.43000 38.41600
C  31.71400 53.25700 39.03700
C  32.00900 54.77900 39.38600
C  31.94400 52.18800 40.14900
C  30.22900 53.27100 36.80700
C  28.97700 52.49400 36.28400
H  28.08300 53.18600 35.15900
N  32.95500 57.63000 40.03600
C  33.75600 56.54600 39.86700
C  35.14300 56.93700 39.84800
C  35.21000 58.26600 40.10800
C  33.75700 58.73400 40.17700
C  36.34000 55.92200 39.61700
C  36.43400 59.08100 40.34300
O  37.52600 58.51700 40.40200
C  36.34200 60.52400 40.70700
N  30.80900 59.93200 40.05500
C  31.93000 60.60200 40.28000
C  31.55800 62.13900 40.54300
C  29.98700 62.11900 40.77900
C  29.67100 60.66200 40.35700
C  32.30000 62.97800 41.60800
C  29.18000 63.26500 40.09300
C  28.04200 63.86500 40.97900
N  28.84000 57.82500 39.73100
C  27.92900 58.86900 39.91800
C  26.62800 58.40300 39.39100
C  26.79200 56.98800 39.19200
C  28.14500 56.65600 39.41900
C  25.44600 59.25100 39.02600
C  26.13400 55.80500 38.79500
O  24.93900 55.65100 38.62100
C  27.22200 54.63900 38.66100
C  26.86800 53.36400 39.34900
O  27.13500 53.17000 40.49600
O  26.18300 52.41900 38.63400
C  25.70300 51.29300 39.32500
H  34.06900 54.50300 39.55600
H  34.09400 60.75600 40.41300
H  27.64500 60.92100 40.17900
H  29.65600 52.72600 38.94600
H  32.43400 53.08600 38.23600
H  32.44600 52.59000 41.02900
H  32.59300 51.38900 39.78900
H  31.00100 51.70200 40.39800
H  31.08300 52.64700 36.54200
H  30.32700 54.24500 36.32800
H  28.27600 52.31200 37.09800
H  29.32600 51.56300 35.83500
H  37.18100 56.42600 39.14000
H  36.12200 54.99300 39.08900
H  36.58800 55.51900 40.59900
H  37.26200 60.93400 41.12200
H  35.65300 60.56800 41.55100
H  36.03200 61.17000 39.88600
H  31.68600 62.69800 39.61600
H  29.83500 62.06500 41.85700
H  32.77500 62.28800 42.30500
H  31.56500 63.51100 42.21200
H  32.96900 63.69400 41.13000
H  28.58800 62.80500 39.30100
H  29.77300 64.07000 39.66000
H  28.06900 64.95400 41.02100
H  28.15000 63.50400 42.00200
H  27.09300 63.67600 40.47800
H  24.63300 59.26900 39.75200
H  24.96600 58.72400 38.20100
H  25.61900 60.29200 38.75200
H  27.12300 54.53000 37.58100
H  24.99400 50.72400 38.72300
H  25.19800 51.71900 40.19300
H  26.54900 50.69900 39.67100
Mg 5.99300 54.81500 40.53300
C  3.32800 52.49000 40.40800
C  8.05800 52.37900 39.38100
C  8.34600 57.10300 40.21300
C  3.56500 57.33900 41.21800
N  5.64300 52.73700 39.79400
C  4.55000 51.97700 39.80600
C  4.69300 50.58400 39.15500
C  6.27400 50.52900 39.09200
C  6.68800 51.96300 39.46700
C  7.09400 49.49000 39.85600
C  4.02200 50.53700 37.72200
C  3.32200 49.12500 37.43500
H  3.90400 48.25100 36.39200
N  8.09200 54.71700 40.09400
C  8.69900 53.63300 39.58500
C  10.05700 54.03200 39.41900
C  10.06400 55.44000 39.34100
C  8.80900 55.82600 39.88500
C  11.17800 53.04800 39.12800
C  11.23500 56.32100 38.84200
O  12.27700 55.75700 38.49200
C  11.19500 57.77000 38.86700
N  5.85700 56.92900 40.42600
C  7.07400 57.59300 40.56300
C  6.92400 59.08500 40.96100
C  5.36300 59.17600 41.05300
C  4.89600 57.70600 40.89300
C  7.60500 59.23000 42.30700
C  4.80500 60.27600 40.05900
C  4.00900 59.79500 38.82400
N  3.87600 54.96600 40.87500
C  3.10300 56.02000 41.25200
C  1.82600 55.51400 41.68000
C  1.88900 54.20500 41.35900
C  3.15400 53.85800 40.89600
C  0.71600 56.24200 42.21200
C  1.14800 52.93900 41.30100
O  -0.00100 52.64700 41.59500
C  2.06200 51.85700 40.68100
C  1.32800 51.15200 39.64300
O  0.98200 51.59800 38.58000
O  1.03200 49.89500 40.13100
C  0.03400 49.20800 39.28900
H  8.77500 51.64800 39.00100
H  9.17900 57.80700 40.26000
H  3.01100 58.22900 41.52300
H  4.29600 49.90500 39.91000
H  6.53700 50.38300 38.04500
H  7.58500 48.96900 39.03400
H  6.50800 48.81000 40.47400
H  7.74800 49.93100 40.61000
H  4.84900 50.73500 37.04000
H  3.28600 51.31700 37.52900
H  2.28700 49.31100 37.14500
H  3.34100 48.52400 38.34400
H  10.84400 52.01400 39.21900
H  11.94600 53.16900 39.89100
H  11.66500 53.27200 38.17900
H  10.32400 58.14900 38.33300
H  11.94200 58.17500 38.18400
H  11.22200 58.18100 39.87600
H  7.46100 59.64600 40.19800
H  4.93700 59.45900 42.01600
H  6.89900 59.81300 42.89800
H  8.51800 59.81700 42.20700
H  7.87600 58.29500 42.79800
H  5.55800 60.96900 39.68400
H  4.06100 60.90100 40.55500
H  2.94400 59.95300 38.99300
H  4.22200 58.75500 38.57900
H  4.27600 60.37000 37.93700
H  1.02700 56.77600 43.11000
H  -0.11000 55.53900 42.32100
H  0.44200 57.02200 41.50200
H  2.27500 51.20900 41.53100
H  -0.56000 48.45700 39.81000
H  0.53600 48.79400 38.41400
H  -0.82800 49.82200 39.02800

