158

Mg 25.81500 0.15000 29.41200
C  27.57800 0.14300 32.34600
C  22.88800 0.43000 31.16400
C  24.17600 0.03600 26.51500
C  28.85300 -0.47800 27.75000
N  25.37100 0.33100 31.46800
C  26.27400 0.43300 32.55700
C  25.57700 0.91700 33.89300
C  24.04300 0.98700 33.41200
C  24.08500 0.48000 31.96500
C  22.94000 0.29400 34.34700
C  26.14100 2.26100 34.43900
C  25.32800 2.81500 35.63800
H  26.03600 2.79300 36.98200
N  23.77100 0.23500 28.94800
C  22.68200 0.33500 29.74200
C  21.45600 0.40200 29.01600
C  21.88100 0.49600 27.68800
C  23.35500 0.21900 27.67200
C  20.07600 0.54800 29.53800
C  21.03800 0.80600 26.44700
O  21.45500 0.87100 25.25900
C  19.60300 1.06200 26.62100
N  26.44200 -0.30200 27.37000
C  25.51400 -0.20300 26.36300
C  26.28600 -0.34700 25.07100
C  27.75300 -0.25400 25.42900
C  27.69600 -0.44500 26.93600
C  25.83600 -1.66700 24.47200
C  28.33500 1.22000 24.95500
C  29.88700 1.28100 24.75700
N  27.74900 -0.32900 29.93300
C  28.85100 -0.54600 29.12600
C  30.03400 -0.75600 29.95200
C  29.57700 -0.48000 31.25300
C  28.22000 -0.13200 31.17000
C  31.36300 -1.16300 29.47600
C  29.91900 -0.33000 32.67100
O  30.93400 -0.60100 33.29600
C  28.66500 0.09200 33.38300
C  28.39700 -0.99300 34.33100
O  27.63300 -1.92400 34.11600
O  29.09700 -0.76800 35.46000
C  28.91200 -1.66700 36.60100
H  21.96400 0.60900 31.71800
H  23.68200 -0.05600 25.54500
H  29.81400 -0.51100 27.23300
H  25.51500 0.16700 34.68100
H  23.81900 2.05100 33.33200
H  22.30300 1.08500 34.74200
H  23.34400 -0.30000 35.16700
H  22.37200 -0.43400 33.76800
H  26.31400 2.91100 33.58100
H  27.13100 2.00300 34.81600
H  24.35900 2.32300 35.72500
H  25.09200 3.86100 35.44200
H  19.37900 -0.22600 29.22000
H  19.59500 1.50900 29.35400
H  20.16800 0.47000 30.62200
H  18.98800 1.13200 25.72500
H  19.55600 2.06300 27.05000
H  19.14400 0.27100 27.21500
H  25.93900 0.55500 24.56600
H  28.39100 -1.05300 25.05100
H  26.60500 -2.41900 24.30000
H  25.26400 -1.47400 23.56400
H  25.09600 -2.13200 25.12300
H  27.98400 2.06700 25.54400
H  27.85500 1.49000 24.01500
H  30.13300 1.32900 23.69700
H  30.39300 0.42400 25.20200
H  30.35700 2.13700 25.24200
H  31.65400 -2.20900 29.57700
H  32.07100 -0.69600 30.16100
H  31.62800 -0.81000 28.48000
H  28.74500 1.07800 33.84000
H  29.16400 -1.13700 37.52000
H  29.62500 -2.49200 36.60400
H  27.90600 -2.07800 36.67800
Mg 16.48100 52.31900 26.32800
C  17.93100 50.66500 29.20200
C  13.95800 53.39100 28.52800
C  15.25100 53.84500 23.76400
C  19.11500 50.91000 24.34900
N  16.06200 52.06500 28.58500
C  16.85100 51.44700 29.59800
C  16.34600 51.71400 31.06300
C  15.06200 52.46800 30.73900
C  14.99900 52.68200 29.17300
C  13.79200 51.67100 31.29200
C  17.44700 52.66700 31.82000
C  17.77600 52.27300 33.25800
H  16.87000 51.16700 33.87900
N  14.80700 53.35100 26.13700
C  13.82300 53.71600 27.10800
C  12.79900 54.59000 26.46100
C  13.24600 54.79800 25.06400
C  14.46900 53.95700 24.95700
C  11.58700 55.21000 27.17000
C  12.54700 55.64000 23.91500
O  13.02500 55.67400 22.82200
C  11.30700 56.44800 24.21800
N  17.03100 52.25300 24.26300
C  16.41100 53.11000 23.37900
C  17.16600 53.17900 22.04400
C  18.46100 52.32000 22.31600
C  18.18700 51.78000 23.70500
C  16.27000 52.50000 20.94700
C  19.79300 53.16800 22.37900
C  20.73200 52.83600 21.21100
N  18.04900 50.93100 26.58200
C  19.07400 50.56800 25.73100
C  20.05600 49.78300 26.39300
C  19.65600 49.82300 27.79100
C  18.41700 50.45800 27.85000
C  21.21900 48.96900 25.74400
C  20.19400 49.49900 29.14900
O  21.20900 48.91800 29.51300
C  19.02600 49.93600 30.11800
C  18.49000 48.65200 30.70100
O  17.64800 47.91800 30.20000
O  19.19000 48.39000 31.82700
C  18.76700 47.18800 32.59900
H  13.23900 53.75800 29.26300
H  14.89100 54.38300 22.88500
H  20.04600 50.66100 23.83500
H  16.20300 50.81100 31.65500
H  15.16900 53.43900 31.22200
H  13.90800 50.59100 31.37300
H  12.92900 51.79300 30.63700
H  13.50400 52.00200 32.29000
H  17.08600 53.68500 31.67200
H  18.30600 52.71400 31.15000
H  17.85200 53.17800 33.86100
H  18.79400 51.89100 33.19000
H  11.89400 56.17600 27.57100
H  11.29100 54.54200 27.97900
H  10.67300 55.32000 26.58600
H  10.95600 56.99200 23.34100
H  11.60000 57.24000 24.90700
H  10.41000 55.85200 24.38500
H  17.34900 54.21500 21.75600
H  18.50300 51.59700 21.50200
H  16.24700 53.22400 20.13200
H  15.26300 52.45900 21.36300
H  16.58600 51.52100 20.58900
H  20.29500 53.14700 23.34600
H  19.50200 54.21500 22.29400
H  20.96800 53.78600 20.73100
H  20.30900 52.07700 20.55200
H  21.56500 52.29400 21.65900
H  20.86200 48.70300 24.74900
H  21.24400 48.08000 26.37400
H  22.13300 49.56300 25.74900
H  19.45600 50.55900 30.90200
H  17.69700 46.98100 32.58400
H  19.01400 47.38900 33.64100
H  19.21100 46.28700 32.17400

