158

Mg 3.29900 -1.69200 43.70300
C  6.48700 -0.16700 43.35100
C  1.96600 1.27800 42.51800
C  0.34200 -3.12200 43.64200
C  4.79000 -4.50300 44.98600
N  4.19400 0.24900 42.82300
C  5.47700 0.70800 42.87900
C  5.57200 2.16000 42.38900
C  4.09400 2.56600 42.26400
C  3.37600 1.25300 42.54300
C  3.61100 3.56300 43.28000
C  6.37500 2.34400 41.07000
C  5.82900 1.62300 39.79600
H  6.58400 2.01000 38.51000
N  1.40500 -1.03500 42.99000
C  1.06900 0.21500 42.52800
C  -0.34300 0.19600 42.13600
C  -0.86100 -0.95900 42.69500
C  0.27800 -1.76500 43.18400
C  -1.06200 1.36000 41.38300
C  -2.41200 -1.25100 42.63200
O  -3.33100 -0.50200 42.18900
C  -2.91000 -2.66400 43.12200
N  2.64600 -3.51400 44.29600
C  1.38100 -3.92500 44.05400
C  1.17900 -5.43400 44.45600
C  2.64800 -5.89700 44.76700
C  3.41600 -4.56500 44.63300
C  0.16000 -5.58300 45.67900
C  3.18300 -7.13700 43.89400
C  2.92800 -8.57700 44.34000
N  5.13700 -2.23400 44.11800
C  5.63800 -3.42500 44.68600
C  7.01200 -3.29000 44.96400
C  7.43200 -2.07800 44.35800
C  6.27100 -1.47000 43.88800
C  7.80800 -4.30300 45.58200
C  8.56900 -1.30400 44.10300
O  9.75700 -1.47600 44.21400
C  7.99700 -0.00300 43.42400
C  8.45100 1.20200 44.26000
O  9.31300 1.95200 43.76900
O  7.88600 1.34900 45.52600
C  8.19300 2.61000 46.15700
H  1.54000 2.24200 42.23200
H  -0.51600 -3.78800 43.52300
H  5.11800 -5.44000 45.44000
H  6.03400 2.78100 43.15600
H  3.77500 2.91400 41.28200
H  4.44500 4.18900 43.59900
H  3.15300 3.02900 44.11200
H  2.87500 4.23300 42.83600
H  7.44000 2.17800 41.23100
H  6.54500 3.40200 40.86700
H  4.78300 1.87800 39.62600
H  5.88400 0.54300 39.93300
H  -2.10000 1.20900 41.08600
H  -0.46000 1.61400 40.51100
H  -1.13300 2.24000 42.02300
H  -2.51500 -2.90100 44.11000
H  -2.76900 -3.44900 42.37900
H  -3.96200 -2.54400 43.37900
H  0.77600 -6.09100 43.68500
H  2.80700 -6.27200 45.77800
H  -0.87600 -5.79000 45.40900
H  0.06500 -4.55700 46.03600
H  0.53900 -6.21100 46.48400
H  4.25100 -6.99100 43.73000
H  2.70700 -7.01500 42.92000
H  2.42600 -9.22700 43.62300
H  2.28500 -8.56100 45.22000
H  3.80400 -9.13400 44.67400
H  7.74900 -4.01000 46.63000
H  8.73700 -4.30700 45.01200
H  7.29300 -5.26400 45.58100
H  8.50000 0.18600 42.47600
H  8.08900 2.53900 47.23900
H  7.57600 3.34900 45.64700
H  9.18200 3.04900 46.02600
Mg 43.43400 3.70900 47.11000
C  41.03400 6.19200 46.78300
C  40.91900 1.40100 47.11500
C  45.76000 1.22800 46.93900
C  45.82400 6.04600 46.42900
N  41.18200 3.79500 46.66500
C  40.42700 4.93300 46.76400
C  38.98400 4.59100 46.88800
C  39.05600 3.07300 47.42200
C  40.44100 2.69500 46.97300
C  38.84500 2.93500 48.90500
C  38.22800 4.75000 45.52900
C  37.24900 5.95100 45.43700
H  36.60000 6.14900 44.07700
N  43.40700 1.53800 47.01400
C  42.22600 0.83900 47.20200
C  42.53500 -0.54300 47.39300
C  43.96000 -0.62800 47.32600
C  44.45600 0.72000 47.07500
C  41.57000 -1.67100 47.41800
C  44.81400 -1.89300 47.43500
O  44.25700 -2.98000 47.74600
C  46.28600 -1.93900 47.16300
N  45.49300 3.75800 46.72700
C  46.22800 2.55100 46.78500
C  47.76200 2.83800 46.66600
C  47.69100 4.40900 46.36000
C  46.23300 4.73500 46.48300
C  48.53800 2.48000 48.01000
C  48.38200 4.75400 44.95900
C  47.69700 4.00400 43.76700
N  43.47800 5.69900 46.72900
C  44.50400 6.49600 46.47800
C  44.08700 7.88100 46.54800
C  42.68200 7.84000 46.71300
C  42.42400 6.48400 46.71500
C  45.00100 9.08800 46.56300
C  41.41600 8.55800 46.84600
O  41.20300 9.79300 47.01000
C  40.38800 7.50000 46.88900
C  39.51400 7.59400 48.14600
O  39.84200 7.38100 49.28200
O  38.27900 8.05400 47.75500
C  37.41600 8.32700 48.84600
H  40.17300 0.66100 47.41400
H  46.63200 0.58800 47.08400
H  46.64000 6.76900 46.37100
H  38.54800 5.32500 47.56500
H  38.29100 2.54500 46.85300
H  38.35500 3.82100 49.30700
H  39.81100 2.78000 49.38400
H  38.07800 2.18300 49.09300
H  37.68300 3.83300 45.30700
H  39.00000 4.94200 44.78400
H  37.73800 6.90100 45.65000
H  36.50000 5.85600 46.22300
H  41.68300 -2.26300 46.51000
H  40.52800 -1.36200 47.32800
H  41.69800 -2.39500 48.22300
H  46.93900 -1.42900 47.87200
H  46.42600 -1.41500 46.21800
H  46.65700 -2.96400 47.16000
H  48.08300 2.24000 45.81300
H  48.27900 4.97700 47.08100
H  47.73500 2.10200 48.64300
H  49.13400 3.30000 48.41100
H  49.25300 1.72500 47.68300
H  49.44800 4.53200 45.00200
H  48.27600 5.82400 44.78100
H  47.13900 4.74900 43.19900
H  47.04000 3.25400 44.20800
H  48.41800 3.53400 43.09800
H  45.96800 8.85600 47.01000
H  44.45300 9.80300 47.17600
H  45.16900 9.38700 45.52900
H  39.77600 7.76300 46.02700
H  36.61100 8.86200 48.34100
H  37.87100 9.01900 49.55400
H  37.07100 7.35700 49.20400

