158

Mg 34.98700 3.55800 30.42600
C  33.08900 4.56000 32.95300
C  37.81500 3.58900 32.42600
C  37.06200 2.91100 27.70400
C  32.30200 3.91100 28.17600
N  35.38300 3.90500 32.40600
C  34.41000 4.28400 33.31600
C  35.04000 4.44400 34.75000
C  36.53900 4.43100 34.42400
C  36.59900 4.04400 32.93400
C  37.31300 5.72000 34.78300
C  34.51800 3.33400 35.64100
C  33.98100 3.72600 37.05300
H  34.70100 4.95600 37.66900
N  37.08700 3.02100 30.23400
C  38.07400 3.02900 31.14500
C  39.36700 2.56800 30.62700
C  39.12400 2.39500 29.25600
C  37.67900 2.76700 29.01800
C  40.58600 2.32700 31.51000
C  40.14100 2.00300 28.20900
O  39.91100 2.02100 27.02000
C  41.52100 1.60500 28.52000
N  34.71100 3.42800 28.32000
C  35.72400 3.18700 27.40200
C  35.24000 3.24100 25.94700
C  33.68500 3.15700 26.17700
C  33.53600 3.50700 27.64700
C  35.62500 4.55900 25.14800
C  33.09300 1.79200 25.78800
C  31.57100 1.73700 25.43100
N  33.13200 4.18500 30.51200
C  32.13700 4.29800 29.52400
C  30.95800 4.72900 30.16600
C  31.29600 4.99300 31.52900
C  32.61400 4.55400 31.63900
C  29.66500 4.91400 29.46000
C  30.80200 5.36300 32.82900
O  29.73600 5.77000 33.24100
C  31.93900 5.12100 33.82400
C  32.23100 6.47900 34.42000
O  32.75500 7.49200 33.90200
O  31.75900 6.46300 35.67200
C  31.68900 7.78300 36.34300
H  38.64600 3.59800 33.13400
H  37.51700 2.57000 26.77200
H  31.43100 3.88000 27.51700
H  34.69100 5.41300 35.10800
H  37.04500 3.67200 35.02100
H  37.52200 6.41500 33.97000
H  38.24900 5.46900 35.28300
H  36.79000 6.21600 35.60000
H  35.25700 2.53600 35.72000
H  33.74600 2.80800 35.07900
H  34.01100 2.95400 37.82200
H  32.92700 3.93500 36.87100
H  40.49700 1.31000 31.89200
H  40.66500 3.07700 32.29600
H  41.48300 2.45600 30.90500
H  41.99000 2.55000 28.79500
H  42.02500 1.17100 27.65600
H  41.54800 0.89200 29.34500
H  35.76000 2.39900 25.49200
H  33.13400 3.88300 25.57900
H  34.81000 5.11800 24.68800
H  36.37800 4.26400 24.41800
H  36.13500 5.21300 25.85600
H  33.31100 1.11600 26.61500
H  33.60600 1.46500 24.88400
H  31.33600 2.79900 25.35900
H  31.07800 1.28500 26.29200
H  31.38000 1.14000 24.53900
H  29.24300 3.91400 29.35400
H  29.85100 5.45300 28.53100
H  28.99600 5.43900 30.14300
H  31.63100 4.41300 34.59300
H  32.09100 7.53500 37.32600
H  30.65800 8.11300 36.47400
H  32.23800 8.58500 35.85100
Mg 27.21400 50.68900 26.02700
C  25.00700 51.62700 28.80800
C  29.22400 49.30200 28.37300
C  29.28100 50.10600 23.52200
C  24.88700 52.17200 23.94800
N  27.09400 50.50100 28.39500
C  26.15500 50.93600 29.27500
C  26.46000 50.58400 30.76400
C  27.94000 49.96300 30.56000
C  28.15000 49.91300 28.99900
C  29.08100 50.67300 31.31200
C  25.33500 49.54100 31.38100
C  24.60700 50.04300 32.57800
H  25.44200 50.43100 33.74100
N  28.98500 49.73200 25.94800
C  29.76200 49.30000 27.06200
C  30.93900 48.77200 26.59000
C  31.02500 49.03000 25.19200
C  29.78200 49.69000 24.79500
C  32.04300 48.19900 27.52400
C  32.23600 48.74100 24.22900
O  32.08600 49.05300 23.07000
C  33.53300 47.95100 24.73900
N  27.00900 50.99400 24.08900
C  28.02000 50.76400 23.23500
C  27.64200 51.00200 21.80000
C  26.07500 51.38600 21.94400
C  25.97100 51.47900 23.40700
C  28.48700 52.15200 21.23100
C  25.12500 50.30500 21.41600
C  24.36100 50.70500 20.14700
N  25.37400 51.75000 26.29900
C  24.54300 52.25300 25.33500
C  23.39400 52.77700 25.87800
C  23.53500 52.55200 27.27500
C  24.78100 51.93300 27.45000
C  22.32400 53.36100 25.08400
C  22.92700 52.75200 28.59700
O  21.94000 53.41800 28.95200
C  23.87100 52.16800 29.62800
C  24.31100 53.24000 30.65300
O  25.35900 53.81300 30.67500
O  23.39500 53.25500 31.68900
C  23.77700 53.97200 32.91200
H  29.91600 48.76000 29.02100
H  29.84000 49.96400 22.59500
H  24.08400 52.54400 23.30800
H  26.52300 51.48800 31.37000
H  27.98500 48.94400 30.94600
H  28.60600 51.56000 31.73000
H  29.79700 50.99000 30.55400
H  29.70600 50.02800 31.93000
H  25.92400 48.68400 31.70800
H  24.64400 49.25900 30.58700
H  24.00000 49.16700 32.80700
H  24.01700 50.91900 32.30700
H  32.28600 47.18200 27.21600
H  31.78300 48.19300 28.58300
H  32.94000 48.76000 27.26100
H  34.21400 48.63300 25.24800
H  33.99900 47.60900 23.81500
H  33.29200 47.02800 25.26700
H  27.77900 50.06100 21.26600
H  25.83800 52.34700 21.48700
H  29.27300 52.24600 21.98000
H  28.06500 53.09200 20.87500
H  28.98700 51.68100 20.38400
H  24.43700 49.93200 22.17400
H  25.60000 49.35100 21.18600
H  24.46400 49.95000 19.36800
H  24.74300 51.67000 19.81300
H  23.32400 50.88700 20.42800
H  22.22600 52.68300 24.23600
H  22.63800 54.31500 24.66000
H  21.46000 53.57800 25.71200
H  23.31100 51.40500 30.16900
H  23.27800 53.35500 33.66000
H  23.34200 54.96300 32.78900
H  24.83200 54.03000 33.18300

