158

Mg 8.94500 3.73200 27.07100
C  10.25700 2.16500 29.92700
C  7.00500 5.74300 29.07900
C  7.67200 5.29600 24.30600
C  10.43000 1.40500 25.09400
N  8.55700 3.80500 29.24900
C  9.34300 3.20700 30.24400
C  9.04600 3.74700 31.66300
C  8.11100 4.86600 31.35500
C  7.98000 4.92100 29.78700
C  6.68800 4.87000 32.09800
C  10.31500 4.22500 32.45400
C  9.96800 4.72900 33.85300
H  11.05100 4.47400 34.91600
N  7.46700 5.18500 26.73300
C  6.86200 5.92300 27.68600
C  5.96700 6.94900 27.07900
C  6.24800 6.93100 25.74200
C  7.16100 5.80400 25.48900
C  5.13800 7.94500 27.82200
C  5.81900 7.85600 24.61800
O  6.27000 7.74400 23.46500
C  4.90100 9.08200 24.92100
N  8.97400 3.36900 24.91000
C  8.46400 4.16600 24.01700
C  8.86400 3.74200 22.53900
C  9.61400 2.35300 22.86300
C  9.68200 2.37700 24.37700
C  7.87700 3.65100 21.34400
C  10.95500 2.14100 22.11900
C  10.84300 1.38000 20.76100
N  10.12400 2.15800 27.36100
C  10.67300 1.27500 26.47300
C  11.49200 0.30700 27.15300
C  11.45900 0.69000 28.50300
C  10.53200 1.75800 28.61500
C  12.10700 -0.86000 26.50300
C  11.92400 0.37000 29.86100
O  12.71100 -0.49300 30.24000
C  11.19500 1.30700 30.84300
C  10.50400 0.57100 31.85700
O  9.51700 -0.15000 31.74300
O  11.15900 0.84300 33.05700
C  10.53000 0.22100 34.25000
H  6.43800 6.41000 29.73300
H  7.46300 5.85800 23.39300
H  10.70000 0.54100 24.48400
H  8.58600 3.00600 32.31700
H  8.55900 5.81500 31.65300
H  5.95800 4.50500 31.37600
H  6.54600 5.89100 32.45100
H  6.52300 4.17400 32.92100
H  10.78300 5.00800 31.85700
H  11.09500 3.47000 32.36100
H  9.03000 4.26600 34.16100
H  9.75700 5.78300 33.67300
H  5.69500 8.88200 27.79600
H  4.96900 7.85000 28.89500
H  4.26400 8.14000 27.20100
H  5.28300 9.82300 25.62400
H  3.89400 8.80100 25.22700
H  4.87900 9.63200 23.98100
H  9.60200 4.47700 22.21700
H  8.90100 1.54500 22.70000
H  7.88800 2.61100 21.01600
H  8.17800 4.38300 20.59400
H  6.85700 3.92300 21.61500
H  11.67900 1.71300 22.81300
H  11.32800 3.15000 21.94300
H  11.59800 0.62900 20.52900
H  10.91300 2.18200 20.02600
H  9.82500 1.00200 20.67300
H  12.39500 -0.72300 25.46100
H  11.39200 -1.67800 26.41100
H  12.96700 -1.20600 27.07600
H  11.96300 1.95300 31.26800
H  9.49000 0.53100 34.35000
H  10.89700 0.75400 35.12700
H  10.66600 -0.84600 34.42300
Mg -2.63100 34.97600 26.25800
C  -4.31900 33.03600 28.74400
C  -1.08800 36.72600 28.60700
C  -1.45300 36.81600 23.79600
C  -4.65300 33.19900 23.85500
N  -2.91100 34.99300 28.44100
C  -3.42200 34.04900 29.23200
C  -3.00700 34.30100 30.76700
C  -2.08100 35.48700 30.60800
C  -1.97300 35.73300 29.09400
C  -2.71700 36.81400 31.36300
C  -2.24200 33.07300 31.37900
C  -2.88000 32.52100 32.66000
H  -2.02100 32.42100 33.91700
N  -1.44500 36.65100 26.15600
C  -0.88200 37.17800 27.26400
C  -0.01800 38.28900 26.82600
C  0.07400 38.19200 25.38000
C  -0.97600 37.21400 25.04600
C  0.66000 39.22200 27.78800
C  0.98500 38.94100 24.39100
O  0.86200 38.66700 23.18000
C  2.13900 39.75500 24.83600
N  -3.18800 35.08600 24.10600
C  -2.41000 35.87600 23.35300
C  -2.81000 35.85200 21.85600
C  -3.54000 34.45000 21.81700
C  -3.85200 34.23300 23.32800
C  -3.73000 37.00900 21.36200
C  -2.70500 33.31600 21.12300
C  -1.53200 32.66200 22.00300
N  -4.17300 33.45300 26.21900
C  -4.82000 32.80200 25.19400
C  -5.63900 31.71600 25.64600
C  -5.46200 31.75200 27.06600
C  -4.53000 32.81600 27.35800
C  -6.37300 30.80000 24.79100
C  -5.73700 31.10800 28.30300
O  -6.46200 30.16900 28.56000
C  -5.02600 31.86800 29.45100
C  -6.04200 32.37600 30.39000
O  -6.89000 33.27200 30.27100
O  -5.85600 31.76900 31.61100
C  -6.71800 32.30800 32.69200
H  -0.44900 37.28100 29.29800
H  -0.96100 37.28700 22.94200
H  -5.16300 32.62100 23.08200
H  -3.89900 34.48500 31.36600
H  -1.08600 35.39100 31.04200
H  -2.88700 37.59100 30.61700
H  -1.98600 37.24200 32.05000
H  -3.67000 36.58000 31.83600
H  -1.20900 33.28400 31.65300
H  -2.15200 32.35000 30.56700
H  -3.22300 31.52000 32.39700
H  -3.85600 32.99300 32.77700
H  0.93100 40.18600 27.35700
H  1.59600 38.73300 28.05500
H  0.07700 39.30200 28.70500
H  1.95200 40.81800 24.99300
H  2.89300 39.83500 24.05200
H  2.64300 39.41300 25.74000
H  -1.89100 35.73500 21.28300
H  -4.45100 34.49800 21.22000
H  -4.77300 36.70100 21.42700
H  -3.46700 37.48700 20.41800
H  -3.56500 37.74100 22.15300
H  -2.24300 33.82600 20.27900
H  -3.29600 32.59400 20.56000
H  -1.70000 31.68300 22.45100
H  -1.34600 33.38600 22.79700
H  -0.57900 32.54400 21.48600
H  -6.07400 30.92100 23.75000
H  -7.40300 31.15200 24.84600
H  -6.45200 29.75100 25.07800
H  -4.38800 31.27400 30.10400
H  -6.16900 33.13800 33.13600
H  -6.91500 31.49100 33.38600
H  -7.70600 32.63800 32.37200

