158

Mg 24.63400 -5.23900 45.99400
C  26.61200 -3.02600 43.99900
C  22.06000 -4.67300 43.56900
C  23.04100 -7.87000 47.07900
C  27.57000 -6.30100 47.60800
N  24.41700 -4.03000 44.06300
C  25.31300 -3.12300 43.61100
C  24.74500 -2.39400 42.35700
C  23.22600 -2.73000 42.42600
C  23.22900 -3.91500 43.35800
C  22.16100 -1.66200 42.88400
C  25.40400 -2.81600 40.96300
C  25.63800 -1.60100 40.04000
H  25.77000 -1.92700 38.53400
N  22.73700 -6.08000 45.54100
C  21.75900 -5.57100 44.58200
C  20.55900 -6.35200 44.72800
C  20.81300 -7.27900 45.80800
C  22.26000 -7.14500 46.19200
C  19.38800 -6.14500 43.85700
C  19.85600 -8.31800 46.39100
O  18.70000 -8.24700 46.06400
C  20.16000 -9.33800 47.47100
N  25.26100 -6.90500 47.15600
C  24.37300 -7.84200 47.50200
C  25.05800 -8.95700 48.24500
C  26.32400 -8.22800 48.84600
C  26.44700 -7.07800 47.79500
C  24.19100 -9.59200 49.31000
C  27.60900 -9.06700 49.10700
C  28.26500 -9.08700 50.51700
N  26.57700 -4.69200 45.97900
C  27.67700 -5.20100 46.74000
C  28.83400 -4.48900 46.35100
C  28.47300 -3.58000 45.36100
C  27.08600 -3.79000 45.12400
C  30.13500 -4.79400 46.90700
C  28.95400 -2.50800 44.47400
O  30.07500 -2.00800 44.37900
C  27.71900 -2.11600 43.60000
C  27.33400 -0.69900 43.88100
O  26.65800 -0.37700 44.87200
O  27.83200 0.14600 42.97300
C  27.24700 1.42300 43.03500
H  21.26800 -4.42200 42.86000
H  22.64400 -8.79700 47.49700
H  28.54000 -6.46800 48.08100
H  24.82900 -1.32800 42.56700
H  22.88900 -3.09600 41.45700
H  21.82500 -1.16400 41.97400
H  22.74400 -0.99000 43.51300
H  21.43100 -2.16600 43.51700
H  24.82000 -3.64400 40.56400
H  26.38000 -3.24700 41.18700
H  26.54200 -1.10500 40.39400
H  24.80500 -0.91000 40.17100
H  18.54600 -6.77800 44.13200
H  19.67200 -6.42200 42.84100
H  18.99800 -5.12900 43.92500
H  19.26000 -9.93500 47.61700
H  20.51800 -8.87000 48.38800
H  20.95000 -9.99500 47.10800
H  25.44500 -9.67800 47.52600
H  26.03000 -7.76600 49.78800
H  23.91700 -10.53500 48.83500
H  23.36300 -8.93300 49.57000
H  24.72800 -9.74800 50.24600
H  28.39600 -8.79500 48.40400
H  27.27600 -10.07300 48.85100
H  29.25200 -9.54700 50.49600
H  27.60700 -9.59100 51.22400
H  28.44600 -8.06100 50.83900
H  30.15100 -4.47200 47.94800
H  30.81400 -4.25400 46.24800
H  30.39000 -5.85300 46.93400
H  27.96300 -2.19700 42.54100
H  26.16800 1.42000 42.88600
H  27.64200 2.00400 42.20100
H  27.47200 1.89900 43.99000
Mg 29.09300 57.67300 41.06900
C  26.23600 56.01300 39.91700
C  31.13500 55.49400 39.30800
C  31.85700 59.62200 41.72300
C  26.96100 60.35700 42.01800
N  28.68900 55.97600 39.75900
C  27.47300 55.44500 39.43100
C  27.74000 54.02600 38.72500
C  29.31700 53.79800 38.75400
C  29.75500 55.20800 39.30100
C  29.76100 52.57600 39.58600
C  26.91300 53.75900 37.34400
C  26.77700 54.96700 36.39700
H  27.41700 54.79900 34.98700
N  31.19900 57.52800 40.69900
C  31.85300 56.48400 39.98900
C  33.27500 56.77200 39.88600
C  33.54400 58.05200 40.62200
C  32.19400 58.46000 41.07100
C  34.20500 55.73200 39.25600
C  34.85900 58.68800 40.79000
O  35.89100 58.09800 40.45000
C  35.10900 59.99800 41.56500
N  29.39300 59.77700 41.50000
C  30.60200 60.26400 41.85200
C  30.50000 61.72000 42.48100
C  28.99300 61.90600 42.66300
C  28.35000 60.63300 42.00400
C  31.32800 62.06500 43.75700
C  28.48300 63.27000 42.02400
C  27.23300 63.89300 42.76200
N  27.07100 58.03400 41.24400
C  26.32800 59.15300 41.59500
C  24.89200 58.84200 41.55700
C  24.86100 57.62700 40.87600
C  26.16800 57.22300 40.65600
C  23.83000 59.71700 42.00500
C  23.91400 56.66600 40.37400
O  22.66300 56.56100 40.44800
C  24.81800 55.56000 39.78200
C  24.56500 54.20900 40.35800
O  25.04500 53.66800 41.34900
O  23.60800 53.67200 39.48400
C  23.37800 52.26400 39.78200
H  31.72000 54.72900 38.79300
H  32.75300 60.06300 42.16300
H  26.32500 61.16400 42.38800
H  27.27800 53.30500 39.40000
H  29.69000 53.88500 37.73400
H  30.68800 52.77900 40.12200
H  29.95600 51.78000 38.86600
H  29.07300 52.25300 40.36700
H  25.91700 53.36500 37.54300
H  27.49200 52.92500 36.94500
H  27.12600 55.88800 36.86500
H  25.71700 55.19600 36.28800
H  35.08000 56.23300 38.84200
H  33.76100 55.28600 38.36600
H  34.51300 54.95100 39.95100
H  34.50900 60.86100 41.27800
H  36.10000 60.40800 41.37100
H  35.05600 59.73300 42.62100
H  30.77300 62.47300 41.74200
H  28.64700 61.96500 43.69500
H  32.08000 61.32500 44.03100
H  30.68800 62.08400 44.63900
H  31.73800 63.06500 43.61500
H  28.07500 63.02300 41.04400
H  29.23300 64.05500 41.93400
H  27.51500 64.92400 42.97700
H  26.99700 63.41900 43.71500
H  26.31500 63.82600 42.17700
H  22.82700 59.29300 41.96000
H  23.93900 60.70000 41.54700
H  23.92300 59.87900 43.07900
H  24.58500 55.50100 38.71900
H  23.82200 51.64600 39.00100
H  22.31600 52.11800 39.58500
H  23.61700 51.87200 40.77000

