158

Mg 24.52100 -5.48900 46.14700
C  26.58000 -2.96000 44.73300
C  22.19300 -4.48100 43.59900
C  23.02000 -8.22000 46.48400
C  27.36400 -6.59300 47.90800
N  24.45000 -3.76300 44.42000
C  25.34300 -2.80300 44.16200
C  24.85400 -1.96100 43.00900
C  23.25800 -2.14700 43.21200
C  23.31800 -3.53900 43.73000
C  22.47200 -1.23500 44.23500
C  25.50900 -2.44200 41.60900
C  26.12900 -1.33100 40.67000
H  25.57200 -1.36600 39.26800
N  22.76700 -6.18400 45.36700
C  21.92100 -5.63800 44.30400
C  20.78300 -6.44200 44.21200
C  20.96800 -7.56000 45.03800
C  22.31100 -7.37900 45.69600
C  19.55200 -6.11800 43.39500
C  19.96400 -8.78000 45.15800
O  18.88700 -8.88300 44.55000
C  20.12700 -9.90200 46.14400
N  25.10100 -7.12200 47.29300
C  24.28000 -8.22200 47.17500
C  25.02800 -9.49000 47.72400
C  26.22200 -8.83700 48.52800
C  26.24500 -7.44400 47.95600
C  24.25200 -10.64800 48.41400
C  27.64600 -9.58000 48.63400
C  28.38800 -9.54200 50.03300
N  26.50900 -4.85700 46.50300
C  27.50200 -5.36000 47.21500
C  28.71200 -4.51700 47.21500
C  28.37600 -3.57200 46.23200
C  27.05600 -3.87100 45.72500
C  29.96000 -4.79000 47.97700
C  28.89000 -2.47700 45.45300
O  29.93400 -1.88800 45.48700
C  27.80800 -2.06000 44.40900
C  27.62600 -0.57400 44.47500
O  27.29900 0.01700 45.47600
O  27.73600 0.01700 43.27100
C  27.67800 1.52000 43.24500
H  21.39800 -4.15500 42.92500
H  22.52300 -9.17800 46.65100
H  28.18700 -7.00000 48.49900
H  25.23700 -0.98300 43.29800
H  22.75000 -2.07200 42.25100
H  23.21200 -0.60300 44.72600
H  22.06800 -1.83300 45.05200
H  21.74700 -0.59000 43.74000
H  24.74000 -2.89600 40.98400
H  26.27200 -3.20400 41.76900
H  27.20600 -1.50200 40.64900
H  25.93200 -0.32500 41.04000
H  18.70900 -6.31700 44.05600
H  19.55400 -6.74400 42.50200
H  19.50500 -5.04400 43.21500
H  19.18200 -10.41500 46.31900
H  20.38700 -9.51300 47.12900
H  20.78500 -10.66900 45.73600
H  25.32800 -9.97600 46.79600
H  25.88900 -8.62400 49.54400
H  24.66200 -11.51100 47.88800
H  23.18800 -10.78200 48.21900
H  24.39700 -10.61800 49.49400
H  28.36700 -9.21100 47.90400
H  27.47600 -10.63800 48.43400
H  29.46400 -9.69600 49.94200
H  28.02500 -10.39600 50.60500
H  28.06100 -8.67300 50.60300
H  30.66100 -4.96100 47.16000
H  29.95100 -5.61700 48.68700
H  30.10300 -3.83100 48.47600
H  28.16400 -2.26300 43.39900
H  26.86400 1.90300 43.85900
H  27.48500 1.85400 42.22600
H  28.62800 1.90900 43.61200
Mg 47.75300 15.79400 28.68300
C  45.60900 15.44200 31.53100
C  49.79000 17.47700 30.58400
C  49.63100 16.18300 25.98700
C  45.23100 14.41000 26.81100
N  47.61600 16.42900 30.81300
C  46.81200 16.08600 31.80200
C  47.28900 16.69800 33.11100
C  48.60400 17.41400 32.69800
C  48.64000 17.07000 31.27700
C  48.73500 18.82400 33.06800
C  47.42500 15.60000 34.27400
C  47.10500 16.09200 35.63300
H  46.82000 17.62800 35.87000
N  49.48400 16.64300 28.34300
C  50.21000 17.33400 29.25600
C  51.47700 17.81500 28.63400
C  51.45700 17.41400 27.24400
C  50.13500 16.74400 27.14000
C  52.44500 18.70900 29.42100
C  52.54800 17.53000 26.12600
O  52.44700 17.00700 25.03400
C  53.88100 18.23600 26.50800
N  47.36800 15.48300 26.60500
C  48.35200 15.60000 25.69200
C  47.96800 14.96700 24.29300
C  46.54100 14.39300 24.61100
C  46.31500 14.80200 26.06900
C  47.96100 16.05200 23.11800
C  46.13400 12.93200 24.21400
C  46.42500 11.87700 25.34800
N  45.73800 15.05700 29.05300
C  44.85900 14.46500 28.16100
C  43.70100 13.97300 28.80700
C  43.94900 14.39300 30.17600
C  45.22500 14.99900 30.22400
C  42.46400 13.23600 28.26200
C  43.41800 14.38400 31.65300
O  42.39400 13.95400 32.10800
C  44.52400 15.05100 32.52200
C  43.91400 16.17300 33.24100
O  44.06200 17.35600 32.97400
O  43.30200 15.65200 34.40100
C  42.74300 16.64800 35.30200
H  50.61300 17.83800 31.20500
H  50.23900 16.29400 25.08700
H  44.47900 13.83300 26.26700
H  46.48500 17.38700 33.37000
H  49.50600 16.91700 33.05300
H  48.94500 19.48300 32.22600
H  49.49300 18.79900 33.85200
H  47.81300 19.17700 33.53000
H  48.46200 15.27200 34.20900
H  46.69900 14.83500 34.00000
H  47.81500 15.83500 36.41900
H  46.18300 15.65000 36.01200
H  53.08200 19.33600 28.79800
H  53.15600 18.03300 29.89700
H  51.92500 19.33000 30.15100
H  54.51200 18.06400 25.63600
H  54.36500 17.76400 27.36200
H  53.77900 19.30200 26.71000
H  48.67600 14.17800 24.03600
H  45.81000 15.00700 24.08500
H  47.06100 15.86200 22.53200
H  48.75500 15.94700 22.37900
H  47.86000 17.05700 23.52800
H  46.69900 12.65700 23.32300
H  45.07000 12.95300 23.97800
H  47.01000 12.26600 26.18200
H  47.06200 11.13700 24.86400
H  45.49300 11.44900 25.71600
H  42.75700 12.69900 27.35900
H  41.64300 13.91100 28.02100
H  42.10800 12.50700 28.98900
H  44.76000 14.32100 33.29700
H  41.67600 16.73500 35.09600
H  43.34700 17.55100 35.20900
H  42.83400 16.37600 36.35300

