158

Mg 1.28300 -2.83000 44.01800
C  4.55800 -2.30000 43.27200
C  0.35500 -0.13800 42.04100
C  -1.93300 -3.62700 44.41800
C  2.28100 -5.76600 45.71500
N  2.33100 -1.46200 42.75900
C  3.67100 -1.38900 42.72200
C  4.13500 -0.29700 41.75700
C  2.76500 0.54400 41.52500
C  1.74600 -0.42300 42.09400
C  2.77100 1.88900 42.30100
C  4.75500 -0.82400 40.44000
C  5.91500 0.04900 39.97400
H  5.80400 0.59100 38.52500
N  -0.59100 -2.01300 43.19800
C  -0.76400 -0.86900 42.46900
C  -2.16300 -0.60400 42.23400
C  -2.89400 -1.62200 42.96400
C  -1.83000 -2.52300 43.51500
C  -2.64800 0.60400 41.58300
C  -4.44400 -1.65500 43.17100
O  -5.20600 -0.79700 42.72000
C  -5.20300 -2.72000 43.96600
N  0.33200 -4.51300 44.95900
C  -1.02000 -4.53800 44.98000
C  -1.52000 -5.85200 45.66900
C  -0.13300 -6.51100 46.18800
C  0.92700 -5.60300 45.64200
C  -2.82700 -5.75900 46.63200
C  0.10300 -7.92200 45.62800
C  0.84500 -8.92500 46.56400
N  3.08200 -3.79200 44.55800
C  3.33300 -4.97400 45.28300
C  4.74500 -5.23800 45.31800
C  5.26300 -4.14700 44.60200
C  4.22000 -3.34300 44.11700
C  5.38300 -6.40700 46.03000
C  6.49000 -3.54100 44.25300
O  7.65300 -3.79900 44.64100
C  6.12100 -2.36200 43.24900
C  6.75200 -1.02600 43.66400
O  7.40500 -0.31500 42.85100
O  6.49500 -0.64500 44.98900
C  6.84000 0.70900 45.31800
H  0.00800 0.67800 41.40400
H  -2.98700 -3.90600 44.47500
H  2.53100 -6.68800 46.24500
H  4.86900 0.37600 42.20000
H  2.52600 0.81300 40.49600
H  3.72800 2.03700 42.80100
H  1.94700 1.84700 43.01200
H  2.67500 2.71700 41.59800
H  3.96500 -0.77400 39.69100
H  5.15600 -1.82300 40.61200
H  6.82400 -0.55000 40.03000
H  6.10900 0.90900 40.61500
H  -3.72100 0.77700 41.49600
H  -2.10000 0.65200 40.64200
H  -2.25400 1.48800 42.08400
H  -4.80900 -3.04300 44.92900
H  -5.16300 -3.61500 43.34500
H  -6.26600 -2.50400 44.07800
H  -2.02200 -6.36900 44.85100
H  -0.05500 -6.38100 47.26700
H  -2.49000 -6.23700 47.55200
H  -3.71600 -6.19400 46.17600
H  -2.92500 -4.70000 46.87200
H  0.72300 -7.78200 44.74200
H  -0.89900 -8.29800 45.41800
H  0.18600 -9.65600 47.03200
H  1.09200 -8.34500 47.45400
H  1.72900 -9.38800 46.12500
H  6.24900 -6.04200 46.58300
H  5.61500 -7.25700 45.38800
H  4.74700 -6.67900 46.87200
H  6.47100 -2.63700 42.25400
H  6.03100 0.86600 46.03200
H  6.65100 1.41800 44.51300
H  7.80700 0.72700 45.82100
Mg 25.20400 1.69800 30.05200
C  27.05100 1.80300 33.03800
C  22.32100 1.96000 31.93800
C  23.40900 1.33500 27.21700
C  28.03100 0.66700 28.29700
N  24.75500 1.85200 32.23400
C  25.65400 2.05500 33.18500
C  25.03200 2.30700 34.51000
C  23.46900 2.27200 34.22100
C  23.48700 1.93900 32.71700
C  22.64900 1.43600 35.13900
C  25.51300 3.68200 35.10400
C  26.33700 3.65400 36.38500
H  25.87700 4.56100 37.62700
N  23.18600 1.62000 29.64100
C  22.14600 1.81600 30.53100
C  20.89500 1.83300 29.78700
C  21.23300 1.54900 28.36900
C  22.66700 1.49200 28.34400
C  19.50300 1.92700 30.47000
C  20.25700 1.25200 27.20600
O  20.57500 1.24600 26.03000
C  18.80000 1.06100 27.49800
N  25.64000 1.04600 28.04000
C  24.80700 1.23200 26.99100
C  25.48000 1.15400 25.64800
C  26.97900 0.86500 26.02100
C  26.89400 0.81200 27.50600
C  24.73100 0.28400 24.55900
C  28.01100 1.79800 25.33300
C  28.07300 1.77700 23.80400
N  27.18600 1.38800 30.49200
C  28.16700 0.91400 29.66200
C  29.28600 0.77600 30.50700
C  28.95400 1.11400 31.75700
C  27.61300 1.47100 31.78400
C  30.55900 0.32300 29.88600
C  29.43800 1.32500 33.12800
O  30.59300 1.09100 33.49400
C  28.27000 1.69600 34.10100
C  28.19700 0.51800 35.07800
O  27.68300 -0.57600 34.93100
O  28.94800 0.90500 36.19200
C  29.06800 -0.12400 37.25100
H  21.36200 1.98000 32.45900
H  22.92600 1.36900 26.23900
H  28.96800 0.42200 27.79100
H  25.42500 1.44000 35.04000
H  23.05800 3.28100 34.18500
H  22.50300 0.53600 34.54200
H  21.65300 1.80700 35.38100
H  23.24100 1.11900 35.99800
H  24.71000 4.41200 35.20100
H  26.19500 4.05400 34.34000
H  27.31500 4.06100 36.12600
H  26.35700 2.65600 36.82300
H  19.14400 0.99700 30.90800
H  18.86300 2.48300 29.78400
H  19.61900 2.56000 31.35000
H  18.30500 0.65100 26.61800
H  18.56400 2.11300 27.65800
H  18.46500 0.47900 28.35700
H  25.42300 2.15600 25.22300
H  27.22600 -0.09100 25.55800
H  23.71300 -0.03000 24.79000
H  25.28300 -0.61700 24.29400
H  24.51400 0.88400 23.67600
H  29.05400 1.60800 25.58900
H  27.79600 2.81600 25.65600
H  28.99000 1.28500 23.47900
H  28.07900 2.79700 23.42200
H  27.24200 1.15500 23.47000
H  30.96100 1.18000 29.34500
H  30.53600 -0.48900 29.15800
H  31.26000 0.08300 30.68600
H  28.39100 2.58200 34.72400
H  29.56100 -0.98200 36.79500
H  28.12700 -0.52500 37.63000
H  29.65200 0.27900 38.07900

