158

Mg 27.02000 50.18200 27.34600
C  24.82400 51.07600 29.98900
C  29.43000 49.71800 29.76500
C  29.12400 49.83000 24.90900
C  24.43100 51.04600 25.10300
N  27.08400 50.32400 29.68900
C  26.03700 50.60200 30.52000
C  26.49100 50.35800 31.99300
C  28.05900 50.23100 31.86900
C  28.22900 50.07300 30.33600
C  28.80700 51.35600 32.48900
C  25.84400 49.11000 32.79600
C  24.64800 49.46000 33.76600
H  24.58300 48.85400 35.16300
N  28.99400 49.74000 27.29700
C  29.86000 49.54400 28.38400
C  31.13800 49.20400 27.84500
C  31.07200 49.40900 26.40400
C  29.70700 49.71200 26.16000
C  32.35600 49.09100 28.80300
C  32.14600 49.27800 25.37600
O  31.94700 49.51600 24.17200
C  33.50300 48.94300 25.77800
N  26.81200 50.46400 25.26600
C  27.79500 50.07800 24.45400
C  27.41600 50.04600 22.95000
C  25.87400 50.30500 23.10300
C  25.64600 50.58600 24.55500
C  28.12900 51.00000 22.00600
C  24.89600 49.26100 22.53600
C  24.67400 49.48800 21.02000
N  25.04800 51.00200 27.45700
C  24.13800 51.30500 26.47500
C  22.96400 51.79300 27.05600
C  23.17100 51.70100 28.44300
C  24.45400 51.16500 28.63500
C  21.78600 52.45200 26.40700
C  22.59300 52.01500 29.78000
O  21.48600 52.41400 30.07700
C  23.71000 51.56000 30.80100
C  24.23900 52.78300 31.56400
O  24.95900 53.70600 31.14300
O  23.78700 52.70500 32.86300
C  24.33600 53.61500 33.85100
H  30.22500 49.61500 30.50700
H  29.68500 49.58400 24.00500
H  23.72300 51.22900 24.29300
H  26.22700 51.26800 32.53200
H  28.47400 49.28900 32.22800
H  29.49500 51.04000 33.27300
H  28.09300 52.01100 32.98700
H  29.41000 51.84400 31.72300
H  26.70900 48.60500 33.22700
H  25.49000 48.46100 31.99500
H  23.79200 49.04400 33.23400
H  24.41600 50.52400 33.80600
H  32.08300 49.77300 29.60900
H  33.33300 49.36100 28.40300
H  32.35700 48.03800 29.08300
H  33.81100 49.82500 26.34000
H  34.00700 48.78700 24.82500
H  33.61900 48.16500 26.53300
H  27.51600 49.03800 22.54700
H  25.59000 51.26600 22.67500
H  28.93700 51.45900 22.57700
H  27.51900 51.81800 21.62300
H  28.54200 50.46300 21.15200
H  23.92900 49.07400 23.00500
H  25.44200 48.32200 22.62900
H  25.38300 50.12800 20.49600
H  23.67500 49.86500 20.79800
H  24.78200 48.48100 20.61700
H  20.91900 52.03800 26.92000
H  21.92000 52.16700 25.36400
H  21.86400 53.50200 26.68900
H  23.40300 50.90700 31.61700
H  25.27300 54.02800 33.47500
H  24.71700 53.06100 34.70900
H  23.68400 54.46400 34.05600
Mg 6.46700 53.80300 41.62700
C  5.83300 50.39500 41.60000
C  9.44600 53.04800 40.22100
C  6.88200 57.06200 41.01200
C  2.99000 54.35500 42.37100
N  7.35600 51.94500 40.59600
C  6.99400 50.69800 40.97300
C  8.06300 49.58800 40.45600
C  9.32600 50.54400 40.42400
C  8.67500 51.93600 40.31800
C  10.40100 50.27900 41.56700
C  7.80200 48.86300 39.00000
C  6.70100 49.54000 38.06700
H  7.30600 49.99400 36.75500
N  8.14600 54.92100 40.97000
C  9.25700 54.39100 40.35300
C  10.08600 55.46900 39.97900
C  9.42900 56.67700 40.25800
C  8.04600 56.26900 40.70300
C  11.48100 55.32300 39.29600
C  9.99500 58.05600 40.01200
O  11.16000 58.29400 39.72800
C  9.09600 59.13900 40.10900
N  5.05100 55.39400 41.51500
C  5.59800 56.66000 41.44600
C  4.54600 57.68400 41.79500
C  3.19500 56.85000 41.88200
C  3.78000 55.43300 41.98900
C  4.86400 58.64100 42.89800
C  2.30700 56.96900 40.64200
C  0.99700 57.74500 40.83100
N  4.72600 52.63600 41.95200
C  3.40100 52.99600 42.33700
C  2.73000 51.78200 42.86100
C  3.69700 50.73900 42.53500
C  4.81400 51.29300 41.95200
C  1.46700 51.63600 43.56900
C  3.69100 49.34700 42.49800
O  2.87900 48.50400 42.86700
C  5.08700 49.06600 41.83300
C  4.79100 48.28500 40.65500
O  3.90500 48.50300 39.82200
O  5.54300 47.10500 40.68900
C  5.24400 46.19700 39.57400
H  10.49400 52.83600 39.99800
H  7.03300 58.14200 40.96600
H  2.02000 54.67600 42.75800
H  8.26000 48.86600 41.24900
H  9.94000 50.23800 39.57700
H  10.79100 51.18300 42.03400
H  11.34400 49.92000 41.15500
H  9.98900 49.60900 42.32100
H  7.49200 47.83500 39.18600
H  8.75300 48.89000 38.46700
H  6.28900 50.40700 38.58300
H  5.87600 48.85100 37.88400
H  11.52000 54.24800 39.12200
H  12.28300 55.64800 39.95900
H  11.57800 55.83200 38.33800
H  8.17300 58.88200 39.58900
H  9.57700 60.03300 39.71400
H  9.00500 59.33300 41.17800
H  4.40900 58.27000 40.88600
H  2.69400 57.17200 42.79500
H  5.94700 58.55700 42.97800
H  4.46000 58.28400 43.84600
H  4.40800 59.58200 42.59200
H  1.96400 55.99900 40.28200
H  2.78700 57.37300 39.75100
H  0.96200 58.56700 40.11500
H  0.94000 58.09700 41.86100
H  0.14400 57.11900 40.57100
H  1.45100 51.04400 44.48500
H  0.77200 51.10100 42.92200
H  1.28300 52.68000 43.81900
H  5.56200 48.34700 42.50000
H  4.34800 45.57700 39.59600
H  6.13000 45.57800 39.43400
H  5.22000 46.83500 38.69100

