158

Mg 1.29900 -1.10600 44.15700
C  4.36600 0.11800 43.20800
C  -0.20300 1.55700 42.64400
C  -1.72400 -2.50900 44.74800
C  2.93200 -4.02400 45.28900
N  2.08600 0.59700 42.90300
C  3.34600 0.95500 42.69400
C  3.49600 2.15000 41.78000
C  2.01700 2.75800 41.86600
C  1.22700 1.53700 42.47300
C  1.87800 3.95600 42.94900
C  4.00000 1.89300 40.26200
C  3.69800 0.48700 39.67700
H  3.38000 0.24300 38.24600
N  -0.74200 -0.54700 43.66400
C  -1.16300 0.60000 43.07400
C  -2.59900 0.63200 43.11000
C  -2.97800 -0.46900 43.90300
C  -1.80500 -1.22700 44.13700
C  -3.35200 1.79000 42.43400
C  -4.41400 -0.75800 44.31100
O  -5.31600 -0.05900 43.83100
C  -4.82400 -1.86500 45.18600
N  0.76600 -3.09900 44.80100
C  -0.55100 -3.33200 45.01600
C  -0.77600 -4.78200 45.69500
C  0.69300 -5.30400 45.61200
C  1.53400 -4.07900 45.14200
C  -1.39400 -4.75900 47.05600
C  0.93300 -6.58800 44.81000
C  0.85700 -7.85500 45.65000
N  3.25700 -1.80500 44.30800
C  3.80900 -2.97200 44.81300
C  5.29200 -2.94700 44.75900
C  5.52900 -1.74200 44.16200
C  4.28000 -1.14400 43.89600
C  6.31100 -3.94600 45.30600
C  6.63800 -0.81800 43.71600
O  7.89300 -0.91600 43.74200
C  5.85900 0.36400 43.03100
C  6.35800 1.64200 43.70500
O  5.91900 2.11400 44.71800
O  7.44300 2.16100 42.93500
C  8.04900 3.46800 43.31500
H  -0.65700 2.38100 42.09000
H  -2.66300 -2.92300 45.12100
H  3.44700 -4.85900 45.76800
H  4.20300 2.91800 42.09500
H  1.50600 3.00500 40.93500
H  1.56900 4.85000 42.40800
H  2.77900 4.12900 43.53800
H  1.24900 3.75400 43.81600
H  5.03200 2.15900 40.03200
H  3.28400 2.45000 39.65800
H  2.89300 0.00500 40.23100
H  4.55800 -0.15900 39.85300
H  -4.30900 2.01800 42.90300
H  -3.44200 1.65400 41.35600
H  -2.71300 2.67300 42.46300
H  -5.89300 -1.75700 45.37200
H  -4.28300 -2.02500 46.11800
H  -4.73300 -2.72600 44.52300
H  -1.35200 -5.35000 44.96400
H  1.12600 -5.37000 46.61100
H  -1.78900 -5.75700 47.24600
H  -2.21500 -4.04400 47.00300
H  -0.70300 -4.37700 47.80700
H  1.86800 -6.54900 44.25100
H  0.09600 -6.58700 44.11300
H  1.05800 -8.67800 44.96500
H  -0.09300 -7.97800 46.17000
H  1.56800 -7.87900 46.47700
H  5.96000 -4.94400 45.04500
H  6.53200 -3.87600 46.37200
H  7.17200 -3.69700 44.68700
H  6.15200 0.42400 41.98300
H  7.91800 3.68400 44.37500
H  7.51900 4.21800 42.72700
H  9.09500 3.60400 43.04200
Mg 30.22400 59.83200 40.01700
C  27.60100 57.94000 38.70700
C  32.44300 57.39400 38.87700
C  32.81700 61.93500 40.75800
C  27.91500 62.34100 40.72700
N  30.02400 57.93600 38.83700
C  28.87500 57.39100 38.46400
C  29.06600 56.06800 37.73700
C  30.54500 55.68100 38.16700
C  31.09300 57.07600 38.69600
C  30.63100 54.60300 39.25200
C  28.97300 56.27300 36.18800
C  28.47900 54.99400 35.30800
H  27.62800 55.32400 34.11400
N  32.36300 59.65400 39.95800
C  33.06400 58.55000 39.44300
C  34.47000 58.80500 39.61000
C  34.59200 60.07400 40.15700
C  33.20800 60.66400 40.28300
C  35.57500 57.88000 39.10100
C  35.90700 60.66400 40.58100
O  36.88300 59.93200 40.71300
C  36.10100 62.16200 40.80200
N  30.37600 61.83100 40.50100
C  31.50300 62.43300 40.90600
C  31.22500 63.87700 41.35900
C  29.64800 64.07600 41.35900
C  29.21000 62.63800 40.85800
C  31.91000 64.21500 42.65100
C  29.14700 65.19600 40.44100
C  28.05700 66.08400 41.09900
N  28.14900 60.11800 39.89500
C  27.34100 61.17200 40.20100
C  25.96000 60.80000 39.87000
C  26.03900 59.48900 39.38000
C  27.40000 59.18400 39.29800
C  24.78100 61.64400 40.27500
C  25.27200 58.34400 38.86000
O  24.03700 58.27200 38.71500
C  26.28200 57.35200 38.34600
C  25.94900 55.99900 38.97300
O  26.09400 55.67700 40.12100
O  25.56200 55.14200 37.98200
C  25.26700 53.78700 38.36100
H  33.02400 56.51100 38.60100
H  33.53900 62.71400 41.01000
H  27.22200 63.11100 41.07100
H  28.34600 55.27400 37.93400
H  31.11600 55.22400 37.35900
H  31.17000 53.74000 38.86100
H  29.61700 54.32000 39.53500
H  31.22500 54.85200 40.13100
H  29.99400 56.53200 35.90800
H  28.43800 57.19600 35.96700
H  27.93100 54.23700 35.86900
H  29.33600 54.44500 34.91800
H  36.09200 57.42900 39.94800
H  36.38800 58.35200 38.54900
H  35.18000 57.09700 38.45300
H  35.67000 62.79200 40.02400
H  37.18500 62.25600 40.85800
H  35.62700 62.40500 41.75300
H  31.74800 64.44300 40.58800
H  29.40200 64.17800 42.41600
H  32.93600 64.51900 42.44200
H  31.92700 63.36000 43.32600
H  31.42200 65.02200 43.19700
H  28.72300 64.80700 39.51500
H  30.06800 65.76800 40.32700
H  27.89000 66.00300 42.17300
H  27.18500 65.84800 40.48900
H  28.29700 67.13900 40.96800
H  23.93200 60.96800 40.37100
H  24.61400 62.38200 39.49200
H  25.03100 62.04800 41.25600
H  26.27900 57.33500 37.25600
H  24.20900 53.73500 38.62000
H  25.94000 53.44300 39.14600
H  25.34500 53.13000 37.49500

