158

Mg 7.84500 3.18100 28.04400
C  9.23000 1.68600 30.93600
C  5.97000 5.13100 30.19500
C  6.17600 4.31200 25.47700
C  9.30300 0.57300 26.12000
N  7.60900 3.29000 30.22800
C  8.32900 2.69700 31.27800
C  8.20200 3.33900 32.69600
C  6.94700 4.25700 32.37700
C  6.74900 4.13700 30.82900
C  5.61700 3.93200 33.16500
C  9.49300 4.04100 33.14200
C  10.34300 3.48600 34.33400
H  10.70000 4.52100 35.36800
N  6.32300 4.54900 27.82200
C  5.72000 5.31300 28.75400
C  4.84500 6.26600 28.17600
C  4.93600 6.07200 26.77700
C  5.82100 4.92000 26.65300
C  3.90300 7.20200 28.88900
C  4.15800 6.80500 25.61900
O  4.08100 6.35500 24.47200
C  3.70300 8.14000 25.84800
N  7.69400 2.54400 26.11300
C  7.01100 3.23600 25.18400
C  7.13200 2.60200 23.82200
C  8.22300 1.53500 24.04700
C  8.45400 1.53600 25.52900
C  5.81000 2.05500 23.27700
C  9.48200 1.87300 23.26200
C  10.36800 0.70300 22.85500
N  9.03700 1.53700 28.45100
C  9.56200 0.59700 27.53000
C  10.32100 -0.33100 28.37500
C  10.31300 0.09200 29.67100
C  9.49300 1.15400 29.69100
C  11.05300 -1.54300 27.79000
C  10.79500 -0.18400 30.98000
O  11.59400 -1.09200 31.25200
C  10.15800 0.87500 31.85900
C  9.40200 0.07800 32.88400
O  8.51900 -0.73300 32.65500
O  9.98400 0.30300 34.15900
C  9.19300 -0.21800 35.32900
H  5.49400 5.87300 30.84000
H  5.65600 4.70500 24.60200
H  9.76000 -0.22000 25.52600
H  7.84300 2.57200 33.38200
H  7.13900 5.32000 32.51700
H  4.72900 3.71300 32.57200
H  5.31900 4.85100 33.66900
H  5.84000 3.04500 33.75800
H  9.34200 5.10600 33.31800
H  10.09800 3.98100 32.23600
H  11.29500 3.02800 34.06400
H  9.71700 2.78000 34.88100
H  3.55100 6.73000 29.80600
H  2.94000 7.24700 28.38000
H  4.33000 8.15500 29.20200
H  4.51100 8.65100 26.37200
H  2.85200 8.13600 26.52900
H  3.44700 8.58800 24.88800
H  7.56400 3.32700 23.13200
H  7.81900 0.61900 23.61600
H  4.88300 2.41600 23.72300
H  5.84800 0.96700 23.21200
H  5.73000 2.28800 22.21500
H  10.21000 2.43600 23.84700
H  9.26100 2.41100 22.34100
H  10.55200 0.62000 21.78400
H  9.95300 -0.22700 23.24500
H  11.37100 0.82000 23.26500
H  10.54400 -1.89800 26.89400
H  11.06700 -2.35100 28.52100
H  12.07900 -1.22900 27.60100
H  10.96700 1.46800 32.28600
H  8.77900 -1.19500 35.08000
H  8.40400 0.49800 35.55700
H  9.88200 -0.27300 36.17200
Mg -1.76800 34.45100 27.24100
C  -3.39600 32.42400 29.58400
C  -0.30000 36.21000 29.78800
C  -0.61600 36.60100 25.04700
C  -3.61700 32.76900 24.74300
N  -2.02600 34.46600 29.34800
C  -2.69100 33.55100 30.13500
C  -2.54600 33.84500 31.61100
C  -1.71400 35.16400 31.68800
C  -1.36600 35.34100 30.21900
C  -2.54400 36.34500 32.26600
C  -1.80200 32.58900 32.32200
C  -2.57500 31.99600 33.53300
H  -1.80400 31.81900 34.75300
N  -0.58500 36.20700 27.33000
C  -0.04900 36.76700 28.51300
C  0.89500 37.79400 28.14100
C  0.80100 37.95000 26.70400
C  -0.10900 36.89900 26.32200
C  1.86500 38.47700 29.04200
C  1.64400 38.74500 25.79700
O  1.61400 38.65800 24.54200
C  2.62100 39.68900 26.36900
N  -2.21300 34.73400 25.23300
C  -1.58400 35.68700 24.49600
C  -2.00100 35.73700 23.00400
C  -2.78200 34.34400 22.90900
C  -2.91200 33.90100 24.38100
C  -2.84500 37.04300 22.68900
C  -2.01200 33.26000 22.04800
C  -2.81200 32.40500 21.08400
N  -3.16700 32.86800 27.02300
C  -3.78000 32.25100 25.97100
C  -4.52500 31.11100 26.40100
C  -4.40500 31.15200 27.82600
C  -3.59300 32.24700 28.13100
C  -5.15100 30.00000 25.56300
C  -4.75500 30.50300 29.04200
O  -5.36500 29.43300 29.24200
C  -4.19600 31.38300 30.25500
C  -5.28300 31.90800 31.13800
O  -5.95200 32.89600 30.95400
O  -5.47100 31.06100 32.20800
C  -6.32400 31.55000 33.22800
H  0.31800 36.75300 30.50600
H  -0.09200 37.31500 24.40900
H  -4.18500 32.18000 24.01900
H  -3.55400 33.89900 32.02200
H  -0.78200 34.96300 32.21500
H  -2.09600 36.53500 33.24100
H  -3.57500 36.08700 32.51200
H  -2.44100 37.21800 31.62200
H  -0.83000 32.93000 32.67600
H  -1.73900 31.80800 31.56400
H  -2.81900 30.98500 33.20500
H  -3.49700 32.57100 33.62400
H  2.90900 38.41500 28.73300
H  1.65500 38.19200 30.07300
H  1.65600 39.54600 29.00600
H  2.72400 40.53100 25.68500
H  3.55900 39.21400 26.65800
H  2.26700 40.28400 27.21100
H  -1.18900 35.74300 22.27600
H  -3.76800 34.49500 22.46900
H  -2.30400 37.72500 22.03300
H  -3.05600 37.42600 23.68700
H  -3.81900 36.81700 22.25600
H  -1.43200 32.67400 22.76100
H  -1.28200 33.71900 21.38200
H  -2.31200 32.28500 20.12300
H  -3.78100 32.88800 20.95900
H  -2.93800 31.41400 21.52000
H  -6.02300 30.24900 24.95800
H  -5.47400 29.20100 26.23100
H  -4.32000 29.52200 25.04500
H  -3.59800 30.66100 30.81100
H  -6.30600 32.61000 33.48100
H  -6.13600 30.87000 34.05800
H  -7.33100 31.37500 32.85000

