158

Mg 35.80300 50.04800 25.14600
C  36.12100 47.98000 27.96400
C  34.19800 52.47800 27.07900
C  35.30200 51.81700 22.34300
C  37.08200 47.41500 23.14400
N  35.27900 50.22700 27.32200
C  35.59200 49.24100 28.25300
C  35.21500 49.83800 29.59000
C  34.35800 51.20800 29.31100
C  34.53200 51.29600 27.78100
C  32.92600 51.15000 29.87600
C  36.64400 50.22500 30.23200
C  36.76200 50.25300 31.83900
H  35.41900 50.13400 32.69000
N  34.85300 51.89700 24.77200
C  34.44000 52.82000 25.69700
C  34.11700 54.03100 25.00100
C  34.49700 53.91200 23.69500
C  34.87500 52.45200 23.54500
C  33.41300 55.17000 25.70800
C  34.50400 54.93000 22.59900
O  34.70100 54.65200 21.39800
C  34.07800 56.34800 22.78300
N  35.91100 49.61000 22.93300
C  35.85400 50.56900 22.07300
C  36.05600 50.11200 20.64300
C  36.78400 48.74400 20.88900
C  36.58700 48.54900 22.40700
C  34.74900 49.97600 19.75300
C  38.34700 48.74900 20.40600
C  39.44900 49.12100 21.49300
N  36.49900 48.08700 25.40700
C  37.04300 47.15200 24.55000
C  37.64100 46.06600 25.34100
C  37.21400 46.31900 26.68200
C  36.51100 47.53600 26.65000
C  38.44300 44.93800 24.78900
C  37.23700 45.77400 28.02900
O  37.61500 44.67700 28.35600
C  36.49800 46.88900 28.95700
C  35.32900 46.41000 29.76100
O  34.15200 46.64300 29.45000
O  35.75300 45.74800 30.85200
C  34.95400 45.76300 32.11900
H  33.69400 53.19500 27.73000
H  35.29500 52.45400 21.45600
H  37.58400 46.65900 22.53600
H  34.65000 49.11000 30.17300
H  34.75000 52.05900 29.86700
H  32.78200 50.13900 30.25700
H  32.27800 51.28000 29.01000
H  32.68700 51.85900 30.66900
H  36.89500 51.17400 29.75800
H  37.45200 49.58000 29.88800
H  37.18200 51.23600 32.05200
H  37.42800 49.49600 32.25300
H  32.41900 55.36700 25.30600
H  33.97100 56.05200 25.39300
H  33.42600 55.08300 26.79400
H  34.12300 56.93500 21.86600
H  34.88100 56.75300 23.39900
H  33.08200 56.45100 23.21200
H  36.73100 50.77600 20.10200
H  36.12700 48.04900 20.36700
H  34.81500 49.29300 18.90600
H  34.55500 50.99200 19.41100
H  33.88700 49.83800 20.40600
H  38.41500 49.59000 19.71600
H  38.46100 47.75800 19.96600
H  40.01100 48.19400 21.60200
H  39.00400 49.53500 22.39800
H  40.02300 49.91100 21.00800
H  37.78700 44.07400 24.68100
H  39.29600 44.73000 25.43500
H  38.83000 45.28700 23.83100
H  37.35800 47.14300 29.57800
H  33.92700 46.11800 32.03800
H  35.48700 46.40200 32.82300
H  35.07900 44.80100 32.61600
Mg 16.90800 52.34400 26.52600
C  19.14200 51.13400 28.90700
C  14.57600 52.93700 28.86100
C  14.87800 53.50500 24.04000
C  19.21900 51.27500 24.05200
N  16.97200 52.10100 28.66200
C  17.96800 51.66100 29.44800
C  17.57300 51.80400 30.89700
C  16.04400 52.02100 30.84200
C  15.80100 52.33800 29.37100
C  15.19400 50.83900 31.46900
C  18.35900 52.95800 31.63100
C  18.52400 52.72500 33.18000
H  17.44900 51.76700 33.82500
N  14.99100 53.10300 26.44100
C  14.23400 53.36200 27.56700
C  13.07300 54.13300 27.20300
C  13.08700 54.24500 25.82100
C  14.37900 53.63400 25.34700
C  12.07200 54.66000 28.31000
C  12.05300 54.89400 24.90300
O  12.18900 54.95700 23.71500
C  10.88400 55.51000 25.60700
N  16.99600 52.34000 24.35000
C  16.06300 52.89900 23.52800
C  16.45200 52.68800 22.01300
C  17.93400 52.32000 22.10000
C  18.13200 52.03200 23.60700
C  15.49300 51.66300 21.40700
C  19.11300 53.30600 21.60500
C  19.80300 54.23100 22.60200
N  18.74100 51.35700 26.45800
C  19.51600 50.97700 25.40800
C  20.71000 50.22700 25.86500
C  20.57900 50.34100 27.23500
C  19.37800 51.05100 27.54900
C  21.91700 49.68600 25.07200
C  21.19800 49.98300 28.42700
O  22.26500 49.45200 28.63400
C  20.34900 50.50600 29.55600
C  19.96100 49.37100 30.40500
O  19.28800 48.34700 30.03600
O  20.50600 49.48200 31.66800
C  20.35600 48.33000 32.54800
H  13.92900 53.20300 29.70000
H  14.25200 53.86300 23.21900
H  20.08500 51.01000 23.44000
H  17.80200 50.86000 31.39000
H  15.73700 52.93900 31.34300
H  14.40600 51.16400 32.14800
H  15.79800 50.06200 31.93600
H  14.73200 50.27600 30.65800
H  17.85300 53.92400 31.63400
H  19.36500 52.93900 31.21300
H  18.41100 53.69500 33.66600
H  19.48600 52.28400 33.44100
H  11.74500 55.68700 28.14600
H  12.59100 54.64600 29.26800
H  11.26600 53.95100 28.50000
H  11.02600 56.43900 26.15900
H  10.40200 54.72300 26.18700
H  10.13700 55.76700 24.85600
H  16.33000 53.67400 21.56500
H  18.12600 51.35500 21.63100
H  16.03800 50.93700 20.80300
H  14.89900 52.24600 20.70400
H  14.80300 51.19900 22.11100
H  18.62000 53.89900 20.83500
H  19.84800 52.64700 21.14200
H  20.88900 54.22700 22.51000
H  19.51400 54.03500 23.63500
H  19.46200 55.24100 22.37600
H  21.55400 49.24400 24.14400
H  22.29700 48.88600 25.70800
H  22.60200 50.51600 24.89900
H  20.89000 51.24900 30.14300
H  20.58100 47.38600 32.05200
H  19.30100 48.22500 32.79900
H  20.90400 48.47700 33.47900

