158

Mg 35.63700 1.38900 30.64400
C  33.49700 2.79500 32.94800
C  37.96600 0.89200 33.07100
C  37.84300 0.38200 28.27500
C  33.29400 1.82800 28.16700
N  35.73600 1.96700 32.74600
C  34.75100 2.50700 33.52300
C  35.18200 2.34200 34.97900
C  36.70300 2.00800 34.93700
C  36.80900 1.57600 33.50200
C  37.73200 3.12800 35.32600
C  34.28900 1.39300 35.81800
C  34.16100 1.59900 37.40500
H  34.78700 2.79900 38.17900
N  37.65400 0.78500 30.70000
C  38.39000 0.58600 31.79300
C  39.76500 0.22100 31.38200
C  39.71500 0.16400 29.99100
C  38.36000 0.51900 29.60200
C  40.89700 -0.06100 32.31700
C  40.81000 -0.24600 29.05200
O  40.77000 -0.09600 27.80400
C  42.10400 -0.87600 29.49600
N  35.57600 1.11400 28.51300
C  36.60400 0.66900 27.72900
C  36.23200 0.35500 26.25200
C  34.76500 0.90400 26.31400
C  34.54200 1.29500 27.72600
C  36.99900 1.06400 25.10100
C  33.74100 -0.18200 25.82600
C  33.61800 -0.20800 24.24400
N  33.78800 2.26400 30.52000
C  32.96300 2.38100 29.40200
C  31.74200 3.05600 29.76200
C  31.92100 3.27900 31.16800
C  33.13500 2.71800 31.55200
C  30.56600 3.44300 28.89900
C  31.33500 3.81500 32.38100
O  30.34200 4.49800 32.50100
C  32.27200 3.27900 33.62700
C  32.49200 4.37500 34.48600
O  33.29200 5.33900 34.25700
O  31.65700 4.34100 35.55800
C  31.65500 5.52700 36.34800
H  38.66500 0.67200 33.88000
H  38.49000 -0.03400 27.49900
H  32.49400 1.81600 27.42400
H  35.18700 3.37700 35.32100
H  36.95300 1.13000 35.53300
H  38.27500 2.51000 36.04200
H  37.34800 4.01100 35.83600
H  38.49100 3.21600 34.54900
H  34.82100 0.45200 35.67900
H  33.26500 1.27400 35.46100
H  34.33600 0.65700 37.92300
H  33.11200 1.89400 37.43800
H  41.26600 -1.08600 32.35900
H  40.65800 0.25600 33.33300
H  41.74000 0.51000 31.93100
H  42.67900 -1.23400 28.64200
H  42.10800 -1.63800 30.27600
H  42.72300 -0.06700 29.88400
H  36.30800 -0.71900 26.07700
H  34.74100 1.81700 25.72000
H  38.04500 1.15700 25.39300
H  36.73700 2.09400 24.86000
H  36.80500 0.47600 24.20400
H  32.76800 -0.09100 26.30900
H  34.15800 -1.13500 26.15000
H  33.93300 0.74300 23.81500
H  32.55500 -0.38900 24.08300
H  33.99500 -1.11900 23.77900
H  29.94300 2.56500 28.72600
H  31.04400 3.65000 27.94200
H  30.04900 4.32000 29.28900
H  31.82300 2.43500 34.15000
H  30.63600 5.67900 36.70500
H  31.89800 6.41000 35.75800
H  32.25400 5.42800 37.25400
Mg -10.09900 39.34100 42.59800
C  -8.72000 36.38600 41.52600
C  -7.33100 41.03100 41.28600
C  -11.68700 42.43300 43.14700
C  -13.08000 37.75600 43.42400
N  -8.22400 38.70400 41.36500
C  -7.82800 37.41800 41.24100
C  -6.38200 37.36200 40.68600
C  -5.96800 38.87700 40.85600
C  -7.20600 39.63100 41.21600
C  -4.86600 39.19800 41.93800
C  -6.45400 36.87200 39.15900
C  -5.60400 35.71000 38.89900
H  -4.86500 35.61100 37.57300
N  -9.68600 41.35100 42.23000
C  -8.46700 41.78700 41.72600
C  -8.46700 43.25300 41.64500
C  -9.70700 43.68100 42.20700
C  -10.43600 42.47900 42.56600
C  -7.40400 44.24100 41.03000
C  -10.13100 45.14000 42.22200
O  -9.28700 46.06400 42.06000
C  -11.54200 45.61700 42.34400
N  -12.01900 39.98200 43.30500
C  -12.41700 41.29400 43.45100
C  -13.99100 41.48200 43.77600
C  -14.36400 39.90900 43.98200
C  -13.13400 39.15200 43.46700
C  -14.27000 42.48800 44.95500
C  -15.67600 39.51400 43.35500
C  -16.82800 39.18600 44.33800
N  -10.76600 37.49900 42.60000
C  -11.96100 36.97900 43.06900
C  -11.94600 35.51000 42.85700
C  -10.69700 35.27000 42.23300
C  -10.02400 36.49100 42.13000
C  -13.07600 34.65200 43.13800
C  -9.88000 34.18300 41.77500
O  -10.12000 32.96500 41.73800
C  -8.45700 34.91400 41.36900
C  -7.41600 34.45500 42.31700
O  -7.43000 34.56800 43.54200
O  -6.48800 33.77400 41.60700
C  -5.62100 32.83500 42.36900
H  -6.40600 41.57400 41.07900
H  -12.16300 43.38400 43.39500
H  -13.98000 37.19100 43.67600
H  -5.68000 36.72300 41.22300
H  -5.68900 39.16800 39.84300
H  -4.07800 39.81300 41.50100
H  -4.48100 38.28600 42.39300
H  -5.28400 39.74700 42.78200
H  -5.98200 37.71100 38.64700
H  -7.47700 36.80800 38.78800
H  -6.14900 34.81000 39.18500
H  -4.73500 35.79500 39.55200
H  -6.91200 44.92400 41.72300
H  -7.88900 44.92900 40.33800
H  -6.65200 43.63600 40.52300
H  -11.75400 46.13200 43.28100
H  -12.39900 44.95700 42.20500
H  -11.64700 46.57800 41.84100
H  -14.34000 41.87600 42.82100
H  -14.33200 39.75800 45.06100
H  -13.30900 42.62600 45.44900
H  -15.00800 42.00000 45.59200
H  -14.54300 43.43500 44.49000
H  -15.61900 38.59500 42.77100
H  -15.95400 40.29300 42.64500
H  -17.74800 39.69600 44.05100
H  -16.62300 39.53500 45.35000
H  -17.05700 38.12100 44.28900
H  -13.82100 34.81000 42.35800
H  -13.58000 34.88300 44.07600
H  -12.84400 33.59600 43.00000
H  -8.12700 34.76700 40.34100
H  -5.26100 33.24000 43.31400
H  -4.69500 32.74200 41.80100
H  -6.14100 31.89000 42.52600

