158

Mg 44.81700 3.47000 48.15800
C  42.59500 6.20100 47.50100
C  42.02500 1.34600 47.66800
C  46.82500 1.02500 48.16800
C  47.46000 5.73700 47.82000
N  42.55200 3.80100 47.79600
C  41.90000 4.98700 47.55400
C  40.39900 4.82000 47.13100
C  40.23200 3.27100 47.48700
C  41.71900 2.72900 47.55800
C  39.43800 3.01500 48.78600
C  40.06800 5.08600 45.65100
C  38.78200 5.78900 45.36500
H  38.90400 6.96800 44.42300
N  44.43500 1.41000 48.07600
C  43.28400 0.72700 47.84900
C  43.53200 -0.69100 47.93100
C  44.98300 -0.79000 48.15100
C  45.53100 0.56700 48.11400
C  42.42800 -1.77500 47.67900
C  45.70300 -2.16200 48.38400
O  45.00400 -3.16700 48.33800
C  47.18800 -2.30300 48.66200
N  46.86000 3.41100 47.76600
C  47.45100 2.23500 48.07200
C  48.94300 2.45900 48.35100
C  49.17600 3.88700 47.83100
C  47.72300 4.38500 47.71100
C  49.35000 2.19100 49.86300
C  49.99000 4.03200 46.48800
C  51.50200 4.09900 46.75200
N  45.03300 5.52800 47.78800
C  46.16400 6.37200 47.74100
C  45.85600 7.72100 47.45900
C  44.42700 7.72000 47.42300
C  44.00700 6.37800 47.62800
C  46.70400 8.92900 47.27700
C  43.20800 8.59300 47.23300
O  43.16800 9.77700 47.07300
C  42.00300 7.59300 47.20400
C  40.99900 7.95600 48.29000
O  41.25700 7.77700 49.49300
O  39.81700 8.52100 47.79700
C  38.81000 8.95000 48.75200
H  41.15700 0.68400 47.67400
H  47.58700 0.26400 48.34700
H  48.39900 6.28000 47.95100
H  39.89200 5.49300 47.82300
H  39.57700 2.81200 46.74700
H  38.94800 2.05500 48.94900
H  38.71500 3.82400 48.89300
H  40.17500 3.05100 49.58800
H  40.00600 4.20900 45.00600
H  40.97400 5.61400 45.35500
H  38.19400 6.06100 46.24200
H  38.15500 4.99900 44.95200
H  42.38700 -2.21700 46.68400
H  41.45200 -1.30600 47.54800
H  42.23400 -2.46900 48.49600
H  47.78800 -1.95100 47.82200
H  47.38400 -3.35500 48.87000
H  47.39600 -1.64700 49.50700
H  49.43300 1.72900 47.70600
H  49.69500 4.48700 48.57800
H  48.76600 1.47400 50.44100
H  49.27000 3.16600 50.34400
H  50.41800 1.98300 49.80700
H  49.57400 4.92200 46.01500
H  49.83800 3.20400 45.79600
H  51.78400 4.22600 47.79700
H  51.89000 4.88100 46.09900
H  51.94300 3.14600 46.46000
H  47.22200 8.79000 46.32800
H  47.41400 8.99400 48.10100
H  46.13600 9.85500 47.18900
H  41.42900 7.76800 46.29400
H  38.17400 8.09400 48.97400
H  38.30100 9.79000 48.27800
H  39.25800 9.19500 49.71500
Mg 26.72500 50.28500 25.92100
C  24.73800 51.33800 28.68000
C  29.09100 49.50500 28.18200
C  28.53400 49.44000 23.29600
C  24.41500 51.71900 23.82200
N  26.91500 50.56900 28.23600
C  25.96600 50.87400 29.15500
C  26.43800 50.50100 30.58200
C  27.88500 50.04900 30.33400
C  27.95100 50.03700 28.81900
C  29.05200 50.95000 30.90000
C  25.48600 49.51200 31.30800
C  24.81400 49.88600 32.58700
H  25.79200 50.41400 33.63800
N  28.51700 49.52900 25.78900
C  29.38500 49.36300 26.82100
C  30.61300 48.81700 26.31000
C  30.44500 48.56700 24.88600
C  29.12600 49.21500 24.58700
C  31.90400 48.60000 27.04700
C  31.30000 47.98400 23.83100
O  31.07900 47.89300 22.65300
C  32.54800 47.28700 24.25800
N  26.48800 50.49400 23.85700
C  27.32800 50.01500 22.91900
C  26.73700 50.10300 21.51900
C  25.39100 50.83400 21.71500
C  25.46700 51.03100 23.25200
C  27.66700 50.70500 20.42100
C  24.11200 50.13900 21.11500
C  23.45900 49.04000 21.90600
N  24.89400 51.26400 26.13700
C  24.05200 51.79200 25.20400
C  22.79300 52.26300 25.73900
C  23.00900 52.16200 27.19000
C  24.28200 51.49200 27.34300
C  21.67500 52.74600 24.92100
C  22.48000 52.42800 28.55400
O  21.44100 52.89300 28.88100
C  23.62300 51.97600 29.53700
C  24.10900 53.17100 30.33200
O  25.02100 53.91900 30.12600
O  23.38200 53.12100 31.54200
C  23.83200 54.05500 32.58800
H  29.95000 49.22400 28.79600
H  29.23600 49.23000 22.48600
H  23.70500 51.97600 23.03400
H  26.33300 51.39100 31.20200
H  27.96400 48.99700 30.60700
H  28.64600 51.56000 31.70700
H  29.43200 51.61700 30.12500
H  29.92500 50.43400 31.29900
H  25.94100 48.52400 31.37500
H  24.70800 49.35900 30.56000
H  24.35000 48.98000 32.97600
H  24.09700 50.69200 32.42500
H  31.88000 49.07700 28.02700
H  32.71800 49.03700 26.46900
H  31.94000 47.55200 27.34500
H  33.04200 46.93200 23.35300
H  32.13400 46.43300 24.79500
H  33.26000 47.81500 24.89300
H  26.38200 49.15000 21.12700
H  25.50900 51.80100 21.22600
H  28.38100 51.41800 20.83400
H  27.10700 51.11800 19.58300
H  28.19000 49.78200 20.17100
H  24.33000 49.79300 20.10500
H  23.42300 50.96700 20.94900
H  24.05200 48.64600 22.73100
H  23.21200 48.21500 21.23700
H  22.52000 49.39400 22.33100
H  20.78200 52.88800 25.53000
H  21.35500 52.17000 24.05300
H  22.09500 53.66900 24.52100
H  23.10400 51.34700 30.26200
H  23.94100 55.02500 32.10500
H  24.76600 53.72400 33.04200
H  23.10900 54.06600 33.40400

