158

Mg -1.26300 18.34500 27.27500
C  -1.58700 16.37000 30.29700
C  -1.52900 21.00300 29.28100
C  -1.56700 20.09600 24.45800
C  -1.43800 15.44400 25.36700
N  -1.64500 18.59000 29.59900
C  -1.45900 17.75000 30.63100
C  -1.66500 18.36000 31.97900
C  -1.89000 19.83800 31.57700
C  -1.70400 19.83600 30.01200
C  -3.27000 20.51700 31.99900
C  -0.62400 17.93300 33.07400
C  -1.09100 17.22800 34.36200
H  -0.09900 17.33600 35.58400
N  -1.46500 20.26800 26.93600
C  -1.58500 21.28500 27.88400
C  -1.64000 22.62200 27.22700
C  -1.40200 22.28400 25.82800
C  -1.50100 20.79900 25.65800
C  -1.63900 23.93500 27.94800
C  -1.15900 23.25400 24.70300
O  -1.03800 22.87400 23.53300
C  -0.96300 24.76200 24.89600
N  -1.64500 17.74800 25.15800
C  -1.55800 18.71500 24.21000
C  -1.47600 18.00400 22.77200
C  -1.20100 16.56500 23.13100
C  -1.41700 16.56300 24.63900
C  -2.74500 18.15000 21.97300
C  0.17900 15.99600 22.82800
C  1.38000 16.72500 23.57600
N  -1.51800 16.33000 27.69200
C  -1.47300 15.28100 26.79200
C  -1.53700 14.04800 27.61700
C  -1.60900 14.46300 28.97200
C  -1.62700 15.83800 28.96700
C  -1.50900 12.66900 27.02300
C  -1.80000 13.97200 30.32600
O  -2.03100 12.77600 30.67900
C  -1.64300 15.12600 31.30300
C  -0.36200 14.70700 31.98300
O  0.76300 15.07700 31.68000
O  -0.74600 13.83800 32.92600
C  0.32500 13.60500 33.84900
H  -1.50700 21.88000 29.93200
H  -1.73100 20.67100 23.54500
H  -1.17600 14.52700 24.83400
H  -2.58200 17.94600 32.39800
H  -1.13100 20.52800 31.94700
H  -3.39400 20.21900 33.04100
H  -4.00500 20.02000 31.36600
H  -3.25600 21.60400 31.93000
H  -0.05900 18.83000 33.32800
H  -0.01700 17.16200 32.59900
H  -1.27000 16.17400 34.14700
H  -2.06400 17.63800 34.63300
H  -0.59600 24.20600 27.78500
H  -1.92500 23.64100 28.95700
H  -2.26400 24.75400 27.59000
H  0.03000 24.90000 25.32300
H  -1.74900 25.28600 25.44100
H  -0.92400 25.17800 23.88900
H  -0.61300 18.47400 22.30100
H  -1.95500 15.91000 22.69400
H  -2.52400 18.61700 21.01300
H  -3.42300 18.84500 22.47000
H  -3.29000 17.24800 21.69700
H  0.34900 16.06400 21.75300
H  0.25900 14.94800 23.11700
H  1.07900 17.00100 24.58700
H  1.76200 17.60300 23.05500
H  2.21900 16.03500 23.66700
H  -0.76700 12.04100 27.51600
H  -1.15300 12.82000 26.00400
H  -2.47900 12.17300 27.03400
H  -2.46500 15.14200 32.01900
H  1.10000 13.10600 33.26700
H  -0.01700 13.02300 34.70500
H  0.63400 14.49100 34.40200
Mg 48.25700 34.13600 27.01800
C  46.32000 32.53900 29.44300
C  48.54700 36.76700 29.05400
C  49.79000 35.59400 24.50600
C  47.33500 31.37700 24.78400
N  47.54400 34.51700 29.10100
C  46.89900 33.70300 29.92800
C  46.93500 34.18500 31.37300
C  47.17200 35.66000 31.09400
C  47.90700 35.64200 29.65300
C  45.94000 36.50800 31.18200
C  48.10300 33.56300 32.22000
C  48.35700 34.08800 33.64000
H  47.24800 34.85100 34.43300
N  49.16200 35.86500 26.86500
C  49.18700 36.87000 27.81400
C  50.00600 38.01600 27.24200
C  50.32200 37.70100 25.90900
C  49.73400 36.36000 25.74400
C  50.29100 39.32100 28.09100
C  51.17800 38.49500 24.85400
O  51.51300 38.05800 23.74900
C  51.52500 39.91500 25.20800
N  48.44500 33.63100 24.89800
C  49.15500 34.39600 24.15800
C  49.28200 33.84700 22.78100
C  48.68500 32.39500 22.93900
C  48.07600 32.46400 24.28200
C  48.79100 34.64200 21.58300
C  49.64400 31.19200 22.69400
C  50.49400 31.25300 21.43300
N  46.88900 32.44200 26.94500
C  46.68600 31.36800 26.01500
C  45.88100 30.39100 26.70200
C  45.68000 30.83100 27.99500
C  46.35500 32.07800 28.09700
C  45.53800 29.00800 26.12800
C  45.10300 30.42800 29.31900
O  44.52500 29.40300 29.67200
C  45.41300 31.64600 30.20300
C  45.72200 31.09400 31.55300
O  46.69400 30.39500 31.76600
O  44.77100 31.44600 32.45300
C  45.12800 31.09700 33.82300
H  48.43900 37.76300 29.48800
H  50.28800 36.02500 23.63600
H  47.08400 30.53600 24.13500
H  46.01700 34.00500 31.93300
H  47.77600 36.16900 31.84500
H  45.98200 37.28800 30.42200
H  45.86600 37.10900 32.08800
H  44.98100 36.00100 31.07700
H  49.07900 33.66400 31.74400
H  47.98900 32.48000 32.27100
H  49.24400 34.72100 33.59600
H  48.50700 33.16800 34.20400
H  51.35200 39.53800 28.21200
H  49.98100 39.17700 29.12600
H  49.69300 40.09900 27.61500
H  52.04000 40.08800 26.15300
H  50.54100 40.37300 25.10800
H  52.03100 40.40100 24.37400
H  50.36800 33.77100 22.72800
H  47.82800 32.15800 22.30800
H  48.04600 34.09200 21.00800
H  49.67200 34.85500 20.97700
H  48.27400 35.52100 21.96900
H  49.09600 30.25200 22.76000
H  50.30300 31.22600 23.56200
H  50.21200 30.39300 20.82600
H  51.53600 30.99500 21.61900
H  50.36000 32.12500 20.79200
H  45.69700 29.10100 25.05400
H  44.49300 28.79400 26.35400
H  46.30100 28.26700 26.36900
H  44.53700 32.28800 30.29600
H  45.98300 31.61800 34.25600
H  45.38400 30.03800 33.83500
H  44.29000 31.30000 34.49000

