158

Mg 24.63600 -5.53200 46.12200
C  26.71700 -3.18300 44.37700
C  22.03400 -4.36800 44.36100
C  23.12500 -8.44000 46.80300
C  27.63700 -6.69200 47.68000
N  24.44300 -3.97900 44.62400
C  25.39800 -3.23500 43.91600
C  24.82900 -2.38300 42.83500
C  23.29400 -2.50500 43.01100
C  23.26400 -3.69900 44.09100
C  22.61800 -1.16100 43.57500
C  25.48900 -2.74300 41.45900
C  25.88000 -1.63200 40.49500
H  25.38000 -1.74400 39.03300
N  22.74200 -6.22100 45.83600
C  21.80800 -5.54600 45.12700
C  20.57300 -6.29900 45.12200
C  20.95000 -7.59600 45.66000
C  22.29900 -7.46900 46.21100
C  19.31100 -5.85500 44.43000
C  19.97800 -8.82200 45.66900
O  18.75000 -8.80500 45.37000
C  20.44000 -10.14500 46.15300
N  25.31200 -7.24800 47.13800
C  24.47300 -8.36100 47.18500
C  25.24700 -9.49000 47.84300
C  26.63600 -8.91300 48.31400
C  26.53000 -7.52600 47.69500
C  24.43300 -10.26300 49.00000
C  27.91400 -9.71500 47.93100
C  28.85400 -9.85200 49.14800
N  26.77900 -5.10300 46.07100
C  27.82200 -5.50000 46.90500
C  28.97900 -4.67800 46.73800
C  28.63500 -3.77800 45.68900
C  27.29100 -4.11900 45.31900
C  30.38200 -4.88500 47.33500
C  29.14300 -2.66600 44.91800
O  30.16700 -2.07100 44.91800
C  27.90700 -2.29500 43.95600
C  27.63200 -0.84800 44.16700
O  27.01800 -0.33000 45.07300
O  28.14600 -0.13600 43.16700
C  28.32800 1.27900 43.50700
H  21.18100 -4.14000 43.71900
H  22.81000 -9.47500 46.95100
H  28.47900 -6.94300 48.32900
H  24.95000 -1.30000 42.85600
H  22.73100 -2.78000 42.11900
H  23.16300 -0.24700 43.34100
H  22.46300 -1.16800 44.65400
H  21.67100 -0.92900 43.08800
H  24.79200 -3.41900 40.96400
H  26.34900 -3.37600 41.67900
H  26.96000 -1.54700 40.37900
H  25.69700 -0.63400 40.89500
H  18.36200 -6.38900 44.39300
H  19.50000 -5.78000 43.35900
H  19.07100 -4.84300 44.75900
H  19.64500 -10.88800 46.08400
H  20.74100 -10.00600 47.19100
H  21.25400 -10.37400 45.46500
H  25.53600 -10.25400 47.12100
H  26.58900 -8.75900 49.39200
H  24.17900 -11.28900 48.73600
H  23.49100 -9.72400 49.10600
H  25.01600 -10.14200 49.91400
H  28.46600 -9.26400 47.10700
H  27.83500 -10.77400 47.68600
H  29.72200 -9.21800 48.96900
H  29.16000 -10.89700 49.21600
H  28.42900 -9.52700 50.09800
H  30.86100 -5.85400 47.19400
H  30.18400 -4.70300 48.39100
H  30.95200 -4.14100 46.77700
H  28.28600 -2.39600 42.93900
H  29.33200 1.60400 43.23400
H  28.35800 1.49000 44.57700
H  27.55200 1.90800 43.07000
Mg -1.76100 33.84900 27.46700
C  -3.68000 32.31000 29.91000
C  -0.40800 35.82400 29.86300
C  -0.29200 35.75400 25.04300
C  -3.52600 32.21900 24.88000
N  -2.06700 34.00700 29.61800
C  -2.76700 33.18900 30.50400
C  -2.61900 33.63500 31.98300
C  -1.65900 34.83900 31.86100
C  -1.38500 34.94900 30.36700
C  -2.15700 36.21600 32.35900
C  -2.16300 32.46700 32.96000
C  -1.43300 32.95500 34.30100
H  -1.59700 32.19000 35.64700
N  -0.43300 35.50900 27.46600
C  0.06800 36.04500 28.54500
C  1.09200 37.00000 28.18200
C  1.06000 37.12400 26.80700
C  0.07200 36.16400 26.34800
C  1.98800 37.58100 29.21500
C  1.96800 37.85300 25.84600
O  1.82100 37.71400 24.65900
C  3.00300 38.80400 26.30100
N  -1.92100 34.04400 25.29200
C  -1.19000 34.85100 24.55200
C  -1.66100 34.77900 23.12500
C  -2.28300 33.37600 22.94900
C  -2.59200 33.13100 24.47000
C  -2.49700 36.06100 22.73100
C  -1.28200 32.18100 22.46400
C  0.18400 32.05900 22.96100
N  -3.34500 32.54800 27.38300
C  -3.95500 31.92800 26.28200
C  -4.89700 31.05600 26.77300
C  -4.87000 31.13700 28.16900
C  -3.86100 32.05100 28.49400
C  -5.75800 30.24400 25.92900
C  -5.42500 30.60700 29.42400
O  -6.24700 29.74000 29.64600
C  -4.72500 31.38400 30.50800
C  -5.82400 32.18700 31.19600
O  -6.69000 32.91300 30.69400
O  -5.74100 31.80700 32.49100
C  -6.84300 32.27300 33.35100
H  0.06200 36.32600 30.71100
H  0.08700 36.35500 24.21400
H  -4.08300 31.67700 24.11300
H  -3.64200 33.90500 32.24300
H  -0.66900 34.66900 32.28200
H  -1.34300 36.76800 32.83000
H  -2.83100 35.97400 33.18100
H  -2.64500 36.79600 31.57600
H  -1.46500 31.80500 32.44700
H  -3.02000 31.82300 33.15600
H  -1.75700 33.94300 34.62900
H  -0.36700 33.00300 34.08100
H  2.82000 36.94800 29.52300
H  1.36700 37.75400 30.09400
H  2.34200 38.56900 28.92100
H  3.77800 38.38900 26.94500
H  2.53100 39.68600 26.73300
H  3.41800 39.20300 25.37500
H  -0.86700 34.82500 22.37900
H  -3.18800 33.36300 22.34200
H  -2.39000 36.85800 23.46500
H  -3.53500 35.80600 22.51700
H  -2.12900 36.45600 21.78400
H  -1.37700 32.30100 21.38500
H  -1.89000 31.31700 22.73100
H  0.91200 32.27000 22.17800
H  0.38800 31.06400 23.35800
H  0.41400 32.72800 23.79100
H  -6.51000 30.89200 25.48000
H  -6.32700 29.61600 26.61500
H  -5.21000 29.68100 25.17400
H  -4.36900 30.66100 31.24200
H  -7.55500 32.91500 32.83100
H  -6.42300 32.78800 34.21500
H  -7.43000 31.40300 33.64500

