158

Mg 25.13000 1.31600 30.08200
C  27.26900 0.98500 32.73200
C  22.42200 1.39000 32.34500
C  22.98600 1.22200 27.53600
C  27.80400 0.61900 27.96400
N  24.92400 1.28500 32.35700
C  25.97400 1.21400 33.22500
C  25.50700 1.51600 34.66300
C  23.91800 1.45100 34.51300
C  23.66400 1.39300 32.98500
C  23.15000 0.26300 35.24200
C  26.10200 2.87300 35.18400
C  26.75600 2.80100 36.61200
H  26.11600 3.70300 37.65700
N  23.00000 1.28500 30.00300
C  22.07500 1.27100 31.01600
C  20.76700 1.04200 30.46000
C  20.88800 0.92600 29.03800
C  22.30100 1.18100 28.78000
C  19.52600 0.88000 31.31600
C  19.84000 0.62000 27.94900
O  20.11400 0.34600 26.79700
C  18.42600 0.53900 28.33400
N  25.41300 0.98500 28.06300
C  24.37100 1.13200 27.20000
C  24.91600 1.22600 25.73700
C  26.42600 1.23900 25.95600
C  26.51300 0.92800 27.45100
C  24.42600 0.07800 24.81600
C  27.22500 2.53800 25.46400
C  26.82600 3.85900 26.12500
N  27.15700 0.82300 30.26800
C  28.13800 0.55400 29.31400
C  29.46200 0.39000 29.93500
C  29.17900 0.59300 31.31200
C  27.74800 0.74100 31.44000
C  30.81800 0.19900 29.30000
C  29.74500 0.87300 32.65100
O  30.90100 1.00400 33.05000
C  28.58200 1.02500 33.56000
C  28.61300 -0.05100 34.57300
O  28.62100 -1.23800 34.33800
O  28.77800 0.47000 35.81800
C  29.25900 -0.33400 36.90300
H  21.55200 1.53700 32.98900
H  22.37000 1.08600 26.64500
H  28.58900 0.70200 27.21000
H  25.74900 0.71700 35.36300
H  23.55000 2.43300 34.81000
H  22.73100 -0.36500 34.45600
H  22.24800 0.67200 35.69800
H  23.83000 -0.29600 35.88400
H  25.31200 3.62300 35.22200
H  26.86800 3.34500 34.56800
H  27.75100 3.22400 36.47400
H  26.86600 1.78900 37.00000
H  18.97200 1.81700 31.26900
H  19.72600 0.58100 32.34400
H  18.94800 0.03100 30.95000
H  18.12000 1.51800 28.70000
H  18.14400 -0.28000 28.99600
H  17.93000 0.30600 27.39200
H  24.68200 2.16400 25.23500
H  26.95600 0.44300 25.43200
H  23.66200 -0.54800 25.27700
H  25.26500 -0.56000 24.53700
H  24.14000 0.49600 23.85100
H  26.95600 2.62200 24.41100
H  28.31000 2.43300 25.45900
H  27.65100 4.24600 26.72400
H  25.98900 3.59400 26.77200
H  26.50400 4.53700 25.33500
H  30.76400 -0.02900 28.23600
H  31.42900 -0.41900 29.95800
H  31.32200 1.16500 29.30700
H  28.61000 1.99600 34.05400
H  28.71300 -0.15500 37.82900
H  30.28400 0.00100 37.06100
H  29.17800 -1.40400 36.70800
Mg 1.33700 42.64700 24.84300
C  2.33400 42.79200 28.25300
C  -1.54700 41.27000 25.90800
C  0.58700 42.20300 21.65700
C  4.57600 43.56300 23.98300
N  0.43500 42.28600 26.86400
C  0.99200 42.45800 28.12000
C  -0.00200 42.22000 29.19500
C  -1.24500 41.51000 28.44100
C  -0.75600 41.66400 26.97100
C  -1.40300 40.07800 28.81800
C  -0.38200 43.46600 30.11300
C  -0.07600 43.21900 31.64000
H  -0.63400 41.92100 32.26400
N  -0.32700 41.99300 23.93900
C  -1.40900 41.46900 24.53600
C  -2.47700 41.15300 23.49600
C  -1.80000 41.48600 22.24900
C  -0.42200 41.93000 22.60800
C  -3.94300 40.70700 23.81400
C  -2.33100 41.24400 20.89700
O  -1.67600 41.42500 19.87600
C  -3.68200 40.72000 20.72900
N  2.45100 42.71700 23.08300
C  1.86900 42.54200 21.91300
C  2.91000 42.68900 20.75700
C  4.06600 43.40600 21.51100
C  3.69000 43.22400 22.99100
C  3.30000 41.34100 20.08100
C  4.40400 44.85400 20.96700
C  3.23700 45.87700 21.14900
N  3.08900 43.06500 25.85800
C  4.29800 43.51100 25.34200
C  5.27400 43.72000 26.38700
C  4.52500 43.49100 27.58600
C  3.20600 43.06800 27.17300
C  6.66900 44.09200 26.27200
C  4.59200 43.44200 28.99300
O  5.45400 43.73500 29.79300
C  3.14300 42.87900 29.51800
C  3.49200 41.65300 30.26300
O  3.85600 40.62700 29.71900
O  3.49300 41.85600 31.63300
C  3.83200 40.68800 32.40400
H  -2.51700 40.81700 26.12400
H  0.41600 42.14400 20.58000
H  5.47800 44.01000 23.55900
H  0.51900 41.46200 29.78000
H  -2.12100 42.13600 28.60900
H  -2.46800 39.92200 28.98900
H  -0.74700 39.83400 29.65400
H  -0.93800 39.50800 28.01300
H  -1.41300 43.67800 29.83000
H  0.14300 44.35500 29.76200
H  -0.70800 43.97300 32.10900
H  0.98100 43.36500 31.86500
H  -4.05700 39.62300 23.81300
H  -4.73300 41.18900 23.23700
H  -4.12200 41.05000 24.83300
H  -3.96400 39.80100 21.24300
H  -3.87100 40.49500 19.67900
H  -4.34900 41.52400 21.03800
H  2.49400 43.30800 19.96200
H  5.02100 42.88300 21.47600
H  2.64300 40.48300 20.22600
H  4.30200 41.05000 20.39700
H  3.44400 41.54800 19.02100
H  4.54700 44.71600 19.89500
H  5.25800 45.33200 21.44700
H  2.43800 45.48300 21.77800
H  2.87400 46.26000 20.19500
H  3.62300 46.72200 21.71900
H  7.15800 43.69600 25.38100
H  7.22100 43.81300 27.16900
H  6.73600 45.18000 26.26900
H  2.66800 43.60300 30.18000
H  3.27800 39.86300 31.95500
H  3.67600 40.73900 33.48100
H  4.90500 40.51400 32.31700

