158

Mg 24.23900 -7.31200 48.28300
C  26.61700 -4.97500 47.04500
C  21.98500 -6.18000 45.73900
C  22.10600 -9.47300 49.33600
C  26.83500 -8.61900 50.18000
N  24.31600 -5.78900 46.70500
C  25.37600 -5.00400 46.35100
C  24.99600 -3.93900 45.34800
C  23.41500 -4.09700 45.24700
C  23.19500 -5.44800 45.97200
C  22.62000 -2.87600 45.81200
C  25.77300 -4.03900 43.97000
C  26.45400 -2.76300 43.52300
H  25.87300 -2.10800 42.30500
N  22.31500 -7.83800 47.55500
C  21.48900 -7.24600 46.55200
C  20.23300 -7.89700 46.51100
C  20.14700 -8.73600 47.59600
C  21.56200 -8.76900 48.22500
C  19.14900 -7.50300 45.46600
C  18.90700 -9.57600 48.00600
O  17.85500 -9.46400 47.37600
C  18.91400 -10.59700 49.09900
N  24.42300 -8.95300 49.44100
C  23.35300 -9.60200 49.90200
C  23.72500 -10.75400 50.91400
C  25.31400 -10.53300 51.03400
C  25.55200 -9.27500 50.17200
C  22.93100 -10.70300 52.32000
C  26.28000 -11.71200 50.69100
C  26.82100 -11.80300 49.22200
N  26.33200 -6.86100 48.70000
C  27.28200 -7.49000 49.43200
C  28.59700 -6.82700 49.35300
C  28.38200 -5.71200 48.45400
C  27.01800 -5.83700 48.04700
C  29.84900 -7.25700 50.07800
C  28.96200 -4.58000 47.73400
O  30.13700 -4.19600 47.67300
C  27.85200 -4.11100 46.75500
C  27.73600 -2.66500 47.09100
O  27.11000 -2.19400 48.06100
O  28.18400 -1.90600 46.07100
C  27.72700 -0.51900 46.19200
H  21.29200 -5.81500 44.97800
H  21.36500 -10.17100 49.73300
H  27.63400 -9.13400 50.71800
H  25.20700 -2.94000 45.72800
H  23.03500 -4.23000 44.23400
H  23.26600 -2.02300 46.02100
H  22.04400 -3.35000 46.60700
H  21.90700 -2.50500 45.07700
H  24.96000 -4.10900 43.24800
H  26.44800 -4.89400 43.92500
H  27.46900 -3.08500 43.29000
H  26.52000 -1.96200 44.26000
H  18.50400 -6.68100 45.77600
H  18.55000 -8.38400 45.23500
H  19.48000 -7.26900 44.45500
H  17.95400 -11.07100 49.30000
H  19.14100 -10.05400 50.01600
H  19.71200 -11.32900 48.97800
H  23.57600 -11.69500 50.38600
H  25.44000 -10.09100 52.02300
H  22.43200 -9.74600 52.46900
H  23.61700 -10.83600 53.15700
H  22.23600 -11.54200 52.33000
H  25.91900 -12.68100 51.03600
H  27.05200 -11.71100 51.46000
H  26.88800 -12.88100 49.07900
H  27.76800 -11.27000 49.13800
H  25.98300 -11.47200 48.60800
H  30.26000 -8.20800 49.73700
H  29.51100 -7.51300 51.08200
H  30.61300 -6.48100 50.04000
H  28.21600 -4.14000 45.72800
H  28.15400 0.02300 45.34800
H  28.17200 0.03500 47.01900
H  26.64200 -0.56400 46.10400
Mg 47.99600 34.80400 26.82200
C  46.33900 33.39800 29.64400
C  48.22000 37.73900 28.77500
C  49.07500 36.28200 24.19100
C  47.49200 31.80400 25.13500
N  47.53400 35.45900 29.02900
C  46.89200 34.64600 29.95100
C  46.94600 35.29700 31.31100
C  47.10200 36.77700 30.95000
C  47.62200 36.71000 29.51400
C  45.84600 37.68000 31.10500
C  48.12200 34.65200 32.10100
C  48.09700 34.79100 33.64800
H  47.05000 35.68000 34.40200
N  48.67900 36.68500 26.53800
C  48.75700 37.70900 27.46300
C  49.36600 38.80900 26.77900
C  49.62600 38.49000 25.40300
C  49.14800 37.11900 25.31500
C  49.79800 40.15100 27.49700
C  50.39100 39.19300 24.27400
O  50.52800 38.74100 23.13100
C  50.91000 40.58800 24.53300
N  48.33200 34.10400 24.94500
C  48.75400 34.97700 23.96700
C  48.82000 34.17300 22.65100
C  48.70800 32.68500 23.02100
C  48.07200 32.87900 24.41200
C  47.77000 34.68400 21.61600
C  50.07300 31.86100 22.88500
C  51.16100 31.89300 24.04200
N  47.03400 32.99400 27.18300
C  46.94400 31.84700 26.44900
C  46.18900 30.81700 27.18800
C  45.89100 31.44400 28.41800
C  46.42800 32.73400 28.38600
C  45.75500 29.40100 26.71300
C  45.13900 31.28800 29.64500
O  44.42400 30.32800 29.99800
C  45.29600 32.59700 30.44000
C  45.47900 32.40100 31.89900
O  46.50400 32.05200 32.50700
O  44.25500 32.36600 32.56300
C  44.08400 32.01000 33.97400
H  48.16600 38.73100 29.22900
H  49.48300 36.74200 23.28800
H  47.47100 30.89300 24.53200
H  46.01500 35.13200 31.85400
H  47.84100 37.28200 31.57200
H  45.89400 38.28100 32.01300
H  45.00300 37.00100 31.23300
H  45.60500 38.28300 30.22900
H  49.01300 35.21400 31.81900
H  48.31500 33.60700 31.86200
H  49.14300 35.03800 33.83000
H  48.00400 33.75200 33.96600
H  50.87400 40.31600 27.55600
H  49.24800 40.09100 28.43700
H  49.40700 40.98100 26.91000
H  50.22300 41.24800 25.06400
H  50.93400 41.02800 23.53500
H  51.87600 40.54000 25.03500
H  49.74600 34.31000 22.09200
H  47.95100 32.26500 22.35900
H  48.10200 34.61500 20.58000
H  47.41400 35.71100 21.69200
H  46.83600 34.12200 21.65800
H  50.43000 32.19900 21.91200
H  49.56600 30.90800 22.73100
H  50.98300 30.96300 24.58100
H  50.88500 32.75100 24.65600
H  52.15900 32.08500 23.64700
H  45.90400 29.38600 25.63300
H  44.68200 29.34800 26.89900
H  46.16400 28.54900 27.25500
H  44.46000 33.29500 30.38200
H  43.10700 31.55800 34.14200
H  44.26900 32.85500 34.63800
H  44.87100 31.30000 34.23100

