158

Mg -3.18200 17.47100 26.75100
C  -2.97100 15.53100 29.77600
C  -3.19800 20.21600 28.69100
C  -3.53900 19.14100 23.98500
C  -3.38900 14.40900 24.94600
N  -2.98600 17.84900 28.95900
C  -2.87400 16.94300 29.96700
C  -2.83000 17.59200 31.35100
C  -2.70100 19.11800 30.96100
C  -3.09200 19.09800 29.49300
C  -3.57000 20.17800 31.73300
C  -1.70300 16.97700 32.35500
C  -1.07300 17.94400 33.45500
H  -1.01700 17.46900 34.87200
N  -3.18700 19.46600 26.41200
C  -3.28800 20.48100 27.30300
C  -3.36000 21.79300 26.57800
C  -3.27700 21.48600 25.19700
C  -3.31900 19.93600 25.16800
C  -3.29800 23.17400 27.08400
C  -3.04500 22.29300 23.91600
O  -2.88900 21.81500 22.77900
C  -3.00400 23.77200 24.01800
N  -3.52600 16.84800 24.79300
C  -3.74800 17.72900 23.77500
C  -3.93100 17.10600 22.42100
C  -3.74800 15.59000 22.76700
C  -3.52600 15.57900 24.27200
C  -5.09200 17.61000 21.58200
C  -2.74000 14.74700 21.84000
C  -1.30900 15.18700 22.08400
N  -3.33800 15.34700 27.20000
C  -3.34000 14.23600 26.34600
C  -3.40100 13.04200 27.17600
C  -3.45400 13.50000 28.51400
C  -3.25900 14.93000 28.44600
C  -3.45400 11.62800 26.77500
C  -3.46000 13.04800 29.85600
O  -3.59800 11.91100 30.29600
C  -3.13500 14.29600 30.74600
C  -1.91300 13.95500 31.48100
O  -0.74300 14.02200 31.06900
O  -2.34000 13.45600 32.70300
C  -1.25400 13.12300 33.58300
H  -3.05900 21.19800 29.14700
H  -3.78200 19.79500 23.14600
H  -3.45000 13.56700 24.25300
H  -3.80100 17.50300 31.83900
H  -1.63600 19.28500 31.12100
H  -2.84400 20.79500 32.26300
H  -4.24300 19.67200 32.42500
H  -4.14900 20.84900 31.09800
H  -0.92700 16.63600 31.67000
H  -2.13900 16.13600 32.89300
H  -1.43500 18.97000 33.38400
H  -0.04700 17.97500 33.08800
H  -2.43000 23.54200 26.53700
H  -3.16600 23.29200 28.15900
H  -4.14400 23.74200 26.69800
H  -3.90300 24.16900 24.49000
H  -3.01500 24.26800 23.04800
H  -2.07400 24.00900 24.53400
H  -3.04100 17.50700 21.93700
H  -4.69300 15.06200 22.63900
H  -5.72900 16.78500 21.26400
H  -4.81400 18.24900 20.74400
H  -5.75700 18.19400 22.21900
H  -3.00800 14.82600 20.78600
H  -2.92000 13.69000 22.03400
H  -0.94000 15.61900 21.15400
H  -0.69100 14.34500 22.39600
H  -1.30400 15.99200 22.81800
H  -2.46700 11.22500 26.54500
H  -4.28000 11.73900 26.07300
H  -3.87300 11.10600 27.63500
H  -3.94400 14.48300 31.45200
H  -1.67400 12.18700 33.95100
H  -1.36200 13.83600 34.40100
H  -0.22200 13.12500 33.23300
Mg 49.24300 35.31900 28.48700
C  47.00500 33.80900 30.67900
C  49.30700 38.05900 30.52900
C  51.19700 36.76200 26.17100
C  48.47400 32.86500 26.03300
N  48.35100 35.85500 30.46800
C  47.54800 34.97900 31.18100
C  47.31300 35.58500 32.62000
C  47.86900 37.07400 32.45400
C  48.55300 36.96700 31.06400
C  46.82300 38.20400 32.47900
C  48.06400 34.60800 33.66500
C  49.55900 34.93600 34.05700
H  49.95900 35.64300 35.38600
N  50.18900 37.12900 28.46100
C  50.03800 38.18100 29.33000
C  50.95900 39.25400 28.93300
C  51.64800 38.82700 27.76900
C  50.99300 37.50700 27.40500
C  51.19600 40.49900 29.81600
C  52.75600 39.47500 26.94900
O  53.21400 38.91400 25.96800
C  53.43000 40.78500 27.45200
N  49.76800 34.89000 26.42000
C  50.67100 35.58100 25.65400
C  51.08500 34.84500 24.40100
C  49.96700 33.80900 24.30000
C  49.30400 33.82100 25.67700
C  51.12200 35.86900 23.18900
C  50.57200 32.44700 23.77500
C  49.84800 31.81400 22.62300
N  48.03900 33.58000 28.39100
C  47.85300 32.69700 27.30200
C  46.99800 31.67100 27.79100
C  46.53900 32.10200 29.03400
C  47.23900 33.25300 29.41100
C  46.54800 30.38300 27.12100
C  45.59300 31.79000 30.12300
O  44.83700 30.83100 30.25000
C  45.90400 32.90600 31.26500
C  46.31000 32.16800 32.48800
O  46.87900 31.05000 32.55800
O  45.54600 32.66300 33.53000
C  45.79100 32.10200 34.87300
H  49.36900 38.90700 31.21400
H  51.83200 37.27200 25.44300
H  48.36400 32.04300 25.32200
H  46.23500 35.61500 32.77800
H  48.60300 37.29600 33.22900
H  47.25900 39.09300 32.93400
H  46.03800 37.83400 33.13900
H  46.44000 38.40200 31.47800
H  48.14000 33.55600 33.39100
H  47.47800 34.61600 34.58400
H  50.06600 35.67500 33.43700
H  50.23700 34.09100 33.93100
H  52.27300 40.66400 29.84500
H  50.98600 40.21400 30.84700
H  50.53700 41.32200 29.54100
H  52.74000 41.53500 27.83700
H  53.91100 41.22900 26.58000
H  54.28600 40.59700 28.10000
H  52.07300 34.47200 24.67100
H  49.17500 34.11500 23.61600
H  50.56700 36.80000 23.30300
H  50.65200 35.50900 22.27400
H  52.15100 36.16500 22.98700
H  50.64000 31.72400 24.58800
H  51.54900 32.73800 23.39100
H  48.81100 32.12400 22.50000
H  49.80400 30.74000 22.80300
H  50.42700 31.96000 21.71100
H  46.40900 30.59000 26.06000
H  45.63200 29.98900 27.56100
H  47.31800 29.61200 27.13500
H  45.02300 33.48200 31.54600
H  45.85100 32.93300 35.57500
H  46.73300 31.55300 34.84800
H  44.96600 31.45100 35.16100

