158

Mg 8.48200 4.64500 27.55600
C  9.70800 2.92100 30.30700
C  6.56300 6.61600 29.72300
C  6.97400 6.04000 24.92900
C  10.06200 2.36800 25.43500
N  8.19300 4.78400 29.67500
C  8.83300 3.95200 30.62800
C  8.58800 4.55500 32.08300
C  7.68300 5.77800 31.78500
C  7.43800 5.75500 30.31000
C  6.31900 5.70100 32.65900
C  9.89200 4.89100 32.81800
C  9.65200 5.94300 33.95200
H  10.42300 5.67400 35.24000
N  7.09600 6.23400 27.28400
C  6.42300 6.91500 28.30800
C  5.61500 7.93500 27.76300
C  5.74000 7.78300 26.32300
C  6.70200 6.69600 26.10200
C  4.73200 8.93500 28.65600
C  4.97200 8.53800 25.30900
O  5.19000 8.39300 24.11200
C  3.93100 9.53100 25.68700
N  8.39200 4.14800 25.51600
C  7.79900 5.01200 24.59600
C  8.23500 4.68500 23.12300
C  9.35400 3.63700 23.36000
C  9.30100 3.32700 24.87400
C  7.09300 4.18900 22.22700
C  10.82500 4.11400 22.89600
C  11.57300 5.03300 23.85700
N  9.63600 2.96700 27.75100
C  10.28900 2.14700 26.81400
C  11.17600 1.27600 27.52100
C  10.97300 1.52400 28.86900
C  9.98500 2.50600 28.97000
C  12.16000 0.45900 26.88800
C  11.42700 1.16900 30.21200
O  12.21000 0.33000 30.63100
C  10.53300 2.02200 31.11500
C  9.68600 1.11200 31.87300
O  8.90700 0.31700 31.40600
O  9.96900 1.23100 33.20000
C  9.11200 0.46400 34.17000
H  6.10700 7.27600 30.46300
H  6.65000 6.54200 24.01400
H  10.74800 1.79900 24.80400
H  8.07200 3.83200 32.71500
H  8.17700 6.73100 31.97800
H  6.07100 6.67800 33.07300
H  6.58700 5.04800 33.49000
H  5.51000 5.19800 32.13000
H  10.53600 5.29300 32.03600
H  10.20400 3.98000 33.32800
H  8.59100 6.05200 34.17900
H  10.06100 6.89500 33.61500
H  5.04500 9.95600 28.44200
H  4.79800 8.77900 29.73200
H  3.68200 8.81300 28.38800
H  4.31300 10.38600 26.24500
H  3.17400 9.04600 26.30300
H  3.66200 9.97600 24.72900
H  8.61200 5.60700 22.67900
H  9.18100 2.64300 22.94700
H  6.25100 3.88000 22.84700
H  7.40300 3.29100 21.69300
H  6.92800 5.14100 21.72300
H  10.80400 4.65300 21.94900
H  11.38000 3.17800 22.83000
H  10.98000 5.06100 24.77100
H  11.72400 6.01500 23.40900
H  12.56600 4.64500 24.08500
H  12.47100 0.92300 25.95200
H  11.61200 -0.41400 26.53300
H  12.90800 0.22400 27.64600
H  11.26100 2.56000 31.72100
H  9.71900 -0.24400 34.73300
H  8.23600 -0.02300 33.74200
H  8.80700 1.25000 34.86100
Mg 48.10100 15.51600 29.07100
C  45.90600 15.37100 31.72700
C  50.19700 17.34600 31.20600
C  50.26100 15.92100 26.62000
C  45.69400 14.19700 27.01800
N  48.06500 16.27700 31.20000
C  47.12100 15.93700 32.09900
C  47.52600 16.36900 33.52300
C  48.71800 17.32700 33.30600
C  49.01700 16.93300 31.80600
C  48.46800 18.89100 33.43000
C  47.80000 15.12400 34.38000
C  47.53500 15.16600 35.89100
H  47.19900 16.52800 36.57700
N  50.09300 16.29700 28.96500
C  50.78700 16.99200 29.94800
C  52.10000 17.09800 29.51600
C  52.18400 16.52700 28.26000
C  50.80300 16.30800 27.82800
C  53.19400 17.61200 30.38000
C  53.36700 16.33100 27.25100
O  53.20500 15.77600 26.15100
C  54.80700 16.72900 27.59400
N  47.98900 15.16300 27.11700
C  49.00900 15.51200 26.22900
C  48.47200 15.23400 24.82300
C  47.11200 14.50700 24.96200
C  46.90600 14.65400 26.48800
C  48.61800 16.51700 23.93800
C  47.15200 12.99600 24.55600
C  46.05900 12.46100 23.67300
N  46.10800 14.89200 29.22000
C  45.22300 14.25300 28.37700
C  43.92600 14.01400 28.96800
C  44.16100 14.42400 30.31700
C  45.48400 14.93600 30.41100
C  42.76400 13.25200 28.42200
C  43.56700 14.36200 31.69600
O  42.54100 13.90000 32.06600
C  44.66700 15.15100 32.56800
C  44.03100 16.37200 33.14500
O  43.97100 17.46300 32.57100
O  43.48500 16.16100 34.40300
C  42.82700 17.29600 34.97900
H  50.87100 18.00800 31.75400
H  50.88800 16.06500 25.73800
H  44.89800 13.83000 26.36600
H  46.67800 16.92100 33.92700
H  49.48300 16.90800 33.95900
H  47.39300 19.01300 33.56500
H  48.69600 19.33100 32.45900
H  49.11000 19.23600 34.24000
H  48.81900 14.78100 34.19800
H  47.16900 14.34900 33.94700
H  48.36400 14.70900 36.43200
H  46.71100 14.48300 36.09600
H  53.83100 16.77800 30.67500
H  52.76900 17.97400 31.31600
H  53.69900 18.46400 29.92500
H  54.65700 17.74900 27.94900
H  55.41800 16.63200 26.69700
H  55.32100 16.14800 28.36000
H  49.11200 14.53000 24.29100
H  46.37100 15.01000 24.34100
H  48.49700 17.44700 24.49400
H  47.83900 16.65400 23.18800
H  49.58800 16.61100 23.45100
H  47.06700 12.49100 25.51800
H  48.13700 12.78600 24.13900
H  46.41000 12.11500 22.70000
H  45.36100 13.27500 23.47400
H  45.37000 11.78800 24.18300
H  43.15700 12.66000 27.59600
H  42.01900 13.94400 28.03100
H  42.20300 12.75000 29.21000
H  44.97800 14.50400 33.38900
H  43.47900 18.11900 35.27100
H  42.44400 16.90200 35.92100
H  41.96800 17.56500 34.36400

