158

Mg 41.81800 40.72500 27.43000
C  40.74500 43.27900 29.51300
C  42.08100 38.62100 30.07500
C  43.27800 38.41300 25.36300
C  41.63600 42.89000 24.70300
N  41.44700 40.94500 29.54300
C  40.98600 42.03200 30.18300
C  40.83600 41.72100 31.67500
C  41.33600 40.25300 31.85600
C  41.65600 39.91500 30.41500
C  42.55300 40.04200 32.85300
C  39.41100 41.99700 32.19200
C  39.28000 43.11600 33.29500
H  38.75900 42.72500 34.71900
N  42.49600 38.85200 27.66400
C  42.45500 38.13400 28.82400
C  42.91500 36.83900 28.67200
C  43.34400 36.70700 27.29700
C  43.02900 37.99800 26.68600
C  43.07900 35.83300 29.84500
C  43.90500 35.49100 26.61900
O  44.09800 35.53100 25.38500
C  43.82700 34.14000 27.30300
N  42.24400 40.62300 25.25100
C  43.02300 39.61400 24.73900
C  43.29400 39.95500 23.20700
C  42.62700 41.36900 23.02000
C  42.12300 41.62700 24.39800
C  44.78100 39.84100 22.74500
C  41.49200 41.51200 21.82700
C  40.06800 41.03200 22.13000
N  41.29600 42.63800 27.13200
C  41.27800 43.43400 25.94600
C  40.75700 44.73600 26.22400
C  40.47000 44.69000 27.61200
C  40.90400 43.48500 28.12600
C  40.58100 46.05300 25.36200
C  39.96500 45.50000 28.76300
O  39.52400 46.65900 28.79100
C  40.28000 44.68300 30.09000
C  41.35100 45.34200 30.85600
O  42.57300 45.29900 30.59100
O  40.82800 45.90700 31.97100
C  41.80200 46.27600 33.04200
H  42.13200 37.95300 30.93700
H  43.83200 37.84400 24.61400
H  41.48200 43.45700 23.78200
H  41.59700 42.23000 32.26700
H  40.62600 39.56600 32.31600
H  43.53800 39.95700 32.39300
H  42.34500 39.09300 33.34900
H  42.62100 40.90700 33.51300
H  39.01800 41.05100 32.56500
H  38.78400 42.28300 31.34800
H  38.50500 43.79900 32.94600
H  40.22100 43.62700 33.49900
H  42.27000 35.10400 29.80700
H  42.97200 36.31100 30.81900
H  44.03100 35.30600 29.79100
H  44.14400 33.36700 26.60400
H  42.81200 33.76100 27.41800
H  44.48800 34.02400 28.16200
H  42.85400 39.20700 22.54800
H  43.33500 42.09500 22.62200
H  45.47600 39.39800 23.45900
H  45.12000 40.76000 22.26800
H  44.78600 39.14200 21.90900
H  41.91200 41.01800 20.95100
H  41.45600 42.56000 21.53100
H  40.09700 40.48500 23.07200
H  39.69000 40.37900 21.34400
H  39.53100 41.96800 22.28800
H  40.00200 45.73900 24.49400
H  41.58000 46.32100 25.01800
H  40.01000 46.85600 25.82800
H  39.43200 44.48500 30.74600
H  42.42700 45.39300 33.17600
H  41.24500 46.42100 33.96800
H  42.49100 47.09500 32.83700
Mg -9.95300 40.03700 42.59200
C  -8.68500 36.84000 41.67200
C  -7.24000 41.47600 41.08200
C  -11.52600 42.98100 42.88500
C  -12.95600 38.37000 43.46900
N  -8.16000 39.19700 41.55000
C  -7.82500 37.88700 41.21600
C  -6.59700 37.78700 40.41000
C  -6.11100 39.27500 40.47700
C  -7.16400 40.05400 41.22500
C  -4.69000 39.54600 41.08700
C  -6.97500 37.29500 38.99200
C  -6.02100 36.27600 38.37200
H  -5.09200 36.72700 37.26400
N  -9.42500 41.95200 42.00600
C  -8.24100 42.35400 41.51700
C  -8.17300 43.77900 41.62200
C  -9.43100 44.26400 42.16600
C  -10.23300 43.05900 42.37600
C  -6.93900 44.46600 41.19100
C  -9.87700 45.73000 42.36100
O  -9.10500 46.61600 41.88400
C  -11.19200 46.16300 43.05100
N  -12.00100 40.59600 42.99200
C  -12.36700 41.85500 43.18400
C  -13.88300 41.94200 43.68600
C  -14.21300 40.45600 43.81100
C  -13.02300 39.73000 43.32200
C  -14.13900 42.89500 44.90600
C  -15.54900 40.02900 43.13800
C  -16.76000 39.87600 43.92400
N  -10.64100 37.96900 42.79500
C  -11.84700 37.49100 43.14100
C  -11.83800 36.03000 43.05500
C  -10.57900 35.73700 42.48000
C  -9.94800 36.91900 42.22400
C  -12.96600 35.19600 43.50000
C  -9.76700 34.64400 42.00300
O  -10.04000 33.45100 41.93500
C  -8.49400 35.35800 41.37400
C  -7.23800 34.79500 41.94900
O  -6.98600 34.60300 43.08500
O  -6.39100 34.53500 40.92800
C  -5.04800 33.96700 41.15600
H  -6.36700 41.85500 40.54700
H  -12.04000 43.92900 43.05600
H  -13.89500 37.94500 43.83200
H  -5.89300 37.08000 40.85000
H  -6.05100 39.76600 39.50500
H  -3.99300 38.72900 40.89800
H  -4.67300 39.71000 42.16400
H  -4.24900 40.42600 40.62000
H  -7.10200 38.11000 38.27900
H  -7.97000 36.85100 38.96400
H  -6.62400 35.48600 37.92500
H  -5.45100 35.69000 39.09300
H  -6.84400 44.48300 40.10500
H  -6.10600 43.92600 41.64100
H  -7.03500 45.49800 41.52800
H  -12.09100 45.90700 42.49100
H  -11.23100 47.25200 43.08000
H  -11.11300 45.91900 44.11000
H  -14.53200 42.34100 42.90700
H  -14.33800 40.24700 44.87400
H  -14.48900 42.45500 45.83900
H  -14.72500 43.74900 44.56500
H  -13.13900 43.26900 45.12300
H  -15.39800 39.15700 42.50200
H  -15.73700 40.75900 42.35100
H  -17.01000 38.84700 44.18500
H  -17.59200 40.33200 43.38800
H  -16.67700 40.38400 44.88500
H  -12.71400 34.14800 43.34000
H  -13.89300 35.45300 42.98600
H  -13.15800 35.40000 44.55300
H  -8.57600 35.07500 40.32500
H  -4.25100 34.70200 41.04500
H  -4.87200 33.31700 40.29900
H  -5.02900 33.41700 42.09700

