158

Mg -2.08900 17.13700 26.71500
C  -2.63100 15.10600 29.50700
C  -2.91700 19.92800 28.76000
C  -1.75500 19.13700 24.12800
C  -2.09500 14.33300 24.63600
N  -2.69200 17.55300 28.89700
C  -2.70800 16.55300 29.84200
C  -2.97700 17.11400 31.24400
C  -3.30800 18.63600 30.93200
C  -2.97500 18.73800 29.42600
C  -4.71500 19.23500 31.15500
C  -1.78200 16.80300 32.17400
C  -2.16200 16.55000 33.64000
H  -1.12800 16.74400 34.76600
N  -2.25800 19.26600 26.48400
C  -2.53700 20.23500 27.42400
C  -2.47000 21.52900 26.75600
C  -2.08200 21.36300 25.46100
C  -2.04900 19.85300 25.27500
C  -2.86800 22.75500 27.48200
C  -1.73200 22.43600 24.48800
O  -1.48300 22.20600 23.32900
C  -1.80800 23.95000 24.88400
N  -2.04200 16.73300 24.68000
C  -1.94500 17.74500 23.77800
C  -1.81300 17.26400 22.36700
C  -1.70100 15.70900 22.54500
C  -1.90200 15.56100 24.04700
C  -2.87100 17.65700 21.29400
C  -0.40500 15.04800 22.12700
C  0.78900 15.37100 23.01800
N  -2.38600 15.11800 26.95900
C  -2.33600 14.10100 26.01500
C  -2.58900 12.85900 26.77700
C  -2.59300 13.18200 28.12700
C  -2.48900 14.58400 28.24200
C  -2.76200 11.48300 26.22300
C  -2.68800 12.63200 29.43100
O  -2.75200 11.44300 29.71600
C  -2.65000 13.86500 30.44700
C  -1.42100 13.57600 31.26100
O  -0.27100 13.61700 30.81400
O  -1.76100 13.24100 32.56500
C  -0.61100 12.95700 33.50900
H  -3.10900 20.78600 29.40800
H  -1.70000 19.75500 23.23000
H  -1.99100 13.43400 24.02400
H  -3.87900 16.58300 31.54900
H  -2.67700 19.33600 31.47900
H  -5.26800 18.36400 31.50600
H  -5.30400 19.65900 30.34200
H  -4.69200 19.97600 31.95400
H  -1.13800 17.67800 32.09500
H  -1.20000 16.06300 31.62400
H  -2.40400 15.48700 33.63000
H  -3.07400 17.11000 33.84500
H  -3.47700 22.44400 28.33000
H  -3.56200 23.37800 26.91800
H  -1.89500 23.20500 27.67600
H  -1.29400 24.43500 24.05400
H  -1.18200 24.09700 25.76300
H  -2.88500 24.09000 24.98400
H  -0.86900 17.70500 22.04900
H  -2.48200 15.13100 22.05000
H  -2.38700 17.60300 20.31900
H  -3.20200 18.68900 21.41000
H  -3.65900 16.90500 21.34700
H  -0.24200 15.41700 21.11400
H  -0.60300 13.97700 22.10200
H  0.58100 16.25500 23.62000
H  1.60700 15.58400 22.33000
H  1.01300 14.51100 23.64900
H  -3.83300 11.34700 26.07700
H  -2.27000 10.76600 26.88100
H  -2.42900 11.23700 25.21500
H  -3.45600 13.90700 31.17900
H  -0.31600 13.75300 34.19300
H  0.28500 12.53000 33.05900
H  -0.89100 12.10700 34.13000
Mg 16.87200 52.70400 26.46900
C  18.88500 51.25000 28.83600
C  14.48000 53.33400 28.96200
C  14.98400 54.09400 24.10500
C  19.36000 52.05200 24.00900
N  16.69800 52.34300 28.67900
C  17.70500 51.83000 29.42200
C  17.33500 51.84700 30.95300
C  15.84200 52.33300 30.92400
C  15.67700 52.80500 29.44200
C  14.80200 51.21100 31.24600
C  18.32000 52.82800 31.70200
C  18.74300 52.38200 33.18000
H  17.67100 51.76600 34.10800
N  14.94700 53.58800 26.53100
C  14.12800 53.71000 27.61900
C  12.88800 54.21300 27.17000
C  12.95200 54.36200 25.77500
C  14.36200 53.96900 25.39100
C  11.70700 54.38900 28.08300
C  11.85600 54.64600 24.76800
O  12.09900 54.74000 23.57200
C  10.53400 54.96000 25.22500
N  17.13200 52.94300 24.30000
C  16.24300 53.75900 23.64000
C  16.72400 53.90700 22.13000
C  18.11900 53.20500 22.16200
C  18.23600 52.81300 23.60100
C  15.79100 53.12900 21.15300
C  19.31900 54.08200 21.65000
C  19.67600 55.37800 22.45500
N  18.73500 51.72000 26.38800
C  19.59900 51.50300 25.33900
C  20.67000 50.64100 25.79100
C  20.41000 50.48600 27.14200
C  19.23200 51.22700 27.48400
C  21.78100 50.17300 24.97400
C  20.90200 49.91200 28.44600
O  21.99900 49.27300 28.55600
C  19.97900 50.46200 29.59200
C  19.54100 49.31500 30.33500
O  18.60900 48.60900 29.98400
O  20.07100 49.32900 31.58000
C  19.63500 48.36300 32.68200
H  13.73500 53.53900 29.73400
H  14.38400 54.58700 23.33800
H  20.14700 52.03200 23.25200
H  17.34700 50.84600 31.38400
H  15.73800 53.20000 31.57700
H  15.13800 50.40800 31.90200
H  14.52900 50.70800 30.31900
H  13.93800 51.82800 31.49000
H  17.92200 53.83800 31.60400
H  19.27400 52.71300 31.18700
H  19.01800 53.35700 33.58200
H  19.68100 51.82600 33.17300
H  11.04400 53.59500 27.73900
H  11.14800 55.31600 27.95000
H  11.84600 54.22900 29.15200
H  10.65800 55.83300 25.86500
H  10.11000 54.18100 25.85900
H  9.87800 55.20600 24.39000
H  16.76900 54.97600 21.92400
H  18.16100 52.28900 21.57300
H  16.42100 52.86500 20.30300
H  14.93300 53.67800 20.76400
H  15.49500 52.18700 21.61500
H  19.07500 54.51700 20.68000
H  20.19900 53.44500 21.56300
H  20.28700 54.97400 23.26300
H  18.72600 55.66800 22.90300
H  20.11900 56.14200 21.81500
H  21.35200 49.41300 24.32100
H  22.41900 49.68600 25.71200
H  22.21800 50.97500 24.38000
H  20.68900 51.07400 30.14800
H  20.50100 47.75600 32.94700
H  18.83400 47.79700 32.20600
H  19.20700 49.00100 33.45600

