158

Mg -11.91400 37.73000 42.20400
C  -9.20800 35.42900 41.85300
C  -9.95900 40.14900 40.56000
C  -14.59000 39.77200 41.98200
C  -13.94400 34.94000 42.97300
N  -9.91100 37.68800 41.12200
C  -8.98200 36.68800 41.30500
C  -7.65500 37.18200 40.75400
C  -7.82500 38.70000 40.63200
C  -9.33000 38.91000 40.78200
C  -6.91600 39.48200 41.60000
C  -7.22900 36.55800 39.40000
C  -5.69600 36.39400 39.24500
H  -5.07000 37.21800 38.12800
N  -12.23900 39.74500 41.47100
C  -11.29800 40.57100 40.90500
C  -11.86400 41.88700 40.64300
C  -13.29200 41.78200 40.90900
C  -13.47400 40.39000 41.47000
C  -11.23700 43.02500 39.93800
C  -14.35400 42.84100 40.50800
O  -14.02600 43.98000 40.12700
C  -15.79000 42.63400 40.59100
N  -13.90100 37.40200 42.34400
C  -14.79400 38.45900 42.46400
C  -16.11100 38.01400 43.03200
C  -15.91000 36.47700 43.24700
C  -14.48100 36.21300 42.76700
C  -16.56700 38.67500 44.30700
C  -16.89800 35.52700 42.42800
C  -18.07200 35.01100 43.28800
N  -11.69600 35.56000 42.56400
C  -12.58400 34.60200 42.89100
C  -11.85400 33.40200 43.17200
C  -10.51500 33.61600 42.78600
C  -10.49700 34.94300 42.40100
C  -12.43500 32.08900 43.66800
C  -9.19100 33.13400 42.81000
O  -8.73100 32.13000 43.25500
C  -8.22900 34.25700 42.16100
C  -7.18200 34.57700 43.13600
O  -6.01500 34.71600 42.89400
O  -7.70700 34.74500 44.40300
C  -6.65000 35.22900 45.35700
H  -9.24700 40.90200 40.21500
H  -15.46300 40.42600 42.03900
H  -14.62400 34.16900 43.34100
H  -6.90100 36.84800 41.46600
H  -7.47800 39.08600 39.67300
H  -6.13900 38.83400 42.00700
H  -7.52100 39.88400 42.41300
H  -6.41900 40.35100 41.17000
H  -7.57300 37.08400 38.51000
H  -7.61300 35.54400 39.29200
H  -5.39500 35.34700 39.26100
H  -5.25000 36.82600 40.14100
H  -11.57600 43.93600 40.43100
H  -11.42100 43.03400 38.86400
H  -10.14900 43.05100 39.99300
H  -16.31700 43.50500 40.20300
H  -16.09100 42.51200 41.63100
H  -16.05700 41.72700 40.04900
H  -16.87900 38.24200 42.29400
H  -15.83000 36.18000 44.29300
H  -16.74300 37.87900 45.03000
H  -17.40300 39.33100 44.06400
H  -15.81700 39.30700 44.78100
H  -16.48700 34.66400 41.90300
H  -17.39200 36.15000 41.68200
H  -18.19700 33.93800 43.14300
H  -19.03500 35.39900 42.95600
H  -17.89900 35.20300 44.34700
H  -12.49500 31.29400 42.92400
H  -13.41900 32.25700 44.10400
H  -11.75400 31.73800 44.44400
H  -7.74900 33.89600 41.25100
H  -7.18000 35.42000 46.29000
H  -6.21900 36.18600 45.06200
H  -5.95000 34.50200 45.76800
Mg -5.49100 25.27000 25.84800
C  -4.04400 26.17500 28.96800
C  -7.73500 23.30400 27.72400
C  -6.51300 23.87900 23.06500
C  -3.18400 27.22300 24.23300
N  -5.82300 24.77900 28.12600
C  -5.08100 25.28300 29.14000
C  -5.61300 24.77300 30.54000
C  -6.64100 23.70500 30.02000
C  -6.67800 23.87200 28.52300
C  -6.48400 22.24100 30.60900
C  -6.25000 25.97700 31.35100
C  -5.78800 26.08300 32.81500
H  -5.10500 24.90000 33.57200
N  -6.95800 23.92700 25.42300
C  -7.81500 23.27100 26.30300
C  -8.79200 22.50700 25.55900
C  -8.52100 22.66800 24.18600
C  -7.20300 23.41000 24.13400
C  -9.99700 21.81000 26.19500
C  -9.28000 22.31900 23.00200
O  -8.84100 22.38000 21.85800
C  -10.67300 21.74000 23.10000
N  -4.76700 25.41300 23.96900
C  -5.37000 24.69500 22.97200
C  -4.75500 25.12500 21.61900
C  -3.98600 26.40500 21.98700
C  -3.94900 26.37000 23.50700
C  -4.15200 23.92300 20.91200
C  -4.44900 27.71500 21.32100
C  -3.35000 28.40600 20.43000
N  -3.91500 26.48700 26.40100
C  -3.03400 27.25200 25.62200
C  -2.07000 27.98100 26.45000
C  -2.45400 27.56500 27.71100
C  -3.56700 26.65300 27.69000
C  -0.98300 28.96300 25.97600
C  -1.98600 27.78600 29.09800
O  -1.12100 28.50000 29.61900
C  -2.98300 26.85100 29.90800
C  -2.10600 26.05000 30.83000
O  -1.78400 24.89600 30.64000
O  -1.94000 26.72100 31.99200
C  -1.14800 26.01200 32.95700
H  -8.44800 22.65200 28.23100
H  -6.74600 23.52900 22.05700
H  -2.53600 27.92400 23.70300
H  -4.88400 24.19100 31.10300
H  -7.62800 23.97900 30.39300
H  -6.47600 21.47600 29.83200
H  -7.27500 22.07700 31.34000
H  -5.56000 22.11500 31.17300
H  -7.33200 26.09900 31.30900
H  -5.80500 26.86800 30.91000
H  -6.57400 26.51100 33.43700
H  -5.09200 26.90800 32.66200
H  -9.69800 21.46200 27.18400
H  -10.27500 20.97600 25.54900
H  -10.85300 22.47300 26.31800
H  -10.55500 20.68600 23.35000
H  -11.19900 21.77300 22.14600
H  -11.27900 22.39300 23.72900
H  -5.68500 25.45200 21.15400
H  -2.92900 26.21600 21.79400
H  -3.07600 23.98600 20.74300
H  -4.57500 23.76900 19.91900
H  -4.20700 23.08200 21.60300
H  -4.86000 28.31600 22.13200
H  -5.32800 27.53600 20.70200
H  -3.62900 28.38500 19.37600
H  -2.44100 27.85200 20.66300
H  -3.19500 29.45600 20.67800
H  -0.20100 28.50300 25.37200
H  -0.59300 29.29700 26.93800
H  -1.27000 29.94200 25.59200
H  -3.54800 27.39400 30.66600
H  -0.12900 26.37700 32.82600
H  -1.09800 24.92500 33.02500
H  -1.28300 26.34800 33.98500

