158

Mg 1.50700 -2.63800 45.68000
C  4.91900 -1.94100 45.46700
C  0.85800 0.26800 43.98400
C  -1.75400 -3.68300 45.33700
C  2.25300 -5.61700 47.20600
N  2.75700 -1.15300 44.57000
C  4.12600 -1.04800 44.68500
C  4.65500 0.18600 43.92100
C  3.35700 1.01700 43.92900
C  2.23600 0.02800 44.14000
C  3.35200 2.26700 44.89700
C  5.25600 -0.14300 42.59500
C  6.41200 0.81100 42.18400
H  6.40100 1.31700 40.74900
N  -0.16300 -1.79000 44.75500
C  -0.23500 -0.49500 44.22400
C  -1.60700 -0.23100 43.97100
C  -2.47000 -1.32600 44.38900
C  -1.45200 -2.38200 44.87300
C  -2.01100 1.15200 43.37000
C  -3.94100 -1.40100 44.24100
O  -4.50900 -0.32200 43.95900
C  -4.73100 -2.61100 44.58700
N  0.32000 -4.53400 46.10500
C  -0.94200 -4.75000 45.83800
C  -1.39500 -6.06100 46.33100
C  -0.00500 -6.78800 46.73700
C  0.91300 -5.53600 46.76200
C  -2.28800 -5.98700 47.62300
C  0.47700 -7.71900 45.51900
C  1.12000 -9.07600 45.86600
N  3.20800 -3.59100 46.23900
C  3.36400 -4.77500 46.94300
C  4.75000 -4.94600 47.35200
C  5.40300 -3.82700 46.76200
C  4.42600 -3.06800 46.08600
C  5.22600 -6.04200 48.21100
C  6.67000 -3.14800 46.61200
O  7.77900 -3.34700 47.11900
C  6.42700 -1.95200 45.63900
C  6.89600 -0.69200 46.32500
O  6.59800 -0.41200 47.50500
O  7.67900 0.10200 45.56900
C  8.03100 1.49900 45.97100
H  0.63100 1.30800 43.73900
H  -2.81200 -3.94600 45.28000
H  2.48200 -6.55400 47.71800
H  5.39600 0.69000 44.54000
H  3.05800 1.53600 43.01800
H  2.63400 2.17200 45.71200
H  3.07100 3.18400 44.38000
H  4.38300 2.51400 45.14900
H  4.44200 -0.12700 41.87000
H  5.73300 -1.12300 42.59500
H  7.39400 0.36500 42.33800
H  6.29000 1.67000 42.84300
H  -2.68700 1.60100 44.09800
H  -2.42400 1.21300 42.36300
H  -1.17300 1.84900 43.37800
H  -4.55100 -2.92600 45.61400
H  -4.46600 -3.32500 43.80700
H  -5.80200 -2.50100 44.41800
H  -1.97600 -6.50500 45.52300
H  -0.13400 -7.19900 47.73800
H  -2.48800 -4.93500 47.82300
H  -1.79300 -6.40400 48.50000
H  -3.26100 -6.46500 47.51200
H  1.18900 -7.17100 44.90300
H  -0.37000 -8.08500 44.93900
H  2.14900 -9.13100 45.51000
H  0.75200 -9.88000 45.22900
H  1.05800 -9.36000 46.91600
H  5.27600 -6.87800 47.51300
H  4.53400 -6.29000 49.01600
H  6.26600 -5.88400 48.49800
H  7.06000 -2.16900 44.77900
H  7.94200 2.19200 45.13500
H  9.04800 1.54900 46.36000
H  7.33000 1.91000 46.69700
Mg -2.08100 34.15200 27.19000
C  -3.99600 32.17400 29.76000
C  -1.14900 36.10700 29.74000
C  -0.95000 35.98100 24.97100
C  -4.02000 32.25300 24.81800
N  -2.54700 34.08600 29.43500
C  -3.33000 33.30000 30.25500
C  -3.27100 33.75200 31.71100
C  -2.64200 35.22400 31.63200
C  -2.10700 35.15400 30.16600
C  -3.63800 36.39100 31.83600
C  -2.29000 32.76100 32.46400
C  -2.83700 31.70000 33.44100
H  -2.11600 31.73800 34.79600
N  -1.06300 35.82300 27.36200
C  -0.59800 36.41500 28.47200
C  0.37400 37.40400 28.10400
C  0.45900 37.33900 26.68300
C  -0.57800 36.39000 26.27500
C  1.14200 38.15300 29.12700
C  1.41300 38.00900 25.65300
O  1.40000 37.90400 24.47400
C  2.59900 38.80000 26.29900
N  -2.75700 34.31100 25.18900
C  -1.90600 35.05900 24.43900
C  -2.08000 34.92100 22.91800
C  -2.99800 33.65300 22.83000
C  -3.34600 33.37100 24.39700
C  -2.49600 36.14500 22.19100
C  -2.41900 32.36000 22.14200
C  -3.31000 31.85100 21.06000
N  -3.54400 32.45000 27.22400
C  -4.16100 31.82300 26.15400
C  -4.98700 30.75400 26.61200
C  -4.98100 30.90400 27.99600
C  -4.04500 31.90200 28.34200
C  -5.79200 29.85200 25.82900
C  -5.53700 30.36600 29.29900
O  -6.39000 29.50100 29.50600
C  -4.96400 31.20200 30.41100
C  -6.06700 31.96300 31.01600
O  -6.59800 32.96900 30.59800
O  -6.41100 31.35200 32.16100
C  -7.33400 32.13100 33.04700
H  -0.85000 36.79800 30.53100
H  -0.29200 36.45600 24.24000
H  -4.51900 31.64500 24.06100
H  -4.23800 33.73900 32.21500
H  -1.81000 35.29100 32.33300
H  -4.64700 36.03000 32.03900
H  -3.62900 37.10400 31.01200
H  -3.27800 36.93900 32.70700
H  -1.52900 33.23700 33.08200
H  -1.75600 32.12900 31.75500
H  -2.72200 30.65900 33.14000
H  -3.88900 31.93200 33.61000
H  2.19900 38.03500 28.88900
H  1.06900 37.70600 30.11900
H  0.88400 39.21100 29.09300
H  2.81900 39.54300 25.53300
H  3.40200 38.11900 26.58200
H  2.29700 39.45900 27.11200
H  -1.14300 34.50200 22.55200
H  -3.98600 33.89200 22.43800
H  -3.49100 35.98100 21.77600
H  -1.96200 36.29700 21.25300
H  -2.34700 37.00700 22.84100
H  -2.19200 31.54300 22.82700
H  -1.48600 32.64800 21.65700
H  -2.81900 31.91300 20.08900
H  -4.22500 32.44200 21.02000
H  -3.56400 30.83800 21.37300
H  -6.80300 30.23200 25.68200
H  -5.88600 28.90900 26.36700
H  -5.32700 29.67300 24.86000
H  -4.50900 30.65600 31.23800
H  -8.29700 32.18600 32.54100
H  -7.10500 33.14300 33.38200
H  -7.54000 31.60600 33.97900

