158

Mg 41.47300 41.44000 26.90500
C  41.11500 43.68800 29.47500
C  41.95700 39.06300 29.31200
C  41.98700 39.18900 24.51400
C  41.33800 43.91700 24.49700
N  41.47800 41.36200 29.16100
C  41.24800 42.44500 30.01300
C  41.07700 42.05600 31.48800
C  41.52000 40.55500 31.45800
C  41.65400 40.26000 29.91000
C  42.88000 40.25000 32.19000
C  39.64900 42.32300 32.00200
C  39.50800 41.86600 33.48400
H  38.93100 42.93100 34.44800
N  41.87300 39.45500 26.87400
C  42.08000 38.60600 27.96700
C  42.60900 37.33600 27.54300
C  42.69100 37.37400 26.13000
C  42.22200 38.70000 25.78200
C  42.70100 36.21700 28.43800
C  43.08600 36.19800 25.19000
O  43.02300 36.20800 23.94600
C  43.53900 34.86500 25.80100
N  41.67800 41.60100 24.83500
C  41.89800 40.49700 24.04800
C  41.90500 40.85500 22.52500
C  41.67500 42.38400 22.53600
C  41.56300 42.70600 24.03000
C  43.23000 40.49900 21.86300
C  40.47700 42.84600 21.77200
C  39.07800 42.86800 22.39700
N  41.33200 43.37800 26.93700
C  41.22000 44.25800 25.90900
C  40.97900 45.55900 26.50200
C  40.98200 45.41500 27.87600
C  41.18600 44.06800 28.11100
C  40.71200 46.89000 25.78000
C  40.78500 46.10100 29.11800
O  40.60800 47.30400 29.26400
C  40.78600 45.00600 30.21900
C  41.77800 45.36100 31.25700
O  42.91200 45.66900 30.99500
O  41.22700 45.42900 32.52800
C  42.17700 45.77900 33.61200
H  42.16300 38.46900 30.20400
H  42.12900 38.51900 23.66300
H  40.99200 44.74100 23.87000
H  41.75800 42.68800 32.05900
H  40.74700 40.00500 31.99600
H  42.61000 39.57100 32.99900
H  43.34300 41.17400 32.53500
H  43.62300 39.83400 31.51000
H  38.96200 41.74900 31.38000
H  39.36700 43.36800 31.87600
H  40.40600 41.46200 33.95000
H  38.75600 41.07800 33.53000
H  43.68000 35.75800 28.57300
H  41.96300 35.46700 28.15100
H  42.35700 36.61200 29.39400
H  44.38400 35.01700 26.47300
H  43.75600 34.34200 24.87000
H  42.81700 34.26800 26.35800
H  41.01100 40.40500 22.09300
H  42.47500 43.01100 22.14400
H  43.50100 41.30500 21.18100
H  43.21300 39.57700 21.28100
H  43.93100 40.38000 22.68900
H  40.45300 42.11800 20.96100
H  40.68500 43.76900 21.22900
H  38.79100 43.10200 23.42200
H  38.56500 41.97600 22.03800
H  38.70600 43.74400 21.86400
H  40.99300 46.86800 24.72700
H  41.45400 47.54800 26.23100
H  39.71700 47.29600 25.96300
H  39.77500 44.81100 30.57600
H  41.71300 45.72500 34.59700
H  42.46300 46.82800 33.55000
H  43.04400 45.12700 33.72100
Mg 30.91900 59.80200 39.44900
C  27.98900 58.32200 38.20200
C  32.71700 56.88600 38.48900
C  33.83400 61.46700 39.90000
C  29.19900 62.81700 39.71600
N  30.37200 57.90700 38.33700
C  29.10600 57.46800 38.04000
C  29.14200 56.17300 37.28500
C  30.62700 55.65100 37.56700
C  31.29300 56.84200 38.29100
C  30.75100 54.36800 38.49700
C  28.79700 56.08900 35.74900
C  27.50500 55.32600 35.40100
H  26.64400 55.83800 34.33500
N  33.05900 59.27000 39.15800
C  33.49400 58.00500 38.83600
C  34.87700 58.06800 38.80500
C  35.30400 59.43300 39.06600
C  34.08800 60.19200 39.41000
C  35.77400 56.85600 38.53400
C  36.77700 59.85500 39.13100
O  37.69700 59.12300 38.81500
C  37.09700 61.23500 39.57100
N  31.40800 61.65300 39.72200
C  32.65500 62.14200 39.99200
C  32.76600 63.68800 40.09400
C  31.24600 64.04800 39.99100
C  30.57100 62.74600 39.82000
C  33.44300 64.15800 41.44200
C  30.95200 65.13900 38.94800
C  30.22700 66.43200 39.46300
N  28.90900 60.52200 39.12400
C  28.38100 61.76500 39.19400
C  27.00300 61.68100 39.05200
C  26.74800 60.36200 38.57700
C  28.01100 59.67800 38.64700
C  26.07100 62.77300 39.46700
C  25.71900 59.35600 38.19000
O  24.51900 59.45500 38.17800
C  26.52600 58.06700 37.84900
C  25.95700 57.00200 38.68000
O  26.20100 56.83000 39.84200
O  25.23300 56.14600 37.87000
C  24.64000 55.03400 38.57000
H  33.23200 55.97800 38.16700
H  34.77000 62.00400 40.07100
H  28.70600 63.78000 39.86600
H  28.48200 55.50900 37.84200
H  31.09900 55.50500 36.59500
H  31.07300 53.46900 37.97300
H  29.81900 54.09900 38.99500
H  31.41500 54.63600 39.31800
H  29.58100 55.59800 35.17400
H  28.64900 57.12900 35.45500
H  27.00900 55.02100 36.32200
H  27.95500 54.42400 34.98800
H  36.48200 56.66400 39.34100
H  36.38500 57.23300 37.71400
H  35.28300 55.92400 38.25200
H  38.15200 61.50600 39.53400
H  36.61600 61.48600 40.51600
H  36.72200 61.89900 38.79200
H  33.30900 64.14400 39.26600
H  31.01300 64.34200 41.01500
H  33.81100 63.34700 42.07000
H  32.77000 64.78100 42.03200
H  34.27400 64.81800 41.19100
H  30.53400 64.54400 38.13500
H  31.91700 65.48200 38.57500
H  29.27100 66.21800 38.98500
H  30.70700 67.33200 39.07700
H  30.03600 66.33100 40.53200
H  26.54500 63.73200 39.67600
H  25.53600 62.46600 40.36500
H  25.26100 62.92800 38.75400
H  26.42300 57.76600 36.80600
H  23.88500 55.35000 39.28900
H  25.42000 54.40600 39.00000
H  24.24400 54.31900 37.84800

