158

Mg -0.23600 7.66900 27.12300
C  0.88300 9.95000 29.53200
C  -0.41700 5.15900 29.32700
C  -1.06800 5.55600 24.61200
C  0.61600 10.11400 24.58900
N  0.07200 7.58500 29.17500
C  0.50100 8.67700 29.98500
C  0.27900 8.28200 31.46400
C  0.09900 6.69300 31.31600
C  -0.10900 6.44700 29.86300
C  1.16600 5.85900 32.01000
C  -0.97100 9.03200 32.11700
C  -1.03300 9.11100 33.69900
H  0.14100 8.62400 34.58700
N  -0.81900 5.61900 26.96300
C  -0.79000 4.74200 28.02800
C  -1.28400 3.44600 27.60900
C  -1.40700 3.50900 26.24700
C  -1.07200 4.92600 25.86500
C  -1.56200 2.22700 28.55000
C  -1.61000 2.36100 25.21800
O  -1.47500 2.58900 24.02500
C  -1.93700 1.00000 25.70000
N  -0.02700 7.78900 24.88400
C  -0.61600 6.79000 24.14800
C  -0.86300 7.15500 22.69900
C  -0.33500 8.61500 22.62200
C  0.12100 8.89900 24.09300
C  -0.18000 6.19800 21.77000
C  -1.18300 9.78300 22.03600
C  -0.45300 10.94500 21.26900
N  0.71000 9.56300 27.01400
C  0.92300 10.44700 25.96300
C  1.43800 11.74300 26.52400
C  1.33700 11.57700 27.89300
C  0.93800 10.26600 28.19200
C  1.77900 12.95500 25.76000
C  1.48300 12.34200 29.04600
O  1.67600 13.55300 29.27800
C  1.21700 11.29900 30.21800
C  2.31400 11.29300 31.16300
O  3.32500 10.63500 31.03000
O  2.01700 12.05600 32.27900
C  2.88600 11.92900 33.50700
H  -0.60600 4.43200 30.12000
H  -1.46500 4.86800 23.86300
H  0.82200 10.90900 23.86800
H  1.20000 8.44100 32.02700
H  -0.81600 6.36000 31.80600
H  0.58200 5.27000 32.71700
H  1.95200 6.44400 32.48800
H  1.49000 5.05800 31.34500
H  -1.77500 8.35400 31.83100
H  -1.29700 9.98400 31.69800
H  -1.96700 8.61100 33.95500
H  -0.99200 10.18900 33.85400
H  -1.68800 2.63300 29.55300
H  -0.78700 1.48800 28.75500
H  -2.49400 1.71200 28.31600
H  -2.15700 0.30800 24.88700
H  -2.79500 1.13400 26.35900
H  -1.01300 0.63000 26.14600
H  -1.92400 7.27600 22.48100
H  0.62800 8.63700 22.11200
H  0.36300 5.41300 22.29400
H  0.44800 6.76100 21.07900
H  -1.00500 5.77200 21.19900
H  -1.71900 10.16400 22.90500
H  -1.92500 9.29900 21.40000
H  -0.76500 10.85000 20.22900
H  0.62000 10.82500 21.41900
H  -0.67300 11.85600 21.82500
H  1.24100 13.76600 26.25100
H  1.40500 12.81600 24.74500
H  2.83500 13.22500 25.75700
H  0.25800 11.58300 30.65000
H  3.86700 11.50000 33.30400
H  2.31900 11.42800 34.29100
H  3.11100 12.94300 33.83700
Mg 40.47700 9.67600 29.68600
C  42.29600 10.62600 32.41100
C  38.05200 8.37400 31.80300
C  38.68800 8.40400 26.99000
C  43.17300 10.54300 27.58200
N  40.24900 9.52900 31.79900
C  41.08600 10.09400 32.72600
C  40.37300 10.10800 34.05300
C  39.01500 9.27600 33.94100
C  39.09400 9.01800 32.42800
C  38.88500 8.00300 34.73100
C  40.29300 11.60400 34.64900
C  39.56600 11.77100 35.92700
H  40.17200 12.62100 37.09600
N  38.55200 8.64300 29.43700
C  37.71600 8.22900 30.40900
C  36.51000 7.59200 29.83600
C  36.64200 7.68000 28.40000
C  38.01300 8.25200 28.22400
C  35.45300 6.91000 30.69000
C  35.64000 7.32700 27.36100
O  35.82400 7.38700 26.12300
C  34.18000 6.96900 27.75700
N  40.82900 9.45900 27.72600
C  39.94900 8.95600 26.73900
C  40.55200 9.12100 25.35300
C  41.84000 9.89500 25.57400
C  41.99100 9.97300 27.06000
C  40.56900 7.82000 24.50800
C  42.11500 11.21100 24.77200
C  41.46500 12.48900 25.33000
N  42.37400 10.45600 29.89500
C  43.34700 10.72800 28.97700
C  44.53500 11.20900 29.66800
C  44.11700 11.31600 31.02300
C  42.85200 10.71200 31.13200
C  45.84700 11.74200 29.09400
C  44.43100 11.72300 32.34000
O  45.49400 12.23300 32.69500
C  43.34600 11.38000 33.30200
C  43.77900 10.54000 34.42500
O  44.21700 9.42100 34.29200
O  43.97700 11.28500 35.57800
C  44.67600 10.65400 36.69200
H  37.24900 8.01500 32.45000
H  38.11600 7.97100 26.16600
H  43.96900 10.84600 26.89900
H  41.08300 9.69700 34.77000
H  38.14700 9.91000 34.11800
H  39.02800 7.16000 34.05500
H  37.93400 7.94800 35.26100
H  39.72200 7.90200 35.42200
H  39.67100 12.25500 34.03400
H  41.25300 12.03600 34.93000
H  39.36000 10.75800 36.27200
H  38.59200 12.22000 35.73400
H  35.27600 5.87000 30.41400
H  34.58800 7.57300 30.69900
H  35.71100 6.87600 31.74900
H  34.23500 5.99300 28.24000
H  33.68100 6.94000 26.78800
H  33.84000 7.79400 28.38200
H  39.93000 9.90900 24.92800
H  42.59000 9.19500 25.20600
H  40.11500 7.03500 25.11300
H  41.58300 7.49700 24.27200
H  40.06800 7.83800 23.54000
H  41.90200 11.02500 23.71900
H  43.17600 11.41300 24.91300
H  40.76800 12.32200 26.15100
H  41.00000 13.14900 24.59700
H  42.24800 13.07500 25.81200
H  46.67000 11.59300 29.79400
H  45.81200 12.75800 28.70200
H  46.06100 11.11100 28.23100
H  42.95100 12.29900 33.73400
H  44.93700 9.60900 36.52700
H  43.98800 10.92200 37.49400
H  45.52800 11.28000 36.95900

