158

Mg 42.84800 41.63900 26.23400
C  41.74100 43.97100 28.62800
C  43.16800 39.31800 28.74000
C  43.81800 39.53300 23.86700
C  42.21400 44.10500 23.76900
N  42.48700 41.70800 28.49600
C  42.04100 42.77500 29.28300
C  41.99400 42.37200 30.78900
C  42.29600 40.84900 30.76500
C  42.73000 40.56700 29.26900
C  43.39200 40.35400 31.79200
C  40.53200 42.55300 31.29400
C  40.26300 41.99400 32.73100
H  39.54000 42.86300 33.80800
N  43.61200 39.69200 26.24900
C  43.58400 38.89100 27.39600
C  44.02600 37.50200 27.00400
C  44.06800 37.57000 25.52800
C  43.81800 38.94800 25.13700
C  44.18000 36.42000 28.00100
C  44.45900 36.44900 24.58500
O  44.57200 36.65300 23.39800
C  44.62700 35.06700 25.07700
N  42.94200 41.72900 24.18200
C  43.47500 40.78600 23.39700
C  43.46400 41.13500 21.89200
C  42.79000 42.53800 21.90500
C  42.66300 42.83800 23.39800
C  44.86800 41.12100 21.21300
C  41.35100 42.73500 21.14200
C  40.10700 42.10600 21.96000
N  42.17200 43.64300 26.15000
C  42.04300 44.54800 25.09300
C  41.41300 45.74900 25.53800
C  41.30300 45.66700 26.91500
C  41.75600 44.31700 27.22400
C  40.88500 46.83200 24.60200
C  40.85100 46.26900 28.15700
O  40.19500 47.29200 28.27800
C  41.11600 45.24800 29.28800
C  41.95800 45.87700 30.32500
O  43.00500 46.44500 30.12500
O  41.33800 45.75500 31.54300
C  42.15700 46.14100 32.72100
H  42.97800 38.42600 29.34000
H  44.17500 38.82000 23.12000
H  41.87700 44.83300 23.02700
H  42.82200 42.93300 31.22100
H  41.34100 40.34500 30.91000
H  44.20300 39.87800 31.24000
H  43.03500 39.59100 32.48400
H  43.72200 41.20500 32.38800
H  39.91200 42.07700 30.53500
H  40.26300 43.60200 31.42100
H  41.23100 41.83600 33.20600
H  39.76500 41.02500 32.69100
H  43.54300 35.54600 27.86000
H  44.11100 36.67200 29.05900
H  45.21100 36.09500 27.86000
H  43.88400 34.73800 25.80400
H  45.64800 35.05400 25.45800
H  44.54800 34.31100 24.29600
H  42.74600 40.55500 21.31200
H  43.55600 43.25100 21.60100
H  45.31800 42.09800 21.38800
H  44.74100 40.98700 20.13900
H  45.52800 40.37400 21.65600
H  41.54200 42.14300 20.24700
H  41.19300 43.79000 20.91800
H  40.34000 41.41400 22.76900
H  39.38500 41.56800 21.34600
H  39.56700 42.91600 22.44900
H  40.43800 47.59500 25.23900
H  40.18600 46.58900 23.80200
H  41.78000 47.31900 24.21300
H  40.13900 45.05700 29.73300
H  42.38800 47.19900 32.59600
H  43.13700 45.67500 32.82900
H  41.52300 46.08600 33.60600
Mg 30.89400 59.46600 40.60200
C  27.94100 57.88100 39.42300
C  32.57800 56.84900 39.19900
C  33.81000 61.14800 41.25500
C  29.03900 62.30400 41.37000
N  30.29400 57.58900 39.34100
C  29.04400 57.17900 39.03900
C  29.13300 55.88500 38.12600
C  30.62300 55.41000 38.43900
C  31.16000 56.72200 38.97200
C  30.75100 54.30000 39.54400
C  29.01500 56.22300 36.57700
C  27.83200 55.57600 35.82300
H  27.99400 55.61600 34.31300
N  32.97000 59.05300 40.24000
C  33.38500 57.87100 39.74700
C  34.84000 57.87700 39.79600
C  35.23200 59.13300 40.30500
C  34.00900 59.85200 40.60300
C  35.71300 56.76700 39.15900
C  36.66000 59.62500 40.45100
O  37.69800 59.00000 40.17100
C  36.92900 60.98700 40.87900
N  31.38200 61.43400 41.15300
C  32.60700 61.86200 41.50800
C  32.55300 63.31600 41.98300
C  31.02600 63.57300 42.21700
C  30.44100 62.38600 41.53800
C  33.46300 63.67300 43.07900
C  30.45400 64.96400 41.82400
C  29.29300 65.57800 42.71400
N  28.84900 59.99000 40.57700
C  28.22700 61.15400 40.95300
C  26.78900 61.08800 40.71100
C  26.63900 59.75200 40.12000
C  27.90300 59.20100 40.06000
C  25.74800 62.15600 40.92700
C  25.71500 58.73200 39.54100
O  24.53100 58.86000 39.34700
C  26.50000 57.53400 39.16100
C  26.03200 56.35100 39.89000
O  26.45600 55.94700 40.95600
O  24.93000 55.87000 39.11900
C  24.13000 54.86500 39.77500
H  33.14400 55.96300 38.90300
H  34.67600 61.72900 41.57900
H  28.30900 63.04800 41.69400
H  28.37800 55.12500 38.33000
H  31.04000 54.95900 37.53800
H  30.97300 54.54900 40.58200
H  31.56900 53.64800 39.23700
H  29.90300 53.61900 39.46500
H  29.91800 56.17600 35.96700
H  28.69600 57.26300 36.51800
H  26.90900 55.99400 36.22500
H  27.97900 54.52900 36.09000
H  36.10200 57.03400 38.17600
H  35.21500 55.80100 39.07100
H  36.51200 56.58200 39.87700
H  36.67000 61.16000 41.92400
H  36.31600 61.58300 40.20300
H  37.96500 61.22200 40.63600
H  32.96800 63.93600 41.18700
H  30.85100 63.42600 43.28200
H  32.93000 64.30800 43.78700
H  34.34600 64.24200 42.78800
H  33.88600 62.76900 43.51800
H  30.01900 64.75300 40.84700
H  31.26000 65.69000 41.71300
H  28.42700 65.70000 42.06400
H  29.58300 66.59800 42.96700
H  29.00700 64.98700 43.58400
H  25.97100 62.76500 41.80200
H  24.85000 61.57900 41.15100
H  25.62400 62.76300 40.03000
H  26.25200 57.34000 38.11700
H  24.32200 54.73200 40.84000
H  24.24500 53.90300 39.27500
H  23.06500 55.09600 39.76300

