158

Mg 25.30900 1.06900 30.40300
C  27.23500 1.06700 33.25800
C  22.46000 1.49500 32.34000
C  23.36000 1.10600 27.59300
C  28.00200 0.56800 28.47600
N  24.86600 1.27500 32.57200
C  25.88500 1.38800 33.48200
C  25.27600 1.77800 34.90700
C  23.73400 1.78800 34.59800
C  23.65400 1.48200 33.14400
C  22.83200 0.99500 35.62000
C  25.93000 3.08800 35.57600
C  26.56600 2.90000 36.94400
H  26.35900 4.00800 37.98500
N  23.25400 1.18300 30.08700
C  22.27000 1.38300 30.99600
C  21.02000 1.49500 30.32000
C  21.26100 1.47100 28.99000
C  22.68900 1.32100 28.83500
C  19.70800 1.62500 31.07700
C  20.26100 1.50400 27.83800
O  20.52500 1.34200 26.65100
C  18.81800 2.00700 28.12200
N  25.61500 0.90600 28.32600
C  24.71000 0.89800 27.35700
C  25.34200 0.77300 25.95700
C  26.86500 0.84400 26.30000
C  26.85400 0.73600 27.79000
C  24.86900 -0.59800 25.25500
C  27.63700 2.08400 25.72700
C  26.99600 3.40100 26.05300
N  27.26500 0.87300 30.72500
C  28.27600 0.59200 29.85200
C  29.53700 0.47400 30.60800
C  29.13700 0.68000 31.94000
C  27.75500 0.91300 31.96000
C  30.87000 0.19300 30.11200
C  29.68700 0.79500 33.27800
O  30.84300 0.72900 33.70700
C  28.45100 1.03600 34.23400
C  28.42400 -0.10700 35.17200
O  27.91300 -1.19000 34.93100
O  28.95000 0.25900 36.42500
C  28.77400 -0.65700 37.50000
H  21.55100 1.73500 32.89500
H  22.83200 1.22700 26.64500
H  28.87800 0.46000 27.83400
H  25.40400 1.06900 35.72400
H  23.43500 2.83400 34.53300
H  21.82000 1.38800 35.72400
H  23.32600 0.95400 36.59100
H  22.57600 0.00600 35.24000
H  25.10400 3.79700 35.50700
H  26.70200 3.37600 34.86200
H  27.63400 2.97000 36.73900
H  26.34700 1.91300 37.35100
H  19.02600 0.81700 30.81000
H  19.38700 2.64000 30.84500
H  19.82900 1.48800 32.15200
H  18.36400 1.91300 27.13500
H  18.80700 2.99400 28.58300
H  18.22100 1.32000 28.72100
H  25.09300 1.66400 25.38100
H  27.35700 -0.00800 25.83100
H  23.96100 -1.00900 25.69700
H  25.62900 -1.37900 25.28100
H  24.68400 -0.52200 24.18400
H  27.76100 2.02800 24.64500
H  28.58400 2.16500 26.26000
H  26.79500 3.91500 25.11300
H  27.63500 4.09700 26.59600
H  26.05600 3.42300 26.60600
H  30.86200 -0.88200 29.93200
H  31.55700 0.66800 30.81300
H  31.04300 0.70600 29.16700
H  28.61300 1.96200 34.78700
H  27.95700 -0.38000 38.16500
H  29.66200 -0.67600 38.13200
H  28.61400 -1.67600 37.14600
Mg 1.64300 41.94300 26.05800
C  3.53900 42.06100 28.97300
C  -1.09200 41.12300 27.89400
C  0.26200 41.12200 23.28400
C  4.73500 42.59400 24.25300
N  1.27300 41.60900 28.25100
C  2.17000 41.95900 29.21200
C  1.37100 41.92400 30.56700
C  -0.09800 41.49700 30.25100
C  -0.02400 41.46600 28.70200
C  -0.41100 40.06400 30.78600
C  1.49400 43.24800 31.37600
C  1.60500 43.16300 32.89300
H  1.23000 41.89600 33.63600
N  -0.24100 41.21600 25.64200
C  -1.23400 40.84500 26.51400
C  -2.30700 40.31500 25.71200
C  -1.90900 40.26100 24.36900
C  -0.59500 40.90200 24.36800
C  -3.66400 39.88900 26.29100
C  -2.65500 39.75800 23.15900
O  -2.15300 39.66800 22.04600
C  -4.08000 39.30200 23.19700
N  2.39200 41.89000 23.98900
C  1.53500 41.55400 23.06700
C  2.14700 41.79800 21.67100
C  3.44700 42.55200 21.99700
C  3.57800 42.37000 23.48800
C  2.36600 40.47800 20.80800
C  3.39600 44.05600 21.62300
C  4.23800 44.47900 20.44900
N  3.69000 42.28900 26.45900
C  4.77600 42.57600 25.68600
C  5.93200 42.66300 26.50600
C  5.53000 42.46800 27.79500
C  4.15700 42.19900 27.73700
C  7.40000 42.91900 26.00900
C  5.91700 42.37500 29.21000
O  6.97100 42.44100 29.81500
C  4.57700 42.20900 30.02900
C  4.73400 41.04100 30.91700
O  4.49100 39.90900 30.54600
O  5.00200 41.42200 32.24000
C  5.19700 40.39200 33.18800
H  -2.00800 41.16100 28.48600
H  -0.29200 40.88700 22.37300
H  5.62000 42.91700 23.70100
H  1.92800 41.12200 31.04900
H  -0.86300 42.19500 30.59000
H  0.25600 39.81400 31.61200
H  -0.18900 39.36900 29.97700
H  -1.43800 39.85400 31.08900
H  0.62000 43.83900 31.10100
H  2.32600 43.83500 30.98800
H  1.03700 43.95700 33.37900
H  2.68100 43.26600 33.03600
H  -3.70700 40.17600 27.34100
H  -3.79200 38.80600 26.26300
H  -4.42300 40.43400 25.73000
H  -4.76600 40.14700 23.26300
H  -4.25700 38.69800 24.08600
H  -4.24700 38.80100 22.24300
H  1.46200 42.44000 21.11700
H  4.35800 42.13300 21.57000
H  1.50700 39.84300 21.02500
H  3.28700 39.96300 21.08100
H  2.42300 40.82800 19.77700
H  3.68200 44.72300 22.43600
H  2.35900 44.37300 21.51000
H  4.98400 45.21300 20.75300
H  3.55000 44.90700 19.72000
H  4.76500 43.61800 20.03800
H  7.74200 43.87300 26.41100
H  7.42400 42.97800 24.92100
H  7.99300 42.15500 26.51100
H  4.49800 43.11800 30.62500
H  6.22700 40.03800 33.14200
H  4.58200 39.49700 33.09100
H  4.82000 40.74900 34.14600

