158

Mg 9.33300 4.07500 28.04000
C  10.25700 2.18100 30.94900
C  7.02100 5.75800 29.96900
C  8.19200 5.53100 25.22900
C  10.85700 1.59500 26.09900
N  8.60300 3.84100 30.18600
C  9.40100 3.26400 31.18200
C  8.87800 3.61600 32.56600
C  7.82100 4.75600 32.26200
C  7.84500 4.79600 30.71900
C  6.44500 4.59800 32.81300
C  9.97000 3.78000 33.62300
C  9.77300 4.84800 34.69500
H  10.00700 4.49300 36.15000
N  7.92100 5.52400 27.67100
C  7.05000 6.06000 28.56800
C  6.27800 7.10900 27.95700
C  6.70500 7.22600 26.54300
C  7.62600 6.04800 26.40300
C  5.29300 7.98500 28.70600
C  6.30300 8.14300 25.48300
O  6.67200 8.11100 24.31800
C  5.31200 9.32800 25.76200
N  9.61000 3.74300 25.92800
C  9.04200 4.50100 25.01900
C  9.49000 4.05300 23.63100
C  10.35600 2.79100 23.89300
C  10.24200 2.67100 25.40100
C  8.37400 3.94300 22.51400
C  11.77400 2.91400 23.31500
C  12.35800 1.80600 22.35100
N  10.45300 2.31400 28.36900
C  10.97900 1.37900 27.49100
C  11.55900 0.31400 28.23100
C  11.45700 0.66300 29.53800
C  10.67100 1.83200 29.61900
C  12.23900 -0.87300 27.58200
C  11.78100 0.25100 30.86300
O  12.50200 -0.64600 31.28800
C  11.04700 1.23000 31.86000
C  10.15500 0.43300 32.68600
O  8.98500 0.05700 32.47100
O  10.65700 0.27400 33.95700
C  9.66000 -0.23100 34.95600
H  6.35200 6.37200 30.57500
H  7.81200 5.91500 24.28000
H  11.33600 0.96400 25.34700
H  8.35300 2.74000 32.94900
H  8.24800 5.72400 32.52500
H  5.61500 5.01300 32.24000
H  6.53100 5.04500 33.80400
H  6.17500 3.54500 32.88600
H  10.89000 3.90800 33.05200
H  10.13200 2.85900 34.18400
H  8.70300 5.05000 34.74300
H  10.37600 5.72300 34.45500
H  4.94200 7.61200 29.66900
H  4.43800 7.99400 28.03000
H  5.63200 9.01300 28.83200
H  5.63200 10.12500 25.09100
H  5.46800 9.70300 26.77400
H  4.25800 9.08500 25.62700
H  10.20400 4.74900 23.19200
H  9.90600 1.90100 23.45400
H  7.42500 4.34800 22.86400
H  8.26200 2.89100 22.25000
H  8.76300 4.51200 21.67000
H  12.51700 3.04400 24.10300
H  11.83300 3.81900 22.71000
H  12.12300 2.18000 21.35500
H  11.87800 0.83200 22.44300
H  13.44300 1.84500 22.44700
H  13.16200 -0.45000 27.18500
H  11.57400 -1.37800 26.88100
H  12.41200 -1.71100 28.25700
H  11.69200 1.69300 32.60600
H  9.00900 0.61500 35.17900
H  10.18400 -0.53700 35.86100
H  9.02500 -1.07800 34.69500
Mg 0.43200 44.08300 25.98200
C  2.70600 44.11700 28.68300
C  -2.04500 43.25700 28.18000
C  -1.59200 43.38800 23.34600
C  3.14100 44.22700 23.86800
N  0.39200 43.81800 28.24000
C  1.39600 43.87900 29.15600
C  0.92100 43.78600 30.55300
C  -0.55200 43.21300 30.32800
C  -0.76500 43.54400 28.80100
C  -0.71900 41.74100 30.59000
C  0.94600 45.15900 31.32400
C  0.98300 44.98000 32.88900
H  0.30600 43.80700 33.63200
N  -1.57900 43.54500 25.77800
C  -2.45600 43.26200 26.78900
C  -3.73700 42.94000 26.22400
C  -3.65900 43.10800 24.85000
C  -2.23900 43.46000 24.56000
C  -4.89600 42.60200 27.09400
C  -4.77900 43.18700 23.77500
O  -4.54100 43.45600 22.62300
C  -6.17100 42.91400 24.20000
N  0.72000 43.71700 23.95300
C  -0.26800 43.51100 23.07800
C  0.29800 43.40000 21.62100
C  1.64400 44.15300 21.78200
C  1.89500 44.00100 23.30100
C  0.43200 41.91200 21.26500
C  1.62600 45.63400 21.21700
C  2.85000 46.07000 20.38100
N  2.52300 44.24700 26.17400
C  3.55200 44.25400 25.22400
C  4.83900 44.44400 25.80800
C  4.52500 44.33400 27.13700
C  3.16500 44.24600 27.36600
C  6.21400 44.71100 25.02900
C  5.12600 44.22500 28.48400
O  6.28000 44.03500 28.83300
C  3.96100 44.22200 29.50000
C  4.23100 43.04100 30.38600
O  4.04900 41.87200 30.16600
O  4.66700 43.51700 31.62100
C  4.97800 42.45800 32.60100
H  -2.88000 43.01500 28.84100
H  -2.34000 43.33100 22.55200
H  3.91800 44.48500 23.14500
H  1.54000 43.05900 31.07900
H  -1.33100 43.72800 30.89100
H  -1.73200 41.34600 30.66800
H  -0.13800 41.43300 31.45900
H  -0.29800 41.24200 29.71700
H  0.11400 45.79700 31.02600
H  1.78300 45.76600 30.97800
H  0.63600 45.92600 33.30600
H  2.04300 45.11000 33.11000
H  -5.70300 41.98500 26.70000
H  -5.24200 43.54600 27.51600
H  -4.51000 41.99900 27.91600
H  -6.37300 41.96000 24.68600
H  -6.76400 42.83600 23.28900
H  -6.50900 43.68500 24.89200
H  -0.44900 43.94200 21.04000
H  2.40400 43.63400 21.19700
H  -0.07200 41.64500 20.33600
H  -0.06100 41.21200 21.93900
H  1.47300 41.60000 21.18200
H  1.47200 46.38000 21.99600
H  0.66700 45.72500 20.70800
H  3.30400 46.92100 20.88900
H  2.59000 46.59000 19.45900
H  3.62000 45.34000 20.13200
H  6.66200 45.58800 25.49700
H  5.98800 44.88900 23.97800
H  6.87100 43.85100 25.15800
H  4.08400 45.09700 30.13900
H  5.58100 41.69300 32.11300
H  4.14900 41.97400 33.11700
H  5.71400 42.93700 33.24700

