158

Mg 16.93600 -1.64100 28.29500
C  15.99000 0.54600 31.05200
C  18.79800 -3.47500 30.55100
C  18.61600 -2.97300 25.72900
C  15.90000 1.08500 26.15300
N  17.36700 -1.35200 30.52300
C  16.85500 -0.48200 31.45200
C  17.33900 -0.80900 32.83600
C  18.36200 -2.06500 32.60800
C  18.17200 -2.32900 31.08900
C  19.87100 -1.90400 32.93200
C  16.25800 -0.99700 33.89500
C  16.52700 -0.44900 35.27500
H  17.91800 0.01900 35.68500
N  18.30800 -3.19600 28.12100
C  18.89300 -3.88100 29.19600
C  19.63900 -5.02800 28.60400
C  19.59600 -4.85700 27.22100
C  18.75400 -3.65800 26.96100
C  20.28200 -6.07800 29.43000
C  20.17600 -5.71800 26.14100
O  20.02400 -5.46800 24.89900
C  21.05100 -6.89700 26.49100
N  17.14500 -1.05800 26.23300
C  18.00600 -1.73900 25.41200
C  18.05600 -1.16000 24.01100
C  17.04800 0.07300 24.11500
C  16.72300 0.06900 25.60300
C  19.41300 -0.77200 23.49900
C  15.82200 0.05800 23.18400
C  14.69600 -0.90500 23.57800
N  15.90800 0.23300 28.54800
C  15.58600 1.13500 27.56700
C  14.79600 2.25900 28.22300
C  15.03700 2.05200 29.58600
C  15.66400 0.82400 29.72600
C  14.08600 3.32300 27.49100
C  14.70800 2.58800 30.91800
O  14.11900 3.56200 31.18000
C  15.37800 1.66400 31.92600
C  16.34800 2.51400 32.73300
O  17.46900 2.82400 32.35700
O  15.78800 2.89400 33.88000
C  16.56800 3.95900 34.60900
H  19.33100 -4.03500 31.32300
H  19.08300 -3.42800 24.85300
H  15.61500 1.93600 25.53100
H  18.00100 0.03200 33.04700
H  18.01900 -3.00100 33.04800
H  20.17000 -2.62800 33.68900
H  20.01500 -0.90100 33.33500
H  20.51400 -2.01200 32.05900
H  16.27100 -2.08400 33.96500
H  15.36600 -0.62700 33.38900
H  16.21700 -1.23900 35.95900
H  15.93300 0.46400 35.32100
H  20.31600 -5.87400 30.50000
H  21.22500 -6.43700 29.01700
H  19.61300 -6.93300 29.34100
H  21.92300 -6.42600 26.94400
H  21.30600 -7.34600 25.53200
H  20.63400 -7.66900 27.13800
H  17.68500 -1.87400 23.27600
H  17.58300 0.97600 23.82400
H  20.10100 -0.84000 24.34200
H  19.41100 0.24400 23.10300
H  19.75400 -1.61600 22.90000
H  16.08100 -0.24400 22.16900
H  15.47200 1.08800 23.24200
H  13.81200 -0.35600 23.90300
H  14.91700 -1.58300 24.40300
H  14.36700 -1.53800 22.75300
H  14.23600 4.28000 27.99100
H  13.00600 3.21900 27.59600
H  14.44300 3.46600 26.47100
H  14.64600 1.18900 32.57900
H  16.73200 4.76700 33.89600
H  17.56100 3.63800 34.92300
H  16.04400 4.40100 35.45600
Mg 16.39300 53.15600 27.00500
C  18.59200 51.64300 29.20300
C  14.22400 53.63700 29.66200
C  14.29900 54.37300 24.82900
C  18.67000 52.37400 24.42600
N  16.43200 52.70200 29.16800
C  17.46500 52.13000 29.82800
C  17.20600 52.23100 31.36800
C  15.68000 52.30200 31.39400
C  15.35700 52.88000 29.97700
C  15.01000 50.82500 31.65600
C  17.98900 53.40000 32.09300
C  18.23300 53.10400 33.60000
H  17.19500 52.23400 34.40600
N  14.62200 54.08900 27.25900
C  13.86700 54.21800 28.40400
C  12.63000 54.88100 28.08700
C  12.71200 55.25400 26.67000
C  13.91100 54.55600 26.20500
C  11.64500 55.39300 29.14900
C  11.73500 56.17700 25.79100
O  12.00800 56.52400 24.64700
C  10.49600 56.71500 26.46800
N  16.42300 53.29200 24.92800
C  15.37000 53.82600 24.18500
C  15.73200 54.05100 22.66500
C  17.17900 53.41700 22.69400
C  17.45100 53.00800 24.13200
C  14.86300 53.24300 21.62400
C  18.28800 54.27400 21.90100
C  19.44000 54.79300 22.72600
N  18.29500 52.12100 26.79000
C  19.05100 51.75900 25.65900
C  20.17300 51.01100 26.04500
C  20.03900 50.94800 27.42700
C  18.84800 51.64100 27.83200
C  21.18800 50.45800 25.08100
C  20.65000 50.37100 28.64100
O  21.51100 49.54500 28.79100
C  19.75600 50.92600 29.83900
C  19.36300 49.83200 30.77800
O  18.51100 48.99200 30.51700
O  19.96700 49.95700 31.97100
C  19.57500 48.98700 32.99000
H  13.48300 53.75600 30.45600
H  13.53800 54.71900 24.12700
H  19.38500 52.25000 23.61000
H  17.48100 51.30200 31.86700
H  15.25500 52.92700 32.17900
H  15.73300 50.12300 32.07300
H  14.75500 50.44300 30.66700
H  14.18300 50.99800 32.34400
H  17.37700 54.27900 31.88800
H  18.95400 53.51000 31.59800
H  18.39600 54.07700 34.06300
H  19.18400 52.58600 33.72000
H  11.64000 56.48100 29.22800
H  11.93500 55.00600 30.12600
H  10.61500 55.10200 28.93900
H  10.02600 57.40400 25.76600
H  10.93100 57.30500 27.27500
H  9.88400 55.86200 26.76100
H  15.80300 55.11200 22.42200
H  17.13100 52.43800 22.21700
H  15.14600 52.19100 21.60800
H  14.91800 53.68100 20.62800
H  13.84700 53.34600 22.00600
H  17.79300 55.11400 21.41300
H  18.80900 53.69200 21.14100
H  19.11200 54.85300 23.76400
H  19.75000 55.82900 22.58800
H  20.36900 54.22200 22.72600
H  21.28400 49.38400 25.23900
H  22.12300 51.01400 25.14600
H  20.78500 50.57700 24.07500
H  20.40300 51.62900 30.36300
H  18.57500 49.22400 33.35600
H  20.33200 49.09900 33.76600
H  19.62100 47.94900 32.66300

