158

Mg -2.50200 18.36800 27.28900
C  -2.65400 15.95300 29.72600
C  -2.86400 20.82600 29.83100
C  -2.60300 20.70000 24.82200
C  -2.84000 15.83000 24.74900
N  -2.53900 18.30400 29.56800
C  -2.61000 17.15300 30.35600
C  -2.68200 17.56400 31.85200
C  -3.03400 19.12800 31.84100
C  -2.79900 19.46100 30.32400
C  -4.46300 19.43300 32.25100
C  -1.43900 17.10800 32.65800
C  -1.13200 17.87800 33.99100
H  -0.54600 16.96000 35.08700
N  -2.58200 20.41200 27.33300
C  -2.69600 21.24900 28.46500
C  -2.56000 22.64700 27.98600
C  -2.48600 22.64500 26.57900
C  -2.57000 21.20500 26.20700
C  -2.60900 23.78600 28.98500
C  -2.40300 23.79800 25.57600
O  -2.28100 23.67000 24.37000
C  -2.48600 25.19900 26.09500
N  -2.86600 18.22000 24.99700
C  -2.79600 19.37700 24.27100
C  -2.80100 19.03500 22.76000
C  -2.86600 17.47600 22.73900
C  -2.78800 17.17200 24.22500
C  -3.84900 19.67200 21.82500
C  -1.88500 16.66300 21.86700
C  -0.53500 16.51600 22.57500
N  -2.59200 16.31900 27.16600
C  -2.70400 15.44100 26.11900
C  -2.82600 14.07700 26.68000
C  -2.83000 14.23600 28.04400
C  -2.75200 15.64400 28.32600
C  -2.87300 12.82600 25.84900
C  -2.87700 13.48900 29.27100
O  -3.04900 12.28800 29.57600
C  -2.76500 14.60800 30.36700
C  -1.63100 14.18700 31.18900
O  -0.41200 14.27500 30.92900
O  -2.13600 13.52000 32.25300
C  -1.12600 12.82100 33.08800
H  -2.98600 21.62000 30.57000
H  -2.67100 21.50900 24.09100
H  -2.86000 15.11000 23.92800
H  -3.46400 16.96900 32.32300
H  -2.40600 19.72900 32.49800
H  -4.86700 20.03400 31.43600
H  -4.50600 20.11900 33.09800
H  -5.12500 18.57900 32.39300
H  -0.59900 17.26200 31.98200
H  -1.70000 16.07000 32.86400
H  -2.06900 18.29400 34.36000
H  -0.30800 18.57400 33.83400
H  -1.77100 24.37300 28.61100
H  -2.34600 23.41800 29.97600
H  -3.47100 24.44700 28.89200
H  -1.71200 25.49100 26.80400
H  -3.43000 25.15000 26.63800
H  -2.61200 25.94600 25.31100
H  -1.77600 19.27800 22.47900
H  -3.89000 17.23100 22.46000
H  -4.43800 20.30800 22.48600
H  -4.52000 18.98500 21.31000
H  -3.35400 20.24900 21.04300
H  -1.80700 17.16100 20.90000
H  -2.37500 15.73200 21.58400
H  -0.47200 15.64300 23.22500
H  -0.31500 17.33900 23.25500
H  0.25400 16.42000 21.83000
H  -3.28000 12.97500 24.84900
H  -3.46700 12.12600 26.43700
H  -1.86400 12.42400 25.75100
H  -3.68400 14.56100 30.95000
H  -0.30600 13.50600 33.30400
H  -0.82300 11.83000 32.74900
H  -1.57400 12.78200 34.08100
Mg 42.21100 40.81700 26.30600
C  41.35000 43.33300 28.74900
C  43.21000 38.79600 28.70600
C  43.04700 38.67800 23.87000
C  41.35900 43.24100 23.88400
N  42.37100 41.19800 28.41700
C  41.81200 42.14300 29.30900
C  41.93300 41.75100 30.73100
C  42.75100 40.36400 30.68000
C  42.71100 40.04500 29.12100
C  44.16700 40.39600 31.37000
C  40.57900 41.69700 31.50500
C  40.45700 42.67900 32.71200
H  39.99700 42.13700 34.07700
N  43.01400 39.00200 26.27200
C  43.38100 38.25600 27.36200
C  43.79800 37.01700 26.89000
C  43.97200 37.04000 25.49600
C  43.34200 38.31200 25.15400
C  44.31500 35.93100 27.76200
C  44.49900 36.01300 24.48400
O  44.47000 36.14500 23.28100
C  45.11900 34.76400 24.96700
N  42.02400 40.89900 24.22500
C  42.52500 39.88800 23.44800
C  42.21600 40.12800 21.95600
C  41.73100 41.56700 21.94900
C  41.65600 41.95000 23.42400
C  43.41400 39.98800 20.92700
C  40.32800 41.85400 21.27800
C  40.20200 43.27400 20.53900
N  41.59000 42.92200 26.28500
C  41.25500 43.76900 25.20100
C  40.86800 45.08300 25.68300
C  40.76800 44.89400 27.09300
C  41.28500 43.59800 27.41600
C  40.62000 46.23600 24.80300
C  40.37700 45.57400 28.33100
O  39.79000 46.61800 28.49400
C  40.80100 44.52200 29.51400
C  41.80200 45.17900 30.40600
O  42.93700 45.51900 30.09300
O  41.22500 45.60300 31.59800
C  42.04400 46.32800 32.58900
H  43.54800 38.23700 29.58100
H  43.31200 37.93000 23.12000
H  41.13200 43.94700 23.08200
H  42.64500 42.51600 31.04000
H  42.11500 39.52700 30.96800
H  44.92800 40.41700 30.58900
H  44.31900 39.47600 31.93500
H  44.27300 41.17200 32.12800
H  40.44300 40.65100 31.78200
H  39.82800 42.07200 30.81000
H  39.79700 43.50000 32.42900
H  41.41500 43.14800 32.93500
H  44.11500 36.09200 28.82100
H  45.38000 35.71700 27.66500
H  43.75600 35.00600 27.62100
H  44.34800 34.30500 25.58500
H  45.98100 35.11400 25.53500
H  45.47200 34.17800 24.11800
H  41.42100 39.40500 21.77400
H  42.50600 42.23100 21.56500
H  43.01000 39.40100 20.10200
H  44.28400 39.39700 21.21400
H  43.80700 40.94300 20.57800
H  39.58000 41.76700 22.06600
H  40.02300 41.09900 20.55300
H  40.34500 43.19800 19.46200
H  40.97600 43.91400 20.96300
H  39.19200 43.65300 20.69600
H  41.30400 46.46300 23.98500
H  40.76200 47.08600 25.46900
H  39.67300 46.25500 24.26200
H  39.86000 44.26500 30.00200
H  41.35900 46.91400 33.20200
H  42.63900 47.08700 32.08100
H  42.68400 45.65400 33.15800

