158

Mg 1.24900 7.28000 26.57700
C  1.95600 9.38300 29.43300
C  0.99200 4.68600 28.90600
C  0.85700 5.33700 24.04500
C  1.86700 10.05200 24.62400
N  1.36400 7.11000 28.97500
C  1.66000 8.05100 29.88600
C  1.68200 7.45800 31.35500
C  1.57700 5.92400 31.05200
C  1.30500 5.91200 29.54200
C  2.82600 5.05000 31.35500
C  0.52300 8.06400 32.16000
C  0.69300 8.40800 33.62900
H  1.75900 7.62100 34.36900
N  0.79600 5.32800 26.48600
C  0.76100 4.40700 27.55300
C  0.35000 3.18100 26.98700
C  0.30000 3.30400 25.56700
C  0.66100 4.68100 25.29900
C  0.25700 1.92800 27.80000
C  -0.10200 2.36600 24.52100
O  -0.30800 2.68100 23.33300
C  -0.42400 0.95300 24.79700
N  1.67900 7.56500 24.61300
C  1.28100 6.58100 23.71100
C  1.39200 7.16400 22.22900
C  1.48800 8.66800 22.55200
C  1.66700 8.81800 24.09200
C  2.63100 6.70200 21.36300
C  0.14900 9.44200 22.15200
C  0.42300 10.69200 21.26200
N  1.84300 9.32000 26.89700
C  1.87900 10.34200 25.98700
C  2.14000 11.61900 26.63800
C  2.17000 11.27900 28.01000
C  2.02900 9.84900 28.08600
C  2.14700 12.97300 25.98200
C  2.27400 11.86100 29.35200
O  2.34500 13.04300 29.63600
C  2.17500 10.53900 30.33400
C  3.28600 10.49200 31.31100
O  4.29300 9.76100 31.28600
O  2.93900 11.36000 32.35300
C  3.92400 11.44100 33.41900
H  0.99300 3.79800 29.54100
H  0.54800 4.77800 23.15900
H  1.97900 10.95100 24.01500
H  2.60900 7.74800 31.85000
H  0.75000 5.51000 31.62900
H  2.64600 4.20500 32.02000
H  3.64900 5.60700 31.80400
H  3.28500 4.63700 30.45700
H  -0.32600 7.38700 32.06200
H  0.16000 8.95200 31.64300
H  -0.22900 8.26100 34.19200
H  1.07900 9.42100 33.51700
H  -0.75600 1.52500 27.79600
H  0.51100 1.89400 28.86000
H  0.83400 1.19600 27.23500
H  -0.71500 0.34900 23.93900
H  -1.32000 0.95400 25.41700
H  0.44700 0.42900 25.19100
H  0.54400 6.82900 21.63300
H  2.37400 9.19200 22.19400
H  3.05100 7.58000 20.87200
H  2.41100 5.86700 20.69800
H  3.43300 6.52700 22.08000
H  -0.38500 9.79700 23.03300
H  -0.49400 8.77700 21.57600
H  0.07300 10.41300 20.26800
H  1.42000 11.12000 21.16400
H  -0.25000 11.49700 21.55800
H  2.08000 12.92400 24.89500
H  3.03700 13.47000 26.36900
H  1.20300 13.39000 26.33100
H  1.25000 10.69800 30.88900
H  4.86000 11.66300 32.90500
H  4.20300 10.51500 33.92100
H  3.53300 12.20700 34.08900
Mg 17.07000 -2.93500 28.25500
C  16.17700 -0.82400 30.92500
C  18.71300 -5.02900 30.41200
C  18.31200 -4.51000 25.55800
C  15.94000 -0.27300 26.04700
N  17.32000 -2.93400 30.44800
C  16.91200 -1.97100 31.35900
C  17.36200 -2.31800 32.79800
C  18.27100 -3.64800 32.55700
C  18.03200 -3.95100 31.05700
C  19.81000 -3.42900 32.97000
C  16.07900 -2.63200 33.62400
C  16.05900 -1.84100 34.96600
H  17.40800 -1.45000 35.59200
N  18.29000 -4.56100 28.03000
C  18.87200 -5.34200 29.04100
C  19.63700 -6.41600 28.49300
C  19.42500 -6.36000 27.09400
C  18.68300 -5.09500 26.79800
C  20.30600 -7.48900 29.36500
C  19.91100 -7.30700 26.02200
O  19.74600 -7.09900 24.84100
C  20.68000 -8.59100 26.46200
N  17.00000 -2.50800 26.07900
C  17.65400 -3.33700 25.21900
C  17.69200 -2.75900 23.77800
C  16.67800 -1.53400 23.88500
C  16.54300 -1.41200 25.45200
C  19.08600 -2.38000 23.30800
C  15.44200 -1.85300 22.98700
C  15.39500 -1.16200 21.65100
N  16.16300 -0.97200 28.41000
C  15.69200 -0.10700 27.41900
C  15.00800 0.97900 28.10200
C  15.21300 0.73200 29.47100
C  15.91900 -0.41100 29.60100
C  14.15500 2.01300 27.41100
C  14.98700 1.28400 30.79500
O  14.54300 2.35700 31.14400
C  15.63700 0.26600 31.80800
C  16.58100 0.95600 32.67600
O  17.72000 1.38100 32.30600
O  15.98000 1.35900 33.84900
C  16.60800 2.43800 34.58800
H  19.28500 -5.59300 31.15100
H  18.66200 -4.90800 24.60400
H  15.71800 0.61100 25.44500
H  17.87600 -1.42400 33.15200
H  17.97400 -4.45700 33.22500
H  19.98300 -4.36500 33.50100
H  19.98400 -2.52400 33.55200
H  20.28800 -3.42200 31.99000
H  15.96900 -3.70100 33.80600
H  15.19000 -2.28100 33.10000
H  15.45700 -2.38700 35.69300
H  15.43300 -0.94900 34.95200
H  19.59800 -8.31800 29.36700
H  20.46800 -7.26600 30.42000
H  21.27700 -7.79500 28.97500
H  20.87300 -9.10600 25.52100
H  20.12700 -9.15400 27.21400
H  21.66900 -8.30900 26.82300
H  17.39100 -3.67100 23.26100
H  17.17300 -0.61500 23.57400
H  18.98600 -1.39600 22.85000
H  19.48300 -3.11700 22.60900
H  19.87200 -2.33400 24.06200
H  14.58300 -1.56100 23.59100
H  15.33300 -2.92800 22.84400
H  14.43800 -0.63900 21.64400
H  15.52400 -1.99700 20.96200
H  16.23000 -0.46200 21.65800
H  14.43100 2.93800 27.91600
H  13.10000 1.77500 27.54800
H  14.50600 2.22100 26.40000
H  14.79400 -0.09900 32.39500
H  16.94000 3.18800 33.87000
H  17.33500 2.14500 35.34600
H  15.86200 3.01900 35.12900

