158

Mg -2.70700 17.39600 25.61900
C  -2.55400 14.80900 28.14400
C  -2.76800 19.70400 27.94700
C  -2.83700 19.56300 23.13600
C  -2.85400 14.80700 23.21300
N  -2.87100 17.23200 27.85000
C  -2.63400 16.15500 28.67400
C  -2.68100 16.57700 30.17900
C  -2.81900 18.14300 30.04300
C  -2.74800 18.37300 28.49000
C  -4.09700 18.73700 30.58100
C  -1.37600 16.24400 31.01600
C  -1.18400 16.98600 32.35600
H  -0.78100 16.25500 33.63500
N  -2.69800 19.42300 25.56200
C  -2.79300 20.19200 26.64600
C  -2.70500 21.57900 26.26200
C  -2.88500 21.58000 24.90000
C  -2.81700 20.13200 24.44500
C  -2.62200 22.73700 27.26100
C  -3.09600 22.77000 23.99200
O  -3.12300 22.63400 22.79200
C  -3.33400 24.16100 24.51100
N  -2.91800 17.22600 23.44600
C  -2.86000 18.25200 22.62100
C  -2.73100 17.91100 21.11800
C  -3.07300 16.39900 21.15500
C  -2.94500 16.12400 22.74800
C  -3.68300 18.69200 20.25100
C  -2.09900 15.56800 20.14400
C  -2.84400 14.57800 19.20100
N  -2.54600 15.30700 25.62700
C  -2.64500 14.42400 24.56300
C  -2.48900 13.04200 25.05800
C  -2.41000 13.19800 26.47500
C  -2.51200 14.59100 26.75300
C  -2.36900 11.81700 24.21200
C  -2.32700 12.46100 27.69400
O  -2.03600 11.28100 27.91400
C  -2.54500 13.43700 28.83100
C  -1.41000 13.15600 29.73500
O  -0.27400 13.47400 29.54500
O  -1.88600 12.44600 30.83200
C  -0.90000 12.13900 31.84300
H  -2.73000 20.43100 28.76100
H  -2.87100 20.30800 22.33800
H  -2.89900 13.95500 22.53100
H  -3.53500 16.11600 30.67500
H  -2.00600 18.75400 30.43700
H  -4.86200 19.13600 29.91400
H  -3.86400 19.52600 31.29600
H  -4.57100 17.93000 31.14000
H  -0.58400 16.37500 30.27900
H  -1.20300 15.21600 31.33600
H  -2.13000 17.44000 32.64700
H  -0.54100 17.83600 32.12600
H  -3.56000 23.24800 27.47900
H  -1.83100 23.43700 26.99600
H  -2.29700 22.49600 28.27400
H  -3.96000 24.22500 25.40100
H  -3.74800 24.80200 23.73300
H  -2.40300 24.65700 24.79000
H  -1.69000 18.15300 20.90500
H  -4.12200 16.28100 20.88300
H  -4.52100 18.10200 19.88000
H  -3.14800 19.25500 19.48600
H  -4.24800 19.43900 20.80800
H  -1.33600 15.07300 20.74600
H  -1.64800 16.35300 19.53600
H  -2.40300 14.57200 18.20500
H  -3.88100 14.89200 19.08000
H  -2.80500 13.64900 19.77000
H  -3.34000 11.54200 23.80100
H  -1.85200 11.06200 24.80400
H  -1.82000 12.02800 23.29400
H  -3.52400 13.14100 29.20900
H  -0.56300 11.15300 31.52100
H  -1.45100 11.90300 32.75300
H  -0.02900 12.78900 31.93000
Mg 0.52100 43.04100 25.71100
C  2.40800 43.02400 28.61700
C  -2.28700 42.42200 27.69200
C  -1.16800 42.43900 22.90800
C  3.52800 42.89400 23.81800
N  0.07400 42.67200 27.94000
C  1.01200 42.90800 28.93400
C  0.35400 42.81800 30.33000
C  -1.19400 42.56500 29.98300
C  -1.18100 42.53900 28.47900
C  -2.05900 41.42400 30.58500
C  0.67400 44.10800 31.17500
C  1.46000 43.83600 32.52500
H  1.01200 42.63800 33.33300
N  -1.46900 42.57800 25.34700
C  -2.50300 42.42500 26.27000
C  -3.76000 42.30200 25.53100
C  -3.42800 42.19100 24.16100
C  -1.98100 42.41200 24.12300
C  -5.15300 42.18900 26.21900
C  -4.38800 42.14100 22.97800
O  -4.06100 41.90900 21.83300
C  -5.85900 42.44100 23.29700
N  1.11600 42.79400 23.68000
C  0.21400 42.60800 22.66800
C  0.82200 42.60100 21.24200
C  2.31500 42.95100 21.67400
C  2.34000 42.86500 23.15600
C  0.60700 41.27800 20.49100
C  2.86000 44.24100 21.13700
C  2.47800 45.64500 21.77800
N  2.53500 42.97700 26.04300
C  3.68600 42.99900 25.19500
C  4.88100 43.00900 26.00400
C  4.38600 43.02600 27.31700
C  3.00200 42.96600 27.26600
C  6.31500 43.02100 25.44600
C  4.89800 43.04300 28.64700
O  6.04600 43.11100 29.02400
C  3.61500 43.03700 29.50300
C  3.70300 41.79700 30.32800
O  3.14200 40.69100 30.12500
O  4.51300 42.05600 31.43900
C  4.61700 40.98900 32.38600
H  -3.21300 42.19300 28.22200
H  -1.65800 42.13200 21.98100
H  4.40900 42.91300 23.17300
H  0.76000 41.92500 30.80600
H  -1.76600 43.45100 30.25900
H  -2.93700 41.67100 31.18100
H  -1.42400 40.82900 31.24000
H  -2.40800 40.71200 29.83700
H  -0.22900 44.68500 31.37900
H  1.33700 44.77500 30.62400
H  1.21700 44.74700 33.07200
H  2.53100 43.92600 32.34600
H  -5.17600 42.17400 27.30900
H  -5.49000 41.25400 25.77300
H  -5.77100 42.97300 25.78100
H  -6.28500 41.62000 23.87400
H  -6.39200 42.59200 22.35900
H  -5.98600 43.38500 23.82600
H  0.35800 43.39000 20.65000
H  2.99600 42.13200 21.44400
H  0.21000 40.53600 21.18400
H  1.59100 40.90300 20.21100
H  -0.05200 41.40000 19.63100
H  2.46700 44.35800 20.12700
H  3.94000 44.14900 21.02300
H  2.14900 45.42800 22.79400
H  1.61500 46.01400 21.22400
H  3.38100 46.25500 21.79300
H  6.46000 42.78600 24.39200
H  6.78700 42.25500 26.06100
H  6.82400 43.95700 25.67800
H  3.69200 43.80200 30.27500
H  5.00500 40.13000 31.84000
H  3.67400 40.66200 32.82400
H  5.31700 41.33700 33.14600

