158

Mg 1.52300 -2.09500 45.37900
C  4.83500 -1.02600 44.81900
C  0.37900 0.40600 43.36100
C  -1.50100 -3.68500 45.11200
C  2.82800 -5.02600 46.95300
N  2.59200 -0.56800 44.08400
C  3.86700 -0.22300 44.13000
C  4.17500 0.98700 43.22500
C  2.70900 1.59200 43.11500
C  1.79500 0.42700 43.62500
C  2.49200 2.88900 43.95300
C  4.71900 0.50100 41.85500
C  5.77400 1.34600 41.14400
H  5.31500 2.13300 39.95100
N  -0.46900 -1.52900 44.51200
C  -0.69500 -0.47300 43.70900
C  -2.02000 -0.55500 43.25800
C  -2.61800 -1.71700 43.91700
C  -1.53300 -2.35000 44.56300
C  -2.67900 0.43800 42.34800
C  -4.07200 -2.04100 43.96800
O  -4.83400 -1.33700 43.37600
C  -4.61200 -3.21500 44.74200
N  0.86000 -4.23600 45.69000
C  -0.52900 -4.49500 45.66800
C  -0.80100 -5.91400 46.36000
C  0.63500 -6.39700 46.81200
C  1.53800 -5.17800 46.47400
C  -1.77300 -5.75000 47.50200
C  0.98600 -7.76200 46.15300
C  1.34800 -8.92200 47.06000
N  3.41800 -2.83700 45.95800
C  3.78300 -4.03000 46.57900
C  5.22100 -4.03900 46.82000
C  5.72500 -2.93900 46.07100
C  4.57400 -2.21600 45.60400
C  5.89200 -5.02100 47.71800
C  6.82700 -2.16900 45.70000
O  7.99400 -2.33400 45.84200
C  6.31000 -0.91300 44.82800
C  6.87800 0.31300 45.46800
O  7.23400 0.34200 46.61900
O  7.10600 1.27100 44.53700
C  8.01800 2.28500 45.05400
H  0.00900 1.30500 42.86200
H  -2.45800 -4.20100 45.00800
H  3.02300 -5.79800 47.70000
H  4.82000 1.68700 43.75600
H  2.36200 1.78000 42.09900
H  3.42500 3.44200 44.06100
H  2.26500 2.58100 44.97400
H  1.63000 3.46600 43.61600
H  3.87500 0.53700 41.16600
H  5.00700 -0.54900 41.90000
H  6.51200 0.63900 40.76400
H  6.16200 2.12900 41.79600
H  -3.66400 0.24800 41.92100
H  -2.06100 0.57700 41.46100
H  -2.80700 1.37800 42.88500
H  -4.55600 -4.10500 44.11500
H  -5.62300 -2.88800 44.98200
H  -4.05500 -3.35200 45.66900
H  -1.13200 -6.58600 45.56800
H  0.64700 -6.63000 47.87600
H  -2.70700 -6.03100 47.01500
H  -1.87600 -4.71700 47.83500
H  -1.64800 -6.49400 48.28900
H  1.86700 -7.77200 45.51000
H  0.17200 -8.27000 45.63800
H  1.03700 -9.86300 46.60600
H  0.70100 -8.85000 47.93400
H  2.36300 -8.90600 47.45600
H  6.26500 -4.72300 48.69800
H  6.80400 -5.27200 47.17600
H  5.25200 -5.89700 47.81900
H  6.76300 -1.04600 43.84600
H  8.88400 1.76700 45.46800
H  7.49800 2.96000 45.73300
H  8.28300 2.89800 44.19200
Mg 17.87300 51.34900 25.87700
C  19.58000 49.94900 28.67700
C  15.26200 52.08400 28.12100
C  15.90400 52.15900 23.30400
C  20.00500 49.77200 23.79900
N  17.56300 51.22400 28.22000
C  18.33500 50.55600 29.04400
C  17.80400 50.65100 30.56200
C  16.34100 51.07700 30.22600
C  16.42000 51.55100 28.73900
C  15.22600 49.99300 30.53800
C  18.63000 51.56100 31.50000
C  18.61900 51.26400 33.01200
H  17.48800 50.30700 33.57900
N  15.96700 52.19700 25.74100
C  15.03900 52.30600 26.76800
C  13.77800 52.83800 26.25800
C  14.03200 53.06900 24.83900
C  15.38700 52.54000 24.60100
C  12.63600 53.25400 27.05800
C  13.14400 53.74200 23.79400
O  13.41500 53.73900 22.61300
C  11.73400 54.33400 24.23800
N  17.82000 50.81500 23.71000
C  17.04300 51.42900 22.88600
C  17.41300 51.21800 21.42300
C  18.80400 50.36100 21.53900
C  18.88500 50.27300 23.06300
C  16.35000 50.65000 20.52100
C  20.04900 51.08200 20.97900
C  20.90800 50.20100 20.07300
N  19.44600 50.23400 26.08900
C  20.28700 49.60800 25.16800
C  21.32800 48.82500 25.81200
C  21.12300 48.99000 27.21200
C  19.96500 49.88600 27.31100
C  22.36300 48.03000 25.18400
C  21.68100 48.64900 28.52000
O  22.63100 47.95100 28.85300
C  20.65400 49.32100 29.56400
C  20.11200 48.21300 30.33500
O  19.23600 47.45000 29.96300
O  20.72000 48.13800 31.57300
C  20.31800 47.06500 32.40600
H  14.48100 52.14500 28.88200
H  15.28200 52.32400 22.42100
H  20.73100 49.44900 23.05000
H  17.91200 49.63800 30.95000
H  16.15400 52.00600 30.76500
H  14.72200 49.55500 29.67600
H  14.50000 50.42400 31.22600
H  15.60200 49.16300 31.13600
H  18.23800 52.55800 31.29900
H  19.64700 51.36300 31.16200
H  18.58100 52.23000 33.51700
H  19.52100 50.74000 33.32700
H  12.79000 54.18300 27.60700
H  12.52500 52.42600 27.75800
H  11.73600 53.41400 26.46400
H  11.86700 55.07000 25.03100
H  11.02200 53.56700 24.54300
H  11.26000 54.83000 23.39100
H  17.63900 52.22300 21.06800
H  18.70700 49.40300 21.02800
H  15.38000 50.58300 21.01400
H  16.62200 49.65100 20.18100
H  16.13500 51.22100 19.61800
H  20.71600 51.40000 21.78000
H  19.62200 51.95100 20.47900
H  21.01000 49.17100 20.41400
H  21.91500 50.59700 19.94300
H  20.31600 50.20600 19.15800
H  22.84600 48.62600 24.40900
H  21.94400 47.10000 24.79900
H  22.99800 47.77400 26.03100
H  21.22100 50.03200 30.16500
H  20.52600 46.17400 31.81400
H  19.25400 47.11200 32.63800
H  20.87500 46.98600 33.34000

