158

Mg 47.66800 24.66800 28.19200
C  48.54500 27.25000 30.63900
C  47.12200 22.55700 30.79200
C  47.12600 22.31400 25.89500
C  48.55500 26.96500 25.71300
N  48.02100 24.90800 30.50100
C  48.21200 26.02900 31.28300
C  47.80200 25.77600 32.76400
C  47.69600 24.21300 32.82700
C  47.50800 23.86000 31.32200
C  48.97000 23.54000 33.39900
C  46.49200 26.50500 33.16900
C  46.53900 27.29800 34.53300
H  47.17200 26.65200 35.71500
N  46.97200 22.78100 28.30800
C  46.83100 22.07700 29.49800
C  46.39600 20.73900 29.11500
C  46.36600 20.67300 27.74800
C  46.81800 21.93700 27.27500
C  45.98100 19.65000 30.19700
C  45.91400 19.48400 26.82900
O  45.66900 19.53000 25.67700
C  45.98300 18.13100 27.55900
N  47.84600 24.59800 26.09900
C  47.59200 23.47600 25.34200
C  47.64300 23.76500 23.81100
C  48.26200 25.24200 23.76700
C  48.16300 25.66500 25.27600
C  48.38100 22.70600 22.99800
C  47.57000 26.36300 22.80000
C  48.58700 27.26300 22.11500
N  48.42300 26.64700 28.13600
C  48.66300 27.43000 26.97900
C  49.13100 28.74200 27.42100
C  49.10100 28.68500 28.84000
C  48.66000 27.43300 29.21600
C  49.59600 29.89600 26.53000
C  49.33400 29.49200 30.04700
O  49.76200 30.65400 30.16600
C  48.87200 28.65400 31.30500
C  49.88500 28.46200 32.33000
O  50.95800 27.91400 32.21100
O  49.41600 29.12400 33.43200
C  49.92400 28.78200 34.80000
H  46.96100 21.86600 31.62200
H  46.90400 21.65600 25.05200
H  48.64000 27.75100 24.95900
H  48.59900 26.16500 33.39800
H  46.85900 23.92300 33.46200
H  49.23800 24.18400 34.23600
H  49.79800 23.53600 32.69000
H  48.85000 22.51800 33.76000
H  45.63800 25.83000 33.21300
H  46.17100 27.29200 32.48700
H  45.47800 27.32200 34.78300
H  46.95100 28.29400 34.37100
H  46.62400 18.77000 30.20500
H  44.99600 19.21300 30.02600
H  45.99400 20.04900 31.21100
H  45.86400 17.38400 26.77400
H  45.16500 18.02100 28.27100
H  46.98500 18.11100 27.98700
H  46.59700 23.94100 23.55900
H  49.32300 25.09700 23.56300
H  47.60600 22.28300 22.35800
H  48.89000 21.97900 23.63100
H  49.04200 23.19000 22.28000
H  46.95700 27.07100 23.35700
H  46.88900 26.04100 22.01200
H  48.63100 28.30700 22.42600
H  48.48800 27.20800 21.03100
H  49.58000 26.88100 22.35000
H  49.78300 30.67000 27.27400
H  48.81100 30.21800 25.84500
H  50.56100 29.70900 26.05900
H  48.02900 29.13800 31.79900
H  50.53300 27.87900 34.82900
H  49.12500 28.77700 35.54100
H  50.65600 29.51400 35.14200
Mg -10.68700 39.63000 40.55600
C  -9.85500 36.45900 39.58200
C  -7.52300 40.73200 39.81500
C  -11.98500 42.85200 40.42600
C  -14.04800 38.49100 41.09200
N  -9.04700 38.75500 39.43000
C  -8.85800 37.39300 39.28200
C  -7.38100 37.07600 38.81200
C  -6.66800 38.36700 39.41900
C  -7.84800 39.37500 39.57700
C  -5.86600 38.18300 40.69900
C  -7.25800 37.18600 37.24700
C  -7.08500 35.88100 36.44700
H  -8.05500 35.60300 35.32200
N  -9.93400 41.45300 40.23000
C  -8.55200 41.73800 39.98900
C  -8.43100 43.13800 39.97600
C  -9.65100 43.76200 40.12200
C  -10.55300 42.65100 40.36000
C  -7.10300 43.77300 39.68900
C  -9.80800 45.26600 40.08900
O  -8.86300 45.93400 39.71600
C  -11.12700 45.96500 40.24100
N  -12.80900 40.59800 40.67400
C  -13.03300 41.93500 40.62800
C  -14.51500 42.27600 40.80200
C  -15.06700 40.86900 41.29700
C  -13.95400 39.89000 40.95200
C  -14.89600 43.40100 41.76200
C  -16.48700 40.57000 40.72800
C  -17.52500 40.02000 41.74000
N  -11.79100 37.79000 40.47200
C  -13.05000 37.52300 40.81000
C  -13.14600 36.08500 40.82700
C  -11.96600 35.53900 40.31000
C  -11.15800 36.68300 40.09500
C  -14.33600 35.25600 41.23600
C  -11.19900 34.37900 39.90600
O  -11.47900 33.20500 39.83100
C  -9.76000 34.96600 39.40100
C  -8.59400 34.30700 40.01900
O  -8.21600 34.40100 41.19000
O  -7.90800 33.68000 39.00100
C  -6.62800 32.88200 39.20200
H  -6.49000 41.07200 39.71400
H  -12.37600 43.83100 40.14200
H  -15.00100 38.11900 41.47400
H  -6.92700 36.20400 39.28300
H  -5.89900 38.73300 38.73800
H  -6.13700 38.85600 41.51300
H  -4.86200 38.57400 40.53400
H  -5.81900 37.16300 41.07800
H  -6.49900 37.91800 36.97300
H  -8.25500 37.57200 37.03300
H  -6.90300 35.01000 37.07700
H  -6.12900 36.13200 35.98600
H  -7.08000 44.20400 38.68800
H  -6.23200 43.15000 39.89200
H  -6.85000 44.67000 40.25400
H  -11.70500 45.91700 39.31900
H  -10.88400 46.97800 40.56300
H  -11.62300 45.56800 41.12700
H  -14.86000 42.49500 39.79100
H  -15.07500 40.89900 42.38700
H  -14.04900 44.02600 42.04800
H  -15.53500 43.03100 42.56300
H  -15.50900 44.06100 41.14800
H  -16.45400 39.76900 39.98900
H  -16.83900 41.41800 40.14000
H  -17.11500 40.03000 42.75000
H  -17.65600 38.93900 41.69400
H  -18.35100 40.72900 41.79900
H  -15.20900 35.74700 41.66700
H  -13.83600 34.50400 41.84700
H  -14.69900 34.69100 40.37700
H  -9.67100 34.82900 38.32300
H  -6.37600 32.73000 40.25100
H  -5.81800 33.18500 38.53900
H  -6.85400 31.81600 39.16100

