158

Mg 55.50500 23.01100 44.56000
C  53.18000 25.44800 43.11100
C  53.21700 20.65300 43.49600
C  57.90700 20.85000 44.95800
C  57.75000 25.68500 45.05300
N  53.39200 23.05900 43.42900
C  52.66400 24.15200 43.02300
C  51.24500 23.72400 42.47500
C  51.09900 22.28200 42.98400
C  52.57400 21.92300 43.34400
C  50.24700 22.18400 44.15000
C  51.03300 23.81700 40.93800
C  49.71800 24.53400 40.45900
H  49.19200 24.13400 39.07700
N  55.53500 20.98000 44.41500
C  54.50300 20.18700 43.92600
C  55.01200 18.80400 43.92800
C  56.32600 18.78900 44.43900
C  56.66500 20.22500 44.62200
C  54.11800 17.72500 43.52600
C  57.26200 17.51400 44.74700
O  56.83500 16.40500 44.49800
C  58.64500 17.64300 45.24100
N  57.57400 23.21800 44.60200
C  58.38900 22.16100 45.01900
C  59.73600 22.52600 45.68300
C  59.54000 24.10000 45.78600
C  58.14000 24.34500 45.14600
C  60.09000 21.81000 47.02000
C  60.75700 24.93300 45.14600
C  61.16200 26.17500 45.96700
N  55.55100 25.16300 44.11800
C  56.50400 26.09600 44.47900
C  55.95100 27.43000 44.23700
C  54.69600 27.18500 43.60100
C  54.49400 25.81400 43.56400
C  56.55000 28.70600 44.67500
C  53.57500 27.85700 43.01400
O  53.36300 29.09200 42.88500
C  52.50200 26.77500 42.64200
C  52.48500 26.78800 41.14500
O  53.45400 26.41300 40.45800
O  51.36500 27.44100 40.65000
C  51.42000 27.49600 39.20900
H  52.54500 19.81500 43.29800
H  58.74400 20.22200 45.27100
H  58.34400 26.50700 45.45600
H  50.47800 24.34100 42.94300
H  50.66500 21.62400 42.23100
H  49.26800 21.75100 43.94400
H  50.00000 23.11800 44.65400
H  50.79700 21.51200 44.80900
H  50.93500 22.80500 40.54700
H  51.84000 24.35000 40.43500
H  49.80700 25.62100 40.48400
H  48.92200 24.28400 41.16000
H  53.80800 17.92000 42.50000
H  53.20200 17.68500 44.11500
H  54.60700 16.76100 43.38500
H  59.25400 18.24200 44.56400
H  59.17000 16.69000 45.28800
H  58.64500 18.02100 46.26300
H  60.38900 22.14800 44.89700
H  59.31400 24.42500 46.80200
H  59.24100 21.26500 47.43200
H  60.31000 22.60100 47.73700
H  60.98500 21.18700 47.02300
H  60.56900 25.27700 44.12900
H  61.59600 24.24000 45.08300
H  60.27100 26.50700 46.50000
H  61.41600 26.96300 45.25800
H  62.04900 26.05600 46.58900
H  56.71000 28.83800 45.74500
H  55.95900 29.60000 44.47300
H  57.50900 28.77900 44.16400
H  51.51400 26.99000 43.04800
H  51.94300 28.44000 39.05500
H  50.42300 27.59100 38.78000
H  51.85600 26.68400 38.62800
Mg 48.07400 34.12400 25.24200
C  46.16200 32.67200 27.80100
C  48.58200 36.75300 27.27100
C  48.95400 35.77700 22.53900
C  47.29000 31.36200 23.21000
N  47.47900 34.63500 27.25900
C  46.79900 33.84100 28.18200
C  47.04400 34.31000 29.62600
C  47.37600 35.79100 29.34800
C  47.84400 35.73900 27.87200
C  46.22600 36.91400 29.60100
C  48.20100 33.60400 30.45000
C  47.93100 33.42400 31.94500
H  46.91200 34.30900 32.66000
N  48.83100 35.92000 24.95900
C  48.97500 36.93800 25.90900
C  49.79900 38.02200 25.37200
C  49.91400 37.78000 23.93400
C  49.11000 36.48700 23.73100
C  50.43000 39.08300 26.18000
C  50.62800 38.60600 22.87000
O  50.62300 38.38500 21.68300
C  51.48400 39.85000 23.29400
N  48.19200 33.65700 23.20100
C  48.55000 34.48900 22.24000
C  48.57800 33.84800 20.80700
C  48.40100 32.36100 21.14400
C  47.91600 32.48600 22.60600
C  47.62300 34.50700 19.77700
C  49.61000 31.33000 20.98300
C  49.80300 30.82000 19.52000
N  46.83000 32.30900 25.37800
C  46.61200 31.30900 24.43400
C  45.64300 30.39500 25.03400
C  45.44200 30.80400 26.37000
C  46.15200 32.03200 26.48100
C  45.12900 29.12100 24.35700
C  44.78600 30.57500 27.64900
O  44.03300 29.66200 27.98200
C  45.28200 31.66100 28.60000
C  45.98000 30.94800 29.71300
O  46.96100 30.16700 29.64900
O  45.25700 31.11000 30.82800
C  45.57800 30.35200 32.10900
H  49.01100 37.64700 27.73000
H  49.35900 36.19400 21.61500
H  47.29800 30.41000 22.67600
H  46.13600 34.36500 30.22700
H  48.19800 36.09600 29.99600
H  45.82600 37.29900 28.66300
H  46.54000 37.78400 30.17800
H  45.43600 36.40200 30.15100
H  49.14900 34.13600 30.36800
H  48.16000 32.53900 30.22300
H  48.86700 33.58800 32.47900
H  47.53900 32.41700 32.08800
H  50.58200 38.87900 27.24000
H  49.87300 40.01600 26.09400
H  51.41500 39.18600 25.72500
H  52.25400 39.47100 23.96600
H  50.71000 40.40800 23.82100
H  51.89200 40.42300 22.46100
H  49.56600 33.85500 20.34700
H  47.63500 31.99800 20.45900
H  47.07800 35.31500 20.26500
H  46.88500 33.87400 19.28500
H  48.29500 34.88900 19.00900
H  49.50300 30.42900 21.58700
H  50.53600 31.78800 21.33000
H  49.23400 31.38200 18.77900
H  49.60000 29.75100 19.57000
H  50.87200 30.92100 19.33200
H  45.82500 28.28800 24.44900
H  44.83000 29.41800 23.35200
H  44.29800 28.74500 24.95400
H  44.40200 32.14100 29.03000
H  46.66200 30.34200 32.22900
H  45.14800 29.37300 31.89800
H  44.98100 30.77200 32.91800

