158

Mg 36.18500 1.13500 29.23900
C  33.96000 2.31300 31.84100
C  38.72300 1.51100 31.56400
C  38.12400 0.54300 26.80900
C  33.33200 1.54000 27.02900
N  36.35400 1.86600 31.48400
C  35.27100 2.10600 32.31100
C  35.68500 2.13700 33.82600
C  37.23700 2.16200 33.57300
C  37.48600 1.75800 32.16000
C  37.92300 3.42800 34.21700
C  35.26500 0.87700 34.61100
C  34.71400 1.08200 36.04800
H  35.03600 2.29700 36.92700
N  38.17500 0.83200 29.16300
C  39.05100 1.00500 30.21800
C  40.40300 0.61200 29.79500
C  40.30000 0.37300 28.34000
C  38.83500 0.55500 28.04000
C  41.57500 0.38700 30.70700
C  41.35400 0.08800 27.25200
O  41.14000 0.09600 26.05400
C  42.73300 -0.13100 27.65800
N  35.74600 1.19300 27.13000
C  36.79300 0.87700 26.41200
C  36.39000 0.56400 24.97600
C  34.84100 0.64500 25.01600
C  34.55000 1.17200 26.42700
C  37.02000 1.51200 23.88000
C  33.96800 -0.69200 24.71800
C  32.85500 -0.52400 23.62800
N  34.12200 1.87300 29.32100
C  33.08900 1.89100 28.40900
C  31.84400 2.47000 28.97600
C  32.08400 2.58200 30.34900
C  33.47200 2.19200 30.54300
C  30.63100 2.79800 28.17100
C  31.58200 3.00400 31.55900
O  30.54500 3.52800 31.78400
C  32.68800 2.66200 32.64500
C  32.77200 3.90500 33.48400
O  33.59100 4.73100 33.27000
O  31.89300 3.84800 34.52400
C  32.25600 4.83200 35.55000
H  39.56700 1.46500 32.25600
H  38.67800 0.11900 25.96900
H  32.51500 1.52800 26.30400
H  35.27000 3.04700 34.25800
H  37.68500 1.39500 34.20500
H  38.51500 3.19700 35.10300
H  37.10900 4.04900 34.59200
H  38.52000 3.97000 33.48400
H  35.99500 0.06800 34.65100
H  34.36600 0.58100 34.07100
H  35.10700 0.21400 36.57800
H  33.62800 1.01700 35.98400
H  42.17500 1.29200 30.80500
H  42.18600 -0.47500 30.43900
H  41.21300 0.14900 31.70700
H  43.52300 -0.21500 26.91200
H  42.81100 -1.10700 28.13800
H  43.08200 0.70700 28.26200
H  36.68000 -0.45700 24.73000
H  34.43900 1.42200 24.36600
H  38.09100 1.66900 24.01400
H  36.55000 2.49400 23.94800
H  37.01400 1.03000 22.90200
H  33.51800 -1.05200 25.64400
H  34.60500 -1.49700 24.35200
H  31.90500 -0.93300 23.97300
H  33.11800 -1.06600 22.71900
H  32.72600 0.54400 23.45000
H  30.23800 3.77800 28.44200
H  29.90200 2.00200 28.32700
H  30.95900 2.98000 27.14800
H  32.37900 1.70200 33.05800
H  31.74200 5.78800 35.45500
H  33.31000 5.05000 35.72500
H  31.97900 4.18100 36.37900
Mg -5.29600 25.60100 24.83400
C  -3.93300 27.19100 27.72300
C  -6.84600 23.47300 26.96800
C  -6.46600 23.91200 22.12800
C  -3.56500 27.81000 22.82800
N  -5.23200 25.30200 27.10600
C  -4.71900 26.16000 28.05300
C  -5.02400 25.63500 29.47400
C  -5.71500 24.23000 29.21000
C  -6.02100 24.34000 27.64800
C  -4.97000 22.92400 29.61700
C  -5.94800 26.76400 30.22500
C  -6.13500 26.62100 31.72600
H  -5.21500 25.59000 32.44600
N  -6.52500 24.00500 24.59100
C  -7.11400 23.24700 25.61900
C  -7.97300 22.23400 25.01900
C  -7.80100 22.24200 23.56400
C  -6.85000 23.35500 23.36500
C  -8.83200 21.37500 25.88100
C  -8.51200 21.37100 22.52200
O  -8.41200 21.56200 21.35900
C  -9.35600 20.25100 22.97000
N  -4.94700 25.73500 22.71000
C  -5.61500 24.96800 21.75900
C  -5.11000 25.32700 20.32600
C  -4.44800 26.75100 20.60800
C  -4.31400 26.79700 22.13700
C  -4.21900 24.29200 19.61800
C  -5.09400 28.01800 20.04000
C  -6.41500 28.48300 20.62000
N  -3.96400 27.18500 25.13600
C  -3.44500 28.01800 24.23000
C  -2.70700 29.06500 24.99600
C  -2.87700 28.73500 26.28800
C  -3.65400 27.58900 26.39300
C  -1.94100 30.23500 24.44500
C  -2.54600 29.14100 27.58200
O  -1.88400 30.07100 27.94900
C  -3.24300 28.12900 28.59900
C  -2.19100 27.47400 29.42900
O  -1.16400 26.89800 28.97800
O  -2.39200 27.58700 30.79600
C  -1.36000 27.35100 31.79600
H  -7.35400 22.76500 27.62600
H  -7.04700 23.60600 21.25500
H  -3.17200 28.63600 22.23200
H  -4.08800 25.44400 29.99900
H  -6.65200 24.25800 29.76700
H  -4.18700 23.08400 30.35900
H  -4.49800 22.54300 28.71200
H  -5.51900 22.06500 30.00300
H  -6.94300 26.48900 29.87400
H  -5.68300 27.81000 30.06800
H  -7.10700 26.18500 31.96000
H  -6.09600 27.59200 32.22000
H  -9.83700 21.08800 25.57200
H  -9.04800 21.85900 26.83400
H  -8.41700 20.38400 26.06700
H  -8.83400 19.49600 23.55800
H  -9.63000 19.84400 21.99600
H  -10.25200 20.70800 23.38800
H  -6.02400 25.40400 19.73800
H  -3.37800 26.81200 20.40500
H  -3.81300 23.65000 20.39900
H  -3.35300 24.86600 19.28900
H  -4.61300 23.69400 18.79500
H  -5.20800 27.78400 18.98100
H  -4.36300 28.82500 20.09800
H  -6.84200 27.78900 21.34400
H  -7.11300 28.58000 19.78800
H  -6.05200 29.45500 20.95500
H  -1.04400 30.02700 23.86200
H  -1.72500 30.91600 25.26800
H  -2.47300 30.79700 23.67800
H  -3.86800 28.74100 29.24900
H  -1.40200 28.09700 32.59000
H  -0.35200 27.15900 31.42800
H  -1.50900 26.31100 32.08600

