158

Mg -1.63300 16.93900 25.81100
C  -2.27800 14.65400 28.44700
C  -2.67600 19.48000 27.78100
C  -1.53100 18.96100 23.04100
C  -1.24300 14.18300 23.69500
N  -2.37800 17.01800 27.81700
C  -2.42600 16.01300 28.81100
C  -2.93200 16.56000 30.13400
C  -3.24900 18.04600 29.85200
C  -2.72900 18.24400 28.39700
C  -4.70700 18.50500 30.19800
C  -2.01300 16.13300 31.33200
C  -1.95600 17.11600 32.52400
H  -1.76000 16.53800 33.87300
N  -1.81200 19.02400 25.55200
C  -2.29000 19.91100 26.46700
C  -2.16600 21.25200 25.95900
C  -1.91700 21.01500 24.50500
C  -1.82000 19.60400 24.29200
C  -2.28700 22.51800 26.73900
C  -1.69600 22.10600 23.39800
O  -1.42100 21.91400 22.24200
C  -1.76700 23.57300 23.74000
N  -1.30700 16.63100 23.60700
C  -1.28600 17.60700 22.73800
C  -1.12900 17.02600 21.31800
C  -0.72400 15.52300 21.57400
C  -1.08900 15.41200 23.02900
C  -2.38900 17.26700 20.40600
C  0.77900 15.16800 21.29400
C  1.73600 15.56900 22.47800
N  -1.78600 14.89000 25.99500
C  -1.54200 13.83600 25.06500
C  -1.58700 12.57800 25.71200
C  -1.95100 12.87400 27.02700
C  -1.94100 14.26400 27.14600
C  -1.41200 11.29200 25.04300
C  -2.27800 12.18600 28.25300
O  -2.33200 11.01100 28.54000
C  -2.57200 13.41400 29.22700
C  -1.62700 13.10900 30.29900
O  -0.38900 13.17300 30.23900
O  -2.34000 12.69300 31.37900
C  -1.69900 12.28700 32.60900
H  -2.91000 20.26400 28.50300
H  -1.68100 19.65700 22.21300
H  -1.04100 13.28200 23.11000
H  -3.89000 16.06300 30.28500
H  -2.64300 18.74800 30.42400
H  -4.60600 19.11700 31.09400
H  -5.35300 17.63800 30.33800
H  -5.07900 19.16500 29.41500
H  -0.98100 16.06400 30.98700
H  -2.44800 15.25500 31.80900
H  -2.94300 17.56600 32.63200
H  -1.20600 17.89200 32.37100
H  -2.37200 22.37600 27.81600
H  -3.23300 23.01100 26.51400
H  -1.46700 23.22000 26.58900
H  -1.14900 23.87400 24.58600
H  -2.78300 23.75000 24.09100
H  -1.66100 24.09700 22.79100
H  -0.30600 17.45900 20.74900
H  -1.34500 14.91400 20.91700
H  -2.04800 17.50900 19.39900
H  -2.92800 18.11400 20.82800
H  -2.87100 16.29800 20.27400
H  1.18200 15.66500 20.41200
H  0.94500 14.09600 21.18600
H  1.37200 16.46600 22.97800
H  2.75300 15.81500 22.17100
H  1.72000 14.75900 23.20700
H  -0.72500 10.69300 25.64100
H  -1.10100 11.41500 24.00600
H  -2.35200 10.75200 24.92600
H  -3.58900 13.48300 29.61400
H  -1.76700 13.03000 33.40300
H  -0.68500 11.92000 32.44500
H  -2.28100 11.45400 33.00300
Mg 3.06200 -2.23000 44.04100
C  6.24000 -0.71300 43.72300
C  1.82800 0.21100 41.86500
C  0.30700 -3.92700 43.76400
C  4.78900 -5.02300 45.38000
N  4.01700 -0.54000 42.84300
C  5.24300 -0.02100 43.03100
C  5.41900 1.36100 42.40800
C  3.93300 1.67600 42.07300
C  3.19000 0.33900 42.32300
C  3.29500 2.81600 42.97200
C  6.42600 1.40300 41.18500
C  6.49500 0.16400 40.16000
H  5.88700 0.51700 38.77900
N  1.20100 -1.87800 43.12800
C  0.89600 -0.80400 42.32200
C  -0.45700 -0.99300 41.81000
C  -0.92600 -2.23000 42.26400
C  0.14400 -2.71200 43.18300
C  -1.07900 0.00900 40.86700
C  -2.31100 -2.81000 41.95000
O  -3.07400 -2.26300 41.22700
C  -2.77500 -4.24200 42.48300
N  2.56700 -4.12500 44.66900
C  1.32200 -4.62900 44.48900
C  1.12500 -6.04100 45.19400
C  2.60300 -6.41300 45.52000
C  3.36200 -5.11200 45.16400
C  0.15000 -5.99300 46.40900
C  3.23800 -7.66500 44.89700
C  3.83100 -8.66100 45.89200
N  5.13100 -2.72300 44.61900
C  5.65900 -3.96300 45.05100
C  7.02100 -3.85700 45.27300
C  7.31300 -2.57000 44.86100
C  6.15100 -1.91400 44.35800
C  7.92200 -4.95100 45.83000
C  8.37000 -1.64100 44.61200
O  9.55200 -1.61900 44.90500
C  7.77400 -0.37000 43.86500
C  8.09600 0.96600 44.54100
O  8.81500 1.88000 44.04100
O  7.70300 0.95000 45.84000
C  8.03800 2.09300 46.65300
H  1.45000 0.98900 41.19900
H  -0.55800 -4.59300 43.80100
H  5.28300 -5.89600 45.81300
H  5.73600 2.21200 43.01100
H  3.79700 1.93300 41.02300
H  2.65600 2.24600 43.64700
H  2.81300 3.60400 42.39400
H  3.97000 3.33200 43.65500
H  7.38200 1.80300 41.52300
H  6.06400 2.24700 40.59600
H  5.82100 -0.56900 40.60400
H  7.47200 -0.30200 40.03600
H  -1.75500 0.68300 41.39400
H  -1.50700 -0.48200 39.99300
H  -0.28100 0.57800 40.39000
H  -2.02000 -4.89800 42.04900
H  -3.74100 -4.54700 42.08100
H  -2.87700 -4.31800 43.56500
H  0.78900 -6.78900 44.47500
H  2.71000 -6.39300 46.60400
H  -0.63600 -6.74200 46.31000
H  -0.30300 -5.01700 46.58300
H  0.63900 -6.13700 47.37200
H  4.11200 -7.41700 44.29600
H  2.59300 -8.19800 44.19800
H  3.17700 -9.52100 46.03200
H  4.03500 -8.28300 46.89400
H  4.82100 -9.04700 45.64900
H  7.71600 -5.82600 45.21400
H  7.64100 -5.26400 46.83600
H  8.95900 -4.65500 45.99000
H  8.26400 -0.20500 42.90600
H  7.62100 1.84900 47.63000
H  7.51200 2.97100 46.27900
H  9.10700 2.29600 46.70700

