158

Mg 48.45600 13.81500 27.81700
C  46.65500 14.21500 30.66200
C  50.94100 15.91100 29.14800
C  50.42400 13.37400 24.92000
C  45.92700 12.15800 26.40700
N  48.76200 14.89300 29.70000
C  47.83600 14.89100 30.71400
C  48.39100 15.59600 31.90500
C  49.45800 16.48000 31.23600
C  49.80700 15.64400 29.96500
C  49.03300 17.91100 30.94200
C  48.98100 14.56800 32.99800
C  48.37800 14.88100 34.38300
H  49.37300 14.85500 35.56900
N  50.35700 14.61600 27.14400
C  51.20200 15.45500 27.84700
C  52.43600 15.74900 27.11800
C  52.21400 15.11500 25.84200
C  50.97400 14.33700 25.88300
C  53.57300 16.45300 27.68200
C  53.08300 15.08400 24.60500
O  52.76500 14.78100 23.49000
C  54.53500 15.69600 24.62400
N  48.16900 12.99000 25.84900
C  49.14200 12.80200 24.88200
C  48.58500 12.04800 23.69200
C  47.12700 11.73600 24.21700
C  47.09300 12.28300 25.66400
C  48.72000 12.69700 22.31500
C  46.59000 10.26700 23.96500
C  46.91300 9.25800 25.01400
N  46.60100 13.33900 28.30700
C  45.68000 12.61700 27.65900
C  44.56100 12.34800 28.52700
C  44.89600 12.92900 29.73400
C  46.12500 13.58400 29.56600
C  43.25700 11.67200 28.13700
C  44.39000 13.23800 31.09100
O  43.34000 12.98500 31.71200
C  45.60900 13.94900 31.73500
C  45.04800 15.18300 32.27900
O  44.53200 16.12800 31.63400
O  45.16800 15.21700 33.61700
C  44.55900 16.32500 34.42400
H  51.60300 16.59600 29.68300
H  50.95500 13.23500 23.97500
H  45.08800 11.62000 25.95900
H  47.64300 16.33300 32.19800
H  50.39500 16.40000 31.78700
H  48.73200 18.46400 31.83200
H  48.23200 17.82800 30.20700
H  49.76300 18.48700 30.37300
H  50.06600 14.67500 33.00000
H  48.72200 13.52000 32.84700
H  47.68500 14.06500 34.59200
H  47.90900 15.85900 34.49400
H  53.45000 16.91000 28.66400
H  53.88500 17.33200 27.11700
H  54.42100 15.77100 27.73300
H  55.08300 15.20900 25.43100
H  54.39700 16.77500 24.68900
H  55.06700 15.54000 23.68500
H  49.11600 11.10300 23.57300
H  46.61300 12.46200 23.58800
H  49.27300 12.05700 21.62700
H  49.19000 13.63800 22.60100
H  47.75200 12.96100 21.88800
H  47.09600 9.87300 23.08300
H  45.51100 10.32600 23.82200
H  47.29100 9.69900 25.93700
H  47.71500 8.60900 24.66300
H  46.02900 8.67200 25.26600
H  42.36700 12.16700 28.52500
H  43.31100 10.61400 28.39300
H  43.02600 11.85700 27.08800
H  46.10600 13.41900 32.54700
H  43.48700 16.16700 34.54600
H  44.79300 17.30400 34.00700
H  45.03800 16.24900 35.40000
Mg 35.24800 48.62300 25.49800
C  35.40900 46.96000 28.54700
C  34.22800 51.44700 27.20500
C  34.53300 49.98600 22.47700
C  36.21900 45.64300 23.86600
N  34.77000 49.08300 27.72100
C  35.01800 48.29200 28.72800
C  34.90900 49.03500 30.05400
C  34.38700 50.39900 29.61500
C  34.44600 50.33000 28.09800
C  32.91200 50.79200 29.98600
C  36.23300 49.03200 30.81300
C  36.10200 48.66200 32.28100
H  34.77700 49.10700 32.95000
N  34.53500 50.50600 24.84300
C  34.19100 51.57700 25.68200
C  33.89100 52.73600 24.90500
C  34.01500 52.32400 23.53200
C  34.34600 50.90900 23.53700
C  33.48800 54.05600 25.60600
C  33.76800 53.19200 22.29100
O  33.83200 52.74600 21.19400
C  33.44900 54.66600 22.53700
N  35.24900 47.90200 23.46500
C  34.98300 48.69300 22.39800
C  35.36000 48.07200 21.07600
C  36.23200 46.87800 21.60600
C  35.89200 46.77500 23.10000
C  34.17700 47.60400 20.23700
C  37.76000 47.13400 21.17400
C  38.72600 47.90300 22.14400
N  35.70400 46.67800 26.01100
C  36.10200 45.50800 25.29600
C  36.48300 44.40900 26.17900
C  36.18500 44.98600 27.42700
C  35.59100 46.31000 27.31500
C  37.16500 43.18200 25.78800
C  36.44100 44.67300 28.85800
O  37.05900 43.71100 29.33700
C  35.82300 45.93000 29.59400
C  34.62500 45.40400 30.18000
O  33.57600 45.16200 29.64200
O  34.91900 45.10600 31.47800
C  33.74800 44.61900 32.26400
H  33.92100 52.29900 27.81600
H  34.47100 50.58600 21.56700
H  36.53100 44.78200 23.27100
H  34.16400 48.49600 30.63900
H  35.00700 51.25500 29.88200
H  32.22200 50.79800 29.14200
H  32.84700 51.75000 30.50000
H  32.50200 50.00200 30.61400
H  36.77000 49.95400 30.58900
H  36.96700 48.37700 30.34200
H  36.89600 49.07000 32.90600
H  36.28900 47.58900 32.32100
H  32.50800 54.34600 25.22900
H  34.06800 54.95200 25.38700
H  33.42000 53.99400 26.69200
H  32.50400 54.83900 23.05200
H  33.31500 55.20000 21.59600
H  34.22800 55.15300 23.12300
H  35.96200 48.68400 20.40500
H  35.83800 45.94100 21.21200
H  34.29600 46.61600 19.79400
H  34.07400 48.27200 19.38200
H  33.29700 47.64000 20.88000
H  37.70000 47.65700 20.21900
H  38.18100 46.18100 20.85100
H  38.31700 48.02900 23.14600
H  38.98100 48.87700 21.72700
H  39.57800 47.24200 22.30400
H  37.84100 42.90400 26.59600
H  37.61100 43.07400 24.79900
H  36.44900 42.36300 25.72100
H  36.58400 46.25800 30.30200
H  33.00700 45.41400 32.18300
H  33.92400 44.31900 33.29700
H  33.26700 43.77900 31.76300

