158

Mg 9.06300 3.41900 27.02200
C  10.35100 2.14200 30.07700
C  7.40900 5.86100 28.96400
C  7.78300 4.87600 24.21800
C  10.58600 0.92600 25.29400
N  8.80000 3.72800 29.23100
C  9.46200 3.16200 30.28400
C  9.20600 3.95400 31.62900
C  8.07900 4.92000 31.21600
C  8.07900 4.82500 29.65800
C  6.76300 4.74300 31.92900
C  10.37900 4.56600 32.40800
C  10.75200 4.04400 33.74700
H  11.19100 5.03900 34.82500
N  7.80500 5.04900 26.62700
C  7.29600 5.95000 27.61300
C  6.51800 6.92100 26.95000
C  6.74600 6.78600 25.58100
C  7.41100 5.49900 25.39600
C  5.67200 7.93900 27.64900
C  6.37400 7.69100 24.42400
O  6.66400 7.39400 23.28000
C  5.68700 9.03400 24.72500
N  8.98200 2.80200 24.98500
C  8.51100 3.65000 23.99800
C  8.89800 3.01400 22.60200
C  9.64200 1.66700 22.99300
C  9.79800 1.80700 24.50500
C  7.63900 2.82800 21.67200
C  10.91900 1.33100 22.23400
C  10.89900 0.00400 21.40500
N  10.17200 1.79800 27.51900
C  10.76400 0.89500 26.74100
C  11.57800 -0.01700 27.53900
C  11.39500 0.43100 28.83700
C  10.60300 1.54400 28.80400
C  12.39200 -1.22300 27.04500
C  11.85900 0.19400 30.22200
O  12.61100 -0.61400 30.71900
C  11.21500 1.34100 31.10200
C  10.39800 0.64400 32.16800
O  9.25900 0.28800 32.07300
O  11.32800 0.44600 33.18300
C  10.65500 -0.03300 34.43800
H  6.93900 6.62500 29.58700
H  7.46700 5.32800 23.27600
H  10.98200 0.13700 24.65200
H  8.91100 3.08100 32.21100
H  8.32600 5.97600 31.32500
H  6.27200 3.80900 31.65700
H  6.14400 5.61900 31.73400
H  7.03500 4.82700 32.98200
H  10.14300 5.62000 32.55400
H  11.30900 4.60700 31.84100
H  11.60700 3.38300 33.60800
H  9.86800 3.51000 34.09600
H  6.13100 8.89600 27.89600
H  5.42800 7.55100 28.63800
H  4.77100 8.00200 27.04000
H  6.28200 9.67800 25.37300
H  4.74500 8.79300 25.21900
H  5.33800 9.54800 23.82900
H  9.66400 3.63500 22.13600
H  8.97700 0.80500 22.92900
H  7.45700 1.78100 21.42800
H  7.80700 3.30500 20.70700
H  6.72700 3.25500 22.08800
H  11.88200 1.34900 22.74400
H  11.05200 2.09300 21.46600
H  10.84700 0.25000 20.34500
H  9.94500 -0.50300 21.55200
H  11.67600 -0.70000 21.70500
H  12.45500 -1.27900 25.95900
H  12.03600 -2.13500 27.52400
H  13.42000 -1.04000 27.35900
H  11.94300 2.08700 31.42200
H  9.93600 -0.83800 34.28400
H  10.17800 0.77100 34.99900
H  11.50600 -0.37000 35.02900
Mg 54.62800 24.25500 44.63600
C  51.93200 26.25600 43.53600
C  52.91600 21.68200 43.04000
C  57.41600 22.42400 44.69500
C  56.32300 27.02700 45.64500
N  52.69900 23.95800 43.33500
C  51.75000 24.98200 43.11300
C  50.62400 24.48000 42.19700
C  50.66600 22.93900 42.72500
C  52.16100 22.81800 42.94000
C  49.89800 22.74400 44.01800
C  51.13700 24.70400 40.66700
C  50.14300 25.03200 39.61100
H  50.54800 25.53700 38.30300
N  55.10100 22.31500 43.99500
C  54.29000 21.36800 43.44000
C  54.94200 20.15800 43.38200
C  56.29700 20.33600 43.84100
C  56.28500 21.76300 44.20900
C  54.21700 18.78200 42.99600
C  57.35500 19.25700 44.00300
O  57.13900 18.20000 43.47200
C  58.73100 19.40100 44.71600
N  56.63700 24.67900 44.93400
C  57.61600 23.76900 44.88300
C  58.91500 24.36900 45.46300
C  58.59200 25.91100 45.66200
C  57.08000 25.85300 45.41700
C  59.38400 23.65000 46.78900
C  59.47200 26.89600 44.85800
C  59.01400 27.51400 43.52000
N  54.16900 26.11600 44.88600
C  54.90300 27.17800 45.40200
C  54.03300 28.43200 45.48400
C  52.89600 28.02600 44.69000
C  53.04900 26.70300 44.33900
C  54.36700 29.76300 46.07800
C  51.65400 28.55100 44.13900
O  51.18800 29.66700 44.27300
C  50.88900 27.40700 43.31600
C  50.57500 27.79000 41.98000
O  51.33200 28.09000 41.13900
O  49.19300 27.82300 41.92700
C  48.58100 28.26200 40.60700
H  52.35700 20.82400 42.66100
H  58.37000 21.90400 44.81000
H  56.92300 27.87200 45.98700
H  49.68700 24.95500 42.49000
H  50.09100 22.37600 41.99000
H  50.58800 22.17300 44.63900
H  48.95700 22.22900 43.82700
H  49.78200 23.72700 44.47500
H  51.55700 23.75300 40.33900
H  51.86900 25.51100 40.63200
H  49.36000 25.64800 40.05400
H  49.58700 24.11500 39.41600
H  54.47400 17.92400 43.61800
H  54.43500 18.52100 41.96100
H  53.14300 18.96000 43.05400
H  58.64200 19.77900 45.73400
H  59.38700 20.03300 44.11700
H  59.15400 18.40500 44.84900
H  59.66500 24.26800 44.67900
H  58.59400 26.14600 46.72600
H  58.99200 22.63400 46.75500
H  58.99100 24.12700 47.68700
H  60.47200 23.59300 46.81900
H  60.39200 26.35500 44.63700
H  59.72600 27.76600 45.46400
H  59.11100 28.59800 43.46100
H  57.94900 27.34300 43.36800
H  59.54000 27.19200 42.62200
H  53.85800 30.50400 45.46100
H  55.44200 29.94200 46.09000
H  53.86500 29.99600 47.01700
H  50.06200 27.03400 43.92000
H  48.29800 29.31100 40.68500
H  47.67600 27.66900 40.47300
H  49.21500 28.07600 39.74000

