158

Mg 16.25100 52.27200 26.48800
C  18.03500 50.93700 29.09300
C  13.66600 52.68800 28.68800
C  14.52800 53.24400 23.92800
C  18.77800 51.05700 24.22400
N  15.91600 51.79300 28.55800
C  16.81000 51.48800 29.48800
C  16.43200 51.76900 31.00400
C  14.90600 51.91600 30.74900
C  14.83000 52.21700 29.19800
C  14.12900 50.63900 31.29100
C  17.28600 53.00300 31.39500
C  17.44100 53.30700 32.93900
H  16.43900 52.54000 33.93200
N  14.34200 53.04000 26.37800
C  13.36900 53.07700 27.34700
C  12.20400 53.73500 26.75500
C  12.48200 53.99000 25.37600
C  13.83500 53.40400 25.17700
C  10.95300 54.11700 27.57200
C  11.65100 54.63900 24.24900
O  12.07800 54.91100 23.17500
C  10.28700 55.22600 24.56200
N  16.59100 52.09500 24.45900
C  15.70800 52.69300 23.59600
C  16.17400 52.66800 22.17400
C  17.71700 52.42800 22.28600
C  17.78300 51.84500 23.68900
C  15.51300 51.67500 21.14500
C  18.68700 53.54800 22.05300
C  18.88900 53.87500 20.54200
N  17.98800 51.13600 26.58500
C  19.01600 50.77000 25.60900
C  20.05400 50.15600 26.26900
C  19.73100 50.15500 27.60500
C  18.47300 50.76000 27.75400
C  21.26000 49.54800 25.69700
C  20.26100 49.87900 28.92800
O  21.26900 49.29100 29.31700
C  19.17700 50.42700 29.94100
C  18.64700 49.37300 30.88100
O  17.64400 48.71800 30.73700
O  19.35000 49.37900 32.06000
C  18.70400 48.62600 33.13400
H  12.77900 52.73100 29.32400
H  13.97400 53.61000 23.06100
H  19.63100 50.93100 23.55400
H  16.62800 50.92600 31.66700
H  14.45600 52.81900 31.16000
H  13.41900 50.80400 32.10200
H  14.82700 49.85800 31.59000
H  13.56100 50.19400 30.47400
H  16.80700 53.79000 30.81300
H  18.29900 52.81800 31.03500
H  17.26500 54.38000 33.01500
H  18.42500 53.14900 33.38300
H  10.03000 53.77200 27.10800
H  10.87400 55.20100 27.64800
H  10.92100 53.62400 28.54400
H  9.94800 55.72200 23.65200
H  10.33000 55.82400 25.47200
H  9.71100 54.33900 24.82400
H  16.06600 53.70500 21.85300
H  18.04300 51.66900 21.57400
H  15.32300 52.21100 20.21600
H  14.59200 51.22800 21.51900
H  16.20300 50.93000 20.75100
H  19.60200 53.19400 22.53000
H  18.27600 54.38300 22.62000
H  18.10300 53.38200 19.97000
H  19.89100 53.57000 20.24000
H  18.97000 54.95000 20.38400
H  21.87800 50.32600 25.25000
H  20.95000 48.81300 24.95400
H  21.70900 48.97800 26.51000
H  19.50800 51.28600 30.52400
H  18.67100 47.56500 32.88500
H  17.66700 48.89300 33.33500
H  19.21700 48.64400 34.09600
Mg -10.91000 18.18300 40.91000
C  -7.37200 17.45800 40.82200
C  -10.07500 21.47600 40.29100
C  -14.02200 18.74400 40.27500
C  -11.49300 14.67400 40.63800
N  -8.94500 19.31800 40.40500
C  -7.61100 18.79700 40.52500
C  -6.53100 19.94100 40.22400
C  -7.44100 21.22100 40.54400
C  -8.91900 20.66700 40.43400
C  -6.97500 21.88700 41.89000
C  -6.19400 19.86900 38.65900
C  -4.79900 19.32500 38.20200
H  -4.77600 18.06500 37.20100
N  -11.97900 19.88500 40.42800
C  -11.45900 21.11200 40.17900
C  -12.49400 22.03000 39.90900
C  -13.67300 21.28600 39.81100
C  -13.28300 19.91800 40.11700
C  -12.26900 23.54000 39.80000
C  -15.06000 21.87100 39.47800
O  -15.26300 23.10600 39.38000
C  -16.25800 21.01300 39.17800
N  -12.47500 16.90700 40.26300
C  -13.72300 17.40400 40.36900
C  -14.74900 16.30900 40.37500
C  -14.00700 14.94800 40.17500
C  -12.56700 15.50300 40.36800
C  -15.63100 16.22400 41.60400
C  -14.29400 14.04100 38.91700
C  -13.34500 14.12200 37.67600
N  -9.77500 16.44100 40.92700
C  -10.15000 15.11000 40.78200
C  -9.00700 14.21500 41.00800
C  -7.90100 15.06500 40.98100
C  -8.42200 16.43900 40.95500
C  -8.89200 12.73800 41.01400
C  -6.49900 15.14900 40.92300
O  -5.64600 14.29400 40.84700
C  -6.08900 16.68600 40.95100
C  -5.28600 16.94300 42.25600
O  -4.08500 17.29500 42.23400
O  -5.98000 16.56800 43.37000
C  -5.11000 16.64000 44.59100
H  -9.76300 22.50500 40.10100
H  -15.09200 18.87600 40.10200
H  -11.82000 13.63200 40.64800
H  -5.67800 19.90200 40.90100
H  -7.36500 22.00000 39.78500
H  -7.81500 21.85600 42.58400
H  -6.66400 22.91200 41.69000
H  -6.04800 21.45000 42.26200
H  -6.20900 20.84800 38.18000
H  -6.89400 19.25700 38.09100
H  -4.30500 19.06300 39.13700
H  -4.15000 20.12300 37.84100
H  -12.02000 23.79000 40.83100
H  -13.22900 24.02500 39.62300
H  -11.52100 23.83200 39.06200
H  -15.98200 20.23000 38.47200
H  -17.15800 21.58100 38.94200
H  -16.58500 20.47600 40.06900
H  -15.45700 16.58800 39.59400
H  -14.19700 14.25900 40.99900
H  -15.19100 16.90800 42.33000
H  -15.77900 15.20700 41.96600
H  -16.63500 16.59500 41.39500
H  -15.34100 14.26200 38.70900
H  -14.40900 12.99800 39.21400
H  -13.74700 14.65900 36.81600
H  -13.22800 13.09400 37.33300
H  -12.36500 14.50000 37.96700
H  -8.37400 12.48200 40.09000
H  -9.84500 12.21000 40.99500
H  -8.32200 12.39100 41.87600
H  -5.34500 17.01600 40.22600
H  -5.31900 15.68200 45.06800
H  -5.57000 17.44100 45.17000
H  -4.07400 16.94100 44.43900

