158

Mg 41.44800 41.66000 26.63900
C  40.70000 43.93700 29.27500
C  42.88400 39.54800 29.05600
C  42.30800 39.69200 24.22300
C  40.44400 44.19400 24.33400
N  41.57200 41.72600 28.85300
C  41.12500 42.64100 29.76100
C  41.21900 42.14700 31.18300
C  41.92700 40.75200 31.04300
C  42.21500 40.67500 29.49400
C  43.21300 40.57100 31.97700
C  39.90300 42.17200 32.01300
C  39.89100 43.36700 33.10800
H  39.47300 43.03400 34.54500
N  42.41600 39.86200 26.63900
C  42.96500 39.11700 27.69100
C  43.43000 37.82200 27.19400
C  43.13400 37.79300 25.81100
C  42.62700 39.12700 25.48000
C  44.00300 36.82900 28.15900
C  43.30900 36.73600 24.75600
O  43.05400 36.88600 23.59200
C  43.85800 35.47600 25.25800
N  41.49900 42.00400 24.51600
C  41.79600 40.95500 23.81900
C  41.53300 41.18200 22.32200
C  40.60800 42.39600 22.38000
C  40.90300 42.98300 23.79800
C  42.82300 41.40800 21.49800
C  39.05900 42.13000 22.13600
C  38.45800 40.85100 22.72700
N  40.72800 43.69500 26.70100
C  40.46100 44.52700 25.69400
C  40.04900 45.81800 26.28900
C  40.18200 45.68700 27.65800
C  40.54400 44.28000 27.89400
C  39.43500 46.91200 25.53900
C  39.95400 46.28200 28.95700
O  39.57800 47.39100 29.15000
C  40.30300 45.23200 30.03900
C  41.46100 45.78600 30.71600
O  42.59700 45.60800 30.40200
O  41.10100 46.34200 31.91000
C  42.12700 46.59700 32.92900
H  43.19700 38.71500 29.69000
H  42.49500 39.18000 23.27700
H  40.04900 44.91300 23.61400
H  41.93900 42.85800 31.58700
H  41.33900 39.87700 31.32100
H  43.39800 41.41100 32.64600
H  44.03800 40.57500 31.26500
H  43.16200 39.65400 32.56400
H  39.81500 41.18200 32.46000
H  39.07500 42.43000 31.35300
H  39.11600 44.07300 32.81200
H  40.83500 43.91200 33.10800
H  44.55600 36.03500 27.65700
H  43.24700 36.43800 28.83800
H  44.74500 37.33600 28.77600
H  43.90400 34.79800 24.40600
H  43.20700 35.05200 26.02300
H  44.85800 35.67200 25.64300
H  41.12700 40.27200 21.88000
H  40.86400 43.23100 21.72800
H  42.88000 40.76100 20.62200
H  43.76600 41.28900 22.03200
H  42.91600 42.44200 21.16600
H  38.83900 42.01900 21.07500
H  38.59500 42.98600 22.62600
H  38.66300 40.02300 22.04800
H  37.40300 41.12300 22.75900
H  38.85400 40.72900 23.73500
H  38.70600 47.39700 26.18800
H  38.96000 46.57900 24.61600
H  40.23700 47.59600 25.26100
H  39.58100 44.89700 30.78300
H  42.24800 47.67900 32.98300
H  43.11700 46.17900 32.74500
H  41.71100 46.28000 33.88600
Mg -11.04000 40.76600 41.71900
C  -10.00100 37.57300 41.07300
C  -8.36900 42.14800 40.22000
C  -12.58400 43.86800 41.96700
C  -14.29300 39.41700 42.72400
N  -9.50400 39.89100 40.49200
C  -9.06600 38.56800 40.57500
C  -7.73300 38.40600 39.93000
C  -7.15200 39.88800 40.07800
C  -8.46100 40.71400 40.24900
C  -6.01300 40.04100 41.11400
C  -7.85700 37.85900 38.43800
C  -7.13900 36.51300 38.12300
H  -6.02400 36.52400 36.97600
N  -10.45400 42.79400 41.23700
C  -9.31900 43.09100 40.65500
C  -9.24200 44.50100 40.57400
C  -10.44200 45.01900 41.04400
C  -11.26700 43.84900 41.36600
C  -8.10100 45.30900 39.96500
C  -10.75200 46.51800 41.13800
O  -9.89600 47.26900 40.78600
C  -12.13600 47.00400 41.54800
N  -13.25200 41.52700 42.04900
C  -13.47900 42.84400 42.18700
C  -14.90700 43.10600 42.66200
C  -15.46200 41.69300 42.72600
C  -14.25800 40.82300 42.50900
C  -14.92900 43.82700 44.13300
C  -16.62800 41.53500 41.75700
C  -17.75600 40.65200 42.32400
N  -11.96400 38.88100 42.01800
C  -13.21200 38.54400 42.41600
C  -13.27400 37.15800 42.54400
C  -12.01800 36.67000 42.00000
C  -11.30900 37.82500 41.66600
C  -14.40900 36.30500 42.97700
C  -11.19700 35.48100 41.65100
O  -11.37600 34.24700 41.71000
C  -9.98900 36.13100 40.79600
C  -8.76600 35.45600 41.26100
O  -8.06300 35.75900 42.26700
O  -8.56800 34.31300 40.50400
C  -7.61000 33.32600 41.06400
H  -7.37000 42.49000 39.94000
H  -13.13700 44.80500 42.05400
H  -15.19600 38.97600 43.15200
H  -7.21300 37.72900 40.60800
H  -6.75500 40.12900 39.09200
H  -5.54900 39.08700 41.36600
H  -6.31400 40.59100 42.00600
H  -5.21900 40.61500 40.63700
H  -7.53400 38.63900 37.75000
H  -8.89900 37.63900 38.20700
H  -7.89600 35.75900 37.90700
H  -6.51200 36.16800 38.94500
H  -7.30300 44.62200 39.68600
H  -7.68100 45.85200 40.81200
H  -8.51700 45.99600 39.22800
H  -12.85100 46.51000 40.89000
H  -12.27700 48.07700 41.41800
H  -12.21600 46.76100 42.60800
H  -15.25900 43.84000 41.93800
H  -15.87400 41.55000 43.72500
H  -15.07800 43.10700 44.93800
H  -15.70200 44.59100 44.05600
H  -13.94600 44.28000 44.26200
H  -16.42100 41.00800 40.82500
H  -17.05800 42.50900 41.52300
H  -18.49400 41.29800 42.80000
H  -17.35800 39.95700 43.06300
H  -18.25000 40.00000 41.60400
H  -14.69400 36.50800 44.00900
H  -14.14900 35.27800 42.71800
H  -15.25100 36.51800 42.31900
H  -10.14200 35.84900 39.75500
H  -6.60600 33.72200 41.21700
H  -7.64400 32.47200 40.38800
H  -8.00400 32.93800 42.00300

