158

Mg 48.12100 34.93400 27.20900
C  46.24800 33.82100 29.98400
C  48.93800 37.85800 29.18800
C  50.06300 36.00600 24.64700
C  47.00000 32.25500 25.39400
N  47.83200 35.58800 29.35800
C  47.00300 34.93700 30.28600
C  47.13600 35.60700 31.67000
C  47.51400 37.09700 31.19700
C  48.05000 36.91900 29.77800
C  46.44000 38.18700 31.37000
C  48.14400 34.99500 32.65300
C  47.68200 34.74100 34.08500
H  47.76200 35.85600 35.08200
N  49.32100 36.68900 26.91100
C  49.46400 37.69000 27.82400
C  50.35400 38.72100 27.18400
C  50.76200 38.16900 25.93400
C  50.00300 36.90500 25.77700
C  50.73300 40.06800 27.76400
C  51.76300 38.81500 24.83300
O  52.01400 38.16200 23.77500
C  52.36200 40.21400 25.00800
N  48.45900 34.26900 25.28800
C  49.37500 34.80400 24.48700
C  49.75400 33.84800 23.36700
C  48.72300 32.68000 23.54400
C  47.98400 33.08100 24.86600
C  49.78400 34.43800 21.87000
C  49.32400 31.29700 23.55000
C  48.71200 30.35700 22.55900
N  46.82700 33.42600 27.49700
C  46.48200 32.37200 26.66900
C  45.50600 31.41800 27.33100
C  45.43400 31.97800 28.61200
C  46.20300 33.15900 28.66700
C  44.80500 30.15800 26.81000
C  44.85000 31.78700 29.89600
O  44.22200 30.83500 30.32400
C  45.26000 32.98200 30.78500
C  45.74600 32.47900 32.07600
O  46.84200 31.96900 32.38500
O  44.71800 32.46500 32.95000
C  45.12000 32.14000 34.41400
H  49.10000 38.81700 29.68500
H  50.67600 36.28100 23.78600
H  46.71000 31.40300 24.77600
H  46.15000 35.55400 32.13100
H  48.35300 37.57200 31.70500
H  45.51900 37.74600 31.75300
H  46.29300 38.72900 30.43600
H  46.86600 38.80300 32.16200
H  48.86900 35.80300 32.75700
H  48.70500 34.15000 32.25400
H  48.19400 33.89000 34.53500
H  46.63500 34.49000 33.91600
H  51.73000 39.97100 28.19400
H  50.05800 40.22100 28.60700
H  50.65300 40.86900 27.03000
H  51.52100 40.90200 24.93200
H  53.08100 40.45800 24.22500
H  52.81500 40.41700 25.97800
H  50.80300 33.55500 23.39600
H  47.93800 32.75100 22.79100
H  49.59100 35.50100 22.01100
H  48.92600 34.18400 21.24800
H  50.72000 34.30800 21.32800
H  49.19100 30.99900 24.58900
H  50.39800 31.31800 23.36500
H  47.80900 29.81800 22.84300
H  49.36900 29.55100 22.23200
H  48.45200 30.91700 21.66100
H  45.14500 29.34500 27.45100
H  45.06500 29.80100 25.81300
H  43.72800 30.26400 26.93900
H  44.36800 33.56300 31.01900
H  46.11200 32.38400 34.79400
H  45.05200 31.06100 34.55200
H  44.50700 32.62600 35.17400
Mg 42.50000 41.94600 26.21900
C  41.50300 44.27400 28.70000
C  43.41900 39.77400 28.80000
C  43.50900 39.63300 23.93000
C  41.88700 44.21000 23.80000
N  42.33900 41.98500 28.51900
C  41.91900 43.07300 29.25700
C  41.89600 42.64700 30.76200
C  42.66800 41.22400 30.79500
C  42.75500 40.93600 29.26500
C  43.86600 41.02400 31.69200
C  40.47100 42.57700 31.40900
C  40.33700 43.23600 32.75000
H  41.34600 42.97800 33.84600
N  43.37500 40.07000 26.32600
C  43.66500 39.42000 27.48300
C  44.11300 38.07400 27.12900
C  43.97200 37.91800 25.72600
C  43.67400 39.21000 25.21900
C  44.51000 36.91900 28.17400
C  44.16600 36.70500 24.87400
O  44.04500 36.66800 23.66900
C  44.48100 35.35300 25.50800
N  42.75900 41.89600 24.21400
C  43.26200 40.89700 23.43200
C  43.34400 41.28700 21.92900
C  42.69800 42.71800 21.90200
C  42.39700 42.94100 23.43200
C  44.73000 41.14600 21.15600
C  41.40600 42.69000 21.10700
C  40.18600 42.06400 21.81900
N  41.75000 43.82100 26.20600
C  41.58300 44.66000 25.12200
C  41.18700 46.01900 25.59400
C  41.12700 45.86700 27.00900
C  41.45200 44.51900 27.32200
C  40.93200 47.21100 24.79700
C  40.75100 46.53700 28.23600
O  40.52900 47.76300 28.34600
C  41.01400 45.54200 29.42500
C  42.02300 46.10200 30.24500
O  43.01100 46.59700 29.74200
O  41.79200 45.82100 31.56800
C  42.85200 46.28600 32.43300
H  43.50000 38.99300 29.55900
H  43.87500 38.97000 23.14300
H  41.68700 45.01200 23.08700
H  42.47700 43.35200 31.35500
H  42.10400 40.35400 31.13300
H  44.56000 40.41900 31.10900
H  43.66500 40.58000 32.66800
H  44.44900 41.93000 31.85500
H  40.05800 41.57000 31.37400
H  39.92200 43.16200 30.67100
H  39.40000 42.84800 33.14800
H  40.20500 44.31000 32.61500
H  45.45000 36.44100 27.89900
H  43.68500 36.22200 28.31700
H  44.67600 37.40400 29.13600
H  43.86000 35.21900 26.39400
H  45.56300 35.38400 25.63700
H  44.29400 34.46000 24.91100
H  42.73500 40.57300 21.37300
H  43.38800 43.44500 21.47400
H  45.38200 41.96400 21.46100
H  44.56300 41.24500 20.08300
H  45.09800 40.14400 21.37900
H  41.58000 42.06400 20.23200
H  41.19800 43.73400 20.87300
H  39.83500 41.17400 21.29700
H  39.51900 42.92700 21.83700
H  40.36100 41.69700 22.83000
H  41.40500 46.94300 23.85300
H  41.57600 47.92000 25.31900
H  39.90600 47.52800 24.61100
H  40.14800 45.23300 30.01000
H  43.26000 47.25100 32.13300
H  43.71500 45.62800 32.33900
H  42.51500 46.31600 33.46900

