158

Mg 36.06500 0.32700 28.83400
C  33.97500 1.16600 31.51900
C  38.71600 0.45800 30.88700
C  37.84100 -0.60400 26.17700
C  33.11600 0.69000 26.71400
N  36.20900 0.64100 30.97400
C  35.27700 0.95300 31.89400
C  35.87400 1.06600 33.32800
C  37.37800 1.30400 33.00600
C  37.42900 0.65400 31.56400
C  37.88700 2.72700 32.97700
C  35.47800 -0.16100 34.16500
C  35.09600 0.02800 35.61900
H  35.36000 1.32600 36.48900
N  38.01800 -0.14900 28.61500
C  38.95100 -0.03600 29.52100
C  40.26200 -0.45500 28.96000
C  40.03200 -0.70000 27.58300
C  38.56100 -0.54500 27.40600
C  41.52600 -0.30100 29.79000
C  40.96300 -0.89100 26.46200
O  40.58300 -0.82200 25.31300
C  42.44300 -1.15400 26.69600
N  35.46000 -0.02600 26.70500
C  36.42300 -0.40400 25.79100
C  35.86900 -0.22600 24.38400
C  34.37500 0.09700 24.52900
C  34.27800 0.30000 26.07600
C  36.59600 0.78200 23.48600
C  33.38600 -0.93900 23.98000
C  32.26800 -0.42500 23.01100
N  33.98600 0.69700 29.02100
C  32.92400 0.76700 28.09200
C  31.73600 1.18600 28.80400
C  32.08200 1.23800 30.09500
C  33.43500 0.99400 30.19600
C  30.35500 1.56000 28.20600
C  31.53700 1.60500 31.41800
O  30.45100 1.96000 31.75000
C  32.76200 1.46300 32.37200
C  32.96800 2.72600 33.07800
O  33.57000 3.68000 32.60400
O  32.24200 2.89000 34.23600
C  32.11500 4.30500 34.81000
H  39.61100 0.73200 31.44900
H  38.37400 -0.99800 25.31000
H  32.29100 0.97000 26.05500
H  35.49000 1.94500 33.84500
H  38.05800 0.72500 33.63100
H  38.43200 2.71700 33.92000
H  37.02000 3.38700 32.99800
H  38.47700 2.95400 32.08900
H  36.10800 -1.03000 33.97400
H  34.58900 -0.47000 33.61600
H  35.51300 -0.79900 36.19400
H  34.03300 -0.20400 35.69100
H  42.00600 0.60000 29.40700
H  42.27800 -1.04900 29.53900
H  41.39100 -0.30700 30.87200
H  42.86300 -1.46700 25.74000
H  42.47900 -1.85300 27.53100
H  42.84100 -0.18500 26.99800
H  36.00100 -1.14200 23.80900
H  34.00100 1.05200 24.16100
H  36.20500 1.79300 23.61000
H  36.48000 0.50500 22.43900
H  37.65000 0.96400 23.69600
H  32.87500 -1.48600 24.77200
H  33.98500 -1.65600 23.42000
H  31.32300 -0.87500 23.31700
H  32.51700 -0.60800 21.96600
H  32.14500 0.65000 23.14400
H  30.46800 2.05600 27.24200
H  29.79900 2.26100 28.82800
H  29.88600 0.62800 27.88900
H  32.64100 0.59500 33.02000
H  32.47000 5.09600 34.14800
H  32.79900 4.37300 35.65600
H  31.15100 4.54600 35.25700
Mg 41.03700 7.34200 29.37900
C  42.56400 8.61000 32.21600
C  38.43400 6.13600 31.51600
C  39.61900 6.00100 26.82500
C  43.88500 8.06900 27.42200
N  40.62200 7.29000 31.66400
C  41.39500 8.00900 32.56500
C  40.76200 8.04100 33.96000
C  39.46500 7.13100 33.75200
C  39.44700 6.83400 32.21000
C  39.50700 5.77000 34.59600
C  40.39300 9.56600 34.36000
C  41.04000 10.27700 35.59700
H  40.08900 10.60300 36.76900
N  39.40800 6.10800 29.20800
C  38.45800 5.70800 30.17500
C  37.44400 5.02700 29.53700
C  37.75000 4.89500 28.13400
C  38.98400 5.64500 27.98700
C  36.18900 4.48700 30.25200
C  37.04000 4.12000 27.07400
O  37.34300 4.08100 25.89400
C  35.84500 3.35500 27.35500
N  41.76900 7.02200 27.34300
C  40.84100 6.58600 26.44900
C  41.36500 6.68200 25.04000
C  42.85700 7.26700 25.25600
C  42.83000 7.51000 26.71400
C  41.38900 5.24100 24.46400
C  43.12700 8.48400 24.35200
C  42.51600 9.80000 24.80300
N  42.85800 8.27200 29.67600
C  43.91300 8.40600 28.77100
C  44.96500 8.98300 29.58400
C  44.45700 9.25300 30.86600
C  43.17600 8.66200 30.91100
C  46.28300 9.52700 28.99600
C  44.74700 9.82000 32.10700
O  45.70900 10.53400 32.44900
C  43.53900 9.46200 33.06900
C  44.12900 8.71400 34.16500
O  44.36700 7.52400 34.12700
O  44.43500 9.58000 35.18500
C  44.82100 8.92400 36.39000
H  37.52900 5.95300 32.09900
H  39.12000 5.62700 25.92900
H  44.65200 8.29700 26.68000
H  41.45500 7.50400 34.60800
H  38.62600 7.80000 33.94200
H  38.64500 5.88100 35.25400
H  40.37700 5.73900 35.25200
H  39.58000 4.88500 33.96400
H  39.31800 9.65000 34.51800
H  40.55300 10.27900 33.55100
H  41.47600 11.20500 35.22600
H  41.85100 9.59200 35.84300
H  36.27400 3.42100 30.03800
H  35.28200 4.81800 29.74600
H  36.08500 4.69100 31.31700
H  35.95300 2.52900 28.05800
H  35.41600 3.06500 26.39600
H  35.10200 4.01400 27.80600
H  40.69700 7.30700 24.44800
H  43.61400 6.48600 25.18600
H  40.90700 4.58900 25.19300
H  42.38200 4.88300 24.19100
H  40.73600 5.23700 23.59200
H  42.73200 8.34400 23.34600
H  44.21200 8.58500 24.31600
H  41.98800 9.78500 25.75700
H  41.76600 10.16400 24.10200
H  43.34900 10.49300 24.92200
H  46.60500 10.46900 29.43800
H  46.28800 9.40800 27.91200
H  46.94700 8.72200 29.31000
H  43.06500 10.40800 33.32800
H  44.27000 8.02200 36.65900
H  44.78500 9.61500 37.23200
H  45.85800 8.61800 36.25200

