158

Mg 40.98500 41.35000 25.90900
C  40.39400 43.41900 28.55000
C  42.23900 38.98700 28.48400
C  42.46500 39.49100 23.49100
C  40.08500 43.73300 23.68000
N  41.27000 41.15000 28.24800
C  40.91900 42.23100 29.04000
C  41.08700 41.83900 30.52200
C  41.82000 40.45400 30.49200
C  41.83400 40.17900 29.00400
C  43.19500 40.51100 31.15300
C  39.71900 41.89000 31.26600
C  39.66300 42.80200 32.46300
H  39.03600 42.31400 33.85700
N  42.08900 39.47700 25.92600
C  42.34300 38.66700 27.07600
C  43.01300 37.48600 26.54900
C  43.21300 37.57500 25.17800
C  42.56600 38.87300 24.80700
C  43.23900 36.22000 27.36800
C  43.79300 36.58100 24.06800
O  43.91600 36.81400 22.88700
C  44.16600 35.20100 24.54900
N  41.23400 41.51000 23.96000
C  41.87400 40.69300 23.14900
C  41.68500 41.07400 21.62400
C  40.65600 42.17100 21.75600
C  40.66200 42.55200 23.22300
C  42.91100 41.36400 20.78300
C  39.22600 41.84500 21.23400
C  38.32400 40.77500 21.99700
N  40.30400 43.24500 26.05600
C  39.94700 44.12200 25.04200
C  39.69100 45.39000 25.61100
C  39.83900 45.17900 27.00900
C  40.20700 43.82400 27.22600
C  39.39000 46.68100 24.89400
C  39.68300 45.80300 28.28200
O  39.36100 46.93900 28.66600
C  39.97100 44.69900 29.35500
C  41.03300 45.28000 30.27700
O  42.24200 44.95300 30.24500
O  40.39600 46.06400 31.24100
C  41.31500 46.85700 32.03000
H  42.56200 38.24300 29.21500
H  42.97400 39.06900 22.62200
H  39.79500 44.39400 22.86000
H  41.73200 42.58700 30.98400
H  41.19800 39.74400 31.03800
H  43.94600 40.59700 30.36800
H  43.48400 39.63700 31.73700
H  43.40900 41.35300 31.81100
H  39.23600 40.96300 31.57400
H  39.02800 42.36100 30.56600
H  38.94000 43.57900 32.21300
H  40.62200 43.31500 32.51600
H  44.25700 35.84000 27.28100
H  42.52200 35.46600 27.04300
H  43.17000 36.45000 28.43100
H  45.09500 35.32700 25.10400
H  44.27900 34.42500 23.79100
H  43.47400 34.75300 25.26200
H  41.20900 40.20000 21.17900
H  41.04600 43.06800 21.27500
H  43.83600 41.64300 21.28800
H  42.72400 42.06500 19.96900
H  43.00500 40.47400 20.16100
H  39.25000 41.65000 20.16200
H  38.73600 42.78200 21.49800
H  37.89300 41.28700 22.85700
H  38.82800 39.83100 22.20900
H  37.53000 40.59100 21.27400
H  38.92100 46.42500 23.94500
H  40.34300 47.16100 24.67000
H  38.68400 47.27100 25.47900
H  39.06200 44.53900 29.93400
H  42.22800 47.08300 31.47900
H  41.57500 46.39100 32.98000
H  40.80800 47.79600 32.25600
Mg -11.90400 16.58300 42.86600
C  -8.48000 17.07000 42.90800
C  -12.40400 19.71100 41.95700
C  -15.22300 15.88200 42.69700
C  -11.24900 13.07600 43.26400
N  -10.58900 18.12800 42.47800
C  -9.23800 18.20800 42.65400
C  -8.70300 19.49400 42.08200
C  -9.96500 20.43500 41.97000
C  -11.08400 19.43200 42.23100
C  -9.92000 21.57800 42.97600
C  -7.99500 19.45400 40.65600
C  -6.75200 20.28700 40.40700
H  -5.53300 19.74800 39.71500
N  -13.57700 17.59600 42.24100
C  -13.54200 18.88900 41.90000
C  -14.90300 19.37200 41.65000
C  -15.78800 18.29800 41.95500
C  -14.86000 17.15800 42.31200
C  -15.26200 20.87700 41.31800
C  -17.32000 18.34500 41.93900
O  -17.83300 19.42500 41.77200
C  -18.17600 17.16600 42.16400
N  -13.11100 14.69200 42.60100
C  -14.47800 14.73400 42.81200
C  -14.91200 13.40400 43.33100
C  -13.67600 12.53800 43.42400
C  -12.64200 13.48400 43.11400
C  -15.87700 13.46800 44.58200
C  -13.51700 11.42200 42.32600
C  -13.02200 10.08300 42.84300
N  -10.21800 15.31800 43.11400
C  -10.10300 13.89600 43.18200
C  -8.74400 13.50100 43.36800
C  -8.00300 14.74700 43.26100
C  -8.97700 15.72400 43.07500
C  -8.23400 12.03800 43.44400
C  -6.74100 15.37900 43.21600
O  -5.60900 14.87700 43.29200
C  -7.01700 16.93800 43.06000
C  -6.45500 17.65800 44.27500
O  -6.98100 17.87400 45.33200
O  -5.18600 18.10100 44.02200
C  -4.46400 18.57800 45.22900
H  -12.55200 20.78600 41.83100
H  -16.28300 15.62100 42.72600
H  -11.10100 12.05100 43.61000
H  -7.95700 19.86500 42.78500
H  -10.25700 20.82200 40.99400
H  -8.90600 21.77000 43.32500
H  -10.39500 21.16900 43.86800
H  -10.45800 22.45800 42.62400
H  -8.69800 19.84200 39.91900
H  -7.74000 18.41100 40.46400
H  -6.40800 20.45900 41.42600
H  -7.10500 21.26100 40.06700
H  -15.46900 21.16100 40.28600
H  -14.56100 21.55200 41.80900
H  -16.13700 21.19400 41.88500
H  -19.21200 17.18400 41.82400
H  -18.18100 16.99000 43.23900
H  -17.77100 16.27400 41.68500
H  -15.42600 13.01600 42.45100
H  -13.57500 12.23200 44.46500
H  -15.88600 14.39000 45.16300
H  -15.75800 12.69800 45.34400
H  -16.89400 13.37300 44.20200
H  -12.77000 11.64900 41.56500
H  -14.42800 11.24800 41.75300
H  -13.77600 9.44000 42.38800
H  -13.30000 10.12700 43.89700
H  -11.99200 9.82100 42.60400
H  -7.33200 12.07600 44.05600
H  -7.88800 11.68300 42.47400
H  -8.92500 11.30000 43.84900
H  -6.33600 17.44200 42.37500
H  -4.82900 19.52800 45.61900
H  -3.39000 18.71800 45.10300
H  -4.53800 17.81800 46.00600

