158

Mg 45.60600 4.31200 46.89700
C  43.71600 7.24200 46.54600
C  42.70100 2.50000 46.29600
C  47.46500 1.62000 46.50300
C  48.52300 6.37300 46.35800
N  43.42700 4.79700 46.67200
C  42.97500 6.09400 46.53800
C  41.42200 6.06600 46.34900
C  41.07200 4.56700 46.56800
C  42.47700 3.83600 46.62400
C  40.17100 4.35300 47.81400
C  40.90000 6.62600 44.96500
C  41.88300 6.61800 43.75500
H  41.13400 6.02500 42.56100
N  45.14400 2.29500 46.55300
C  43.91700 1.77700 46.23400
C  44.04200 0.36400 45.91300
C  45.44000 0.04800 45.98600
C  46.05900 1.36000 46.37900
C  42.88100 -0.56800 45.34300
C  46.03300 -1.29400 45.67500
O  45.37300 -2.30800 45.37000
C  47.57200 -1.46100 45.47200
N  47.66700 4.06300 46.38300
C  48.17600 2.83000 46.50100
C  49.74100 2.84600 46.32700
C  50.06300 4.35800 46.31200
C  48.70400 4.98500 46.42800
C  50.67900 1.95900 47.25400
C  50.93500 4.92900 45.17200
C  52.21400 5.71000 45.47900
N  46.07300 6.34400 46.66500
C  47.27400 6.98600 46.45300
C  47.00200 8.45400 46.45100
C  45.61000 8.63700 46.60100
C  45.10400 7.27700 46.62000
C  48.06600 9.54900 46.22900
C  44.48400 9.53900 46.63400
O  44.37500 10.77000 46.68700
C  43.23400 8.69800 46.58300
C  42.36200 8.99400 47.77300
O  42.13600 8.29300 48.81200
O  41.71100 10.21600 47.64500
C  40.78100 10.63700 48.69600
H  41.75300 2.01400 46.05700
H  48.13700 0.77900 46.32100
H  49.43000 6.98200 46.37000
H  41.11800 6.66900 47.20500
H  40.56300 4.26700 45.65200
H  39.63600 5.23300 48.17100
H  40.86700 4.10900 48.61600
H  39.40600 3.60800 47.59200
H  40.76800 7.70000 45.09800
H  39.96200 6.24000 44.56700
H  42.61800 5.84300 43.97100
H  42.37500 7.54100 43.44500
H  43.03700 -0.77700 44.28400
H  41.84500 -0.23600 45.40200
H  42.83800 -1.49900 45.90800
H  47.83700 -2.48000 45.19300
H  48.11600 -1.45700 46.41700
H  47.99300 -0.69700 44.81800
H  50.00600 2.41300 45.36200
H  50.65200 4.58800 47.20000
H  51.31400 1.24500 46.73000
H  50.02500 1.44700 47.95900
H  51.20100 2.63000 47.93600
H  50.37800 5.66400 44.59000
H  51.20700 4.12200 44.49200
H  53.10600 5.13500 45.22900
H  52.16200 5.99600 46.53000
H  52.14700 6.60500 44.86200
H  48.59500 9.69300 47.17100
H  47.63900 10.51300 45.95100
H  48.82900 9.26400 45.50500
H  42.77900 8.95600 45.62700
H  40.67100 11.72200 48.70300
H  41.02600 10.57400 49.75700
H  39.87400 10.11500 48.39200
Mg 40.97500 10.02700 30.20600
C  43.07000 10.95100 32.69000
C  38.76500 8.69800 32.59200
C  38.92100 8.78800 27.76400
C  43.20200 11.07300 27.79800
N  40.95400 9.80000 32.43300
C  41.89100 10.35000 33.20000
C  41.35600 10.46100 34.65800
C  40.10200 9.53100 34.64300
C  39.87000 9.31400 33.15000
C  40.19500 8.08800 35.42100
C  41.11300 11.95900 35.10200
C  41.77100 12.32400 36.48200
H  40.89000 12.74000 37.68500
N  39.18900 8.81800 30.21700
C  38.50000 8.39200 31.31100
C  37.33700 7.68000 30.88500
C  37.28900 7.71400 29.43300
C  38.50000 8.44300 29.07500
C  36.36000 6.99900 31.87400
C  36.31000 7.06500 28.38400
O  36.49400 7.05600 27.12900
C  35.28600 6.05900 28.86100
N  41.18200 9.76200 27.98500
C  40.01400 9.43000 27.29200
C  40.31900 9.62800 25.79700
C  41.73700 10.29400 25.79800
C  42.00000 10.51100 27.25800
C  40.16700 8.44200 24.88000
C  42.03100 11.48200 24.80300
C  41.21400 12.72400 25.21100
N  42.86000 10.70800 30.24000
C  43.57400 11.15400 29.19200
C  44.79800 11.76600 29.69400
C  44.64500 11.74600 31.06300
C  43.45900 11.01400 31.35600
C  45.85700 12.28000 28.78400
C  45.20700 12.16100 32.25300
O  46.30100 12.73100 32.47600
C  44.18200 11.66800 33.46200
C  44.88700 10.81200 34.45100
O  44.91200 9.58600 34.61000
O  45.50600 11.67600 35.36400
C  46.04600 11.02600 36.60000
H  38.05100 8.40400 33.36400
H  38.31200 8.29200 27.00600
H  43.84300 11.53800 27.04700
H  42.17500 9.94900 35.16400
H  39.32600 10.14400 35.10300
H  40.71300 8.34600 36.34500
H  40.68200 7.27600 34.88100
H  39.19500 7.78200 35.72900
H  40.08000 12.28600 35.22700
H  41.50500 12.59100 34.30500
H  42.49900 13.11200 36.29100
H  42.40600 11.47600 36.73900
H  36.50100 7.15300 32.94300
H  36.19900 5.94600 31.63900
H  35.43100 7.48800 31.58100
H  34.48800 6.60000 29.37100
H  35.77400 5.37800 29.55700
H  34.92300 5.37900 28.09000
H  39.55200 10.33500 25.48100
H  42.42300 9.58200 25.34100
H  40.88700 8.37300 24.06400
H  39.14100 8.38700 24.51500
H  40.33400 7.59000 25.53800
H  41.71300 11.25700 23.78500
H  43.10400 11.66400 24.75800
H  40.62300 12.53900 26.10700
H  40.55100 13.13100 24.44800
H  41.85500 13.53600 25.55500
H  45.49000 13.15800 28.25100
H  46.15800 11.56000 28.02300
H  46.75300 12.40500 29.39200
H  43.80800 12.57300 33.94300
H  46.87900 10.38300 36.31600
H  45.28700 10.45900 37.13800
H  46.65700 11.64900 37.25300

