158

Mg 43.15400 41.31100 25.87700
C  41.97500 43.49400 28.38600
C  44.07600 39.02300 28.17200
C  43.82100 39.19300 23.31000
C  42.24600 43.71500 23.49100
N  42.89000 41.26000 28.04900
C  42.47000 42.26600 28.87500
C  42.58000 41.82900 30.35300
C  43.29600 40.42700 30.19400
C  43.44900 40.26200 28.73600
C  44.62300 40.24200 30.99600
C  41.19100 41.82800 31.02900
C  41.12200 42.50600 32.35300
H  40.36000 41.99000 33.54600
N  43.92100 39.41400 25.74000
C  44.21900 38.63000 26.78100
C  44.75500 37.37600 26.29400
C  44.69600 37.44500 24.86000
C  44.11200 38.69600 24.57900
C  45.39600 36.15500 27.04500
C  45.18100 36.44200 23.72600
O  44.86000 36.48000 22.54000
C  45.97000 35.27800 24.15300
N  43.26200 41.52900 23.64700
C  43.43900 40.46300 22.85800
C  43.06600 40.70900 21.41400
C  42.45500 42.14800 21.51700
C  42.56200 42.49100 22.94200
C  44.33600 40.53700 20.45400
C  41.06500 42.23600 20.89600
C  40.85100 43.44600 20.03500
N  42.40700 43.24200 25.87100
C  42.24000 44.14300 24.86500
C  41.72900 45.44700 25.36500
C  41.63900 45.19100 26.76000
C  42.04800 43.83800 27.06400
C  41.35100 46.58100 24.50100
C  41.29500 45.80700 28.00700
O  40.85300 46.92600 28.25600
C  41.57100 44.70700 29.16500
C  42.66600 45.19100 30.06500
O  43.81700 45.32800 29.68700
O  42.18000 45.61000 31.25900
C  43.16700 46.16400 32.15000
H  44.25700 38.19700 28.86400
H  43.89300 38.52800 22.44600
H  41.88700 44.37800 22.70100
H  43.28400 42.48200 30.87000
H  42.63000 39.60700 30.46200
H  45.52100 40.46000 30.41800
H  44.69400 39.29700 31.53400
H  44.66500 41.02400 31.75500
H  40.88800 40.78200 31.08500
H  40.46800 42.38100 30.42900
H  40.73700 43.49500 32.10200
H  42.12800 42.66200 32.74000
H  44.88900 35.26000 26.68400
H  45.19700 36.17400 28.11600
H  46.44600 36.20500 26.75800
H  46.66900 35.90400 24.70700
H  46.55900 34.90300 23.31600
H  45.41300 34.56100 24.75700
H  42.32800 39.92000 21.26900
H  43.05500 42.78700 20.87000
H  45.19900 40.13500 20.98500
H  44.54400 41.47800 19.94400
H  44.07900 39.84100 19.65500
H  40.36500 42.18500 21.73100
H  40.96900 41.27400 20.39400
H  41.07400 43.10800 19.02300
H  41.60800 44.21000 20.21300
H  39.87800 43.86800 20.28500
H  42.10500 46.86700 23.76800
H  41.29100 47.44300 25.16500
H  40.36400 46.42800 24.06400
H  40.63700 44.54500 29.70400
H  43.85500 46.76500 31.55500
H  43.85500 45.48700 32.65700
H  42.67100 46.81600 32.87000
Mg 0.99700 42.29200 25.68300
C  2.49900 42.17800 28.95700
C  -1.85600 41.10800 27.02500
C  -0.11900 41.69100 22.56400
C  4.24700 43.13100 24.47300
N  0.38300 41.81700 27.72700
C  1.16200 41.87400 28.92400
C  0.31000 41.46800 30.11800
C  -1.05600 40.94800 29.44800
C  -0.86000 41.36400 27.99700
C  -1.21000 39.35600 29.38600
C  0.13000 42.69800 31.02700
C  -0.18500 42.41400 32.53200
H  -0.56600 40.97000 32.94700
N  -0.78800 41.65800 24.87200
C  -1.89700 41.23400 25.65100
C  -3.03500 40.99300 24.72200
C  -2.50800 41.33400 23.40900
C  -1.06000 41.51800 23.57100
C  -4.34800 40.49400 25.11900
C  -3.23300 41.26000 22.07500
O  -2.67700 41.31100 20.99500
C  -4.79500 41.25100 22.04100
N  1.95000 42.42500 23.82300
C  1.20300 42.21400 22.66900
C  2.09600 42.46400 21.35500
C  3.28000 43.34800 21.97000
C  3.23300 42.92100 23.51900
C  2.56100 41.13400 20.63900
C  3.16800 44.87700 21.61800
C  3.38100 45.27100 20.16700
N  2.99400 42.49800 26.50200
C  4.21700 42.92400 25.83800
C  5.22500 43.15000 26.87200
C  4.58900 42.81300 28.09500
C  3.24000 42.45400 27.78700
C  6.59000 43.67000 26.64300
C  4.79400 42.79600 29.55900
O  5.76600 43.03100 30.26100
C  3.44600 42.14100 30.15900
C  3.73600 40.85500 30.69200
O  4.19500 39.89600 30.04800
O  3.33300 40.80400 31.97300
C  3.09800 39.43200 32.51000
H  -2.82900 40.72200 27.33800
H  -0.44900 41.70100 21.52300
H  5.18700 43.56000 24.11800
H  0.81400 40.60200 30.54600
H  -1.90700 41.47500 29.88000
H  -0.98500 39.07300 28.35800
H  -2.24800 39.02600 29.39400
H  -0.61100 38.80000 30.10800
H  -0.67500 43.13600 30.43800
H  0.95900 43.34900 30.74900
H  -0.90100 43.22500 32.67100
H  0.75400 42.60700 33.05000
H  -4.54900 39.66900 24.43600
H  -5.08800 41.26500 24.90300
H  -4.39800 40.22900 26.17500
H  -5.15300 40.22600 22.13900
H  -4.99100 41.61100 21.03100
H  -5.15800 41.93400 22.80800
H  1.52000 43.01800 20.61300
H  4.21900 43.05200 21.50300
H  3.64000 40.98200 20.67000
H  2.19200 41.30900 19.62900
H  1.94400 40.32300 21.02800
H  3.82900 45.44500 22.27300
H  2.15900 45.16100 21.91800
H  3.24900 44.37800 19.55700
H  4.29200 45.85900 20.05500
H  2.63400 45.93700 19.73500
H  6.62100 44.51600 25.95600
H  7.23500 42.86300 26.29500
H  7.05400 44.13600 27.51100
H  3.17100 42.92300 30.86700
H  2.13000 39.05500 32.18200
H  3.01100 39.71400 33.55900
H  3.97300 38.81300 32.31000

