158

Mg -1.97300 17.29400 26.22000
C  -1.90000 15.06200 28.96900
C  -2.61000 19.86900 28.59400
C  -2.24200 19.50300 23.69900
C  -1.94300 14.67100 24.04700
N  -2.23800 17.38900 28.47500
C  -2.12500 16.35400 29.38400
C  -2.35600 16.80600 30.87800
C  -2.92500 18.18800 30.61000
C  -2.58100 18.52800 29.13100
C  -4.45800 18.48100 31.09100
C  -1.11400 16.72100 31.72300
C  -1.01600 17.58600 32.95300
H  -0.55800 16.93100 34.30500
N  -2.26200 19.41800 26.14300
C  -2.40400 20.28000 27.20800
C  -2.50800 21.64200 26.66600
C  -2.54000 21.47500 25.24500
C  -2.18400 20.10700 25.00300
C  -2.80400 22.78000 27.56300
C  -2.58400 22.55700 24.17900
O  -2.30700 22.37100 23.05300
C  -2.89000 23.97900 24.61200
N  -2.11200 17.08600 24.19600
C  -2.17000 18.13800 23.35200
C  -2.21600 17.67900 21.93000
C  -2.25000 16.10000 22.05700
C  -1.99400 15.92600 23.52500
C  -3.34800 18.27800 21.04200
C  -1.38900 15.29600 21.15100
C  0.12900 15.35900 21.33100
N  -1.86200 15.27200 26.41600
C  -1.81100 14.27300 25.42100
C  -1.74700 12.96400 26.05800
C  -1.67500 13.21500 27.42900
C  -1.80900 14.67600 27.61600
C  -1.80500 11.67900 25.30000
C  -1.63300 12.59700 28.73500
O  -1.55600 11.36800 29.01400
C  -1.78800 13.76000 29.76100
C  -0.67200 13.68600 30.77800
O  0.34500 14.28000 30.51000
O  -0.98400 13.03400 31.98700
C  0.03400 12.92200 33.03300
H  -2.54200 20.56400 29.43400
H  -2.26700 20.12200 22.80000
H  -2.01700 13.84000 23.34300
H  -3.07000 16.21200 31.44800
H  -2.39600 18.91200 31.22900
H  -5.13000 18.86200 30.32200
H  -4.47600 19.32800 31.77700
H  -4.98400 17.73500 31.68700
H  -0.22400 16.78000 31.09600
H  -1.07100 15.74400 32.20500
H  -1.94100 18.12500 33.16100
H  -0.22700 18.28200 32.67100
H  -3.10200 22.45600 28.56100
H  -3.72800 23.23800 27.21000
H  -1.98200 23.49000 27.47500
H  -2.97500 24.56200 23.69500
H  -2.15700 24.24900 25.37300
H  -3.87800 24.17900 25.02700
H  -1.26000 18.02300 21.53400
H  -3.25900 15.76800 21.81100
H  -3.59700 17.50200 20.31800
H  -2.90900 19.11100 20.49200
H  -4.22000 18.59900 21.61100
H  -1.57500 15.68200 20.14900
H  -1.85700 14.32100 21.00900
H  0.35400 16.22600 21.95200
H  0.58200 15.53800 20.35600
H  0.49300 14.44400 21.79800
H  -1.01300 11.74300 24.55500
H  -2.81400 11.46900 24.94500
H  -1.37200 10.89100 25.91600
H  -2.69900 13.70500 30.35700
H  0.95000 13.38100 32.66100
H  0.33600 11.88600 33.18200
H  -0.37200 13.34400 33.95300
Mg 48.05600 44.60500 43.60800
C  44.61700 43.75000 43.37700
C  48.82200 41.28800 42.49900
C  51.07600 45.54200 42.76200
C  46.96900 48.02100 43.66700
N  46.88200 42.75500 42.99300
C  45.45800 42.70600 42.96600
C  45.02600 41.30300 42.72500
C  46.33800 40.41700 42.60400
C  47.38300 41.54300 42.71200
C  46.46200 39.28200 43.68900
C  43.94100 41.00300 41.64100
C  44.04500 41.86200 40.44300
H  43.70500 41.29000 39.04800
N  49.78900 43.54000 42.98800
C  49.90600 42.25200 42.61000
C  51.26200 41.96600 42.35500
C  52.01500 43.12600 42.35200
C  51.01200 44.14800 42.77200
C  51.74700 40.59400 42.08400
C  53.47500 43.39100 41.93700
O  54.10600 42.38600 41.63800
C  54.17500 44.70200 41.84200
N  48.89300 46.53800 43.39200
C  50.20500 46.61300 42.91200
C  50.65600 48.06700 42.71100
C  49.29800 48.86000 43.00100
C  48.29800 47.74100 43.32200
C  51.90400 48.60400 43.47700
C  48.92700 49.78000 41.77400
C  48.43700 51.11600 42.13800
N  46.22100 45.70000 43.67200
C  45.96000 47.01000 43.85900
C  44.51000 47.21500 44.01800
C  44.00600 45.91700 43.96600
C  45.04700 45.06500 43.67200
C  43.77800 48.53900 44.22600
C  42.73500 45.10200 44.02600
O  41.58300 45.43200 44.32400
C  43.11800 43.68400 43.58500
C  42.64600 42.83300 44.65000
O  41.81700 41.90200 44.49600
O  43.27900 43.12900 45.78500
C  43.03900 42.29400 46.95300
H  49.03200 40.27000 42.16400
H  52.05700 45.92400 42.47000
H  46.67100 49.07100 43.69400
H  44.46800 40.97700 43.60200
H  46.46100 39.95000 41.62700
H  47.10300 39.57000 44.52200
H  46.94500 38.40000 43.26600
H  45.55200 38.93400 44.17600
H  42.90900 41.03600 41.99200
H  44.17900 39.98800 41.32400
H  45.00700 42.37100 40.39500
H  43.35000 42.69500 40.54800
H  52.38600 40.47000 41.20900
H  50.96000 39.84000 42.09800
H  52.41000 40.30900 42.90100
H  53.50700 45.29800 41.21900
H  55.06300 44.46300 41.25800
H  54.35200 45.19900 42.79600
H  50.83500 48.32400 41.66700
H  49.45700 49.52100 43.85300
H  52.32900 47.75800 44.01700
H  51.66300 49.35100 44.23300
H  52.64100 48.98900 42.77300
H  48.04800 49.29700 41.34900
H  49.66700 49.91000 40.98400
H  49.05800 51.88700 41.68200
H  48.60000 51.44900 43.16300
H  47.39900 51.24700 41.83100
H  43.78300 48.89400 45.25700
H  42.75600 48.40200 43.87500
H  44.31800 49.31000 43.67600
H  42.51300 43.56200 42.68600
H  44.02000 42.07400 47.37500
H  42.62200 41.32700 46.67300
H  42.38400 42.80900 47.65500

