158

Mg 50.01900 47.34300 43.37500
C  46.50600 47.69600 42.95500
C  49.91200 44.52500 41.67400
C  53.35100 47.29200 43.37300
C  50.06200 50.56200 44.84300
N  48.35400 46.41200 42.22800
C  47.03000 46.60000 42.28700
C  46.19700 45.50000 41.64500
C  47.24700 44.33100 41.50000
C  48.59700 45.12600 41.77500
C  47.04600 43.16800 42.56500
C  45.62600 45.92500 40.27000
C  44.24300 45.29000 39.96400
H  43.85800 45.07600 38.55300
N  51.50200 46.05400 42.56900
C  51.21600 44.89100 41.99900
C  52.40600 44.15500 41.77300
C  53.53100 44.97600 42.11800
C  52.84000 46.17400 42.76400
C  52.51300 42.86200 41.15600
C  54.96200 44.60900 42.09500
O  55.26700 43.56000 41.63000
C  56.12100 45.37200 42.50200
N  51.52600 48.73600 43.95700
C  52.83900 48.39300 43.98200
C  53.72200 49.42100 44.68200
C  52.66900 50.44400 45.13700
C  51.32400 49.89800 44.54900
C  54.71700 48.90600 45.74200
C  53.07300 51.89900 44.77300
C  54.03000 52.56500 45.80800
N  48.57700 48.87400 43.90800
C  48.78000 50.11400 44.44700
C  47.44700 50.70000 44.58300
C  46.53500 49.77300 44.09300
C  47.28400 48.70600 43.62700
C  47.07600 51.92600 45.29100
C  45.10600 49.43700 43.92400
O  44.04800 50.00900 44.23500
C  45.03300 48.08000 43.12900
C  44.40100 46.99600 43.99800
O  44.74600 46.60700 45.05300
O  43.25600 46.48000 43.36500
C  42.42100 45.55300 44.00200
H  49.86300 43.45800 41.44700
H  54.43400 47.15600 43.40600
H  50.19800 51.49200 45.39800
H  45.34500 45.34100 42.30600
H  47.32500 43.99600 40.46600
H  47.23800 42.21600 42.07000
H  45.97700 43.06700 42.75200
H  47.55300 43.38000 43.50600
H  46.31400 45.65300 39.47000
H  45.52800 47.00900 40.21300
H  43.50100 46.04500 40.22400
H  44.18400 44.35800 40.52700
H  53.06100 42.94100 40.21700
H  51.57700 42.46900 40.75900
H  52.91700 42.00800 41.69900
H  56.16900 46.34300 42.00900
H  56.99000 44.79700 42.18400
H  56.06300 45.70200 43.53900
H  54.25200 49.89700 43.85800
H  52.57800 50.36700 46.22100
H  55.73100 48.89800 45.34100
H  54.33300 47.93900 46.06700
H  54.70300 49.45900 46.68200
H  52.10800 52.40200 44.84600
H  53.55600 52.01900 43.80400
H  53.70600 53.56900 46.07900
H  54.96800 52.65600 45.26200
H  54.34300 51.89300 46.60700
H  46.78900 51.73100 46.32500
H  46.18900 52.26700 44.75700
H  47.92000 52.61500 45.26800
H  44.62300 48.23200 42.13100
H  42.43600 45.54500 45.09200
H  42.63000 44.53800 43.66300
H  41.39500 45.73600 43.68200
Mg 6.19200 53.20000 41.86000
C  5.43100 49.82600 41.28100
C  9.32800 52.60100 40.83200
C  6.44900 56.45500 41.64000
C  2.66500 53.54000 42.58900
N  7.23000 51.44600 41.12100
C  6.74900 50.22100 40.93600
C  7.87800 49.28200 40.56600
C  9.17900 50.05800 40.81700
C  8.53700 51.48500 41.02300
C  10.07500 49.44600 41.90800
C  7.80300 48.68600 39.15300
C  6.80400 49.35900 38.08700
H  6.14200 48.50200 37.03000
N  7.70300 54.38200 41.28800
C  8.97100 53.96200 40.92500
C  9.82700 55.03500 40.56800
C  9.02700 56.22100 40.93700
C  7.65500 55.72600 41.29400
C  11.28000 54.91600 40.14400
C  9.55700 57.61100 40.79900
O  10.71700 57.81100 40.45600
C  8.61100 58.76400 41.05800
N  4.73100 54.77400 42.20300
C  5.12400 56.05300 42.00200
C  3.97500 57.06600 42.16400
C  2.70900 56.06800 42.32400
C  3.42900 54.72100 42.51700
C  4.29800 58.03300 43.41800
C  1.79700 56.09700 41.08800
C  0.28900 55.94800 41.33100
N  4.39200 51.98700 42.07700
C  3.06400 52.22100 42.30200
C  2.23200 51.05200 42.36000
C  3.20300 50.00200 42.09000
C  4.44900 50.67000 41.78200
C  0.79100 50.98400 42.72300
C  3.47900 48.58800 41.92200
O  2.84700 47.55700 42.14100
C  4.94900 48.40200 41.47100
C  4.85300 47.56300 40.24000
O  4.14600 47.78000 39.29200
O  5.47500 46.38100 40.43400
C  5.31600 45.23900 39.59400
H  10.33800 52.45100 40.44600
H  6.52800 57.53100 41.47100
H  1.60400 53.75500 42.73300
H  7.86200 48.43000 41.24600
H  9.74900 50.19000 39.89700
H  9.88900 49.96300 42.85000
H  11.09900 49.53600 41.54800
H  9.81500 48.39500 42.03600
H  7.51500 47.63600 39.20900
H  8.70700 48.88700 38.57900
H  7.43800 50.00700 37.48300
H  5.98200 49.90800 38.54500
H  11.65900 53.94800 39.81700
H  11.82600 55.16400 41.05400
H  11.45000 55.66400 39.36900
H  9.20700 59.67000 40.94900
H  8.24500 58.82700 42.08300
H  7.83000 58.60000 40.31700
H  3.86700 57.67600 41.26700
H  2.15400 56.33900 43.22200
H  3.50200 57.93400 44.15500
H  4.24800 59.03000 42.98000
H  5.25500 57.85500 43.90800
H  2.00200 55.30700 40.36600
H  1.79300 57.05800 40.57300
H  -0.30800 56.50200 40.60700
H  0.12300 56.25000 42.36500
H  -0.10300 54.93300 41.26900
H  0.47500 49.99200 43.04500
H  0.26000 51.19000 41.79300
H  0.52600 51.81000 43.38200
H  5.44800 47.81100 42.23900
H  6.00900 45.38000 38.76500
H  4.32100 45.17900 39.15200
H  5.39700 44.27200 40.09100

