158

Mg -1.46800 18.14100 26.80500
C  -2.07900 15.82200 29.57600
C  -1.95500 20.67000 29.00800
C  -1.55800 20.00100 24.13700
C  -1.58000 15.13300 24.72700
N  -2.02600 18.13000 29.05200
C  -1.99500 17.17500 30.00900
C  -2.07800 17.75800 31.42900
C  -1.99100 19.30200 31.15600
C  -2.03900 19.39000 29.63600
C  -3.08700 20.19200 31.73700
C  -0.97900 17.15900 32.43200
C  -0.64500 17.98800 33.71700
H  -0.75800 17.40900 35.18300
N  -1.72800 20.14500 26.65000
C  -1.90500 21.04100 27.61900
C  -1.89000 22.37300 26.98300
C  -1.87900 22.13700 25.59300
C  -1.74300 20.70400 25.37000
C  -2.00200 23.67900 27.72400
C  -1.90300 23.08500 24.45600
O  -2.09100 22.78600 23.28000
C  -1.70300 24.50300 24.76800
N  -1.63100 17.67100 24.70100
C  -1.45200 18.65800 23.82400
C  -1.52500 18.11500 22.37300
C  -1.64400 16.54100 22.56900
C  -1.57900 16.41500 24.11900
C  -2.77300 18.74900 21.64100
C  -0.56900 15.70900 21.68800
C  0.89800 15.77900 21.98500
N  -1.73700 15.98800 27.01500
C  -1.72300 14.89400 26.08800
C  -1.75100 13.68800 26.78900
C  -1.86300 14.00200 28.08700
C  -1.95500 15.37700 28.22200
C  -1.82200 12.29900 26.16300
C  -1.89600 13.35800 29.38500
O  -1.75800 12.16900 29.70700
C  -2.20700 14.50300 30.39600
C  -1.12100 14.27600 31.42500
O  0.02400 14.56000 31.27700
O  -1.56700 13.61400 32.51900
C  -0.58400 13.32000 33.64300
H  -2.15200 21.42800 29.76900
H  -1.46600 20.61700 23.24000
H  -1.71500 14.26300 24.08100
H  -3.03100 17.50100 31.89200
H  -1.02900 19.74700 31.41000
H  -2.51500 20.97000 32.24400
H  -3.70100 19.58400 32.40100
H  -3.85600 20.63800 31.10700
H  -0.05200 16.97800 31.88800
H  -1.44300 16.28400 32.88800
H  -1.42100 18.75300 33.67600
H  0.26400 18.57500 33.58800
H  -1.06900 24.24000 27.66100
H  -2.26400 23.54500 28.77300
H  -2.83700 24.25500 27.32600
H  -2.50600 25.02800 25.28500
H  -1.61000 24.89600 23.75600
H  -0.80000 24.55800 25.37600
H  -0.52800 18.30300 21.97500
H  -2.59000 16.20800 22.14000
H  -3.48700 17.96300 21.39400
H  -2.39800 19.17500 20.71000
H  -3.15400 19.51600 22.31500
H  -0.86900 16.05900 20.70000
H  -0.95500 14.69700 21.80700
H  1.14300 16.61100 22.64500
H  1.57800 15.98100 21.15800
H  1.33200 14.87100 22.40400
H  -1.06600 12.32600 25.37700
H  -2.80200 12.04900 25.75700
H  -1.39400 11.63200 26.91000
H  -3.10800 14.39600 30.99900
H  -0.97400 13.76500 34.55900
H  0.36400 13.85300 33.71000
H  -0.57300 12.26800 33.93000
Mg -11.50300 37.91800 42.07200
C  -9.41000 35.43600 40.84900
C  -9.19400 40.23800 41.02200
C  -13.84600 40.24600 42.07400
C  -13.84400 35.45400 42.75900
N  -9.50200 37.84300 41.02800
C  -8.87200 36.71400 40.57100
C  -7.63200 37.10200 39.81400
C  -7.34800 38.53400 40.34700
C  -8.75400 38.92300 40.84500
C  -6.28400 38.68700 41.44600
C  -7.77200 36.83100 38.26700
C  -6.66000 36.04000 37.73700
H  -5.67000 36.72200 36.79200
N  -11.49000 40.01700 41.70900
C  -10.42900 40.73500 41.32300
C  -10.80600 42.11100 41.22100
C  -12.25700 42.16300 41.43500
C  -12.62400 40.78900 41.68400
C  -9.89000 43.22600 40.75000
C  -13.09100 43.45900 41.43400
O  -12.70600 44.55700 41.05900
C  -14.61300 43.49000 41.79200
N  -13.57000 37.90700 42.30600
C  -14.30300 38.98700 42.45500
C  -15.60700 38.67600 43.14800
C  -15.68900 37.10800 43.12000
C  -14.25100 36.80400 42.76800
C  -15.99100 39.43400 44.46400
C  -16.71700 36.46700 42.10800
C  -17.97400 35.93800 42.82000
N  -11.56700 35.84000 42.05500
C  -12.55900 34.98200 42.39400
C  -12.13200 33.65700 42.30300
C  -10.88100 33.77300 41.69200
C  -10.57100 35.11300 41.55000
C  -12.86800 32.37700 42.76100
C  -9.80700 33.00500 41.18000
O  -9.61400 31.78900 41.17400
C  -8.64900 34.04800 40.69400
C  -7.47700 33.89300 41.60100
O  -7.13000 34.66200 42.46700
O  -6.69100 32.80800 41.22700
C  -5.42900 32.67400 41.96300
H  -8.42800 40.97900 40.78500
H  -14.54400 41.08500 42.10900
H  -14.69500 34.86600 43.10900
H  -6.88300 36.43900 40.24700
H  -7.00600 39.23400 39.58400
H  -5.56100 37.87900 41.33100
H  -6.80800 38.46500 42.37500
H  -5.74600 39.63400 41.41300
H  -7.63100 37.74300 37.68700
H  -8.77800 36.47500 38.04500
H  -7.04200 35.10800 37.32000
H  -5.94100 35.59900 38.42800
H  -9.69400 43.69600 41.71400
H  -10.37100 43.79200 39.95300
H  -8.92500 42.89100 40.37000
H  -15.21000 42.97400 41.04000
H  -14.85600 44.54800 41.89600
H  -14.85700 43.13500 42.79300
H  -16.50300 39.00900 42.62500
H  -15.86300 36.61200 44.07400
H  -16.76500 40.18400 44.29800
H  -15.10200 39.93500 44.84500
H  -16.34100 38.69600 45.18500
H  -16.18200 35.75900 41.47500
H  -17.00500 37.31400 41.48400
H  -18.58500 36.83100 42.95100
H  -17.64300 35.41600 43.71900
H  -18.52100 35.19100 42.24600
H  -13.84100 32.37800 42.26800
H  -13.04000 32.39300 43.83700
H  -12.34700 31.46400 42.47100
H  -8.30600 33.76000 39.70100
H  -5.51300 32.19400 42.93800
H  -4.88200 33.60300 42.12600
H  -4.76900 32.06400 41.34600

