158

Mg 2.99300 0.74900 44.09700
C  5.87800 2.55600 43.62700
C  1.29500 3.23000 42.35000
C  0.48200 -1.40700 43.61900
C  5.05700 -1.95400 45.13000
N  3.58700 2.57200 43.00300
C  4.79400 3.20700 43.01400
C  4.79200 4.54300 42.26300
C  3.28100 4.80900 42.06900
C  2.63800 3.46700 42.56800
C  2.70300 6.11700 42.75600
C  5.70300 4.55400 40.94100
C  6.17800 3.26000 40.23800
H  6.25600 3.15000 38.65000
N  1.11500 0.97500 43.35800
C  0.59900 2.04700 42.68900
C  -0.78000 1.85600 42.47100
C  -1.10100 0.56700 42.91400
C  0.16500 -0.04200 43.28300
C  -1.56500 2.93000 41.89500
C  -2.47500 -0.09600 42.97800
O  -3.45800 0.53300 42.62100
C  -2.67900 -1.53800 43.34100
N  2.84900 -1.38300 44.22700
C  1.61300 -1.98000 44.14400
C  1.67900 -3.46700 44.53100
C  3.19300 -3.63600 44.90500
C  3.74500 -2.24400 44.78700
C  0.63400 -3.83900 45.70100
C  3.97900 -4.73800 44.12000
C  4.57500 -5.77500 45.09200
N  4.98900 0.35300 44.44500
C  5.70800 -0.77400 44.87200
C  7.11700 -0.38400 45.03300
C  7.19800 0.86600 44.57800
C  5.89400 1.29900 44.21600
C  8.21400 -1.24800 45.65000
C  8.11100 1.95400 44.32300
O  9.38000 1.93900 44.47100
C  7.31900 3.14100 43.80500
C  7.40900 4.25200 44.86600
O  8.39800 4.90700 45.22900
O  6.13600 4.60400 45.28900
C  5.89700 5.84300 46.12200
H  0.79000 4.01600 41.78500
H  -0.23100 -2.23200 43.67300
H  5.60400 -2.84400 45.45000
H  5.24200 5.27900 42.92900
H  3.12100 4.91400 40.99600
H  3.32700 6.93600 42.39700
H  2.69500 6.06800 43.84500
H  1.69200 6.29900 42.39000
H  6.56700 5.18400 41.15100
H  5.16300 5.00300 40.10800
H  5.68800 2.37700 40.64800
H  7.16400 3.00100 40.62300
H  -2.62900 2.90200 42.13000
H  -1.23500 2.90300 40.85600
H  -1.23600 3.88100 42.31300
H  -2.23400 -1.79300 44.30300
H  -2.18700 -2.14700 42.58200
H  -3.75100 -1.73200 43.34900
H  1.31600 -4.05400 43.68800
H  3.23600 -3.79400 45.98300
H  -0.35300 -4.02900 45.27800
H  0.56500 -3.07600 46.47600
H  0.97000 -4.72700 46.23600
H  4.81700 -4.28800 43.58800
H  3.32500 -5.13200 43.34300
H  4.19800 -5.69700 46.11200
H  5.65000 -5.61400 45.17300
H  4.40600 -6.78400 44.71700
H  8.19700 -1.28200 46.73900
H  9.19000 -0.83900 45.39000
H  8.17200 -2.27500 45.28800
H  7.85000 3.46400 42.91000
H  6.28100 6.68700 45.55000
H  6.38300 5.84900 47.09900
H  4.84200 6.08100 46.25400
Mg 29.04500 59.29700 41.31500
C  26.28100 57.72300 40.17900
C  30.95100 56.73200 39.74300
C  31.98100 61.26100 41.29100
C  27.12400 62.13000 41.83700
N  28.64700 57.52400 40.10700
C  27.42700 57.11100 39.75800
C  27.46600 55.96500 38.71100
C  28.91500 55.36900 38.98700
C  29.55200 56.59700 39.64100
C  28.96900 54.16200 39.86200
C  27.29200 56.58100 37.24300
C  26.68800 55.54500 36.24200
H  26.39400 56.11400 34.85200
N  31.20500 58.97800 40.75200
C  31.72000 57.80900 40.24500
C  33.16800 57.94900 40.23300
C  33.50000 59.23800 40.76000
C  32.18100 59.91900 41.00300
C  34.02500 56.80100 39.80800
C  34.85300 59.80400 41.03200
O  35.81100 59.17500 40.62800
C  35.11600 61.11400 41.82100
N  29.52900 61.44400 41.66700
C  30.74800 61.96900 41.60400
C  30.68200 63.47300 41.73500
C  29.12500 63.78000 41.86200
C  28.53100 62.36600 41.83200
C  31.56500 64.03100 42.89900
C  28.43100 64.65400 40.70600
C  27.78900 66.00000 41.21400
N  27.06400 59.73900 41.42700
C  26.39200 60.92500 41.63900
C  24.94800 60.69500 41.53300
C  24.83800 59.44200 40.94100
C  26.14800 58.90300 40.85300
C  23.83400 61.58000 41.88700
C  23.94700 58.44300 40.36200
O  22.74200 58.38600 40.29300
C  24.84300 57.30000 39.86400
C  24.53000 56.07000 40.64700
O  24.70300 55.89100 41.84500
O  23.88700 55.16100 39.87000
C  23.52300 53.90000 40.42600
H  31.48500 55.86200 39.35500
H  32.81300 61.96500 41.34000
H  26.40400 62.94900 41.88700
H  26.55100 55.38000 38.80600
H  29.47100 55.21500 38.06200
H  27.98000 53.95000 40.26900
H  29.66400 54.21500 40.69900
H  29.26500 53.34600 39.20300
H  28.23200 56.96700 36.84700
H  26.70800 57.49900 37.30400
H  25.74400 55.17300 36.63900
H  27.38100 54.70700 36.16200
H  34.38500 56.78800 38.78000
H  33.58400 55.81500 39.95000
H  34.88700 56.84600 40.47400
H  34.94800 61.93400 41.12200
H  36.20000 61.08900 41.93600
H  34.48400 61.20500 42.70400
H  31.02000 63.80900 40.75500
H  28.87900 64.26500 42.80700
H  31.12800 64.08500 43.89600
H  32.07500 64.92900 42.54900
H  32.36100 63.31200 43.09100
H  27.54600 64.09600 40.40100
H  29.04100 64.71500 39.80500
H  26.70100 65.95000 41.18800
H  28.18000 66.69000 40.46600
H  28.21100 66.26400 42.18300
H  22.89600 61.18000 41.50300
H  24.06700 62.55600 41.46100
H  23.83400 61.79200 42.95600
H  24.68500 57.19000 38.79100
H  22.67900 54.00600 41.10800
H  24.40500 53.38700 40.81000
H  23.18800 53.24900 39.61800

