158

Mg 43.89300 3.01200 46.96300
C  42.04700 6.04200 46.82800
C  40.78400 1.31100 46.96400
C  45.62700 0.15900 46.64800
C  46.91700 4.85900 46.70900
N  41.72400 3.55900 46.81300
C  41.25800 4.84500 46.76700
C  39.77900 4.87500 47.19800
C  39.35800 3.36400 47.30300
C  40.69400 2.69500 47.04200
C  38.84300 2.96100 48.69700
C  38.77000 5.74800 46.23000
C  39.15000 6.25100 44.80900
H  38.24300 5.90600 43.60300
N  43.33200 1.04400 46.67500
C  42.03700 0.57600 46.69300
C  42.03200 -0.87900 46.57500
C  43.37900 -1.24300 46.34100
C  44.20500 -0.03500 46.57700
C  40.69100 -1.81900 46.61400
C  43.74200 -2.68600 45.97600
O  42.84600 -3.57600 45.83500
C  45.16100 -3.04300 45.70400
N  46.01600 2.63900 46.59300
C  46.46100 1.33500 46.63900
C  47.99300 1.27700 46.60400
C  48.43700 2.81400 46.65200
C  47.04900 3.48900 46.69900
C  48.53200 0.27300 47.59800
C  49.28700 3.34500 45.45700
C  50.40700 4.33700 45.74900
N  44.39200 5.04800 46.81800
C  45.66900 5.63500 46.72100
C  45.51900 7.12500 46.72800
C  44.09200 7.30200 46.88600
C  43.44100 6.00300 46.87600
C  46.60200 8.06400 46.67600
C  43.02000 8.30000 47.09700
O  42.93900 9.51900 47.17800
C  41.71500 7.44500 46.98700
C  40.98700 7.78900 48.26200
O  41.17000 7.31300 49.37300
O  39.93100 8.63000 47.92000
C  38.97800 8.93200 48.98400
H  39.86000 0.74700 47.10600
H  46.28000 -0.71200 46.73300
H  47.90700 5.30800 46.81600
H  39.66000 5.30800 48.19100
H  38.65300 3.06500 46.52800
H  38.39500 3.70000 49.36100
H  39.75400 2.58500 49.16300
H  38.17000 2.10500 48.73900
H  38.54100 6.59800 46.87200
H  37.82000 5.21600 46.27800
H  40.08300 5.72800 44.60200
H  39.27500 7.33100 44.88100
H  40.84800 -2.69800 47.23800
H  40.38700 -2.15000 45.62100
H  39.84700 -1.41700 47.17500
H  45.72400 -3.05300 46.63700
H  45.75900 -2.49700 44.97500
H  45.10200 -4.03500 45.25500
H  48.32500 0.99500 45.60500
H  48.95600 2.99100 47.59400
H  48.72000 -0.58000 46.94600
H  47.77900 0.03600 48.35000
H  49.43500 0.64300 48.08400
H  48.61400 3.70200 44.67700
H  49.83100 2.44900 45.15900
H  51.33300 3.89100 45.38700
H  50.42700 4.54000 46.82000
H  50.32300 5.28800 45.22300
H  46.73200 8.33000 47.72500
H  46.37600 8.89000 46.00000
H  47.58200 7.67500 46.40000
H  41.17600 7.90900 46.16200
H  38.43500 9.83100 48.69100
H  39.48500 9.14700 49.92400
H  38.30100 8.10300 49.19200
Mg 52.97300 23.97700 44.52800
C  50.30600 26.15500 43.70000
C  51.19100 21.40800 43.15000
C  55.74100 22.15100 44.52700
C  54.61100 26.71700 45.83900
N  51.10300 23.93100 43.25000
C  50.22200 24.90800 43.08800
C  48.99500 24.29100 42.34500
C  49.04500 22.83700 42.81200
C  50.55600 22.67200 43.06300
C  48.16900 22.43900 43.99300
C  48.93800 24.64700 40.82300
C  50.28400 25.06600 40.21100
H  50.25600 25.81800 38.84400
N  53.36200 21.94800 43.89600
C  52.50300 21.04600 43.44700
C  53.11900 19.72000 43.40800
C  54.48600 19.92000 43.83200
C  54.59500 21.39200 44.07100
C  52.35200 18.46200 43.08300
C  55.54400 18.86600 44.03600
O  55.27400 17.67900 43.83600
C  56.91800 19.14700 44.53100
N  55.00200 24.50600 44.77600
C  55.91000 23.49800 44.89400
C  57.22900 24.09000 45.55800
C  56.95000 25.61400 45.74000
C  55.42600 25.64900 45.35700
C  57.58500 23.47400 46.95000
C  57.75000 26.57000 44.87000
C  58.80300 27.39400 45.69400
N  52.49900 25.97300 44.95100
C  53.24700 26.92100 45.57100
C  52.46300 28.15000 45.69500
C  51.25200 27.86100 44.97800
C  51.33200 26.53500 44.57500
C  52.80700 29.49100 46.24800
C  50.02700 28.45800 44.47800
O  49.63000 29.61600 44.59300
C  49.36100 27.31800 43.72500
C  48.96500 27.74400 42.36000
O  49.72000 28.29100 41.58700
O  47.61400 27.39700 42.17800
C  46.99700 27.77500 40.93400
H  50.55600 20.56800 42.85900
H  56.64300 21.54200 44.61700
H  55.01500 27.62900 46.28400
H  48.07300 24.71000 42.74700
H  48.68600 22.19900 42.00400
H  47.38500 23.19500 43.96800
H  48.68700 22.29700 44.94100
H  47.62800 21.53300 43.71800
H  48.16800 25.39300 40.62900
H  48.77900 23.75500 40.21600
H  50.84400 24.13100 40.19600
H  50.60500 25.82800 40.92100
H  52.96800 18.14300 42.24300
H  51.32500 18.77700 42.89700
H  52.27800 17.72000 43.87900
H  56.75000 19.60300 45.50700
H  57.45000 19.63100 43.71200
H  57.43600 18.19800 44.67400
H  57.95500 23.93600 44.76000
H  56.93700 25.90600 46.79000
H  56.62400 23.05200 47.24600
H  57.95600 24.16800 47.70400
H  58.25400 22.62800 46.79600
H  57.23300 27.31600 44.26600
H  58.41100 26.01300 44.20600
H  58.80400 27.04200 46.72500
H  58.45100 28.41600 45.83400
H  59.82000 27.29700 45.31300
H  52.06400 29.72000 47.01200
H  52.80000 30.25000 45.46600
H  53.82400 29.63200 46.61300
H  48.44100 27.02000 44.22900
H  46.71000 28.82600 40.92100
H  46.04600 27.27200 40.76200
H  47.66800 27.44600 40.14000

