158

Mg 35.74300 1.99900 30.51800
C  33.02700 3.09900 32.62100
C  37.77900 2.27000 33.01600
C  38.22100 1.25500 28.29300
C  33.50600 2.15800 27.74200
N  35.43300 2.73500 32.57000
C  34.28200 2.93000 33.27800
C  34.58100 3.07700 34.80100
C  36.13500 2.99700 34.77500
C  36.48000 2.66900 33.37000
C  36.94000 4.18400 35.30700
C  33.84900 1.95000 35.61800
C  33.69400 2.12800 37.09200
H  34.39000 3.33900 37.75400
N  37.77400 1.73000 30.64000
C  38.46000 1.80600 31.82300
C  39.72200 1.30200 31.63800
C  39.82800 0.94700 30.25300
C  38.56700 1.31100 29.64400
C  40.69500 1.17100 32.83300
C  41.04200 0.35200 29.54100
O  41.00200 0.08200 28.36000
C  42.33000 -0.04200 30.22600
N  35.80400 1.72500 28.33800
C  36.99000 1.42700 27.69000
C  36.82400 1.45900 26.15800
C  35.24200 1.66300 25.99800
C  34.80900 1.73800 27.46500
C  37.58300 2.65300 25.42700
C  34.51700 0.55800 25.11700
C  34.08700 -0.73500 25.88900
N  33.68600 2.40100 30.14700
C  32.94000 2.47800 29.03700
C  31.61700 2.95000 29.35400
C  31.59900 3.14400 30.69200
C  32.90200 2.90900 31.16400
C  30.55600 3.17700 28.26600
C  30.75500 3.62300 31.81400
O  29.59600 3.91900 31.87900
C  31.63800 3.61400 33.14700
C  31.68300 4.89500 33.78900
O  31.79700 5.94500 33.20700
O  31.35400 4.68900 35.09100
C  31.55200 5.91100 36.03900
H  38.44400 2.24500 33.88200
H  39.00500 0.93400 27.60400
H  32.97600 2.40800 26.82000
H  34.18500 4.06000 35.05500
H  36.39600 2.10800 35.35000
H  37.73200 3.76500 35.92800
H  36.30900 4.79700 35.95100
H  37.20700 4.86700 34.50000
H  34.45100 1.07200 35.38300
H  32.88500 1.81700 35.12700
H  33.87900 1.29300 37.76800
H  32.65800 2.43700 37.23200
H  41.47500 0.41700 32.73200
H  40.06100 1.03000 33.70800
H  41.24900 2.11000 32.85600
H  42.05800 -0.80600 30.95400
H  42.97800 0.77100 30.55300
H  43.04000 -0.52600 29.55600
H  37.00500 0.47100 25.73400
H  34.93700 2.63900 25.61900
H  38.35200 2.17900 24.81800
H  38.02900 3.38100 26.10500
H  37.02800 3.27900 24.72900
H  35.10600 0.29400 24.23900
H  33.63200 0.91100 24.58900
H  34.45300 -0.73400 26.91600
H  34.51600 -1.63400 25.44600
H  33.01500 -0.92800 25.92400
H  29.60900 3.54600 28.66100
H  30.38900 2.16400 27.90200
H  30.84400 3.91000 27.51200
H  31.35600 2.88300 33.90500
H  31.68000 5.50300 37.04200
H  30.58900 6.42200 36.00700
H  32.40700 6.50300 35.71300
Mg 6.58000 54.97300 40.65000
C  5.76900 51.55000 40.88900
C  9.82300 54.04700 39.64600
C  7.15700 58.22800 40.04700
C  3.34000 55.83100 41.77100
N  7.61900 53.09600 40.15200
C  7.03400 51.79300 40.31400
C  7.99500 50.68400 39.83500
C  9.39500 51.49300 39.81900
C  8.90600 52.98000 39.84400
C  10.32000 51.15000 41.05000
C  7.66900 50.01000 38.43000
C  6.86800 50.85300 37.40400
H  6.16700 50.04600 36.21300
N  8.27700 56.03600 39.95900
C  9.53100 55.46400 39.65500
C  10.42900 56.50300 39.24400
C  9.70100 57.76200 39.28300
C  8.30900 57.42700 39.78000
C  11.89300 56.31200 38.88700
C  10.30300 59.06100 38.98900
O  11.40700 59.06600 38.52000
C  9.65500 60.33100 39.45500
N  5.41400 56.70200 40.71800
C  5.89100 57.88600 40.49500
C  4.91100 59.06600 40.71000
C  3.67400 58.33900 41.34500
C  4.19100 56.85900 41.32800
C  5.46300 60.16200 41.65700
C  2.23400 58.61100 40.72000
C  1.73500 60.01900 41.08100
N  4.82800 53.89500 41.17300
C  3.58900 54.42100 41.60500
C  2.68300 53.24400 41.90700
C  3.48700 52.11400 41.65900
C  4.77600 52.56700 41.17500
C  1.26500 53.29200 42.51600
C  3.49100 50.71100 41.76000
O  2.64300 49.98300 42.20500
C  4.94700 50.21700 41.24800
C  4.62000 49.29400 40.05700
O  4.12300 49.58100 38.93000
O  4.98800 48.01000 40.42800
C  4.98000 47.09200 39.28200
H  10.71800 53.57300 39.23700
H  7.39000 59.22600 39.66800
H  2.33000 56.10200 42.08500
H  7.90500 50.03800 40.70800
H  10.03400 51.26800 38.96500
H  10.29900 52.03600 41.68600
H  11.36600 51.02900 40.77000
H  9.92100 50.34100 41.66100
H  7.22000 49.05100 38.68800
H  8.56100 49.80800 37.83700
H  7.58200 51.58300 37.02200
H  6.12900 51.39300 37.99500
H  12.05100 55.29300 38.53200
H  12.61400 56.64500 39.63400
H  12.10900 56.90300 37.99700
H  8.97300 60.79300 38.74100
H  10.43300 61.07500 39.62500
H  9.11600 60.20500 40.39400
H  4.66100 59.54900 39.76600
H  3.62700 58.64100 42.39100
H  6.54800 60.17800 41.76700
H  4.86200 60.38400 42.53900
H  5.30900 61.05500 41.05200
H  1.46500 57.99100 41.18100
H  2.23600 58.43800 39.64300
H  0.86600 59.90100 41.72800
H  1.61500 60.72200 40.25700
H  2.50100 60.32600 41.79200
H  1.31500 53.93200 43.39700
H  0.74000 52.40100 42.85800
H  0.76400 53.74800 41.66200
H  5.34600 49.58000 42.03700
H  4.98500 46.10100 39.73500
H  5.85000 47.30000 38.66000
H  4.08900 47.15100 38.65600

