158

Mg 1.29400 -1.77000 43.47100
C  4.67300 -1.17400 42.82600
C  0.55400 1.11900 41.81800
C  -1.93100 -2.67000 43.57500
C  2.13800 -4.74000 45.07000
N  2.48400 -0.29600 42.37200
C  3.84100 -0.21700 42.27300
C  4.32000 0.97100 41.41700
C  2.96700 1.78800 41.27700
C  1.88700 0.81300 41.91900
C  2.95600 3.13500 42.04800
C  4.92300 0.36300 40.04500
C  6.00900 1.13900 39.51900
H  6.02500 1.71000 38.11500
N  -0.47500 -0.86500 42.73700
C  -0.57700 0.38200 42.15700
C  -1.95600 0.63000 41.85200
C  -2.67000 -0.42900 42.43000
C  -1.67800 -1.40200 43.00800
C  -2.39800 1.88900 41.08400
C  -4.15900 -0.50300 42.40600
O  -4.89100 0.33700 41.83700
C  -4.86400 -1.65500 43.07200
N  0.33700 -3.45200 44.17900
C  -1.01300 -3.62100 44.04000
C  -1.43600 -5.00200 44.59300
C  -0.12100 -5.68200 44.97300
C  0.84600 -4.51200 44.79100
C  -2.47500 -4.87100 45.73800
C  0.26500 -6.91000 44.15000
C  0.32500 -8.18800 45.01300
N  3.04200 -2.85700 43.85000
C  3.26800 -3.96600 44.58300
C  4.69700 -4.20600 44.65900
C  5.33400 -3.06600 44.09200
C  4.30500 -2.35400 43.51300
C  5.25600 -5.41700 45.43100
C  6.60800 -2.40400 43.80100
O  7.83700 -2.63000 44.07100
C  6.17500 -1.15000 42.85200
C  6.83000 0.14100 43.23000
O  7.59900 0.79600 42.51000
O  6.54000 0.55900 44.53700
C  6.99800 1.95700 44.88700
H  0.39600 2.12300 41.41900
H  -2.88200 -3.20200 43.50500
H  2.48200 -5.65100 45.56500
H  5.07000 1.62600 41.85800
H  2.59300 1.84800 40.25500
H  2.33500 3.06700 42.94100
H  2.59600 3.97700 41.45700
H  3.98200 3.29600 42.37800
H  4.18300 0.57300 39.27300
H  5.13600 -0.70200 39.94900
H  6.84600 0.44100 39.52800
H  6.25100 1.98400 40.16300
H  -1.65400 2.66200 40.89400
H  -3.05100 2.43900 41.76200
H  -2.82900 1.58300 40.13000
H  -4.36000 -1.71100 44.03700
H  -4.77100 -2.58600 42.51200
H  -5.92100 -1.42500 43.20600
H  -1.91500 -5.56200 43.79000
H  -0.12300 -5.93500 46.03300
H  -2.62500 -3.82200 45.99700
H  -2.24200 -5.53300 46.57200
H  -3.45300 -5.16800 45.35700
H  1.16500 -6.78500 43.54700
H  -0.53300 -7.09500 43.43100
H  0.02100 -8.99400 44.34400
H  -0.30100 -8.07200 45.89700
H  1.30600 -8.32400 45.46900
H  5.97800 -5.02000 46.14500
H  5.78800 -6.10600 44.77500
H  4.62000 -5.90900 46.16700
H  6.42300 -1.38100 41.81600
H  6.48600 2.66900 44.23900
H  8.07800 2.04600 44.77700
H  6.73500 2.18800 45.91900
Mg 53.60500 24.19700 44.92900
C  51.35600 26.59200 44.03600
C  51.82100 21.87900 43.14500
C  56.19300 22.02800 45.12400
C  55.65900 26.66300 46.31100
N  51.97900 24.30100 43.48900
C  51.10600 25.36200 43.37600
C  49.87100 25.02200 42.59600
C  49.91500 23.42500 42.59800
C  51.31200 23.15800 43.19100
C  48.79100 22.70800 43.48500
C  49.85200 25.56300 41.13300
C  51.20600 26.01100 40.45400
H  51.96000 24.98300 39.61400
N  53.94900 22.15900 44.34600
C  53.00700 21.37900 43.68000
C  53.53600 20.02300 43.74600
C  54.81500 20.14100 44.41700
C  55.01700 21.44600 44.65600
C  52.79700 18.75000 43.25100
C  55.63100 18.93600 44.84300
O  55.43000 17.84200 44.34400
C  56.71000 18.95600 45.92900
N  55.68500 24.34100 45.40100
C  56.55500 23.29300 45.48800
C  57.92600 23.68300 46.04100
C  57.61600 25.07300 46.66200
C  56.20100 25.38000 46.10900
C  58.58400 22.74100 47.07200
C  58.59900 26.21200 46.34500
C  58.48900 26.89500 44.98500
N  53.52400 26.19500 45.20100
C  54.30600 27.03600 45.89800
C  53.65700 28.30500 46.18200
C  52.43900 28.10500 45.51800
C  52.42200 26.88700 44.89000
C  53.99000 29.40900 47.06600
C  51.18500 28.70800 45.23400
O  50.68800 29.78800 45.51500
C  50.37200 27.75000 44.24000
C  50.07000 28.53500 42.99100
O  50.79600 28.72900 42.06900
O  48.75800 28.62800 42.98100
C  48.09100 28.96100 41.72500
H  51.12300 21.15200 42.72600
H  56.93400 21.25300 45.32900
H  56.20700 27.35900 46.95000
H  49.01900 25.36500 43.18200
H  49.77200 22.96600 41.62000
H  48.86400 23.15700 44.47600
H  48.94200 21.62900 43.46400
H  47.74500 22.84000 43.20900
H  49.26900 26.47900 41.03300
H  49.29100 24.85100 40.52800
H  51.94600 26.30300 41.19900
H  51.15900 26.87500 39.79100
H  52.13900 18.94700 42.40500
H  52.14900 18.37100 44.04100
H  53.54500 18.06100 42.85800
H  56.80700 17.98300 46.41200
H  56.23900 19.63400 46.64000
H  57.60200 19.21700 45.35900
H  58.65600 23.78000 45.23700
H  57.41100 25.09400 47.73300
H  59.59200 22.43800 46.79100
H  57.99100 21.83600 47.21000
H  58.71600 23.21600 48.04300
H  59.58300 25.90500 46.70000
H  58.42100 27.00900 47.06600
H  58.01400 26.18900 44.30300
H  59.50800 27.14500 44.68900
H  57.82300 27.75600 44.92200
H  54.09600 29.18400 48.12700
H  53.24400 30.20300 47.08700
H  54.91800 29.85200 46.70400
H  49.47600 27.46200 44.79000
H  47.51000 29.86600 41.90400
H  47.50600 28.05500 41.56600
H  48.76000 29.23200 40.90800

