158

Mg 7.30700 3.15300 27.66500
C  8.56500 1.99700 30.74500
C  5.18300 5.14900 29.42300
C  5.98900 4.12600 24.77500
C  8.95300 0.51300 26.02900
N  7.05100 3.55700 29.89700
C  7.68900 3.03100 30.97700
C  7.23300 3.70500 32.32400
C  5.99200 4.49200 31.84900
C  6.08500 4.49900 30.26800
C  4.60100 3.86900 32.35300
C  8.35300 4.57600 33.06100
C  8.67300 4.12100 34.48600
H  9.69200 4.89700 35.34500
N  5.75000 4.40900 27.16200
C  5.00500 5.17100 27.99700
C  4.07700 5.90700 27.26600
C  4.32200 5.73700 25.84100
C  5.41100 4.77100 25.86300
C  2.95900 6.52000 28.01000
C  3.65200 6.35300 24.66300
O  4.02400 6.02800 23.50600
C  2.61000 7.38000 24.91900
N  7.41400 2.43700 25.69200
C  7.03200 3.22700 24.66100
C  7.42900 2.63100 23.30600
C  8.30600 1.37100 23.71900
C  8.26500 1.43100 25.25700
C  6.27500 2.28100 22.30400
C  9.68600 1.30900 23.11700
C  10.06400 0.04700 22.32600
N  8.57500 1.59700 28.17300
C  9.16400 0.61000 27.39000
C  10.04800 -0.13500 28.23400
C  9.86200 0.38800 29.51000
C  8.94100 1.39700 29.48200
C  10.97400 -1.30900 27.83200
C  10.32600 0.28700 30.89600
O  11.13300 -0.50000 31.36100
C  9.58600 1.37100 31.70700
C  9.02300 0.60300 32.82800
O  7.89800 0.08700 32.99500
O  10.00900 0.68100 33.87300
C  9.45500 0.42500 35.23000
H  4.51700 5.79600 29.99800
H  5.89000 4.61700 23.80500
H  9.51400 -0.25100 25.48700
H  6.98600 2.85800 32.96500
H  6.00900 5.55100 32.10600
H  3.97400 3.51100 31.53600
H  4.01500 4.57300 32.94500
H  4.86800 3.07600 33.05100
H  8.17600 5.64700 32.96200
H  9.27500 4.40500 32.50500
H  9.10300 3.13000 34.33700
H  7.79100 3.90300 35.08800
H  3.31200 7.52800 28.23000
H  2.80000 6.08900 28.99900
H  2.04100 6.42600 27.43000
H  1.69600 6.93600 25.31400
H  2.37000 7.88800 23.98600
H  3.05700 8.08500 25.62000
H  8.11500 3.36600 22.88500
H  7.75000 0.47200 23.45300
H  5.45700 2.36900 23.01900
H  6.25300 1.25200 21.94600
H  6.15300 2.98500 21.48100
H  10.38800 1.29700 23.95000
H  9.99800 2.11800 22.45700
H  9.25600 -0.66400 22.15500
H  10.97600 -0.32500 22.79400
H  10.55300 0.14100 21.35600
H  10.42900 -2.25200 27.88900
H  11.84800 -1.21700 28.47700
H  11.16400 -1.15800 26.76900
H  10.27500 2.12000 32.09700
H  8.71100 1.19000 35.45200
H  10.25000 0.38200 35.97600
H  8.94500 -0.52100 35.41000
Mg 9.53600 46.76900 26.55100
C  7.58400 46.77400 29.49700
C  12.28000 47.72700 28.49900
C  11.38600 46.57900 23.81100
C  6.61300 46.05300 24.74000
N  9.83700 47.38700 28.73900
C  8.95500 47.13600 29.76600
C  9.63300 47.36000 31.06900
C  11.07000 48.06300 30.76700
C  11.07800 47.75200 29.24100
C  11.24300 49.52400 31.27500
C  9.80700 46.04600 31.91300
C  9.23100 46.15300 33.35200
H  9.48500 45.13900 34.34500
N  11.47000 47.15000 26.17700
C  12.46800 47.46500 27.10000
C  13.66900 47.70900 26.37300
C  13.41900 47.41000 25.01700
C  12.06900 47.04000 24.96900
C  15.01800 48.19200 27.02800
C  14.36200 47.60100 23.80100
O  14.01500 47.24000 22.67900
C  15.66100 48.39200 23.94000
N  9.05700 46.43500 24.57900
C  10.05300 46.31900 23.58500
C  9.43700 45.85200 22.21700
C  7.96300 45.38300 22.64200
C  7.85700 45.93300 24.08800
C  9.37900 46.85200 21.10500
C  7.68200 43.86600 22.41200
C  8.43400 43.01500 23.47100
N  7.49400 46.48100 26.94200
C  6.41700 46.30600 26.10300
C  5.14800 46.24100 26.83500
C  5.56800 46.34600 28.19500
C  7.00200 46.50800 28.20500
C  3.73800 46.13300 26.23900
C  5.07900 46.42200 29.59600
O  3.94200 46.40300 30.01800
C  6.38900 46.60100 30.51900
C  6.42600 45.33200 31.28100
O  7.05300 44.34000 30.87500
O  5.69100 45.44800 32.44800
C  5.90900 44.32500 33.37900
H  13.13100 48.09800 29.07400
H  11.94100 46.48400 22.87500
H  5.68700 45.71400 24.27200
H  8.99600 48.10100 31.55200
H  11.90400 47.53700 31.23200
H  11.86900 49.61000 32.16300
H  10.23900 49.82800 31.57200
H  11.68000 50.19300 30.53400
H  10.83900 45.69600 31.91900
H  9.39600 45.16400 31.42000
H  8.16800 46.27000 33.14400
H  9.55100 47.13100 33.71400
H  14.88300 48.00900 28.09400
H  15.16800 49.26600 26.90900
H  15.89700 47.63200 26.70900
H  15.37800 49.42100 24.16200
H  16.25300 48.41400 23.02400
H  16.35200 48.01100 24.69200
H  10.06100 44.98400 22.00700
H  7.27800 45.85000 21.93300
H  8.51300 47.50700 21.19500
H  9.37900 46.28900 20.17200
H  10.27400 47.46700 21.01000
H  8.10400 43.55900 21.45500
H  6.61300 43.65500 22.42800
H  7.72100 42.27700 23.83800
H  8.79200 43.59800 24.31900
H  9.25700 42.46500 23.01400
H  3.05400 45.90500 27.05700
H  3.74900 45.38600 25.44600
H  3.44700 47.05900 25.74300
H  6.22300 47.44000 31.19500
H  6.38000 44.65400 34.30500
H  6.53200 43.50100 33.03100
H  4.96600 43.83400 33.61900

