158

Mg 40.02900 9.47200 29.45900
C  41.91600 10.76800 32.00600
C  37.85300 8.12500 31.68600
C  38.30200 8.17200 26.86500
C  42.69500 10.37200 27.14200
N  40.05000 9.32300 31.66600
C  40.75000 10.14600 32.48200
C  40.17400 10.16100 33.92000
C  38.98600 9.16200 33.83400
C  38.94900 8.84100 32.30500
C  39.08500 7.83100 34.67000
C  39.92300 11.63600 34.46500
C  40.50400 11.91600 35.81000
H  39.56700 12.44100 36.89900
N  38.35400 8.31100 29.26500
C  37.54700 7.97300 30.32800
C  36.35000 7.30500 29.83300
C  36.40800 7.43000 28.43100
C  37.73200 8.03100 28.08900
C  35.23600 6.69000 30.76800
C  35.33500 7.01000 27.37100
O  35.51800 7.04500 26.15400
C  34.04300 6.51700 27.77500
N  40.45200 9.33800 27.30000
C  39.54100 8.82300 26.47100
C  39.98500 8.85000 24.96000
C  41.32300 9.58100 25.15000
C  41.52500 9.76600 26.62900
C  40.20100 7.34500 24.46200
C  41.54500 10.87800 24.27100
C  40.94500 12.13700 24.82700
N  41.92900 10.37700 29.50200
C  42.93200 10.61200 28.52100
C  44.09200 11.19300 29.19000
C  43.69200 11.26900 30.60000
C  42.39400 10.72200 30.69400
C  45.48000 11.44700 28.55900
C  44.16000 11.66800 31.88100
O  45.24200 12.10200 32.31800
C  43.01500 11.35400 32.84600
C  43.53100 10.47200 33.92900
O  43.40800 9.24500 34.00800
O  44.19000 11.21500 34.87000
C  44.71800 10.60400 36.06100
H  37.12000 7.97700 32.48200
H  37.79400 7.67200 26.03800
H  43.47600 10.60000 26.41300
H  40.95300 9.76800 34.57400
H  38.05900 9.68100 34.07700
H  38.23500 7.84800 35.35200
H  39.97600 7.72300 35.28900
H  39.12300 6.96900 34.00400
H  38.83800 11.70600 34.53200
H  40.22100 12.18000 33.56900
H  41.22800 12.72300 35.70200
H  41.10200 11.04900 36.09000
H  35.40100 7.00700 31.79800
H  35.28900 5.60800 30.64800
H  34.27200 7.03500 30.39600
H  33.51200 7.32600 28.27600
H  34.37200 5.65700 28.35800
H  33.62000 6.03900 26.89200
H  39.28900 9.35200 24.28700
H  42.17900 8.98900 24.82500
H  39.98800 6.68800 25.30600
H  41.25900 7.22200 24.23100
H  39.55300 7.06200 23.63200
H  41.14300 10.58200 23.30200
H  42.56500 11.15000 23.99900
H  40.10400 12.36600 24.17200
H  41.66200 12.95700 24.88000
H  40.53000 11.99300 25.82400
H  45.89900 10.62800 27.97300
H  46.26500 11.70800 29.26900
H  45.30800 12.27300 27.86900
H  42.66100 12.23400 33.38200
H  43.90300 10.01100 36.47500
H  44.86800 11.42100 36.76700
H  45.56900 10.05900 35.65000
Mg 47.06000 16.65900 28.21200
C  44.96500 16.22200 30.94200
C  49.09500 18.60500 30.32900
C  48.77200 17.66100 25.48500
C  44.61100 15.23000 26.22900
N  46.93200 17.44200 30.37100
C  46.09000 16.95800 31.27300
C  46.46600 17.41500 32.69400
C  47.66200 18.40700 32.43500
C  47.96600 18.18200 30.92800
C  47.64800 19.89300 32.81400
C  46.83800 16.21100 33.63900
C  46.22300 16.21700 34.92700
H  45.73800 17.60100 35.56800
N  48.79300 17.82400 27.99100
C  49.49000 18.51700 28.94600
C  50.58800 19.21000 28.30100
C  50.58200 18.83400 26.90100
C  49.35100 18.06400 26.76600
C  51.64200 19.88600 29.14500
C  51.59300 19.18200 25.82000
O  51.42900 18.89900 24.65600
C  52.90200 19.82700 26.14300
N  46.78200 16.43800 26.19000
C  47.60700 16.88500 25.23100
C  47.04600 16.70200 23.83500
C  45.85800 15.75700 24.12200
C  45.70800 15.76700 25.58400
C  46.52900 18.11100 23.26500
C  46.08100 14.31300 23.65200
C  44.86300 13.42700 23.35100
N  45.18100 15.76000 28.57600
C  44.30400 15.21600 27.63000
C  43.19600 14.59500 28.31300
C  43.43500 14.93000 29.69400
C  44.60900 15.76200 29.67800
C  42.07900 13.87300 27.75200
C  42.84600 14.92100 31.05300
O  41.81800 14.40600 31.45800
C  43.85800 15.81200 31.92800
C  43.06800 16.98600 32.43300
O  42.76800 17.94300 31.77300
O  42.67700 16.81100 33.74400
C  41.89200 17.89200 34.38700
H  49.70400 19.19600 31.01700
H  49.29200 17.92100 24.56000
H  43.79400 14.83500 25.62200
H  45.70900 18.07700 33.11500
H  48.57300 18.06000 32.92200
H  46.79300 20.31200 33.34500
H  47.82700 20.59400 31.99900
H  48.50200 19.95000 33.48900
H  47.90200 16.01600 33.78000
H  46.46800 15.32100 33.13000
H  46.91800 15.77000 35.63800
H  45.41100 15.49100 34.96700
H  52.67100 19.72800 28.82200
H  51.69600 19.60500 30.19700
H  51.47900 20.96400 29.15400
H  52.74100 20.76500 26.67400
H  53.37400 20.11000 25.20200
H  53.46800 19.08400 26.70600
H  47.80900 16.28300 23.17900
H  44.93800 16.10400 23.65100
H  46.33500 18.87400 24.01800
H  45.66500 17.84700 22.65400
H  47.29300 18.57800 22.64300
H  46.70900 13.77000 24.35900
H  46.69000 14.32200 22.74800
H  43.94800 13.74600 23.84800
H  45.15400 12.42400 23.66500
H  44.71400 13.39600 22.27100
H  41.50800 13.56000 28.62600
H  42.28700 13.08800 27.02400
H  41.39800 14.55500 27.24400
H  44.01900 15.20500 32.81900
H  42.24700 18.88500 34.11300
H  42.15200 17.75200 35.43700
H  40.80400 17.83800 34.35500

