158

Mg -2.37400 17.31000 26.63100
C  -2.52700 15.08300 29.15700
C  -2.56600 19.87400 28.81300
C  -2.36900 19.52100 23.86500
C  -2.86200 14.75900 24.26400
N  -2.47500 17.47500 28.75500
C  -2.46000 16.40700 29.62500
C  -2.46800 16.89700 31.15500
C  -2.72300 18.43300 30.93900
C  -2.53400 18.59200 29.38700
C  -4.00000 19.07300 31.56900
C  -1.22700 16.42300 32.02500
C  -0.70500 17.37800 33.11600
H  -0.37500 16.61600 34.40000
N  -2.40200 19.40200 26.41500
C  -2.48200 20.29300 27.44500
C  -2.41000 21.66100 26.89100
C  -2.25900 21.58900 25.50000
C  -2.28800 20.15200 25.18900
C  -2.51000 22.88700 27.76500
C  -1.97300 22.62400 24.47700
O  -1.82300 22.30700 23.29400
C  -1.90200 24.08500 24.83500
N  -2.71900 17.20000 24.30700
C  -2.57700 18.24700 23.48000
C  -2.60400 17.75400 22.00800
C  -2.83800 16.26000 22.12900
C  -2.84500 16.04000 23.64800
C  -3.76600 18.37100 21.08600
C  -1.93100 15.32400 21.22000
C  -2.51400 14.59800 19.96000
N  -2.63400 15.33900 26.66900
C  -2.72400 14.37400 25.66700
C  -2.70900 13.01600 26.32900
C  -2.59900 13.26700 27.64400
C  -2.58200 14.68200 27.80500
C  -2.75700 11.67100 25.76400
C  -2.41200 12.60600 28.98600
O  -2.15400 11.43400 29.33900
C  -2.45600 13.84000 30.02500
C  -1.22800 13.60100 30.83200
O  -0.09500 13.94800 30.63100
O  -1.68000 12.89200 31.88700
C  -0.75000 12.54300 33.02000
H  -2.66700 20.68800 29.53300
H  -2.40900 20.06600 22.91900
H  -3.00300 13.92300 23.57600
H  -3.35800 16.51000 31.65000
H  -1.82800 18.93100 31.31200
H  -4.66600 19.61200 30.89600
H  -3.57000 19.82900 32.22600
H  -4.50100 18.33100 32.19100
H  -0.43600 16.32600 31.28100
H  -1.27500 15.47100 32.55300
H  -1.47800 18.11900 33.31700
H  0.28100 17.75700 32.84500
H  -1.56000 23.37500 27.98300
H  -2.85600 22.55100 28.74300
H  -3.30700 23.57100 27.47200
H  -2.81600 24.39700 25.34100
H  -1.73800 24.70100 23.95100
H  -0.97800 24.21800 25.39800
H  -1.65200 18.06200 21.57700
H  -3.85700 15.96400 21.87800
H  -3.41200 18.47700 20.06100
H  -4.08000 19.33000 21.50000
H  -4.65000 17.73400 21.06500
H  -1.35200 14.63500 21.83400
H  -1.24400 16.03600 20.76400
H  -2.12600 13.58500 19.84900
H  -2.27800 15.24300 19.11400
H  -3.60200 14.57100 19.90400
H  -1.78300 11.18100 25.77100
H  -3.26700 11.75100 24.80400
H  -3.37200 11.04500 26.41000
H  -3.36900 13.72700 30.60900
H  0.01800 11.82100 32.74200
H  -1.18800 11.94100 33.81700
H  -0.21800 13.44100 33.33500
Mg 52.93000 23.95500 45.64100
C  50.79000 26.47900 44.39500
C  51.05800 21.62400 44.14100
C  55.44800 21.99000 45.93500
C  54.84500 26.62800 46.92500
N  51.30800 24.10700 44.16700
C  50.60300 25.23700 43.80600
C  49.67600 24.82400 42.67900
C  49.32500 23.33000 43.08700
C  50.68500 22.98000 43.79500
C  48.13400 23.23100 44.08500
C  50.37300 24.84800 41.27300
C  49.51800 25.34800 40.11700
H  50.18900 26.06400 38.99000
N  53.24100 22.01200 45.12400
C  52.27900 21.20300 44.58100
C  52.80000 19.86700 44.64300
C  54.08400 19.91400 45.23500
C  54.28200 21.33300 45.47700
C  52.08900 18.63100 44.19500
C  54.90500 18.66200 45.58300
O  54.49400 17.50400 45.30100
C  56.29700 18.73900 46.22800
N  54.88700 24.28800 46.31300
C  55.73300 23.28000 46.39400
C  57.18400 23.75100 46.84900
C  56.82500 25.11000 47.40900
C  55.47500 25.43300 46.79300
C  57.76100 22.70000 47.89200
C  57.86000 26.34400 47.27300
C  58.12300 27.20200 48.58900
N  52.83200 26.07400 45.84800
C  53.58700 26.97100 46.52000
C  53.00800 28.28000 46.54800
C  51.93400 28.13700 45.61800
C  51.81300 26.78300 45.30100
C  53.59800 29.60600 47.10100
C  50.93200 28.90200 44.93400
O  50.80700 30.12700 44.85500
C  50.06700 27.80800 44.15700
C  49.88700 28.25600 42.74200
O  50.80700 28.64700 42.04200
O  48.59300 28.25300 42.45200
C  48.12600 28.66500 41.17100
H  50.42800 20.83700 43.72100
H  56.34500 21.38800 46.09200
H  55.49400 27.40200 47.34300
H  48.71600 25.32500 42.79600
H  49.11500 22.55000 42.35500
H  47.39700 23.89900 43.63900
H  48.47500 23.67700 45.01900
H  47.83800 22.18800 44.20100
H  50.76700 23.84300 41.12000
H  51.32500 25.35000 41.44600
H  48.67200 25.91600 40.50600
H  48.99000 24.48700 39.70800
H  52.81200 17.93300 43.77300
H  51.42600 19.02000 43.42300
H  51.50700 18.16700 44.99100
H  56.78200 17.77000 46.34200
H  56.14500 19.16200 47.22100
H  57.00500 19.18000 45.52700
H  57.86000 23.81000 45.99700
H  56.52900 25.00700 48.45200
H  56.92800 22.05800 48.17700
H  58.16800 23.29500 48.71000
H  58.56300 22.06200 47.52100
H  57.45600 26.99300 46.49500
H  58.80900 25.94100 46.92100
H  59.19400 27.29800 48.76700
H  57.68200 26.80700 49.50400
H  57.79500 28.20900 48.33100
H  53.02500 29.90800 47.97700
H  53.61400 30.38800 46.34200
H  54.61300 29.42200 47.45300
H  49.06500 27.82300 44.58600
H  47.92500 29.73200 41.27200
H  47.14800 28.22600 40.97200
H  48.82200 28.46800 40.35500

