158

Mg 17.33200 -0.42700 27.41700
C  16.12000 1.45000 29.95100
C  19.56500 -1.99100 29.48700
C  18.52800 -2.02200 24.73100
C  15.32800 1.45400 25.21700
N  17.96000 -0.07600 29.48600
C  17.10500 0.64100 30.41900
C  17.50600 0.20900 31.85700
C  18.75700 -0.70600 31.66900
C  18.80900 -0.95100 30.11500
C  20.09800 -0.18100 32.24400
C  16.33100 -0.49800 32.71300
C  16.21800 0.05800 34.11300
H  17.40500 0.65200 34.90200
N  18.71000 -1.89700 27.19200
C  19.63400 -2.37800 28.14200
C  20.51600 -3.32100 27.52800
C  20.23100 -3.42500 26.12900
C  19.11800 -2.40300 25.98600
C  21.43800 -4.11600 28.43100
C  20.76900 -4.38600 25.02300
O  20.24500 -4.41900 23.89900
C  21.84800 -5.28600 25.25600
N  17.03200 -0.31200 25.25500
C  17.56900 -1.09500 24.37700
C  17.01500 -0.98000 22.99500
C  15.86400 -0.05000 23.21700
C  16.04700 0.41600 24.66000
C  18.09800 -0.49600 21.95500
C  14.49000 -0.67000 22.91100
C  14.16200 -0.67000 21.35600
N  16.17900 1.26400 27.44900
C  15.33200 1.87100 26.51400
C  14.55500 2.89300 27.20400
C  14.77900 2.77700 28.52900
C  15.84200 1.80000 28.61600
C  13.59000 3.86400 26.52400
C  14.49900 3.21400 29.78300
O  13.88500 4.20000 30.16400
C  15.19000 2.30700 30.79900
C  15.83800 3.21000 31.70800
O  16.82300 3.85400 31.42400
O  15.10800 3.41200 32.82400
C  15.54600 4.27800 33.90900
H  20.10300 -2.48700 30.29700
H  18.87900 -2.51800 23.82400
H  14.55300 2.03000 24.70800
H  17.72800 1.18800 32.28200
H  18.52000 -1.61200 32.22600
H  20.49200 -0.88300 32.98000
H  20.04600 0.80200 32.71100
H  20.91000 -0.07100 31.52600
H  16.35800 -1.58600 32.64700
H  15.45900 -0.05500 32.23200
H  15.85800 -0.76200 34.73400
H  15.40400 0.78300 34.09500
H  21.77100 -3.50300 29.26800
H  22.33000 -4.49900 27.93500
H  20.87400 -4.96900 28.80900
H  21.50500 -5.87000 26.11000
H  22.69800 -4.65100 25.50700
H  22.19300 -5.93000 24.44700
H  16.58100 -1.92200 22.65900
H  15.99900 0.79800 22.54600
H  17.92000 0.50600 21.56400
H  18.10300 -1.19900 21.12300
H  19.10400 -0.53800 22.37400
H  13.72100 -0.01800 23.32600
H  14.40600 -1.73200 23.14200
H  13.50600 0.11900 20.98900
H  13.68400 -1.64900 21.31200
H  15.08100 -0.75300 20.77500
H  14.13400 4.66100 26.01700
H  12.82500 4.21500 27.21600
H  12.99900 3.17600 25.91900
H  14.41500 1.79700 31.37200
H  16.06800 3.64100 34.62300
H  14.64000 4.71900 34.32400
H  16.30400 5.03400 33.70100
Mg -11.62800 16.93800 42.69100
C  -8.55100 15.34600 42.24100
C  -10.28000 19.75700 41.29300
C  -14.78800 17.86100 41.90200
C  -12.91700 13.73300 43.68100
N  -9.68700 17.43400 41.84300
C  -8.58400 16.66700 41.80600
C  -7.35700 17.43300 41.26300
C  -7.81800 18.90300 41.34800
C  -9.34400 18.69500 41.48600
C  -7.25300 19.80400 42.48500
C  -6.90300 16.85100 39.81300
C  -5.39100 16.98500 39.56900
H  -4.99500 17.43400 38.19300
N  -12.41400 18.65100 41.74000
C  -11.69200 19.72700 41.30200
C  -12.63400 20.69000 40.83600
C  -13.96200 20.03600 40.84700
C  -13.76000 18.73500 41.51100
C  -12.20300 21.95700 40.18000
C  -15.20100 20.75400 40.29200
O  -15.09100 21.89400 39.87200
C  -16.57400 20.02800 40.19900
N  -13.60200 15.94700 42.85400
C  -14.73400 16.57700 42.42200
C  -15.97900 15.72300 42.71900
C  -15.31700 14.37800 43.23200
C  -13.85200 14.71400 43.24500
C  -17.05400 16.39200 43.66300
C  -15.69000 13.08500 42.45600
C  -16.12300 11.95300 43.39900
N  -10.92900 14.99100 43.03400
C  -11.49600 13.83600 43.52300
C  -10.51400 12.71900 43.68700
C  -9.30300 13.31700 43.17200
C  -9.61200 14.67300 42.78200
C  -10.80900 11.28400 44.09600
C  -7.99000 12.97000 42.82000
O  -7.28900 11.96500 42.92600
C  -7.37400 14.34000 42.30900
C  -6.32300 14.78000 43.34100
O  -6.66600 15.42500 44.33600
O  -5.03600 14.37300 43.09600
C  -4.04600 14.66200 44.07700
H  -9.81500 20.70900 41.03000
H  -15.79400 18.21200 41.66600
H  -13.31300 12.74700 43.93100
H  -6.51100 17.25500 41.92700
H  -7.42300 19.48600 40.51600
H  -8.11000 20.00400 43.12900
H  -6.88300 20.79400 42.21900
H  -6.43700 19.30400 43.00600
H  -7.37100 17.37800 38.98100
H  -7.27500 15.82800 39.76800
H  -4.98200 16.01800 39.86300
H  -5.00800 17.72400 40.27300
H  -12.71300 22.76000 40.71200
H  -12.57200 21.87000 39.15800
H  -11.13700 22.18400 40.20900
H  -16.49500 19.16700 39.53500
H  -17.28600 20.72600 39.75800
H  -17.09700 19.91700 41.14900
H  -16.43300 15.54700 41.74300
H  -15.53900 14.30900 44.29700
H  -17.98900 16.56800 43.13300
H  -16.59900 17.34600 43.93100
H  -17.05200 15.82600 44.59500
H  -14.89600 12.69600 41.81900
H  -16.60800 13.23000 41.88800
H  -17.16800 12.09700 43.67400
H  -15.62000 11.91200 44.36500
H  -15.97600 11.00200 42.88900
H  -9.83500 10.80000 44.17500
H  -11.24800 10.73700 43.26100
H  -11.30700 11.22700 45.06300
H  -6.78900 14.16800 41.40600
H  -3.87800 15.72700 43.92300
H  -3.14700 14.05600 43.97200
H  -4.33300 14.48500 45.11400

