158

Mg 36.13200 2.92800 30.52500
C  33.46400 3.85500 32.57600
C  38.24200 3.33300 33.19900
C  38.75600 2.28400 28.38800
C  34.01500 2.95700 27.68800
N  35.89600 3.72300 32.51100
C  34.67600 3.82300 33.20400
C  34.87700 3.81900 34.70200
C  36.37600 4.20000 34.79000
C  36.91700 3.79300 33.44500
C  36.52700 5.63100 35.10700
C  34.56900 2.40200 35.33000
C  34.09200 2.35200 36.79800
H  34.90500 3.28600 37.77900
N  38.14400 2.50000 30.81600
C  38.82500 2.76000 31.99300
C  40.13000 2.17500 31.75500
C  40.24100 1.81600 30.39400
C  39.02000 2.25100 29.78900
C  41.20500 2.17100 32.76000
C  41.42700 1.00700 29.63000
O  41.39400 0.78000 28.41600
C  42.73200 0.64200 30.33700
N  36.40500 2.82700 28.38700
C  37.56200 2.58800 27.72100
C  37.41500 2.32900 26.23000
C  35.88200 2.35500 26.03800
C  35.37600 2.68000 27.50000
C  38.17600 3.42100 25.44000
C  35.37500 0.95600 25.58700
C  33.96600 1.00700 24.96500
N  34.20200 3.40400 30.16600
C  33.43000 3.20100 28.97700
C  32.03400 3.45700 29.33500
C  32.05400 3.75100 30.72100
C  33.33100 3.62800 31.17700
C  30.83500 3.38400 28.45500
C  31.22400 4.18700 31.86500
O  30.03200 4.39100 31.88000
C  32.11000 4.22000 33.12000
C  32.03200 5.55600 33.80200
O  32.27900 6.66500 33.32500
O  31.73200 5.35900 35.12500
C  31.84500 6.57600 35.90400
H  38.95500 3.30800 34.02600
H  39.58000 1.94500 27.75600
H  33.27800 2.95000 26.88300
H  34.28800 4.59000 35.19800
H  36.95200 3.67200 35.55000
H  36.93900 6.29000 34.34200
H  37.14300 5.74100 36.00000
H  35.56800 6.08900 35.34800
H  35.41500 1.74300 35.13000
H  33.68800 2.01100 34.82100
H  34.23500 1.31700 37.10800
H  33.06800 2.69900 36.93800
H  41.59700 1.16100 32.88300
H  40.77800 2.43500 33.72800
H  42.04400 2.81800 32.50400
H  43.35000 1.54000 30.33700
H  43.35700 -0.02300 29.74000
H  42.73100 0.13700 31.30300
H  37.68500 1.30000 25.99300
H  35.55900 3.15700 25.37400
H  39.19900 3.06000 25.33500
H  38.16200 4.39400 25.93200
H  37.75500 3.33400 24.43900
H  35.37500 0.21400 26.38500
H  35.98400 0.47900 24.81900
H  33.59700 2.02000 24.80200
H  33.13200 0.55200 25.49900
H  33.95500 0.43700 24.03600
H  31.17100 2.75200 27.63200
H  30.45700 4.31900 28.04200
H  30.01400 2.89900 28.98300
H  31.63600 3.47400 33.75800
H  30.90000 7.11000 35.80300
H  32.74300 7.19100 35.84600
H  31.81100 6.22400 36.93500
Mg -4.94900 25.89700 26.48300
C  -3.79100 27.49000 29.44900
C  -6.66400 23.62600 28.52900
C  -5.78400 24.12100 23.75600
C  -2.87600 27.92900 24.66500
N  -5.28500 25.72000 28.70900
C  -4.71800 26.49100 29.72500
C  -5.24600 26.12300 31.12900
C  -5.78600 24.64100 30.78200
C  -5.92700 24.61600 29.23800
C  -4.86000 23.53000 31.30800
C  -6.43800 27.06600 31.59400
C  -6.76500 26.94800 33.10500
H  -6.21400 25.72100 33.88400
N  -6.11300 24.14000 26.16700
C  -6.73800 23.41600 27.14300
C  -7.64500 22.48300 26.45500
C  -7.39600 22.63100 25.09000
C  -6.43600 23.67500 24.91800
C  -8.74500 21.63000 27.22100
C  -8.14900 22.04800 23.92700
O  -7.81900 22.23400 22.77000
C  -9.34200 21.12200 24.14500
N  -4.49600 26.10100 24.49800
C  -4.86900 25.19600 23.51300
C  -4.16900 25.54800 22.20000
C  -3.53800 26.87600 22.49200
C  -3.60500 26.97000 23.98500
C  -3.26400 24.36500 21.68500
C  -4.37800 28.02400 21.87700
C  -3.73400 28.68600 20.63900
N  -3.61700 27.36100 26.88800
C  -2.88500 28.14100 26.06200
C  -2.18100 29.21900 26.70400
C  -2.49800 28.93800 28.04700
C  -3.37500 27.85200 28.14500
C  -1.29800 30.30000 26.14100
C  -2.23700 29.40000 29.38100
O  -1.48900 30.29100 29.74400
C  -3.12400 28.57200 30.38900
C  -2.31300 28.04900 31.45300
O  -1.28700 27.40300 31.30900
O  -2.94600 28.38800 32.71700
C  -2.47400 27.81600 33.99600
H  -7.16600 22.85200 29.11400
H  -5.91100 23.53700 22.84200
H  -2.28300 28.69500 24.16200
H  -4.48100 26.22700 31.89900
H  -6.74900 24.55800 31.28700
H  -4.02200 23.86600 31.92000
H  -4.55000 23.05500 30.37800
H  -5.34700 22.72500 31.85800
H  -7.35200 26.84600 31.04200
H  -6.12000 28.08300 31.36400
H  -7.85200 26.95900 33.18700
H  -6.41000 27.91900 33.44900
H  -9.53000 22.33900 27.48300
H  -8.37500 21.18200 28.14400
H  -9.27700 20.89300 26.61900
H  -10.12100 21.56300 24.76600
H  -8.98900 20.25800 24.70700
H  -9.63800 20.80000 23.14600
H  -4.95900 25.60000 21.45100
H  -2.47700 27.00200 22.27500
H  -3.19600 23.54200 22.39600
H  -2.22300 24.66600 21.57000
H  -3.71300 24.15400 20.71500
H  -4.55200 28.77800 22.64500
H  -5.40800 27.68300 21.77000
H  -3.17700 29.56300 20.96900
H  -4.52100 28.97900 19.94300
H  -3.06000 28.02300 20.09700
H  -0.72400 29.74400 25.39900
H  -0.61800 30.75200 26.86200
H  -1.95900 31.01400 25.65100
H  -3.99900 29.11900 30.74000
H  -2.91400 26.84300 34.21400
H  -2.70300 28.56500 34.75400
H  -1.39900 27.66300 33.90000

