158

Mg 30.48800 58.53500 40.60500
C  27.89700 56.28900 39.46500
C  32.70400 56.21400 39.28100
C  32.82200 60.69000 41.00400
C  27.98700 60.85000 41.16700
N  30.23500 56.55300 39.47200
C  29.17000 55.89300 39.01200
C  29.52300 54.62100 38.18900
C  31.05500 54.48300 38.47500
C  31.39700 55.79900 39.13100
C  31.54100 53.40600 39.47400
C  29.25300 54.77800 36.61800
C  28.00800 54.17600 36.05500
H  27.04700 55.00700 35.22300
N  32.48300 58.51600 40.22000
C  33.24700 57.48500 39.75000
C  34.66700 57.95700 39.62100
C  34.74900 59.11800 40.37800
C  33.33500 59.53300 40.55200
C  35.73400 57.13200 39.14500
C  36.01100 59.83700 40.85500
O  37.14300 59.41100 40.58100
C  36.02300 61.06400 41.65100
N  30.41600 60.54100 40.93600
C  31.52400 61.23200 41.22300
C  31.23700 62.69200 41.52900
C  29.66700 62.71900 41.61000
C  29.30600 61.32200 41.25100
C  32.02300 63.25700 42.77800
C  28.85700 63.79600 40.73800
C  27.56400 64.43600 41.33800
N  28.41400 58.58200 40.43000
C  27.55700 59.56300 40.82400
C  26.15900 59.12100 40.70200
C  26.29400 57.83600 40.19000
C  27.64300 57.52000 40.03600
C  25.00700 59.88900 41.17900
C  25.50300 56.73300 39.61800
O  24.31600 56.57700 39.46200
C  26.58300 55.60600 39.14400
C  26.41600 54.40400 40.04900
O  26.75200 54.32000 41.20600
O  25.58500 53.55500 39.38200
C  25.03100 52.49200 40.16600
H  33.43400 55.61200 38.73700
H  33.52300 61.49000 41.25000
H  27.25800 61.60800 41.45800
H  28.87300 53.79400 38.47600
H  31.58600 54.43300 37.52500
H  32.58300 53.15300 39.27600
H  30.86500 52.56200 39.33600
H  31.39100 53.76700 40.49200
H  30.05500 54.37800 35.99600
H  29.40400 55.83100 36.38200
H  27.36500 53.89400 36.88800
H  28.17900 53.20400 35.59300
H  35.38800 56.63300 38.24000
H  36.04600 56.36200 39.85000
H  36.64600 57.63700 38.82900
H  35.87500 61.99800 41.11000
H  36.99200 61.06600 42.15100
H  35.31800 60.99200 42.47900
H  31.63200 63.31300 40.72500
H  29.38100 62.97400 42.63000
H  32.76000 62.47200 42.95300
H  31.37700 63.34000 43.65200
H  32.57700 64.14500 42.47400
H  28.51400 63.28800 39.83600
H  29.50000 64.63200 40.46400
H  26.70700 64.46100 40.66400
H  27.73600 65.47300 41.62800
H  27.29900 63.84100 42.21100
H  24.28100 59.07900 41.25400
H  24.77300 60.66400 40.44900
H  25.17600 60.33400 42.15900
H  26.46400 55.43200 38.07400
H  25.84700 51.88600 40.55900
H  24.36700 51.78700 39.66600
H  24.51400 52.81600 41.06900
Mg -9.65500 40.55100 39.50600
C  -8.61700 37.38600 38.68300
C  -6.55300 41.71700 38.73100
C  -10.91900 43.65700 39.57200
C  -12.89400 39.23300 39.96300
N  -7.81200 39.57700 38.78400
C  -7.58300 38.24800 38.55600
C  -6.04500 38.00800 38.12900
C  -5.41900 39.41100 38.40400
C  -6.66300 40.29200 38.63800
C  -4.49800 39.48700 39.69900
C  -5.89300 37.45200 36.65400
C  -6.69700 38.26400 35.54400
H  -7.58500 37.42100 34.64000
N  -8.91200 42.45200 39.05500
C  -7.58500 42.72900 38.80800
C  -7.39300 44.13600 38.58000
C  -8.59300 44.78200 39.08800
C  -9.52600 43.66400 39.30600
C  -6.13400 44.77600 38.17900
C  -8.79300 46.23900 39.21400
O  -8.03400 47.03700 38.66000
C  -9.92100 46.75300 39.97000
N  -11.69800 41.30500 39.48000
C  -11.86000 42.60000 39.65100
C  -13.36700 42.92900 39.84800
C  -14.01300 41.53500 40.05800
C  -12.78700 40.58600 39.94800
C  -13.64400 43.81600 41.06200
C  -15.21400 41.11700 39.20000
C  -16.49500 40.71500 39.97300
N  -10.56600 38.69000 39.45600
C  -11.88900 38.35400 39.61300
C  -12.09300 36.93500 39.48300
C  -10.77900 36.45300 39.07700
C  -9.90000 37.61400 39.08100
C  -13.35900 36.14900 39.68100
C  -10.02600 35.27800 38.72900
O  -10.39600 34.10400 38.72300
C  -8.52100 35.85600 38.50000
C  -7.53800 35.05500 39.33700
O  -7.72100 34.90400 40.54300
O  -6.48300 34.48700 38.65800
C  -5.37500 34.03700 39.49000
H  -5.52500 42.08300 38.69200
H  -11.23600 44.67400 39.81000
H  -13.87200 38.75000 40.01100
H  -5.73100 37.23300 38.82700
H  -4.81500 39.72500 37.55200
H  -4.98600 40.13200 40.42900
H  -3.45600 39.71500 39.47300
H  -4.50700 38.45400 40.04700
H  -6.09400 36.38600 36.54900
H  -4.83900 37.55800 36.39900
H  -5.94800 38.59500 34.82500
H  -7.31300 39.06800 35.94600
H  -6.38400 45.56300 37.46700
H  -5.36200 44.04500 37.93800
H  -5.77400 45.31700 39.05400
H  -9.99000 46.16400 40.88500
H  -10.84400 46.59600 39.41200
H  -9.80400 47.82000 40.15700
H  -13.73900 43.34800 38.91300
H  -14.28900 41.38600 41.10200
H  -14.31100 43.42100 41.82800
H  -14.01000 44.80200 40.77500
H  -12.66600 43.89200 41.53600
H  -14.85400 40.28300 38.59800
H  -15.38000 41.92300 38.48500
H  -17.19600 41.50200 39.69400
H  -16.27700 40.62900 41.03700
H  -16.83100 39.79800 39.48700
H  -14.22700 36.29400 39.03900
H  -13.76300 36.53500 40.61700
H  -13.04600 35.10500 39.69900
H  -8.30500 35.57100 37.47000
H  -4.46800 34.22500 38.91600
H  -5.46300 32.97400 39.71500
H  -5.41400 34.54100 40.45500

