158

Mg 17.06400 51.19200 25.96900
C  18.86800 49.96500 28.69700
C  14.76400 52.43600 28.16700
C  15.21500 52.23600 23.38200
C  19.50000 49.93700 23.91100
N  16.89100 51.18700 28.18200
C  17.71800 50.66400 29.09500
C  17.21100 50.94600 30.58700
C  15.73700 51.48600 30.32800
C  15.82800 51.78500 28.82700
C  14.63400 50.59400 30.79100
C  18.22900 51.92300 31.27100
C  17.90700 52.52100 32.63600
H  16.92200 51.74400 33.51600
N  15.33800 52.32600 25.80700
C  14.54100 52.75700 26.82300
C  13.40300 53.43300 26.31700
C  13.49500 53.45900 24.87900
C  14.75000 52.65000 24.59000
C  12.42900 54.01700 27.17100
C  12.71900 54.23700 23.83800
O  13.00100 54.11300 22.66200
C  11.36700 54.92900 24.16900
N  17.30400 51.07500 23.99400
C  16.35200 51.52500 23.10600
C  16.97900 51.37200 21.66700
C  18.48400 51.04900 21.83500
C  18.45600 50.69900 23.35300
C  16.10200 50.46700 20.73600
C  19.59400 52.16000 21.52600
C  20.78600 51.59300 20.72100
N  18.83200 50.12000 26.17200
C  19.66400 49.62500 25.25700
C  20.79300 48.88000 25.93000
C  20.48400 48.99900 27.31700
C  19.35500 49.78300 27.40400
C  21.98900 48.35200 25.39500
C  20.90700 48.61900 28.62800
O  21.77500 47.87400 28.96800
C  19.87700 49.32700 29.64600
C  19.29000 48.27800 30.50000
O  18.58800 47.29500 30.13800
O  19.54300 48.57300 31.80500
C  18.92200 47.76600 32.88200
H  13.95800 52.79900 28.80800
H  14.68400 52.66400 22.53000
H  20.16800 49.55500 23.13600
H  17.23800 49.98800 31.10500
H  15.53900 52.43200 30.83200
H  14.24700 50.07700 29.91300
H  13.88500 51.22100 31.27500
H  15.04500 49.73900 31.32700
H  18.75700 52.50300 30.51400
H  19.06500 51.27700 31.53900
H  17.38200 53.47100 32.53700
H  18.74700 52.55200 33.33000
H  11.48700 53.47600 27.27000
H  12.23200 55.01700 26.78400
H  12.77900 54.29700 28.16400
H  11.66600 55.80500 24.74600
H  10.81500 54.33200 24.89400
H  10.83900 55.15300 23.24200
H  17.06900 52.31700 21.13100
H  18.70000 50.17300 21.22400
H  15.70500 51.04400 19.90100
H  15.24500 50.09700 21.29900
H  16.69700 49.66100 20.30800
H  19.96100 52.64600 22.43000
H  19.06200 52.91400 20.94700
H  20.73000 51.81200 19.65400
H  20.95100 50.51700 20.67900
H  21.68800 52.10200 21.05800
H  22.84700 49.00400 25.55600
H  21.83000 48.04500 24.36100
H  22.19700 47.39800 25.87900
H  20.32400 50.12200 30.24400
H  19.53400 46.98200 33.32700
H  18.04000 47.28800 32.45400
H  18.52600 48.40900 33.66700
Mg -2.65100 34.84800 26.95500
C  -4.37200 33.56900 29.80500
C  -1.37300 37.26900 29.05000
C  -1.47900 36.21900 24.28500
C  -4.40700 32.59700 25.06100
N  -2.81700 35.33900 29.23800
C  -3.60300 34.72400 30.16300
C  -3.41100 35.22700 31.64400
C  -2.50100 36.47200 31.28800
C  -2.15700 36.36200 29.79900
C  -3.14700 37.90400 31.65100
C  -2.78900 34.19500 32.66200
C  -2.77900 34.61200 34.19300
H  -3.37800 33.64000 35.25600
N  -1.54300 36.48900 26.69200
C  -1.03500 37.37800 27.69400
C  -0.11100 38.32300 27.06000
C  -0.20800 38.00800 25.61300
C  -1.11700 36.87500 25.42500
C  0.64800 39.40300 27.81700
C  0.69300 38.61200 24.49800
O  0.72200 38.29700 23.32500
C  1.65300 39.61700 24.89100
N  -2.94900 34.43100 24.87000
C  -2.34600 35.15700 23.96500
C  -2.42200 34.49000 22.56700
C  -3.27700 33.25800 22.89100
C  -3.62400 33.42400 24.38900
C  -2.94900 35.37800 21.41200
C  -2.54400 31.83800 22.68200
C  -3.28300 30.75200 21.96800
N  -4.15900 33.42400 27.27800
C  -4.67600 32.55500 26.42700
C  -5.60400 31.67300 27.10500
C  -5.52600 32.03800 28.41700
C  -4.61400 33.09700 28.50100
C  -6.43200 30.59600 26.49300
C  -6.02300 31.77600 29.72000
O  -6.84200 30.91500 30.01500
C  -5.30700 32.78000 30.71900
C  -6.33200 33.54400 31.45500
O  -6.91000 34.55300 31.09600
O  -6.55600 32.93100 32.68000
C  -7.60600 33.51500 33.49000
H  -0.86300 38.03400 29.63900
H  -1.05700 36.64500 23.37300
H  -4.92600 31.86000 24.44400
H  -4.39900 35.53600 31.98700
H  -1.59300 36.48500 31.89100
H  -3.07800 38.61300 30.82600
H  -2.60200 38.13200 32.56800
H  -4.23400 37.86000 31.72200
H  -1.76600 34.03400 32.32200
H  -3.42000 33.30600 32.65900
H  -3.10900 35.64600 34.29600
H  -1.72600 34.65300 34.47000
H  1.70500 39.21200 28.00100
H  0.34100 39.69600 28.82100
H  0.50600 40.27100 27.17200
H  1.14900 40.49800 25.29000
H  2.42400 39.83900 24.15400
H  2.25300 39.16400 25.68000
H  -1.40200 34.19500 22.32000
H  -4.19800 33.39800 22.32500
H  -2.93100 36.41000 21.76300
H  -3.97100 35.05800 21.21100
H  -2.43500 35.23300 20.46200
H  -2.36700 31.37800 23.65400
H  -1.52300 31.90900 22.30700
H  -4.26500 31.16500 21.73900
H  -3.51200 29.89300 22.59900
H  -2.79800 30.47000 21.03400
H  -6.93700 30.06100 27.29800
H  -5.89200 29.88600 25.86600
H  -7.14000 31.14000 25.86900
H  -4.64200 32.20400 31.36200
H  -7.51500 34.58500 33.68000
H  -7.63100 32.98300 34.44100
H  -8.59800 33.38600 33.05900

