158

Mg 1.44200 7.65400 25.72000
C  2.01600 9.71000 28.58700
C  2.00400 4.91800 27.98000
C  0.81100 5.68300 23.27100
C  1.39200 10.44200 23.74900
N  1.85600 7.38100 27.94800
C  1.86600 8.35700 28.93300
C  2.04600 7.76600 30.36800
C  2.55000 6.30700 30.01300
C  2.17500 6.14500 28.52600
C  4.02900 5.95900 30.22400
C  0.81100 7.88300 31.25800
C  0.55700 6.95400 32.44400
H  1.71400 6.48000 33.37100
N  1.42600 5.57500 25.68900
C  1.75600 4.60500 26.61200
C  1.59400 3.28300 25.99100
C  1.13700 3.45600 24.69900
C  1.06600 4.93200 24.53400
C  1.96600 2.03500 26.80000
C  0.80300 2.45600 23.65000
O  0.67800 2.77700 22.44800
C  0.73400 1.00700 24.01600
N  1.18900 7.97400 23.78900
C  0.79600 7.01500 22.94200
C  0.44000 7.66200 21.56100
C  0.67500 9.16400 21.67800
C  1.05700 9.20500 23.17700
C  1.24100 7.12000 20.37000
C  -0.58400 10.03700 21.30200
C  -0.33100 11.01500 20.13500
N  1.78000 9.58900 26.00400
C  1.71800 10.65500 25.12200
C  1.91200 11.88500 25.79200
C  2.03300 11.54500 27.14100
C  2.00100 10.20000 27.25300
C  1.89700 13.25000 25.13500
C  2.25200 12.21600 28.40900
O  2.39400 13.40100 28.74100
C  2.12100 11.07000 29.42300
C  3.20000 11.15600 30.36400
O  4.42200 11.23900 30.08200
O  2.70100 11.21500 31.62400
C  3.55400 11.60300 32.74800
H  2.19100 4.12000 28.70200
H  0.36100 5.09900 22.46600
H  1.35500 11.35300 23.14900
H  2.83600 8.30700 30.88800
H  1.93800 5.62200 30.59900
H  4.65500 6.78000 30.57400
H  4.47700 5.64700 29.28000
H  4.05400 5.16000 30.96500
H  -0.11500 7.86800 30.68300
H  0.86400 8.93100 31.55200
H  0.16200 6.08600 31.91600
H  -0.27200 7.36700 33.01900
H  1.06000 1.43600 26.70000
H  2.14000 2.20100 27.86200
H  2.77900 1.52400 26.28400
H  0.52800 0.43000 23.11400
H  -0.04900 0.73400 24.72300
H  1.70700 0.75200 24.43700
H  -0.57200 7.33400 21.32100
H  1.55600 9.60000 21.20800
H  1.21300 7.82400 19.53800
H  0.71200 6.24100 20.00200
H  2.23300 6.84500 20.73000
H  -0.82000 10.66200 22.16300
H  -1.40000 9.40400 20.95400
H  -1.11300 10.97300 19.37700
H  0.56700 10.60500 19.67100
H  -0.24900 12.02900 20.52600
H  1.86300 14.04300 25.88200
H  0.99300 13.34100 24.53400
H  2.82200 13.35500 24.56800
H  1.19700 11.20400 29.98600
H  4.44600 10.97800 32.79400
H  3.01500 11.42300 33.67900
H  3.93200 12.62200 32.66600
Mg 0.04100 42.41500 26.48100
C  2.36200 41.89100 29.04900
C  -2.46900 41.52900 28.67800
C  -2.21000 42.27000 23.98900
C  2.67500 42.63600 24.31900
N  -0.01900 41.54100 28.56100
C  0.99700 41.68300 29.37100
C  0.51000 41.81700 30.86700
C  -0.99900 41.32600 30.69300
C  -1.21500 41.42100 29.21800
C  -1.18700 39.84400 31.04700
C  0.72700 43.29500 31.36200
C  0.93500 43.42300 32.87500
H  0.38900 42.41300 33.91300
N  -2.00400 41.92100 26.27500
C  -2.80300 41.71500 27.38600
C  -4.25700 41.74700 26.95900
C  -4.22100 41.85400 25.54900
C  -2.80800 42.00100 25.17200
C  -5.44100 41.65400 27.93400
C  -5.41800 41.91000 24.57800
O  -5.26600 41.95300 23.34800
C  -6.89000 41.90300 25.02800
N  0.22500 42.23700 24.43300
C  -0.85800 42.36600 23.59500
C  -0.39900 42.56000 22.15300
C  1.19300 42.50500 22.33600
C  1.41300 42.49000 23.77000
C  -1.03200 41.57000 21.08500
C  1.89800 43.70500 21.55200
C  1.52100 45.18400 22.04200
N  2.10700 42.39800 26.60900
C  3.04900 42.54900 25.67400
C  4.41100 42.50300 26.20000
C  4.16200 42.24300 27.54300
C  2.73100 42.13000 27.72800
C  5.71100 42.60300 25.40800
C  4.78100 41.93100 28.83000
O  5.99900 41.59400 29.05700
C  3.55300 41.91400 29.84800
C  3.66600 40.69500 30.74300
O  2.94600 39.71600 30.76000
O  4.83700 40.79300 31.46200
C  4.93600 39.81500 32.55400
H  -3.19500 41.57400 29.49300
H  -2.95100 42.38500 23.19500
H  3.54000 42.71300 23.65700
H  0.97200 41.08700 31.53100
H  -1.71700 41.96600 31.20600
H  -0.65700 39.61000 31.97100
H  -0.85600 39.14300 30.28100
H  -2.20800 39.60000 31.33900
H  -0.14400 43.93100 31.20500
H  1.63200 43.70900 30.91800
H  0.47200 44.29500 33.33800
H  2.01000 43.49100 33.03800
H  -5.29100 42.51800 28.58100
H  -5.38500 40.85800 28.67600
H  -6.46500 41.74100 27.56800
H  -7.63600 41.86200 24.23400
H  -7.01000 42.82700 25.59300
H  -7.13400 41.00200 25.59000
H  -0.60200 43.57400 21.80900
H  1.57100 41.60500 21.85000
H  -0.24400 41.00000 20.59400
H  -1.41400 42.25600 20.32800
H  -1.74200 40.88200 21.54400
H  1.60400 43.59500 20.50800
H  2.97700 43.55300 21.58000
H  2.38900 45.81600 22.22900
H  0.82000 45.20000 22.87700
H  1.00200 45.71400 21.24300
H  5.80100 43.64900 25.11600
H  5.65400 41.97000 24.52300
H  6.62200 42.34300 25.94700
H  3.63300 42.77700 30.51000
H  5.95200 39.42200 32.52100
H  4.24100 38.98500 32.68100
H  4.77100 40.32600 33.50300

