158

Mg 40.68300 10.07500 29.73300
C  42.49600 10.69700 32.81400
C  38.21000 8.70600 31.79700
C  38.92200 9.28300 27.07100
C  43.44500 11.02100 27.99100
N  40.48000 9.60000 32.04300
C  41.23200 10.22300 33.01800
C  40.57800 10.07600 34.41300
C  39.30400 9.17400 34.02900
C  39.31600 9.18300 32.52100
C  39.43800 7.74500 34.59700
C  40.32700 11.36300 35.22900
C  39.72600 11.26800 36.63900
H  40.46300 11.87900 37.82600
N  38.73200 9.25600 29.49600
C  37.91100 8.72300 30.46800
C  36.71000 8.15000 29.81700
C  36.80700 8.58600 28.43400
C  38.20800 9.02900 28.26600
C  35.78100 7.33100 30.64600
C  35.71700 8.40400 27.34100
O  35.91800 8.66600 26.15900
C  34.35700 7.96700 27.67700
N  41.25300 10.02500 27.71400
C  40.23800 9.69800 26.79400
C  40.86300 9.88400 25.39000
C  42.28800 10.40200 25.67500
C  42.37200 10.52800 27.22700
C  40.86900 8.61800 24.37400
C  42.81900 11.60800 24.77900
C  42.10700 12.93800 25.09900
N  42.56000 10.72500 30.25400
C  43.63400 11.12400 29.42300
C  44.75500 11.49300 30.12500
C  44.37000 11.31700 31.50700
C  43.03900 10.83400 31.54400
C  46.01300 11.94400 29.45500
C  44.84000 11.47900 32.86100
O  45.93300 11.78800 33.29000
C  43.59000 11.20000 33.76900
C  44.00200 10.26800 34.83000
O  44.19700 9.06400 34.64900
O  43.85000 10.87100 36.05700
C  44.09800 10.02700 37.23300
H  37.50000 8.29800 32.52000
H  38.25000 9.15200 26.22000
H  44.28100 11.24500 27.32600
H  41.39000 9.52000 34.88200
H  38.39100 9.68000 34.34100
H  40.37400 7.54800 35.11900
H  39.40700 7.07000 33.74100
H  38.57100 7.60100 35.24200
H  39.62500 11.95300 34.64000
H  41.21900 11.98900 35.20700
H  39.26500 10.32300 36.92600
H  38.83300 11.88300 36.52800
H  36.40100 6.60500 31.17300
H  35.13200 6.73800 30.00200
H  35.27700 7.98500 31.35800
H  33.77100 7.98900 26.75800
H  33.89900 8.58100 28.45300
H  34.47500 6.95300 28.05800
H  40.30600 10.62400 24.81600
H  42.91700 9.52700 25.51000
H  40.33900 7.77100 24.81000
H  41.82800 8.37700 23.91700
H  40.30300 8.91600 23.49100
H  42.71100 11.43400 23.70900
H  43.86400 11.78000 25.03600
H  41.46500 13.25900 24.27800
H  42.78000 13.75400 25.36400
H  41.42300 12.79700 25.93600
H  46.74500 12.04800 30.25600
H  45.81100 12.84900 28.88200
H  46.28500 11.19000 28.71700
H  43.20700 12.10600 34.23800
H  43.50000 9.12000 37.13800
H  43.93800 10.45300 38.22300
H  45.12000 9.65200 37.18200
Mg -1.69000 33.89100 26.53900
C  -3.51500 32.39700 29.24000
C  -0.27400 35.95100 28.65500
C  -0.40000 35.37000 23.82300
C  -3.55500 31.74700 24.43100
N  -2.03800 34.27700 28.73100
C  -2.69800 33.51900 29.58700
C  -2.21800 33.80100 31.02000
C  -1.18800 35.02100 30.83100
C  -1.12400 35.06700 29.32000
C  -1.78000 36.36400 31.39400
C  -1.59100 32.55800 31.66000
C  -2.33100 31.86300 32.83500
H  -1.81500 32.09200 34.23500
N  -0.50600 35.44700 26.26400
C  0.01000 36.16600 27.29900
C  1.05100 37.11700 26.72500
C  0.91000 37.01500 25.27800
C  -0.01300 35.90100 25.07100
C  1.79200 37.98600 27.66600
C  1.63200 37.82600 24.24300
O  1.46400 37.68200 23.03100
C  2.89000 38.58500 24.70600
N  -2.00300 33.66600 24.44900
C  -1.29500 34.34100 23.49200
C  -1.60000 33.81600 22.01600
C  -2.48600 32.54500 22.28900
C  -2.71400 32.66200 23.81800
C  -2.34500 34.80500 21.07200
C  -1.75300 31.24100 21.98400
C  -2.69000 30.07900 21.60600
N  -3.28500 32.36200 26.77100
C  -3.91500 31.62700 25.77400
C  -4.85400 30.74900 26.35900
C  -4.74800 30.93700 27.78400
C  -3.77000 31.94100 27.93300
C  -5.71000 29.78000 25.64100
C  -5.20100 30.50600 29.06900
O  -5.88000 29.53400 29.33500
C  -4.34900 31.49200 30.12700
C  -5.42900 32.24100 30.87800
O  -5.97200 33.31200 30.57200
O  -5.75000 31.53500 32.02000
C  -6.58600 32.36900 32.96600
H  0.31100 36.52300 29.37800
H  0.15800 35.77600 22.97700
H  -4.04700 31.14400 23.66500
H  -3.08100 34.11900 31.60400
H  -0.25500 34.76800 31.33500
H  -2.83200 36.26700 31.66300
H  -1.87400 37.08200 30.57900
H  -1.18800 36.87400 32.15400
H  -0.54700 32.70900 31.93700
H  -1.33600 31.83900 30.88100
H  -2.36000 30.79400 32.62600
H  -3.32800 32.29100 32.72300
H  1.47000 37.85500 28.69900
H  1.37100 38.98300 27.53600
H  2.88100 38.00900 27.63100
H  2.83900 39.36600 25.46500
H  3.27900 39.06400 23.80700
H  3.58900 37.80500 25.00800
H  -0.64900 33.52000 21.57300
H  -3.47200 32.61400 21.83000
H  -2.31700 35.73700 21.63800
H  -3.37800 34.52500 20.86600
H  -1.67000 34.99200 20.23700
H  -1.32100 30.82700 22.89500
H  -0.99000 31.34300 21.21200
H  -2.90200 29.44500 22.46700
H  -2.08200 29.47700 20.93100
H  -3.63600 30.30000 21.11100
H  -5.23000 29.64300 24.67100
H  -6.71100 30.19800 25.54100
H  -5.74600 28.85600 26.21900
H  -3.86700 30.81400 30.83100
H  -5.91600 32.85000 33.67900
H  -7.27800 31.70000 33.47600
H  -7.18800 33.16500 32.52700

