158

Mg 24.84300 -6.28700 45.39500
C  27.07900 -3.92900 43.70000
C  22.36700 -5.13600 43.32100
C  23.09900 -8.97400 46.28000
C  27.78500 -7.70700 46.78800
N  24.76000 -4.75900 43.60200
C  25.80000 -3.88600 43.20800
C  25.34500 -3.05400 42.04000
C  23.74300 -3.26400 42.14100
C  23.57700 -4.45900 43.06600
C  23.05200 -1.99400 42.67800
C  25.95400 -3.58900 40.60400
C  26.48900 -2.58500 39.60300
H  26.02200 -2.76200 38.14200
N  22.98100 -6.88700 44.92700
C  22.10000 -6.29200 44.03900
C  20.79400 -6.92100 44.12200
C  20.93600 -7.97800 45.12100
C  22.41600 -7.98300 45.48000
C  19.61900 -6.45300 43.24000
C  19.82500 -8.80500 45.54100
O  18.65600 -8.72600 45.11900
C  20.12700 -9.88700 46.45000
N  25.24800 -7.98000 46.52300
C  24.38800 -8.97900 46.76900
C  25.03500 -10.27500 47.32500
C  26.38000 -9.68500 47.82000
C  26.49900 -8.39100 46.90700
C  24.23500 -11.11100 48.32700
C  27.56700 -10.68200 47.56100
C  28.82200 -10.49800 48.39400
N  26.92500 -5.91800 45.38300
C  27.97300 -6.54500 46.07000
C  29.19900 -5.92100 45.79600
C  28.84500 -4.81600 44.92600
C  27.44300 -4.88800 44.66500
C  30.56500 -6.32600 46.34300
C  29.41500 -3.60800 44.32300
O  30.51400 -3.12300 44.46100
C  28.30200 -3.09100 43.33200
C  28.17500 -1.61000 43.60300
O  27.55600 -1.11800 44.49400
O  28.82600 -0.93000 42.60800
C  28.85500 0.55900 42.67900
H  21.46000 -4.72800 42.87100
H  22.59800 -9.92600 46.46800
H  28.65700 -8.29700 47.07800
H  25.64700 -2.03900 42.29900
H  23.36000 -3.51200 41.15100
H  23.80000 -1.20500 42.60800
H  22.61900 -2.07500 43.67400
H  22.24000 -1.68600 42.01900
H  25.21300 -4.18600 40.07200
H  26.68000 -4.33300 40.93100
H  27.57800 -2.58400 39.64400
H  26.11800 -1.61200 39.92600
H  18.75100 -7.11200 43.23600
H  19.98800 -6.41700 42.21500
H  19.19600 -5.47200 43.46100
H  19.26400 -10.36400 46.91400
H  20.71900 -9.50700 47.28200
H  20.54300 -10.74800 45.92500
H  25.12600 -10.93200 46.46000
H  26.27000 -9.41300 48.87000
H  24.67900 -11.13600 49.32200
H  24.09800 -12.10200 47.89300
H  23.24100 -10.69200 48.47900
H  27.95500 -10.42900 46.57400
H  27.14600 -11.68700 47.61000
H  29.17600 -11.38900 48.91200
H  28.64000 -9.74100 49.15700
H  29.66200 -10.08400 47.83600
H  30.81400 -7.35700 46.09500
H  30.52600 -6.20300 47.42600
H  31.28500 -5.58000 46.00700
H  28.61400 -3.06000 42.28800
H  29.85800 0.87600 42.96300
H  28.16400 0.92700 43.43800
H  28.69000 1.06300 41.72700
Mg -9.83300 16.84800 40.96700
C  -6.29900 16.61000 41.07000
C  -9.42900 20.22800 40.21600
C  -13.05800 16.97100 39.94200
C  -10.03800 13.49800 41.40200
N  -8.10500 18.21400 40.53300
C  -6.81500 17.85000 40.65300
C  -5.90600 19.02100 40.28800
C  -6.90600 20.23100 40.53800
C  -8.25700 19.50800 40.50100
C  -6.56200 21.15300 41.83200
C  -5.37500 19.06600 38.81500
C  -3.76700 18.85600 38.62000
H  -3.37300 17.57600 37.98700
N  -11.12900 18.44000 40.23500
C  -10.75600 19.69200 39.97600
C  -11.85500 20.44900 39.55200
C  -12.95800 19.55400 39.53900
C  -12.43400 18.26600 39.93700
C  -11.76300 21.95000 39.29500
C  -14.32200 19.92500 38.97200
O  -14.67100 21.06200 38.77300
C  -15.39500 18.90100 38.73000
N  -11.26800 15.31400 40.27500
C  -12.51900 15.69200 40.16700
C  -13.52900 14.59200 40.58400
C  -12.51900 13.38500 40.87400
C  -11.23500 14.11700 40.89800
C  -14.44000 14.93300 41.77600
C  -12.37200 12.21600 39.87200
C  -12.92600 10.89800 40.30000
N  -8.50600 15.30000 41.16000
C  -8.71600 13.94000 41.36700
C  -7.46900 13.28400 41.65100
C  -6.50600 14.28100 41.53300
C  -7.16100 15.51000 41.26200
C  -7.35300 11.84000 42.03500
C  -5.07500 14.54100 41.69100
O  -4.22300 13.80200 42.08900
C  -4.91500 16.17300 41.41700
C  -4.54100 16.74000 42.75900
O  -5.25600 17.02100 43.69500
O  -3.18300 16.75600 42.70700
C  -2.54800 17.20500 43.82500
H  -9.14300 21.28100 40.25500
H  -14.14500 17.03600 40.02700
H  -10.13000 12.46300 41.73900
H  -5.04500 19.11900 40.94800
H  -6.92300 20.91100 39.68700
H  -6.64900 22.22900 41.68000
H  -5.55300 20.98100 42.20700
H  -7.31700 20.93100 42.58700
H  -5.50400 20.05000 38.36300
H  -5.90800 18.32600 38.21800
H  -3.25200 18.88400 39.58000
H  -3.28400 19.67500 38.08700
H  -12.11500 22.53100 40.14800
H  -12.36400 22.21000 38.42400
H  -10.70700 22.21500 39.23200
H  -16.26700 19.35200 38.25700
H  -15.71200 18.50700 39.69600
H  -15.03100 18.06300 38.13500
H  -14.12900 14.36900 39.70200
H  -12.57800 13.06400 41.91400
H  -14.22000 14.48400 42.74400
H  -15.43800 14.56300 41.54100
H  -14.40900 16.01700 41.88800
H  -11.33600 11.93600 39.68300
H  -12.86400 12.40100 38.91800
H  -13.01800 10.84700 41.38500
H  -12.17700 10.13100 40.10300
H  -13.83600 10.59000 39.78500
H  -8.35400 11.41200 42.07800
H  -6.72200 11.63300 42.89900
H  -6.91000 11.41500 41.13400
H  -4.31100 16.37500 40.53200
H  -2.96300 16.67700 44.68300
H  -2.83100 18.24700 43.97000
H  -1.46400 17.11800 43.74300

