158

Mg 36.32200 49.54200 24.36700
C  36.68300 47.73500 27.25200
C  35.28200 52.24600 26.05900
C  35.55200 50.95000 21.42100
C  37.43300 46.66100 22.57200
N  35.80800 49.83500 26.47300
C  36.08900 48.96000 27.50200
C  35.68200 49.68300 28.76700
C  35.05500 51.05900 28.30800
C  35.41600 51.07900 26.84900
C  33.55300 51.18100 28.68800
C  36.90500 49.84200 29.78500
C  36.59300 50.18300 31.26900
H  35.41800 49.58600 32.15600
N  35.74200 51.44900 23.86200
C  35.36200 52.48600 24.68000
C  35.04700 53.65800 23.93900
C  34.91100 53.21300 22.58900
C  35.41400 51.78500 22.56100
C  34.86900 54.97400 24.56300
C  34.47500 53.90100 21.35400
O  34.43000 53.39400 20.26600
C  34.05500 55.40400 21.49100
N  36.40700 48.85300 22.26400
C  36.03200 49.65400 21.25600
C  36.19400 48.86800 19.92200
C  36.92400 47.58600 20.26900
C  37.01000 47.73100 21.80200
C  34.90600 48.57300 19.06500
C  38.31800 47.54400 19.55800
C  39.44900 48.46800 20.01400
N  37.00700 47.56300 24.78600
C  37.45600 46.56600 23.96200
C  37.92300 45.43700 24.77600
C  37.62600 45.84600 26.07400
C  37.11200 47.16000 26.01900
C  38.34400 44.11700 24.24600
C  37.57600 45.42200 27.44000
O  37.95500 44.33400 27.97500
C  36.91400 46.56000 28.23200
C  35.70200 46.24900 28.95800
O  34.53200 46.35200 28.54500
O  36.11200 45.83200 30.19800
C  35.04500 45.45100 31.13000
H  34.97300 53.19600 26.50100
H  35.22800 51.27300 20.43000
H  37.87100 45.74500 22.17000
H  35.01500 48.98200 29.26900
H  35.59800 51.88800 28.76300
H  33.15100 50.27900 29.14900
H  33.06300 51.49400 27.76600
H  33.47600 51.97700 29.42800
H  37.36500 50.74000 29.37200
H  37.58500 48.99300 29.72400
H  36.53400 51.25200 31.47300
H  37.45300 49.83600 31.84100
H  35.35800 55.73500 23.95400
H  35.31300 54.97300 25.55800
H  33.83900 55.30200 24.70100
H  33.51800 55.51000 20.54900
H  34.93300 56.03600 21.62700
H  33.30400 55.40400 22.28100
H  36.77300 49.40400 19.17000
H  36.37800 46.64500 20.20500
H  34.69400 47.51400 18.92200
H  35.06200 48.93500 18.04800
H  34.03700 49.11100 19.44400
H  38.12500 47.51900 18.48500
H  38.72200 46.56000 19.79900
H  39.83800 48.93200 19.10700
H  40.26100 47.83300 20.36800
H  39.15300 49.17500 20.78800
H  37.94000 44.02600 23.23800
H  37.84300 43.34500 24.83100
H  39.40500 43.86800 24.26000
H  37.66700 46.87800 28.95300
H  34.09200 45.87800 30.81700
H  35.32100 45.69000 32.15700
H  34.98400 44.36400 31.08300
Mg 26.79600 50.38000 26.82700
C  24.59500 51.40700 29.40100
C  29.03200 49.32800 29.15100
C  28.73100 49.72200 24.25500
C  24.48500 51.95700 24.52200
N  26.73300 50.45400 28.98100
C  25.76800 50.90000 29.86600
C  26.14000 50.55300 31.38100
C  27.64900 50.06300 31.24500
C  27.81600 49.90600 29.71900
C  28.66500 51.01000 31.85700
C  25.11400 49.46500 31.94300
C  24.37100 49.88900 33.26100
H  24.16500 48.97100 34.46100
N  28.57800 49.62300 26.66100
C  29.31500 49.15900 27.77800
C  30.56900 48.64300 27.27300
C  30.52800 48.72100 25.82900
C  29.29900 49.40100 25.49600
C  31.62200 48.08400 28.16800
C  31.58900 48.17100 24.86100
O  31.51100 48.27000 23.65400
C  32.74500 47.40700 25.31400
N  26.62500 50.90800 24.68700
C  27.57900 50.42800 23.85000
C  27.07500 50.52400 22.38800
C  25.61600 51.00400 22.53300
C  25.54300 51.32100 24.04600
C  28.04000 51.44000 21.57300
C  24.43100 50.04500 22.18300
C  23.41200 50.53300 21.13100
N  24.90000 51.47200 26.91700
C  24.09700 51.95700 25.90700
C  22.87200 52.55500 26.50900
C  23.00500 52.29600 27.89400
C  24.27900 51.68700 28.08300
C  21.77700 53.31300 25.71000
C  22.32500 52.45700 29.16400
O  21.29700 52.97300 29.52400
C  23.41900 51.99000 30.20400
C  23.93100 53.13000 31.04300
O  25.04200 53.71000 30.91400
O  23.09700 53.37500 32.02800
C  23.40300 54.48100 32.98200
H  29.72100 48.91300 29.89000
H  29.32700 49.35600 23.41600
H  23.73500 52.26300 23.79000
H  26.20100 51.53100 31.85800
H  27.75400 49.10600 31.75600
H  29.20300 50.42900 32.60600
H  28.24800 51.94100 32.24200
H  29.28700 51.38600 31.04400
H  25.69100 48.55400 32.10400
H  24.40000 49.22400 31.15500
H  23.41600 50.22700 32.85900
H  24.85200 50.81300 33.58100
H  31.51000 48.19800 29.24700
H  32.62100 48.50500 28.05600
H  31.86500 47.03100 28.02500
H  32.41700 46.70000 26.07700
H  33.43600 48.04700 25.86200
H  33.16100 46.94300 24.42000
H  27.21600 49.51800 21.99300
H  25.47400 51.93500 21.98400
H  29.02100 51.46600 22.04600
H  27.54600 52.36800 21.28600
H  28.15400 50.95400 20.60400
H  23.89900 49.78600 23.09800
H  24.94800 49.14000 21.86300
H  23.64800 50.15400 20.13700
H  23.54700 51.61000 21.02700
H  22.39200 50.26100 21.40000
H  21.86600 53.30800 24.62300
H  21.94900 54.33500 26.04900
H  20.80200 53.06700 26.12900
H  22.89400 51.30000 30.86400
H  23.98800 54.08200 33.81100
H  22.51400 54.86500 33.48200
H  23.80800 55.36800 32.49500

