158

Mg 17.16500 -2.72700 27.98900
C  16.22200 -0.49200 30.75600
C  19.13400 -4.32700 30.05400
C  18.13300 -4.27900 25.30600
C  15.42200 -0.37300 25.89400
N  17.61800 -2.40900 30.12900
C  17.13700 -1.53700 31.08700
C  17.67800 -1.81500 32.48000
C  18.74700 -2.91100 32.18200
C  18.52000 -3.27800 30.68500
C  20.10800 -2.38500 32.49000
C  16.48900 -2.21200 33.37500
C  16.49000 -1.88500 34.85600
H  17.67500 -1.31600 35.49100
N  18.34000 -4.09100 27.77300
C  19.03500 -4.77400 28.74900
C  19.78400 -5.89900 28.19800
C  19.53400 -5.82800 26.76500
C  18.63300 -4.70100 26.58400
C  20.92800 -6.48900 29.00500
C  20.05200 -6.76900 25.68600
O  19.85200 -6.64700 24.48900
C  20.77100 -8.04400 26.14600
N  16.89100 -2.35900 25.86000
C  17.32600 -3.23200 24.95600
C  17.20600 -2.69900 23.50500
C  16.18000 -1.58200 23.79200
C  16.10100 -1.43400 25.28500
C  18.67300 -2.24300 23.07700
C  14.82000 -1.73200 23.08400
C  13.64900 -2.25100 23.95700
N  15.97400 -0.92400 28.24100
C  15.37200 -0.07800 27.28700
C  14.71500 1.08600 27.91000
C  14.96900 0.91100 29.29600
C  15.78500 -0.25700 29.41900
C  13.87300 2.15700 27.23400
C  14.77500 1.49500 30.59300
O  14.23100 2.55700 30.85500
C  15.51600 0.57700 31.61800
C  16.29200 1.31500 32.65200
O  17.44700 1.65900 32.51500
O  15.47100 1.46300 33.77200
C  16.06900 2.28100 34.85700
H  19.79100 -4.89500 30.71600
H  18.53400 -4.84800 24.46400
H  15.02300 0.44500 25.29100
H  18.14000 -0.89900 32.84500
H  18.48000 -3.88400 32.59300
H  20.69000 -3.25500 32.79500
H  20.16000 -1.61500 33.26000
H  20.62900 -1.94900 31.63700
H  16.35600 -3.29400 33.38600
H  15.56200 -1.84500 32.93500
H  16.12600 -2.80700 35.31000
H  15.66400 -1.18000 34.94700
H  21.41700 -5.68800 29.55900
H  21.73100 -7.00000 28.47400
H  20.40300 -7.16600 29.67900
H  20.79800 -8.73200 25.30100
H  20.35200 -8.58600 26.99400
H  21.79700 -7.74300 26.36000
H  16.83600 -3.48700 22.84800
H  16.65500 -0.69700 23.36900
H  19.37000 -2.20300 23.91400
H  18.67400 -1.25900 22.61000
H  18.98900 -3.00000 22.35900
H  14.97500 -2.49400 22.32000
H  14.65800 -0.83100 22.49200
H  13.17000 -1.37700 24.39700
H  13.90200 -2.94100 24.76200
H  12.90000 -2.71100 23.31200
H  12.80300 1.97800 27.34200
H  14.15300 2.12000 26.18100
H  14.10000 3.15300 27.61300
H  14.70300 0.00800 32.06900
H  15.58000 2.05900 35.80600
H  15.77900 3.32100 34.71200
H  17.14000 2.14400 35.00800
Mg -5.51800 25.58600 27.05000
C  -3.91400 27.05700 29.84900
C  -7.13000 23.47200 29.16000
C  -6.51300 24.01700 24.32100
C  -3.40200 27.49800 25.03500
N  -5.41900 25.26100 29.26500
C  -4.80900 26.09500 30.23600
C  -5.32300 25.79400 31.69000
C  -6.23700 24.52000 31.41200
C  -6.30200 24.39600 29.84000
C  -5.75400 23.19700 32.01200
C  -6.08600 26.96300 32.34200
C  -6.20800 26.99000 33.89600
H  -5.82800 25.81100 34.75100
N  -6.67100 23.97700 26.73900
C  -7.24600 23.28800 27.75200
C  -8.02100 22.19700 27.14400
C  -7.82000 22.27700 25.76500
C  -6.93300 23.42600 25.54300
C  -8.83400 21.24600 28.03000
C  -8.27800 21.30000 24.71900
O  -8.10200 21.41500 23.51000
C  -9.07400 20.12500 25.14000
N  -5.07700 25.75100 24.99300
C  -5.73800 25.11100 24.07200
C  -5.39400 25.54000 22.72300
C  -4.52900 26.78900 22.93800
C  -4.28200 26.63100 24.37500
C  -4.57200 24.39600 21.93500
C  -5.28200 28.12200 22.60100
C  -4.93400 28.66000 21.27600
N  -4.04000 27.05700 27.33000
C  -3.24000 27.71600 26.40100
C  -2.28100 28.50700 27.09700
C  -2.54900 28.29100 28.46300
C  -3.59900 27.43700 28.55900
C  -1.28900 29.46600 26.39600
C  -2.16500 28.68700 29.86200
O  -1.25600 29.42700 30.20000
C  -3.05300 27.96400 30.75700
C  -2.32800 27.14500 31.72700
O  -1.58900 26.20300 31.43100
O  -2.64900 27.44200 33.02800
C  -1.89800 26.74800 34.07200
H  -7.72200 22.96500 29.92500
H  -7.12900 23.60000 23.52100
H  -2.74200 28.08700 24.39500
H  -4.45600 25.62600 32.32800
H  -7.22500 24.63400 31.85800
H  -4.72900 23.33000 32.35700
H  -5.81300 22.27800 31.42900
H  -6.52400 22.97700 32.75100
H  -7.06900 26.99500 31.87200
H  -5.57500 27.88700 32.06800
H  -7.23000 27.14900 34.23900
H  -5.55800 27.83000 34.14100
H  -8.40900 20.27300 28.27800
H  -9.80300 21.09500 27.55600
H  -9.04700 21.74500 28.97500
H  -9.20800 19.48700 24.26700
H  -9.98300 20.47500 25.62900
H  -8.57800 19.49800 25.88200
H  -6.28600 25.83600 22.17100
H  -3.63600 26.80200 22.31400
H  -4.49300 23.55000 22.61700
H  -3.53200 24.67100 21.76100
H  -5.03900 23.98500 21.03900
H  -4.94300 28.86600 23.32100
H  -6.36000 28.01000 22.71800
H  -4.04200 28.23400 20.81600
H  -4.91400 29.74800 21.22100
H  -5.73100 28.43000 20.56900
H  -1.69700 29.99500 25.53500
H  -0.45000 28.85000 26.07400
H  -0.91500 30.20400 27.10600
H  -3.62400 28.79100 31.17900
H  -2.41300 25.78800 34.06100
H  -1.97300 27.31000 35.00300
H  -0.84000 26.58000 33.86900

