158

Mg 48.21000 35.09900 27.15200
C  46.25000 33.43800 29.75500
C  48.19600 37.77800 29.06300
C  49.60100 36.61300 24.63900
C  47.41100 32.27000 25.12700
N  47.35700 35.51700 29.19600
C  46.81100 34.68200 30.11300
C  46.79000 35.22500 31.54300
C  47.01600 36.77900 31.21900
C  47.51700 36.74000 29.76800
C  45.93000 37.65500 31.71600
C  47.96300 34.61600 32.45500
C  47.53900 34.15800 33.87500
H  46.37200 35.00200 34.44100
N  48.99200 36.92100 26.92900
C  48.84500 37.94800 27.81400
C  49.38200 39.19500 27.22300
C  49.81500 38.83400 25.94800
C  49.49400 37.42500 25.78500
C  49.43300 40.53800 27.94600
C  50.52200 39.67600 24.92400
O  50.94900 39.26200 23.85600
C  50.73200 41.18200 25.14100
N  48.22100 34.58000 25.10000
C  49.12000 35.31000 24.34000
C  49.53200 34.56600 23.10900
C  48.92200 33.14900 23.36300
C  48.15000 33.30300 24.62700
C  48.95700 35.16200 21.80300
C  50.00800 31.95800 23.48200
C  50.23300 31.08200 22.20400
N  47.05200 33.21500 27.30300
C  46.87000 32.19600 26.42900
C  46.05000 31.21100 27.03500
C  45.80000 31.65200 28.33900
C  46.47000 32.87900 28.50700
C  45.55400 30.00600 26.37500
C  45.02600 31.34100 29.50600
O  44.24900 30.43100 29.81700
C  45.36100 32.55400 30.45400
C  46.04900 31.93600 31.70000
O  47.16200 31.47800 31.78400
O  45.09700 31.83800 32.68500
C  45.34700 30.94400 33.76700
H  48.17400 38.74200 29.57600
H  50.15400 37.09400 23.82900
H  47.41800 31.37900 24.49600
H  45.81400 35.11000 32.01600
H  47.81400 37.11500 31.88000
H  45.78400 38.43400 30.96800
H  46.01400 38.12600 32.69500
H  45.00100 37.09400 31.82400
H  48.67100 35.40100 32.71900
H  48.48900 33.87900 31.84700
H  48.38100 34.38000 34.53000
H  47.40400 33.07600 33.85800
H  50.45600 40.90400 28.03500
H  49.14700 40.51800 28.99800
H  48.88500 41.36200 27.49000
H  51.21400 41.59200 24.25300
H  51.50700 41.06900 25.89900
H  49.77300 41.62800 25.40500
H  50.61100 34.66200 22.98300
H  48.15900 32.98900 22.60100
H  49.54500 36.00200 21.43300
H  47.92800 35.51100 21.88200
H  49.00600 34.44600 20.98200
H  49.82000 31.26600 24.30200
H  50.97100 32.44000 23.64600
H  50.35300 30.04700 22.52500
H  51.09900 31.31000 21.58300
H  49.33200 31.06000 21.59100
H  44.78300 29.53100 26.98100
H  46.49500 29.45700 26.40400
H  45.20800 30.22400 25.36400
H  44.43900 33.07800 30.70700
H  44.60200 31.04900 34.55600
H  46.33600 31.08500 34.20300
H  45.41500 29.92200 33.39300
Mg 6.12200 52.94400 40.94900
C  5.03500 49.54100 40.79200
C  9.23800 51.91000 39.63700
C  6.86400 56.06800 40.52500
C  2.71500 53.67400 41.72200
N  6.94400 51.01500 40.30000
C  6.39400 49.73500 40.32900
C  7.39000 48.70100 39.82100
C  8.73700 49.47900 39.79200
C  8.28800 50.93400 39.95100
C  9.75100 49.02300 40.96300
C  7.17800 47.98100 38.48500
C  6.44900 48.78900 37.31900
H  7.26600 49.36500 36.14500
N  7.94200 53.88700 40.39400
C  9.09000 53.33500 39.83100
C  10.08400 54.34400 39.60600
C  9.36200 55.56500 39.92300
C  8.00000 55.24600 40.34600
C  11.57100 54.30300 39.33600
C  9.98200 56.93400 39.80800
O  11.10900 57.15700 39.46200
C  9.17300 58.10700 40.20800
N  4.92100 54.63400 40.88400
C  5.47200 55.80300 40.70700
C  4.35900 56.85500 40.70100
C  3.09500 56.07100 41.18300
C  3.65100 54.72400 41.39300
C  4.66400 58.13100 41.58100
C  1.94900 55.97200 40.10900
C  0.50000 56.49200 40.50300
N  4.26100 51.82500 41.37700
C  2.93300 52.29000 41.66500
C  2.12300 51.15100 41.93100
C  2.88900 50.05300 41.60200
C  4.12200 50.49400 41.19400
C  0.72000 51.09100 42.48000
C  2.83600 48.66500 41.53300
O  1.95100 47.85100 41.74900
C  4.31900 48.19800 41.02300
C  4.12000 47.37000 39.76200
O  3.68400 47.79500 38.73700
O  4.63800 46.11000 39.92700
C  4.60100 45.25200 38.73200
H  10.20200 51.49700 39.33400
H  7.00500 57.14700 40.44200
H  1.74800 54.06300 42.04900
H  7.39800 47.98100 40.64000
H  9.19400 49.29300 38.82000
H  10.69100 48.86600 40.43300
H  9.45800 48.08500 41.43300
H  9.83600 49.81200 41.71000
H  6.55300 47.11800 38.71300
H  8.12300 47.51900 38.20100
H  6.03600 49.66000 37.82800
H  5.60000 48.15100 37.07300
H  12.07600 54.69100 40.22000
H  11.80800 55.01300 38.54300
H  11.88900 53.27300 39.17500
H  8.43600 58.22400 39.41300
H  9.71400 59.04000 40.05200
H  8.93600 58.05200 41.27000
H  4.30900 57.16000 39.65600
H  2.65700 56.55600 42.05500
H  4.37100 59.01300 41.01200
H  5.71900 58.13700 41.85700
H  4.11300 58.13800 42.52100
H  1.91800 54.98700 39.64200
H  2.16000 56.64200 39.27500
H  -0.18600 55.77100 40.05900
H  0.28000 57.47100 40.07700
H  0.34600 56.56900 41.58000
H  0.08900 51.83100 41.98800
H  0.78100 51.38200 43.52900
H  0.35800 50.08300 42.27300
H  4.71200 47.48100 41.74500
H  5.07700 44.28300 38.88200
H  5.02300 45.68000 37.82200
H  3.57300 45.01200 38.46000

