158

Mg 46.41300 24.84200 28.43600
C  47.29900 26.87900 31.20300
C  45.84100 22.33300 30.67200
C  46.01700 22.83800 25.78700
C  47.71900 27.36300 26.34700
N  46.57200 24.66400 30.69000
C  46.78200 25.65000 31.57600
C  46.45700 25.22000 33.02800
C  46.18200 23.62300 32.82100
C  46.21800 23.53800 31.27200
C  47.16800 22.68500 33.52200
C  45.24400 25.99600 33.69500
C  45.45500 26.87700 35.03000
H  44.52700 26.63300 36.24600
N  45.94200 22.89300 28.28700
C  45.69700 22.01700 29.32100
C  45.24900 20.76400 28.77200
C  45.19500 20.90000 27.39900
C  45.71600 22.25800 27.09200
C  45.14200 19.51900 29.67300
C  44.75700 19.81700 26.45700
O  44.90000 19.94400 25.21100
C  44.22600 18.58100 26.92200
N  46.98600 24.97800 26.44800
C  46.55400 24.09500 25.50000
C  46.91300 24.43600 24.08900
C  47.08100 26.01500 24.24500
C  47.33400 26.18900 25.78500
C  48.11600 23.59900 23.41500
C  45.85100 26.83800 23.73300
C  44.46000 26.19900 23.98300
N  47.28600 26.74300 28.66300
C  47.80400 27.58700 27.71400
C  48.33300 28.76100 28.39500
C  48.10400 28.56400 29.78100
C  47.52900 27.29100 29.88200
C  49.02400 29.99400 27.85200
C  48.27100 29.22400 31.11400
O  48.76300 30.32900 31.41900
C  47.72900 28.08000 32.08300
C  48.82700 27.71000 33.04500
O  49.74500 26.89300 32.79500
O  48.52500 28.33500 34.25400
C  49.35700 27.91400 35.35800
H  45.42400 21.64500 31.41000
H  45.93300 22.14300 24.95000
H  47.90000 28.27800 25.78000
H  47.38800 25.21200 33.59400
H  45.12800 23.50500 33.07500
H  47.65600 23.21800 34.33900
H  47.95000 22.36300 32.83400
H  46.45400 21.92400 33.83800
H  44.52500 25.20200 33.89900
H  44.88300 26.65900 32.90900
H  45.29200 27.92900 34.79200
H  46.51200 26.86000 35.29300
H  44.13200 19.15900 29.86800
H  45.74700 19.49100 30.58000
H  45.71000 18.72900 29.18100
H  44.92800 17.90400 27.40900
H  43.76500 18.06700 26.07800
H  43.46900 18.87700 27.64900
H  45.99800 24.12400 23.58500
H  48.01400 26.32500 23.77500
H  48.87800 24.28400 23.04300
H  47.66600 23.06500 22.57800
H  48.47200 22.87500 24.14800
H  45.95100 26.94500 22.65300
H  45.84200 27.86300 24.10300
H  44.19600 25.61900 23.09900
H  43.76200 27.00900 24.19500
H  44.40400 25.47600 24.79700
H  48.49000 30.91700 28.07700
H  49.35800 29.93900 26.81600
H  49.93500 30.09000 28.44300
H  46.80700 28.30100 32.62000
H  48.92000 27.05700 35.87000
H  49.36800 28.75600 36.04900
H  50.41200 27.78000 35.11800
Mg 0.37100 44.13200 25.69500
C  2.54200 43.52300 28.30700
C  -2.25900 43.01000 27.65000
C  -1.67900 44.57200 23.06300
C  3.14400 44.67000 23.58700
N  0.18300 43.51600 27.73800
C  1.18300 43.38100 28.68100
C  0.61700 43.27300 30.11800
C  -0.85400 42.83300 29.77900
C  -1.00900 43.21300 28.30800
C  -1.23900 41.30600 29.92000
C  0.72100 44.64900 30.76300
C  0.51700 44.64000 32.30600
H  0.56100 43.29600 33.10300
N  -1.63700 43.80000 25.40400
C  -2.56600 43.38800 26.33400
C  -3.89900 43.33400 25.71000
C  -3.80700 43.81100 24.38700
C  -2.33400 44.08500 24.22000
C  -5.20700 43.01600 26.45200
C  -4.90300 44.17800 23.34100
O  -4.69500 44.74100 22.27700
C  -6.38200 43.71400 23.62300
N  0.69700 44.42000 23.54500
C  -0.31100 44.76400 22.78000
C  0.18100 45.19900 21.40800
C  1.58900 45.57000 21.76500
C  1.86700 44.73600 23.07400
C  -0.13700 44.04200 20.36000
C  1.67500 47.05200 22.12100
C  1.98800 48.02500 20.92800
N  2.46100 44.10800 25.81300
C  3.46400 44.27700 24.88000
C  4.78600 44.05700 25.50800
C  4.44300 43.86500 26.86900
C  3.07600 43.81700 27.00700
C  6.15700 44.36300 24.95900
C  4.97600 43.80200 28.25800
O  6.08700 43.84300 28.70700
C  3.79400 43.50900 29.27000
C  3.98100 42.20600 29.98800
O  3.75300 41.09400 29.57200
O  4.44700 42.38400 31.25200
C  4.48000 41.28400 32.16200
H  -3.12600 42.79600 28.28000
H  -2.37300 44.83000 22.26100
H  3.93400 45.03000 22.92500
H  1.02300 42.46800 30.73100
H  -1.62300 43.32600 30.37400
H  -1.63500 40.84600 29.01400
H  -1.97500 41.11300 30.70000
H  -0.42400 40.72400 30.35100
H  -0.12800 45.27500 30.48900
H  1.59900 45.24300 30.50900
H  -0.40500 45.18700 32.50100
H  1.30300 45.25200 32.74800
H  -6.01100 43.75200 26.42600
H  -5.01600 42.85800 27.51400
H  -5.59100 42.07200 26.06700
H  -6.83200 44.08800 24.54200
H  -6.42000 42.62500 23.66200
H  -7.14100 44.04000 22.91200
H  -0.46100 46.05400 21.19700
H  2.26800 45.34500 20.94200
H  -0.67600 44.40900 19.48600
H  -0.81600 43.33900 20.84100
H  0.69500 43.44100 19.99300
H  2.37200 47.31800 22.91600
H  0.72700 47.38000 22.54900
H  2.05200 47.43300 20.01400
H  2.92300 48.56900 21.06000
H  1.23200 48.79500 20.77600
H  6.83500 43.76800 25.57100
H  6.53900 45.37300 25.10700
H  6.27200 44.14400 23.89800
H  3.82500 44.26100 30.05900
H  5.00600 41.74700 32.99600
H  5.00800 40.43000 31.73700
H  3.46500 40.95100 32.37600

