158

Mg 7.92800 2.29700 27.87000
C  9.30200 1.15700 30.80900
C  5.88500 4.42000 29.80500
C  6.34200 3.28500 24.99700
C  9.64400 -0.15400 26.16300
N  7.63500 2.61600 30.11100
C  8.39700 2.13900 31.10700
C  8.16000 2.80900 32.41500
C  6.81700 3.65500 32.10900
C  6.69700 3.54200 30.56900
C  5.45800 3.13300 32.64900
C  9.29400 3.47500 33.13800
C  9.77800 2.98500 34.53000
H  8.73900 2.87200 35.60600
N  6.36700 3.69400 27.48900
C  5.70700 4.48100 28.39400
C  4.88900 5.36400 27.66600
C  5.08400 5.18000 26.25100
C  5.93300 4.00800 26.18600
C  4.16300 6.55300 28.35600
C  4.65300 6.03900 25.06400
O  4.84000 5.73200 23.88300
C  3.95300 7.37500 25.24600
N  7.80600 1.49800 25.97400
C  7.09600 2.11400 24.92300
C  7.41400 1.49900 23.60300
C  8.68000 0.57700 23.89000
C  8.74500 0.63600 25.45000
C  6.39500 0.88800 22.72500
C  9.94300 1.14100 23.14800
C  10.85500 2.03200 23.97900
N  9.24100 0.78100 28.34300
C  9.87200 -0.14700 27.56700
C  10.76600 -0.88800 28.32900
C  10.57100 -0.44300 29.60200
C  9.57400 0.51800 29.61600
C  11.59900 -2.03500 27.83500
C  11.02600 -0.57400 30.97300
O  11.88800 -1.26400 31.44700
C  10.15100 0.39000 31.84200
C  9.39400 -0.44100 32.79000
O  8.24800 -0.84500 32.67100
O  10.09200 -0.55000 33.97900
C  9.34800 -1.10900 35.19700
H  5.34800 5.07600 30.49400
H  5.79400 3.59500 24.10500
H  10.21300 -0.81100 25.50200
H  7.93400 1.93500 33.02600
H  6.79200 4.66000 32.53000
H  5.04900 2.60400 31.78800
H  4.82800 3.97900 32.92400
H  5.69700 2.48200 33.49000
H  9.00400 4.48900 33.41700
H  10.15400 3.55400 32.47400
H  10.59900 3.59000 34.91500
H  10.19200 1.99700 34.32800
H  4.54800 6.73400 29.36000
H  3.10200 6.30200 28.34100
H  4.38500 7.43900 27.76100
H  3.08300 7.27700 25.89600
H  3.57900 7.66400 24.26400
H  4.71900 8.05400 25.62000
H  7.60500 2.36800 22.97400
H  8.46300 -0.46500 23.65200
H  5.35600 1.02300 23.02500
H  6.65400 -0.16000 22.57400
H  6.50300 1.37400 21.75600
H  9.58900 1.53900 22.19700
H  10.52500 0.23900 22.95600
H  11.46000 2.73500 23.40700
H  11.51300 1.32900 24.49000
H  10.29900 2.63700 24.69500
H  11.98000 -2.03000 26.81400
H  11.06300 -2.97000 28.00100
H  12.48400 -2.07700 28.46900
H  10.79000 1.04200 32.43600
H  8.55800 -1.80200 34.91000
H  8.95200 -0.39500 35.91900
H  10.06200 -1.78100 35.67400
Mg 16.70500 -2.16800 28.14400
C  15.69900 -0.21600 30.77800
C  19.00600 -3.75900 30.24800
C  18.04200 -3.73700 25.56100
C  14.69700 -0.20400 26.01100
N  17.35800 -1.87500 30.28400
C  16.68700 -1.16400 31.20500
C  17.26800 -1.41000 32.65700
C  18.40000 -2.46200 32.30900
C  18.28500 -2.74100 30.83600
C  19.87000 -2.10300 32.74100
C  16.13100 -1.89300 33.64900
C  15.94800 -1.00000 34.89800
H  17.12900 -0.34200 35.70400
N  18.31900 -3.63300 27.95400
C  19.05500 -4.19100 28.91500
C  19.94500 -5.14000 28.37600
C  19.72200 -5.18000 26.95900
C  18.61700 -4.16400 26.74300
C  20.89600 -5.96400 29.29500
C  20.45500 -5.96500 25.86700
O  20.09100 -5.80100 24.74300
C  21.69900 -6.83400 26.14100
N  16.40200 -1.98100 26.03800
C  17.05000 -2.80900 25.18100
C  16.79900 -2.41700 23.80400
C  15.53800 -1.49100 23.97100
C  15.55200 -1.17300 25.46800
C  18.01800 -1.83200 23.02000
C  14.18600 -1.94100 23.42500
C  13.63100 -1.00500 22.32200
N  15.43300 -0.60600 28.28000
C  14.64700 0.02900 27.35600
C  13.80600 1.04800 28.04100
C  14.19200 0.90200 29.34000
C  15.19900 -0.01900 29.46200
C  12.84400 2.00000 27.44100
C  13.93900 1.52200 30.64800
O  13.23300 2.44000 31.00800
C  14.84300 0.64900 31.69200
C  15.57400 1.62700 32.51800
O  16.74400 1.88300 32.43300
O  14.66000 2.16900 33.45000
C  15.21800 3.14800 34.40500
H  19.71900 -4.35600 30.82100
H  18.29700 -4.32600 24.67700
H  14.10400 0.39800 25.32000
H  17.76400 -0.54500 33.09600
H  18.05700 -3.34900 32.84200
H  19.98600 -1.13500 33.23000
H  20.51800 -2.12100 31.86500
H  20.17300 -2.84700 33.47800
H  16.27300 -2.93900 33.92100
H  15.21400 -1.85200 33.06100
H  15.44100 -1.62100 35.63600
H  15.27400 -0.19400 34.60900
H  21.20000 -6.89200 28.81300
H  20.62900 -6.10800 30.34200
H  21.82600 -5.39700 29.32900
H  21.36700 -7.76900 26.59100
H  22.31200 -6.33500 26.89300
H  22.29700 -6.99900 25.24400
H  16.54900 -3.35200 23.30200
H  15.85900 -0.58600 23.45500
H  18.87700 -2.01000 23.66800
H  17.92200 -0.75200 22.90300
H  18.03200 -2.21200 21.99900
H  13.54700 -2.14800 24.28400
H  14.36000 -2.91500 22.96800
H  14.39900 -0.42200 21.81300
H  13.09900 -0.24100 22.88900
H  12.94700 -1.56100 21.68200
H  12.16900 2.35200 28.22100
H  12.22000 1.45500 26.73200
H  13.32800 2.83400 26.93400
H  14.09200 0.12500 32.28300
H  14.97700 4.12000 33.97600
H  16.27000 3.15000 34.68900
H  14.59100 3.11600 35.29600

