158

Mg 48.36800 45.25800 42.42000
C  45.10800 45.82600 40.95300
C  48.33500 42.26300 40.97200
C  51.67800 45.34700 42.44300
C  48.15700 48.61700 43.51400
N  46.92700 44.26600 40.97700
C  45.58800 44.57900 40.58600
C  44.88000 43.43900 39.84500
C  45.81700 42.23700 40.23300
C  47.16200 42.92600 40.78300
C  45.24200 41.27900 41.34900
C  44.70900 43.82500 38.36800
C  43.52700 43.20800 37.68800
H  43.75900 42.70200 36.24800
N  49.81700 43.90400 42.00200
C  49.55300 42.66100 41.34200
C  50.86000 41.94000 41.19300
C  51.84900 42.90400 41.69500
C  51.13800 44.12400 42.01700
C  51.09100 40.66600 40.66400
C  53.30600 42.60100 41.92600
O  53.75200 41.51200 41.58400
C  54.28700 43.48600 42.58900
N  49.66600 46.75800 42.88300
C  50.99300 46.51000 42.92000
C  51.78300 47.77500 43.40400
C  50.67900 48.70000 43.80200
C  49.39500 47.96200 43.48100
C  52.93100 47.60100 44.43300
C  50.73200 50.03500 43.15900
C  50.41300 51.23200 44.14100
N  46.93900 46.90900 42.31500
C  46.98100 48.16800 42.87900
C  45.74500 48.88900 42.63800
C  44.98700 47.92400 41.91600
C  45.79000 46.79500 41.71300
C  45.45300 50.32500 43.00500
C  43.65100 47.69100 41.30000
O  42.67700 48.48000 41.23400
C  43.72600 46.34500 40.62800
C  42.62500 45.62400 41.36600
O  41.72200 45.00300 40.89100
O  42.88300 45.79000 42.75000
C  42.01000 44.94500 43.54700
H  48.25700 41.22500 40.64200
H  52.76900 45.34500 42.39600
H  48.16600 49.62700 43.93100
H  43.91600 43.27200 40.32700
H  45.93100 41.58100 39.37000
H  44.62900 41.89500 42.00600
H  45.98800 40.68000 41.87100
H  44.55500 40.53200 40.95000
H  45.58500 43.39400 37.88300
H  44.79400 44.88200 38.11700
H  42.74900 43.97000 37.63900
H  43.06600 42.39500 38.24800
H  50.10400 40.23900 40.48400
H  51.65300 40.14900 41.44200
H  51.58800 40.76800 39.70000
H  53.84900 43.87200 43.50900
H  54.55600 44.27000 41.88000
H  55.15200 42.86900 42.83200
H  52.22200 48.09300 42.45800
H  50.68500 48.87400 44.87800
H  52.98200 46.56200 44.75700
H  53.01500 48.22400 45.32300
H  53.89500 47.71400 43.93800
H  49.99500 50.11100 42.35900
H  51.74300 50.15100 42.77000
H  49.63700 51.08600 44.89200
H  50.12500 52.07400 43.51200
H  51.30000 51.34800 44.76500
H  45.92700 51.09200 42.39200
H  45.82300 50.44500 44.02300
H  44.38300 50.52900 43.01800
H  43.42700 46.39900 39.58100
H  41.61300 44.07800 43.01700
H  41.20800 45.56900 43.94100
H  42.59000 44.66100 44.42500
Mg -9.82400 39.26200 40.70900
C  -8.89300 35.92500 40.59600
C  -6.72800 40.02000 39.11100
C  -10.91300 42.46000 40.03300
C  -13.01800 38.30500 41.62900
N  -8.13600 38.08500 39.77300
C  -7.99000 36.71900 39.93400
C  -6.69200 36.25000 39.23200
C  -5.79700 37.57800 39.15100
C  -6.91200 38.61900 39.32300
C  -4.64300 37.62600 40.14900
C  -7.01600 35.40700 37.92500
C  -6.80300 36.08100 36.64400
H  -7.79700 35.72300 35.45800
N  -8.89800 40.97200 39.75500
C  -7.63200 41.09500 39.31300
C  -7.37600 42.46700 38.93600
C  -8.55500 43.20100 39.09900
C  -9.54100 42.15200 39.61800
C  -6.00200 43.01400 38.64000
C  -8.72000 44.71500 38.74600
O  -7.77700 45.41800 38.29100
C  -10.00300 45.38200 39.08700
N  -11.81100 40.20500 40.62200
C  -11.91000 41.54600 40.45400
C  -13.39000 42.01000 40.65800
C  -14.07600 40.63200 41.00600
C  -12.90900 39.63800 41.22800
C  -13.75100 43.19000 41.57000
C  -15.02900 40.12300 39.87700
C  -16.22800 39.31100 40.46000
N  -10.77600 37.59800 41.21400
C  -12.00400 37.38300 41.68900
C  -12.10700 35.98600 41.99800
C  -10.92700 35.37000 41.57100
C  -10.11500 36.42600 41.16100
C  -13.27500 35.23900 42.58100
C  -10.24600 34.14900 41.42300
O  -10.60800 33.01700 41.67000
C  -8.94200 34.37900 40.73500
C  -7.70200 33.67300 41.35200
O  -7.00300 32.85400 40.72000
O  -7.60400 33.83400 42.75000
C  -6.50200 33.05700 43.39800
H  -5.68800 40.22400 38.84800
H  -11.43800 43.38600 39.79100
H  -14.03100 37.94900 41.83100
H  -6.24800 35.63800 40.01800
H  -5.36300 37.78300 38.17200
H  -4.67800 38.60200 40.63200
H  -3.69700 37.50200 39.62200
H  -4.75800 36.86000 40.91600
H  -8.05600 35.08600 37.98300
H  -6.36900 34.53000 37.94600
H  -5.81000 35.82400 36.27300
H  -6.81200 37.15700 36.82000
H  -5.21400 42.29700 38.87000
H  -5.83400 43.80300 39.37400
H  -5.89400 43.38700 37.62200
H  -10.01900 46.46900 39.17000
H  -10.26800 45.03800 40.08700
H  -10.71300 45.15400 38.29200
H  -13.60200 42.39000 39.65800
H  -14.60900 40.53700 41.95200
H  -12.94100 43.31300 42.28800
H  -14.66000 43.11700 42.16700
H  -13.84200 44.14000 41.04200
H  -14.52000 39.41100 39.22800
H  -15.39200 40.97800 39.30600
H  -17.20100 39.65900 40.11200
H  -16.30700 39.45700 41.53700
H  -16.22600 38.26400 40.15500
H  -12.97700 34.21800 42.81900
H  -14.16000 35.39000 41.96400
H  -13.58100 35.69400 43.52300
H  -8.92600 34.00100 39.71300
H  -6.55300 32.01300 43.08600
H  -6.37000 33.17400 44.47400
H  -5.52000 33.37400 43.04800

