158

Mg -1.15600 18.52300 26.77100
C  -1.75000 16.36700 29.47700
C  -2.05700 21.11800 28.92100
C  -0.78400 20.59400 24.33500
C  -1.08000 15.83500 24.63300
N  -1.44500 18.79800 29.18200
C  -1.66500 17.70000 29.95700
C  -2.10800 18.19200 31.44500
C  -2.50400 19.70000 31.15700
C  -2.01100 19.89600 29.69300
C  -4.01000 20.04000 31.35900
C  -0.96200 18.12500 32.49400
C  -1.46500 17.54800 33.82600
H  -0.38400 17.34300 34.89600
N  -1.27100 20.58500 26.60300
C  -1.66700 21.46500 27.63000
C  -1.77400 22.77600 27.02500
C  -1.28100 22.63700 25.65300
C  -1.11800 21.20000 25.51200
C  -2.27700 24.00900 27.68600
C  -0.94300 23.66200 24.54600
O  -0.26300 23.36800 23.57600
C  -1.28200 25.06100 24.69900
N  -1.16900 18.24900 24.68800
C  -0.83100 19.28100 23.94900
C  -0.35900 18.88900 22.52800
C  -0.45600 17.29700 22.63900
C  -0.88800 17.05500 24.07900
C  -1.32800 19.41800 21.40900
C  0.79100 16.39000 22.28700
C  0.45300 15.21300 21.35800
N  -1.34800 16.51800 26.92100
C  -1.27500 15.53600 25.97600
C  -1.44600 14.27800 26.62200
C  -1.59300 14.53500 28.00900
C  -1.58700 15.93300 28.11300
C  -1.54400 12.98800 25.88400
C  -1.82400 13.95800 29.27100
O  -1.89800 12.79400 29.60600
C  -1.98600 15.19100 30.26100
C  -0.93400 15.01000 31.29800
O  0.21100 15.36300 31.22800
O  -1.48700 14.24900 32.25500
C  -0.62600 13.77900 33.42200
H  -2.52300 21.95300 29.44800
H  -0.65200 21.26000 23.48000
H  -0.87600 14.91600 24.08000
H  -3.04400 17.66400 31.62700
H  -1.89100 20.40600 31.71700
H  -4.60200 19.13900 31.51900
H  -4.49200 20.63500 30.58400
H  -3.96200 20.74200 32.19100
H  -0.50100 19.10100 32.64700
H  -0.13200 17.63900 31.98200
H  -1.96700 16.58400 33.73400
H  -2.16000 18.29100 34.21500
H  -1.88300 24.94400 27.28600
H  -1.95800 24.06100 28.72700
H  -3.35600 23.86300 27.62200
H  -1.20000 25.53000 23.71800
H  -0.70700 25.62400 25.43500
H  -2.35100 24.94600 24.87700
H  0.62800 19.30100 22.31900
H  -1.28200 17.00100 21.99300
H  -1.98400 18.64700 21.00300
H  -0.72900 19.64600 20.52700
H  -1.92800 20.22300 21.83400
H  1.31000 15.93500 23.13000
H  1.45800 17.08600 21.77800
H  0.17600 15.72700 20.43700
H  -0.49500 14.77700 21.67200
H  1.20500 14.42400 21.36100
H  -2.37500 13.16400 25.20000
H  -1.82200 12.20200 26.58600
H  -0.63500 12.75700 25.32900
H  -3.01700 15.12400 30.60800
H  0.15400 14.50200 33.66200
H  -0.18900 12.78100 33.44400
H  -1.22900 13.81100 34.33000
Mg 25.90100 0.86900 29.56400
C  27.80100 0.48200 32.60500
C  23.23500 1.48300 31.68000
C  24.05800 0.81000 26.91900
C  28.72400 -0.27900 27.86300
N  25.51600 0.76300 31.88100
C  26.48300 0.75100 32.86800
C  25.86100 1.14900 34.27300
C  24.43700 1.47000 33.95200
C  24.36600 1.25300 32.39500
C  23.25500 0.69600 34.58800
C  26.58800 2.26000 35.10400
C  25.71600 3.12600 36.05800
H  26.35000 3.50900 37.39000
N  23.94900 1.21600 29.33400
C  23.00000 1.38100 30.27500
C  21.70500 1.55800 29.57100
C  21.91500 1.40700 28.19600
C  23.33500 1.02500 28.07600
C  20.44300 1.72400 30.29600
C  20.95600 1.46900 27.02600
O  21.26800 1.03100 25.88900
C  19.54100 1.91500 27.26000
N  26.35400 0.40900 27.69500
C  25.42100 0.55600 26.73800
C  26.01900 0.34000 25.33800
C  27.58500 -0.11800 25.64200
C  27.58400 0.07600 27.15500
C  25.26000 -0.53600 24.33200
C  28.66800 0.73300 24.91600
C  29.60600 -0.00800 23.92800
N  27.91100 0.25400 30.04100
C  28.95900 -0.13200 29.21600
C  30.14700 -0.30100 30.00100
C  29.76500 -0.09300 31.32500
C  28.39000 0.19300 31.30400
C  31.49600 -0.74100 29.48800
C  30.14800 -0.12300 32.73800
O  31.23300 -0.33900 33.24500
C  28.92100 0.40900 33.57700
C  28.82000 -0.58500 34.70200
O  28.25800 -1.68000 34.64000
O  29.30900 -0.08500 35.92100
C  29.32100 -1.13600 36.99600
H  22.39700 1.88600 32.25200
H  23.53200 0.62900 25.98000
H  29.59400 -0.59400 27.28200
H  25.83400 0.19000 34.79100
H  24.20800 2.53300 34.02700
H  23.58200 0.03600 35.39200
H  22.77200 0.00700 33.89600
H  22.54000 1.41900 34.98100
H  27.25500 2.81200 34.44300
H  27.31600 1.77700 35.75600
H  24.72200 2.70600 36.21600
H  25.51800 4.01600 35.46200
H  20.18700 2.78300 30.31000
H  20.67700 1.58700 31.35100
H  19.61000 1.07700 30.02000
H  19.53300 2.61700 28.09400
H  18.87600 1.11000 27.57000
H  19.27600 2.39200 26.31700
H  26.14600 1.34100 24.92600
H  27.80900 -1.15300 25.38200
H  24.91800 0.06000 23.48600
H  24.40800 -0.83200 24.94400
H  25.80500 -1.38600 23.92000
H  29.25700 1.32200 25.62000
H  28.08500 1.47100 24.36400
H  30.63700 0.32600 24.04700
H  29.39600 0.42400 22.95000
H  29.69700 -1.08900 24.03400
H  31.48000 -1.37100 28.59900
H  32.03600 -1.16200 30.33600
H  32.03000 0.19400 29.31700
H  29.13500 1.39700 33.98600
H  30.08500 -0.90500 37.73900
H  29.48200 -2.16200 36.66400
H  28.39700 -1.00700 37.55900

