158

Mg 8.33900 3.39500 27.36900
C  9.95000 1.81900 30.13500
C  6.66900 5.42400 29.49900
C  6.56400 4.44800 24.76600
C  9.80900 0.82300 25.31900
N  8.37300 3.61200 29.59600
C  9.12800 2.86900 30.51300
C  8.75700 3.38000 31.89100
C  7.54400 4.37300 31.65700
C  7.53700 4.46500 30.15400
C  6.14600 3.92700 32.07800
C  10.02400 3.98400 32.63900
C  10.40000 3.49800 34.04700
H  10.61500 4.46800 35.21000
N  6.83800 4.76900 27.15200
C  6.34300 5.51800 28.12000
C  5.35600 6.40100 27.53500
C  5.40300 6.29700 26.05600
C  6.34100 5.15500 25.90800
C  4.50000 7.36500 28.31900
C  4.67400 7.14300 24.91200
O  4.65500 6.84600 23.73900
C  4.04300 8.42800 25.27300
N  8.18000 2.66200 25.36200
C  7.40300 3.34400 24.51000
C  7.55400 2.81900 23.12200
C  8.68400 1.70800 23.24400
C  8.93400 1.69600 24.72800
C  6.23400 2.29200 22.43500
C  10.01700 2.08200 22.52500
C  10.93000 3.14300 23.16300
N  9.63200 1.69700 27.57200
C  10.03200 0.76300 26.67800
C  10.92500 -0.22300 27.36900
C  10.89300 0.16800 28.75300
C  10.15000 1.38400 28.80000
C  11.82400 -1.22200 26.84000
C  11.31900 -0.20800 30.11000
O  12.01800 -1.16500 30.47600
C  10.79000 0.87800 31.00100
C  9.95400 0.17100 32.03900
O  8.94700 -0.45100 31.67000
O  10.31000 0.30400 33.41600
C  9.34500 -0.06100 34.46900
H  6.39400 6.31300 30.07100
H  6.18500 4.84000 23.82000
H  10.24600 0.00500 24.74400
H  8.33700 2.51500 32.40500
H  7.89100 5.28600 32.14200
H  5.43000 4.09600 31.27400
H  5.79600 4.57500 32.88100
H  5.98800 2.87800 32.32900
H  9.89700 5.06700 32.66000
H  10.94200 3.86500 32.06400
H  11.30900 2.89700 34.02600
H  9.63400 2.77900 34.34100
H  4.49000 8.40100 27.98100
H  4.79500 7.51700 29.35700
H  3.48300 7.01800 28.13400
H  3.75400 9.03800 24.41800
H  4.85500 8.99700 25.72600
H  3.32500 8.30400 26.08500
H  7.88200 3.66200 22.51300
H  8.28900 0.78300 22.82400
H  6.06800 2.94400 21.57700
H  5.38100 2.49000 23.08300
H  6.11200 1.22300 22.25900
H  9.78400 2.39100 21.50600
H  10.64800 1.19500 22.55600
H  11.23600 3.80500 22.35300
H  11.83700 2.66600 23.53300
H  10.50000 3.79600 23.92200
H  12.24500 -1.04500 25.85100
H  11.32600 -2.19000 26.89300
H  12.63800 -1.27700 27.56400
H  11.61500 1.44100 31.43700
H  8.33800 0.29500 34.25300
H  9.70200 0.32300 35.42500
H  9.27500 -1.14800 34.48100
Mg 41.68700 9.37700 29.75500
C  42.91600 10.64600 32.84800
C  39.38600 7.64500 31.47500
C  40.62900 8.15000 26.80000
C  44.18400 11.34900 28.11100
N  41.38800 9.09300 31.97000
C  41.89200 9.73800 33.03300
C  41.26200 9.21700 34.32800
C  40.17900 8.14000 33.83800
C  40.33000 8.27600 32.32100
C  40.34100 6.66400 34.34800
C  40.64000 10.33900 35.23600
C  40.98400 10.30800 36.78900
H  41.32100 11.60400 37.42900
N  40.23000 8.08300 29.25300
C  39.34400 7.47400 30.07000
C  38.37700 6.66700 29.34100
C  38.75900 6.79200 27.98900
C  39.90800 7.64300 27.94300
C  37.25800 5.80600 30.00100
C  38.09400 6.19200 26.77500
O  38.48600 6.33800 25.64800
C  36.84200 5.35800 26.89800
N  42.31300 9.73700 27.70400
C  41.77200 9.01900 26.70900
C  42.40500 9.50300 25.33000
C  43.27800 10.73200 25.73300
C  43.29800 10.53600 27.25100
C  43.05100 8.37400 24.52500
C  42.72900 12.16800 25.22200
C  41.30000 12.76800 25.62500
N  43.37600 10.53100 30.36900
C  44.29900 11.30000 29.53400
C  45.21500 12.01200 30.41900
C  44.64000 11.77800 31.72200
C  43.59500 10.83900 31.63200
C  46.37400 12.84100 29.91600
C  44.78600 12.09200 33.13100
O  45.59200 12.81100 33.68200
C  43.71700 11.38000 33.90500
C  44.44800 10.37100 34.83400
O  45.29100 9.57400 34.54700
O  44.01600 10.56400 36.27300
C  44.79300 9.67200 37.21600
H  38.68800 6.93800 31.92800
H  40.20100 7.92200 25.82200
H  44.93700 11.94200 27.58600
H  42.09200 8.73600 34.84700
H  39.20000 8.47500 34.18000
H  41.17400 6.66100 35.05100
H  40.51500 6.06500 33.45300
H  39.45100 6.24200 34.81400
H  39.55200 10.32800 35.17500
H  41.04600 11.29800 34.91300
H  41.65500 9.46600 36.96200
H  40.03100 9.95900 37.18600
H  37.28400 4.85900 29.46200
H  36.29200 6.27000 29.79900
H  37.38200 5.63700 31.07100
H  36.32200 5.13000 25.96800
H  36.19700 5.78300 27.66800
H  37.08200 4.38500 27.32600
H  41.58300 9.88200 24.72200
H  44.26800 10.48000 25.35100
H  42.94200 8.48800 23.44600
H  42.48900 7.51100 24.88300
H  44.09000 8.16100 24.77300
H  42.92200 12.32300 24.16000
H  43.36300 12.83200 25.80900
H  40.93200 12.22700 26.49700
H  40.61300 12.80800 24.78000
H  41.47000 13.81500 25.87800
H  45.96000 13.36300 29.05300
H  47.15500 12.10400 29.72900
H  46.61200 13.58800 30.67300
H  43.12500 12.14000 34.41500
H  45.84300 9.96000 37.25700
H  44.69900 8.62300 36.93600
H  44.37400 9.86700 38.20300

