158

Mg 7.47100 52.86000 42.07200
C  6.98200 49.44400 41.52100
C  10.48900 52.69700 40.55400
C  7.66600 56.19300 42.36000
C  4.25900 53.05600 43.36500
N  8.50600 51.24600 40.95700
C  8.17100 49.95900 40.93300
C  9.30200 49.17100 40.18000
C  10.53200 50.14600 40.22500
C  9.83300 51.44900 40.64600
C  11.79600 49.69500 41.00500
C  8.81900 48.71900 38.77200
C  7.96200 49.71900 37.92700
H  7.72000 49.37700 36.46400
N  8.88400 54.30900 41.48800
C  10.06900 54.05900 40.84800
C  10.86900 55.23600 40.80400
C  10.08500 56.25200 41.31600
C  8.81700 55.57700 41.81600
C  12.20900 55.28900 40.02000
C  10.44600 57.79200 41.38300
O  11.50100 58.17300 40.87200
C  9.47300 58.82800 41.78300
N  6.11900 54.47300 42.55200
C  6.43100 55.73300 42.70000
C  5.15800 56.65900 42.95500
C  4.15500 55.50600 43.34900
C  4.86900 54.24700 43.06900
C  5.28900 57.90400 43.96300
C  2.75800 55.58000 42.61400
C  1.51600 55.47200 43.53000
N  5.85500 51.59300 42.42500
C  4.66000 51.76500 43.03900
C  3.99400 50.55200 43.12900
C  4.94100 49.57700 42.72800
C  5.98200 50.28900 42.15700
C  2.56800 50.26800 43.58800
C  5.25900 48.15800 42.63300
O  4.66000 47.14200 42.99100
C  6.60700 48.08700 41.75600
C  6.27100 47.38600 40.45600
O  5.57700 47.77800 39.50800
O  6.73500 46.11400 40.53500
C  6.31500 45.13900 39.55400
H  11.52300 52.61100 40.21200
H  7.87700 57.21400 42.68300
H  3.30400 53.00800 43.89200
H  9.53700 48.22000 40.66000
H  10.90600 50.31900 39.21600
H  12.63500 49.51700 40.33300
H  11.62800 48.75200 41.52400
H  11.88100 50.44600 41.79100
H  8.47700 47.68800 38.86100
H  9.72500 48.70400 38.16600
H  8.53600 50.64500 37.87900
H  7.04100 50.03200 38.42000
H  12.07800 55.25100 38.93900
H  12.76500 54.42900 40.39400
H  12.76400 56.21800 40.15000
H  9.19700 58.79000 42.83700
H  8.55800 58.66000 41.21400
H  9.87700 59.80300 41.51000
H  4.85000 57.10600 42.01000
H  4.08000 55.66100 44.42500
H  4.46100 57.76500 44.65800
H  5.31000 58.91400 43.55200
H  6.25400 57.91300 44.47000
H  2.65200 54.72500 41.94700
H  2.74700 56.49300 42.01900
H  0.97600 54.57200 43.23400
H  0.88600 56.36100 43.55000
H  1.92800 55.33900 44.53100
H  1.93800 51.14800 43.45700
H  2.54500 49.90200 44.61500
H  2.15700 49.39000 43.08900
H  7.43000 47.66300 42.33200
H  6.90300 45.34900 38.66100
H  5.26200 45.20500 39.27900
H  6.49100 44.08700 39.78100
Mg -11.62200 37.46800 42.38300
C  -9.70800 34.74000 40.93800
C  -9.13800 39.50200 41.15100
C  -13.69800 39.98100 42.88500
C  -14.14700 35.11600 43.19000
N  -9.67400 37.17200 41.16600
C  -9.09400 35.99600 40.70900
C  -7.79300 36.21200 39.98000
C  -7.51700 37.68000 40.49100
C  -8.86200 38.19100 40.97400
C  -6.40200 37.75700 41.59300
C  -8.02600 36.03100 38.40800
C  -7.03900 35.18000 37.63600
H  -5.90200 35.82500 36.81800
N  -11.46100 39.56200 42.11700
C  -10.32500 40.23100 41.62000
C  -10.58100 41.60500 41.60900
C  -11.88500 41.84900 42.17800
C  -12.44200 40.44000 42.36900
C  -9.60800 42.69400 41.22100
C  -12.53000 43.12900 42.49100
O  -11.98900 44.15700 42.12500
C  -13.80900 43.27700 43.26800
N  -13.68400 37.52100 42.75200
C  -14.26600 38.68700 43.07700
C  -15.71700 38.47000 43.41000
C  -15.85600 36.93100 43.51600
C  -14.54000 36.48400 43.08200
C  -16.12300 39.18500 44.74900
C  -17.13100 36.42700 42.82200
C  -17.07900 36.35900 41.31400
N  -11.83100 35.37000 42.24800
C  -12.91000 34.62700 42.65600
C  -12.65900 33.24100 42.34000
C  -11.40300 33.26100 41.66100
C  -10.93800 34.52900 41.66200
C  -13.58500 32.01200 42.44400
C  -10.41600 32.39800 41.05100
O  -10.42100 31.18900 40.86500
C  -9.31500 33.36500 40.42700
C  -8.04800 32.77300 40.86400
O  -7.10800 32.61300 40.09800
O  -8.10000 32.32600 42.18800
C  -6.78800 32.39600 42.91300
H  -8.35300 40.18200 40.81300
H  -14.27200 40.83700 43.24600
H  -14.89300 34.32900 43.31500
H  -7.17100 35.43600 40.42500
H  -7.14500 38.25100 39.64100
H  -5.88800 36.80200 41.69800
H  -6.70300 38.22900 42.52800
H  -5.57100 38.32100 41.16900
H  -7.96000 36.96700 37.85300
H  -8.99900 35.56000 38.26700
H  -7.64800 34.49900 37.04100
H  -6.59300 34.47900 38.34100
H  -9.24600 43.23200 42.09700
H  -10.09600 43.36700 40.51700
H  -8.72600 42.28100 40.73000
H  -14.03600 44.29600 43.58400
H  -13.71900 42.61900 44.13200
H  -14.63200 42.92800 42.64500
H  -16.21700 38.77500 42.49000
H  -15.91800 36.53200 44.52800
H  -16.27800 40.25200 44.58600
H  -15.38000 39.23400 45.54400
H  -16.92800 38.61100 45.20800
H  -18.02200 36.95800 43.15800
H  -17.25000 35.38000 43.10300
H  -17.43000 35.36000 41.05400
H  -16.09500 36.50700 40.86900
H  -17.71900 37.14700 40.91700
H  -13.17400 31.08600 42.04100
H  -14.45000 32.32700 41.86100
H  -13.77400 31.58900 43.43100
H  -9.31600 33.29900 39.33900
H  -6.24800 31.46300 43.07500
H  -7.03100 32.65900 43.94200
H  -6.13400 33.14200 42.46100

