158

Mg 24.96700 0.53300 30.47100
C  26.93700 0.59900 33.42000
C  22.17500 0.54800 32.42900
C  23.05100 0.09900 27.65500
C  27.77100 -0.15800 28.67300
N  24.61200 0.78900 32.67400
C  25.54900 0.78300 33.68500
C  24.88900 1.08100 35.08500
C  23.38000 0.85900 34.66700
C  23.31700 0.67000 33.12200
C  22.70200 -0.39500 35.40500
C  25.13100 2.52200 35.63100
C  26.14200 2.71500 36.71500
H  25.64200 3.46700 37.97400
N  22.88000 0.33600 30.13400
C  21.90200 0.42600 31.02500
C  20.62900 0.19800 30.44300
C  20.80300 0.11600 29.03600
C  22.30200 0.19900 28.88600
C  19.32300 0.33000 31.19100
C  19.79500 0.02500 27.89700
O  20.16300 -0.12800 26.77900
C  18.27700 -0.04300 28.21600
N  25.35300 -0.00100 28.42900
C  24.42600 0.02100 27.45600
C  25.08500 -0.01700 26.08200
C  26.61900 -0.03100 26.42100
C  26.59500 0.00200 27.93600
C  24.59400 -1.15700 25.26000
C  27.37500 1.21100 25.78500
C  28.70000 0.88600 25.00000
N  27.01100 0.35100 30.85100
C  27.98100 0.03100 30.00600
C  29.19900 0.04800 30.74600
C  28.89900 0.25200 32.09200
C  27.51600 0.37400 32.13500
C  30.52500 -0.38400 30.18900
C  29.43800 0.39300 33.48200
O  30.56800 0.32500 33.98800
C  28.17100 0.65400 34.38200
C  28.06800 -0.45600 35.44000
O  27.44200 -1.53200 35.34900
O  28.88700 -0.17200 36.49500
C  28.68200 -0.96900 37.67900
H  21.29500 0.53200 33.07500
H  22.46500 -0.01700 26.74200
H  28.68400 -0.33500 28.10100
H  25.14600 0.24400 35.73400
H  22.70500 1.68600 34.88800
H  22.48600 -1.10400 34.60500
H  21.72500 -0.12100 35.80400
H  23.26900 -0.78000 36.25200
H  24.13900 2.90100 35.87700
H  25.50400 3.09300 34.78100
H  26.90300 3.39600 36.33700
H  26.65400 1.77500 36.92100
H  18.73100 1.11900 30.72800
H  19.42700 0.47300 32.26700
H  18.76500 -0.58700 31.00100
H  17.95600 0.92600 28.59800
H  18.07000 -0.88100 28.88200
H  17.69200 -0.30200 27.33300
H  24.73300 0.88600 25.58400
H  27.16100 -0.91500 26.08600
H  25.47900 -1.65200 24.86100
H  23.96200 -0.83400 24.43300
H  24.05300 -1.89800 25.84800
H  27.76500 1.81600 26.60400
H  26.73600 1.95700 25.31300
H  28.75400 1.47700 24.08600
H  28.51500 -0.12200 24.63100
H  29.56000 1.00200 25.66000
H  31.04900 0.52400 29.88900
H  30.46800 -1.00800 29.29700
H  31.10000 -0.97100 30.90500
H  28.25100 1.68000 34.74200
H  27.74100 -0.70700 38.16200
H  29.53400 -0.87500 38.35300
H  28.63400 -2.03700 37.46800
Mg 17.40300 53.08100 26.42300
C  19.65700 51.72000 28.63300
C  15.08800 53.46600 28.93500
C  15.15600 54.43000 24.23800
C  19.44500 52.19400 23.78200
N  17.31700 52.60200 28.47900
C  18.43800 52.11900 29.19900
C  18.14900 52.21200 30.66800
C  16.57600 52.28900 30.72700
C  16.24500 52.76900 29.29200
C  15.81100 50.96500 31.08400
C  18.90600 53.42400 31.31400
C  19.21600 53.28400 32.86700
H  18.17300 52.55200 33.68300
N  15.53000 53.95800 26.56500
C  14.75000 54.08500 27.74300
C  13.50600 54.79700 27.42800
C  13.56600 55.07600 26.00600
C  14.77800 54.49700 25.56000
C  12.42600 55.03500 28.47800
C  12.53100 55.83900 25.16100
O  12.71300 56.19800 23.98100
C  11.15900 56.21900 25.73400
N  17.28300 53.22000 24.28300
C  16.27300 53.88800 23.61600
C  16.60200 53.96600 22.09800
C  17.99500 53.29700 22.02100
C  18.31300 52.92400 23.45100
C  15.53800 53.31400 21.11500
C  19.04200 54.19000 21.27900
C  19.94400 55.02300 22.11700
N  19.11200 51.96400 26.15300
C  19.88800 51.73800 25.05400
C  21.11200 51.05500 25.46300
C  21.07800 51.08300 26.88700
C  19.83100 51.67000 27.23900
C  22.11100 50.40100 24.55600
C  21.79000 50.71900 28.13500
O  22.89700 50.24700 28.25000
C  20.82700 51.17900 29.31700
C  20.45600 50.09000 30.20200
O  19.52900 49.29300 29.98700
O  21.03800 50.33400 31.37700
C  20.66000 49.42700 32.45900
H  14.36400 53.45600 29.75300
H  14.47600 54.75200 23.44600
H  20.22700 51.97200 23.05300
H  18.46800 51.26900 31.11300
H  16.16900 53.04900 31.39400
H  15.16300 51.22200 31.92200
H  16.50600 50.20900 31.45000
H  15.27600 50.60600 30.20500
H  18.33600 54.35200 31.29900
H  19.87000 53.62100 30.84300
H  19.24700 54.30400 33.25100
H  20.14800 52.73500 33.00200
H  11.53400 55.55500 28.12700
H  12.76700 55.62700 29.32700
H  12.13000 54.02700 28.76700
H  11.39000 57.10600 26.32300
H  10.77400 55.33200 26.23700
H  10.33300 56.48900 25.07700
H  16.74100 54.99300 21.76000
H  17.93300 52.32000 21.54300
H  15.09900 52.42300 21.56400
H  15.96800 53.15300 20.12600
H  14.77400 54.07000 20.93400
H  18.54800 54.89900 20.61500
H  19.66700 53.64800 20.56900
H  20.67200 54.28100 22.44300
H  19.39600 55.37400 22.99100
H  20.46300 55.83900 21.61400
H  22.04100 50.72500 23.51800
H  22.06500 49.31400 24.61900
H  23.07100 50.75700 24.92900
H  21.35700 51.91600 29.92100
H  20.66200 48.40000 32.09200
H  19.74800 49.76100 32.95200
H  21.47300 49.58800 33.16700

