158

Mg 44.90000 4.30200 46.64500
C  42.82600 7.07200 46.49500
C  42.11800 2.23300 46.37200
C  46.85900 1.50600 46.30800
C  47.61400 6.42300 46.33700
N  42.71400 4.65100 46.40300
C  42.11800 5.83000 46.47500
C  40.56300 5.72600 46.58700
C  40.32700 4.16100 46.64000
C  41.78300 3.60100 46.48400
C  39.66900 3.67700 47.97300
C  39.80300 6.32300 45.42200
C  40.35700 6.03300 44.00000
H  40.16900 7.08300 42.90900
N  44.53300 2.17100 46.34600
C  43.30500 1.60200 46.25800
C  43.46800 0.12400 46.12000
C  44.83600 -0.14400 46.10700
C  45.48300 1.20500 46.20300
C  42.28100 -0.82100 46.05800
C  45.45200 -1.46100 45.85300
O  44.80800 -2.48300 45.94400
C  46.90200 -1.57000 45.36000
N  46.91000 4.00900 46.14400
C  47.50200 2.76200 46.18700
C  49.03100 2.92800 46.35300
C  49.23600 4.51300 46.35700
C  47.87200 5.06500 46.25200
C  49.60300 2.05000 47.53100
C  50.14700 5.05900 45.18600
C  51.48600 5.58000 45.70800
N  45.26300 6.34800 46.59100
C  46.40500 7.06600 46.40400
C  46.14100 8.44800 46.62400
C  44.73600 8.53000 46.56400
C  44.27400 7.15600 46.55700
C  47.26100 9.43500 46.63400
C  43.60800 9.36800 46.60200
O  43.55700 10.60200 46.55200
C  42.33000 8.44300 46.52500
C  41.48900 8.71300 47.70600
O  41.70100 8.28500 48.83000
O  40.44000 9.47600 47.35400
C  39.37100 9.62800 48.26200
H  41.22500 1.63900 46.58000
H  47.55900 0.67900 46.44400
H  48.43900 7.09300 46.58500
H  40.36500 6.22000 47.53900
H  39.59600 3.81400 45.91000
H  38.76400 3.09700 47.79500
H  39.39400 4.43800 48.70300
H  40.43600 3.14600 48.53600
H  39.82300 7.40600 45.54200
H  38.75300 6.03100 45.39000
H  39.78300 5.16300 43.68400
H  41.36700 5.62500 43.95800
H  42.38700 -1.37500 45.12500
H  41.29900 -0.35200 45.98600
H  42.37100 -1.57700 46.83800
H  47.48600 -1.56100 46.28000
H  47.21400 -0.80800 44.64600
H  47.00700 -2.54000 44.87500
H  49.43400 2.47300 45.44800
H  49.58400 4.88200 47.32200
H  49.88000 1.01700 47.31900
H  48.88400 1.93100 48.34200
H  50.48800 2.57100 47.89500
H  49.71200 5.86200 44.59000
H  50.16600 4.22400 44.48600
H  51.62200 6.61300 45.39000
H  52.35700 5.12500 45.23700
H  51.59400 5.59400 46.79200
H  47.94000 9.28300 47.47300
H  46.81600 10.42800 46.58800
H  47.87400 9.29500 45.74300
H  41.78200 8.77900 45.64500
H  39.06000 10.64800 48.03700
H  39.68600 9.66000 49.30500
H  38.55200 8.94700 48.03200
Mg 35.24400 1.90300 29.27800
C  33.04800 2.98500 31.88900
C  37.78000 1.85300 31.72700
C  37.40500 0.96800 26.89400
C  32.68500 2.31100 27.07200
N  35.39600 2.27400 31.49100
C  34.31100 2.68800 32.33800
C  34.80200 2.70600 33.80800
C  36.35200 2.69700 33.69500
C  36.55600 2.22200 32.25200
C  37.00600 4.17000 33.85700
C  34.20600 1.66000 34.81200
C  33.81800 2.15300 36.24600
H  34.60800 3.29400 36.83400
N  37.32200 1.45000 29.38200
C  38.17200 1.55400 30.41300
C  39.47900 1.06900 29.98900
C  39.36900 0.70400 28.59900
C  38.00800 1.08800 28.20700
C  40.67900 1.15100 30.83600
C  40.44800 0.26000 27.66800
O  40.18400 -0.03500 26.50000
C  41.88300 0.00600 28.11900
N  35.16400 1.80700 27.20700
C  36.18100 1.34700 26.44700
C  35.72200 1.24000 24.97700
C  34.14200 1.36800 25.08500
C  33.97800 1.90600 26.54300
C  36.41600 2.27700 24.01500
C  33.34900 0.10100 24.91100
C  32.02000 0.23400 24.26700
N  33.31400 2.57000 29.41600
C  32.40800 2.67600 28.41500
C  31.17400 3.12100 28.93000
C  31.31100 3.21500 30.30300
C  32.62100 2.84600 30.54300
C  29.84300 3.20800 28.18000
C  30.62900 3.55300 31.60000
O  29.48800 3.78700 31.93900
C  31.80800 3.41400 32.68000
C  31.92200 4.68200 33.39000
O  32.68600 5.65200 33.17300
O  31.05000 4.63000 34.48300
C  31.33400 5.55100 35.59300
H  38.55400 1.94800 32.49000
H  38.03400 0.58800 26.08600
H  31.90100 2.33600 26.31300
H  34.56300 3.72000 34.13000
H  36.77700 2.08200 34.48800
H  36.29100 4.77900 34.41100
H  37.21900 4.71300 32.93600
H  37.89800 4.09500 34.47900
H  34.96000 0.88200 34.92800
H  33.30100 1.12100 34.53100
H  34.12200 1.32300 36.88300
H  32.77300 2.33300 36.50000
H  41.21800 0.20800 30.74500
H  40.45100 1.48900 31.84700
H  41.36200 1.92400 30.48300
H  42.21000 0.81000 28.77900
H  42.52700 -0.06900 27.24200
H  41.84600 -0.88400 28.74700
H  36.02900 0.22300 24.73300
H  33.90700 2.11400 24.32600
H  36.88500 1.89400 23.10900
H  37.27700 2.60100 24.59900
H  35.75200 3.11800 23.81700
H  33.25500 -0.34000 25.90400
H  33.88900 -0.55400 24.22800
H  31.95100 -0.34700 23.34700
H  31.80900 1.29600 24.14200
H  31.18500 -0.18300 24.83000
H  29.40400 2.21400 28.09000
H  30.01600 3.52000 27.15000
H  29.14400 3.88300 28.67300
H  31.56900 2.51700 33.25100
H  30.92700 5.16300 36.52700
H  30.67400 6.41600 35.52500
H  32.28900 6.06400 35.70500

