158

Mg 16.56300 -1.91200 28.41600
C  15.38600 0.09700 31.12000
C  18.92700 -3.27100 30.67800
C  17.99600 -3.45900 25.86800
C  14.47200 -0.18600 26.30900
N  17.12200 -1.52800 30.63000
C  16.36600 -0.83400 31.47800
C  16.76200 -1.15500 32.91700
C  18.09500 -1.98100 32.84600
C  18.04500 -2.29700 31.30200
C  19.39500 -1.22600 33.25000
C  15.58800 -1.83900 33.67800
C  15.60200 -1.68300 35.19800
H  16.85200 -1.36200 35.99900
N  18.09800 -3.29300 28.33700
C  18.93600 -3.71700 29.31400
C  19.73500 -4.84000 28.76700
C  19.50100 -4.90300 27.39700
C  18.44700 -3.91200 27.11900
C  20.75200 -5.55700 29.56700
C  20.13900 -5.91200 26.31300
O  19.83000 -5.78000 25.17100
C  21.10700 -6.98000 26.69000
N  16.37800 -1.69100 26.44100
C  17.04500 -2.49300 25.51500
C  16.63000 -2.23700 24.03500
C  15.42500 -1.41100 24.31100
C  15.39000 -1.11400 25.81200
C  17.77200 -1.63700 23.17800
C  14.04300 -1.87900 23.71100
C  13.09800 -0.89800 22.94900
N  15.19900 -0.27700 28.59400
C  14.33000 0.17800 27.68800
C  13.44500 1.16000 28.26900
C  13.82800 1.17500 29.67500
C  14.96900 0.31400 29.77100
C  12.36800 1.92500 27.54400
C  13.49400 1.68500 30.99100
O  12.59200 2.43700 31.34600
C  14.54800 1.05900 31.97600
C  15.33200 2.09400 32.75100
O  16.06200 3.00500 32.24300
O  15.16500 2.05900 34.16000
C  15.91900 2.99700 35.07200
H  19.71800 -3.66800 31.31700
H  18.34300 -3.98400 24.97500
H  13.80400 0.28000 25.58100
H  16.93900 -0.19600 33.40400
H  17.92500 -2.93700 33.34100
H  20.06400 -1.53500 32.44700
H  19.55700 -1.70300 34.21600
H  19.33200 -0.14000 33.18500
H  15.73100 -2.89000 33.42600
H  14.72100 -1.56300 33.07900
H  15.21300 -2.57400 35.69100
H  14.89800 -0.87600 35.39800
H  20.89900 -5.18500 30.58100
H  21.76700 -5.58300 29.17100
H  20.32300 -6.53600 29.78000
H  21.26400 -7.61800 25.82100
H  20.60900 -7.66500 27.37600
H  22.06600 -6.55200 26.98300
H  16.39500 -3.23400 23.66100
H  15.59300 -0.39700 23.94700
H  17.71000 -0.55000 23.22800
H  17.60100 -1.84800 22.12300
H  18.78300 -1.89000 23.49900
H  13.50700 -2.21800 24.59800
H  14.26200 -2.70100 23.02900
H  12.04900 -0.91200 23.24400
H  13.09500 -1.15500 21.89000
H  13.56500 0.07800 23.08000
H  12.02600 1.40900 26.64700
H  12.73300 2.88800 27.18900
H  11.60100 2.01800 28.31300
H  14.02200 0.53400 32.77400
H  16.35300 2.42300 35.89000
H  15.16200 3.71600 35.38700
H  16.74600 3.53600 34.61100
Mg 44.76600 4.34500 47.06500
C  43.27700 7.56000 46.32300
C  41.64200 2.99200 46.72000
C  46.24200 1.40900 46.84000
C  47.90700 5.93700 46.72700
N  42.78000 5.26500 46.59500
C  42.35600 6.48700 46.23900
C  40.93100 6.56100 45.81000
C  40.34000 5.13300 46.33900
C  41.63200 4.40800 46.74600
C  39.31300 5.05100 47.55900
C  40.98500 6.74500 44.24800
C  40.47800 8.05500 43.59400
H  39.29500 7.87600 42.65000
N  44.06200 2.44300 46.69800
C  42.75000 2.05200 46.68400
C  42.67200 0.60900 46.35300
C  44.01100 0.21000 46.21200
C  44.82100 1.31300 46.63200
C  41.47800 -0.19600 46.12200
C  44.57400 -1.13200 45.78100
O  43.77900 -1.97300 45.38100
C  46.04300 -1.55100 45.90900
N  46.77500 3.75500 46.68200
C  47.13800 2.49500 46.91400
C  48.63700 2.23800 46.89100
C  49.23200 3.73000 46.65400
C  47.87500 4.52700 46.64300
C  49.26000 1.47700 48.05200
C  49.93300 3.80500 45.32900
C  51.19800 4.74200 45.25500
N  45.48100 6.36500 46.93200
C  46.78300 6.79200 46.80700
C  46.75800 8.28900 46.71500
C  45.42900 8.62400 46.66200
C  44.65600 7.42700 46.70100
C  47.95700 9.13400 46.68900
C  44.43600 9.68800 46.46700
O  44.61200 10.86700 46.31700
C  42.95700 9.04700 46.26900
C  42.02800 9.57800 47.21700
O  41.66500 9.04300 48.29700
O  41.55700 10.84700 46.76500
C  40.83800 11.68300 47.76300
H  40.63700 2.57200 46.79700
H  46.80700 0.48600 46.98100
H  48.90600 6.37900 46.73400
H  40.49500 7.41400 46.33000
H  39.89700 4.61100 45.49000
H  39.71400 4.67800 48.50200
H  38.48900 4.39600 47.27500
H  38.82400 6.01400 47.70300
H  40.30300 6.01200 43.81700
H  41.96600 6.56600 43.80800
H  41.30500 8.41500 42.98300
H  40.21100 8.67800 44.44800
H  41.75700 -1.06000 46.72400
H  41.45100 -0.49900 45.07500
H  40.62100 0.37400 46.48000
H  46.70100 -0.81900 45.44100
H  46.17900 -2.56500 45.53300
H  46.16000 -1.58300 46.99200
H  48.81400 1.54400 46.06900
H  49.74500 4.16300 47.51200
H  48.60000 1.31400 48.90500
H  50.16400 1.99300 48.37400
H  49.42200 0.45300 47.71500
H  49.21400 4.19400 44.60800
H  50.20600 2.76900 45.13000
H  52.03400 4.23400 45.73600
H  51.01100 5.67900 45.78000
H  51.48000 4.82200 44.20500
H  47.64500 10.01900 47.24400
H  48.07800 9.46200 45.65700
H  48.89300 8.71000 47.05000
H  42.52400 9.30900 45.30400
H  39.78000 11.42300 47.77900
H  40.93900 12.76200 47.64300
H  41.36500 11.57600 48.71100

