158

Mg 25.65000 -0.49800 29.40000
C  27.36800 -0.97200 32.36700
C  22.86800 0.19800 31.16800
C  23.85200 -0.52800 26.39100
C  28.44000 -1.60300 27.67600
N  25.17300 -0.53400 31.58500
C  26.06500 -0.60100 32.60500
C  25.43900 -0.32700 33.98700
C  24.02400 0.15600 33.57400
C  23.99500 -0.04500 32.01300
C  22.80800 -0.59100 34.19200
C  26.13200 0.78600 34.87200
C  26.96400 0.35200 36.08500
H  26.88500 1.20900 37.31800
N  23.62500 -0.26200 28.86700
C  22.63700 -0.01200 29.77900
C  21.36000 0.18900 29.10000
C  21.64000 0.08900 27.70500
C  23.08100 -0.28400 27.57800
C  19.97000 0.28800 29.86400
C  20.76700 0.17000 26.46700
O  21.19600 0.07200 25.32300
C  19.29800 0.51400 26.59300
N  25.96600 -1.23200 27.32400
C  25.15700 -1.01900 26.25600
C  25.90100 -1.17300 24.83600
C  27.42800 -1.15200 25.34700
C  27.31700 -1.26200 26.90000
C  25.47000 -2.55900 24.21300
C  28.29900 0.13100 25.07500
C  29.63100 -0.12800 24.29100
N  27.52600 -1.19800 29.90100
C  28.59800 -1.54800 29.07400
C  29.75300 -1.76200 29.84900
C  29.33900 -1.67100 31.17500
C  27.99300 -1.21800 31.11200
C  31.19800 -2.09800 29.43100
C  29.75700 -1.83700 32.55000
O  30.78900 -1.99700 33.13100
C  28.47300 -1.49700 33.40500
C  28.10600 -2.53200 34.44500
O  27.21400 -3.33800 34.26000
O  28.85700 -2.37300 35.58200
C  28.63500 -3.35500 36.67400
H  21.97100 0.64600 31.60000
H  23.36500 -0.33500 25.43200
H  29.36400 -1.71900 27.10600
H  25.27000 -1.28900 34.47100
H  23.84900 1.21800 33.74400
H  22.60100 -1.46600 33.57600
H  21.90700 0.01800 34.26700
H  22.98400 -1.00200 35.18600
H  25.37600 1.46400 35.26900
H  26.84900 1.38400 34.30900
H  27.99200 0.25800 35.73400
H  26.73400 -0.65400 36.43500
H  19.28200 0.99500 29.40100
H  20.17200 0.37100 30.93200
H  19.35000 -0.60200 29.76400
H  18.93900 0.47100 25.56400
H  19.13000 1.36500 27.25200
H  18.86700 -0.32000 27.14700
H  25.77500 -0.29600 24.20100
H  27.92200 -2.05100 24.97800
H  24.93200 -3.12200 24.97700
H  26.32400 -3.15100 23.88600
H  24.78700 -2.21500 23.43600
H  28.58100 0.57400 26.03000
H  27.66700 0.84800 24.55000
H  29.46800 -0.79100 23.44200
H  30.39400 -0.50200 24.97300
H  29.86400 0.90600 24.03800
H  31.30100 -3.12900 29.09300
H  31.81600 -1.92100 30.31100
H  31.47700 -1.48700 28.57300
H  28.85000 -0.61400 33.92200
H  28.90500 -4.27900 36.16400
H  27.63500 -3.38500 37.10800
H  29.27600 -3.16700 37.53600
Mg 15.83500 52.56100 25.59000
C  18.05200 51.65400 28.19400
C  13.32600 53.07600 28.04200
C  13.84600 53.56200 23.16300
C  18.33700 51.62700 23.30700
N  15.72600 52.46700 27.81900
C  16.83200 52.24800 28.66600
C  16.46500 52.49200 30.17100
C  14.92300 52.53900 30.09000
C  14.61600 52.78500 28.57600
C  14.20900 51.26400 30.60300
C  17.10100 53.75300 30.84600
C  17.28500 53.66900 32.34800
H  16.54600 52.55400 33.11700
N  13.91000 53.20600 25.58400
C  13.04400 53.33600 26.63900
C  11.68300 53.67600 26.11000
C  11.79000 53.66400 24.72100
C  13.20400 53.48800 24.40500
C  10.50400 53.84900 26.97800
C  10.75300 53.84700 23.64600
O  11.07100 53.81400 22.48400
C  9.41200 54.00800 24.05400
N  16.14500 52.69300 23.56800
C  15.11300 53.21700 22.74200
C  15.60600 53.42900 21.30900
C  17.14500 52.93500 21.45100
C  17.24600 52.36600 22.84100
C  14.85600 52.63200 20.21200
C  18.16700 54.09800 21.27100
C  19.21000 53.76400 20.20300
N  17.75500 51.72700 25.72400
C  18.63700 51.30600 24.67100
C  19.88800 50.79600 25.23500
C  19.60100 50.84200 26.64000
C  18.34600 51.48600 26.85800
C  21.11100 50.22100 24.46200
C  20.20200 50.60000 27.99500
O  21.33000 50.20200 28.31800
C  19.16900 51.17300 29.03500
C  18.85900 50.19600 30.12700
O  18.17000 49.20700 29.97200
O  19.44200 50.52200 31.32300
C  19.37600 49.47000 32.31300
H  12.50600 53.10000 28.76200
H  13.30800 53.93000 22.28700
H  19.12400 51.31700 22.61600
H  16.88500 51.65900 30.73400
H  14.47100 53.42300 30.53900
H  14.85900 50.49300 31.01700
H  13.49400 50.80800 29.91800
H  13.58200 51.49600 31.46300
H  16.54300 54.66400 30.63000
H  18.02800 53.89900 30.29100
H  16.93100 54.62100 32.74500
H  18.33100 53.46000 32.57200
H  9.94300 52.91600 27.04100
H  9.99100 54.75200 26.64900
H  10.77800 54.14100 27.99200
H  9.49200 54.83400 24.76100
H  9.09200 53.19700 24.70700
H  8.83100 54.08700 23.13500
H  15.45900 54.45800 20.97900
H  17.38800 52.08700 20.81100
H  13.91600 52.30600 20.65600
H  15.41100 51.78200 19.81600
H  14.47200 53.15900 19.33800
H  18.68200 54.27300 22.21500
H  17.60900 55.02900 21.17000
H  18.86000 53.01000 19.49800
H  20.14400 53.46600 20.67800
H  19.50700 54.56500 19.52500
H  21.58000 49.51100 25.14300
H  21.79900 50.94800 24.02800
H  20.78300 49.62400 23.61100
H  19.72700 52.00300 29.46800
H  18.39100 49.57000 32.76900
H  20.14300 49.43500 33.08600
H  19.52800 48.51200 31.81500

