158

Mg 26.01700 0.82000 29.19100
C  27.92200 0.58100 32.14000
C  23.25700 0.93200 31.16200
C  24.18700 1.16100 26.32500
C  28.81500 0.13900 27.26200
N  25.72700 0.93800 31.44700
C  26.63300 0.83100 32.49800
C  26.07800 1.15600 33.83600
C  24.52100 1.07600 33.51400
C  24.46000 0.92800 31.95600
C  23.75400 -0.08600 34.16200
C  26.59500 2.50200 34.41400
C  27.13800 2.55500 35.90000
H  26.42200 3.40000 36.88800
N  24.03400 0.98400 28.77100
C  23.03200 0.94600 29.74000
C  21.70700 0.99500 29.12600
C  22.04100 1.23800 27.70100
C  23.51400 1.19000 27.55800
C  20.42000 0.93600 29.92800
C  21.05800 1.25800 26.61000
O  21.38000 1.48600 25.39700
C  19.63400 1.01100 26.90200
N  26.46200 0.52000 27.09600
C  25.55100 0.88900 26.12000
C  26.09300 0.81300 24.72300
C  27.60700 0.41600 25.04500
C  27.64800 0.36300 26.52700
C  25.43500 -0.17200 23.73500
C  28.60100 1.41400 24.29300
C  29.53500 0.76300 23.28600
N  28.00900 0.45100 29.58400
C  29.03900 0.21900 28.68100
C  30.24600 0.09700 29.43200
C  29.85400 0.30300 30.80300
C  28.47500 0.45900 30.82800
C  31.60300 -0.15800 29.00900
C  30.34000 0.33600 32.15300
O  31.46700 0.19600 32.57800
C  29.12600 0.64200 33.03100
C  29.12000 -0.16200 34.24700
O  28.48200 -1.21200 34.38200
O  29.94100 0.45700 35.16700
C  29.96500 -0.21800 36.46600
H  22.33900 0.84500 31.74700
H  23.56300 1.44400 25.47400
H  29.76700 -0.10000 26.78300
H  26.26900 0.30900 34.49500
H  24.05400 2.01900 33.79800
H  23.53900 0.41800 35.10400
H  24.47100 -0.89300 34.31500
H  22.91100 -0.48900 33.60100
H  25.75000 3.18900 34.37500
H  27.42600 2.86300 33.80800
H  28.20000 2.79000 35.97200
H  27.00800 1.50700 36.17200
H  19.65900 1.51200 29.40000
H  20.54800 1.29200 30.95000
H  20.07900 -0.09900 29.92100
H  19.54500 0.11200 27.51200
H  19.13800 0.97300 25.93200
H  19.28100 1.85000 27.50200
H  26.02400 1.80900 24.28500
H  27.93700 -0.55100 24.66600
H  25.08000 0.50300 22.95600
H  24.57900 -0.67800 24.18200
H  26.14400 -0.90400 23.34800
H  29.22300 1.99200 24.97600
H  28.05500 2.23200 23.82400
H  30.59900 0.73100 23.52300
H  29.44000 1.26200 22.32200
H  29.12500 -0.23500 23.13200
H  31.97100 0.84100 28.77400
H  31.55700 -0.80900 28.13700
H  32.00800 -0.49100 29.96400
H  29.27000 1.69000 33.29400
H  29.77300 -1.28800 36.54200
H  29.15100 0.11800 37.10700
H  30.93400 -0.04800 36.93500
Mg 40.13700 8.82500 28.46500
C  42.02400 10.06300 31.03300
C  38.00900 7.44400 30.63200
C  38.21500 7.85800 25.79800
C  42.45900 9.97900 26.17800
N  40.10500 8.72600 30.57600
C  40.85400 9.44100 31.44700
C  40.29900 9.39300 32.86500
C  39.18400 8.31600 32.76600
C  39.10200 8.06300 31.19600
C  39.49600 7.03100 33.54300
C  39.75600 10.84000 33.33600
C  39.14500 11.04000 34.77600
H  39.39800 12.30600 35.49500
N  38.29200 7.79400 28.25500
C  37.59800 7.26100 29.30000
C  36.41000 6.68800 28.82300
C  36.36700 6.90000 27.43500
C  37.62600 7.57200 27.10700
C  35.29200 5.95400 29.70000
C  35.29900 6.55900 26.33700
O  35.42300 6.66100 25.13200
C  33.89900 6.16400 26.78400
N  40.33300 8.69800 26.29200
C  39.36800 8.45600 25.38800
C  39.82500 8.74000 24.00300
C  41.18200 9.41900 24.18900
C  41.35200 9.34200 25.70100
C  39.82500 7.47200 23.14700
C  41.14500 10.90600 23.60200
C  40.47900 12.03000 24.43500
N  41.90100 9.72700 28.61300
C  42.79100 10.15900 27.56100
C  43.95800 10.86200 28.18200
C  43.63300 10.84900 29.55700
C  42.47100 10.14700 29.64900
C  45.15700 11.39100 27.48100
C  44.05700 11.31000 30.88800
O  44.93900 12.07600 31.22900
C  43.00400 10.83300 31.88800
C  43.69400 9.99500 32.96700
O  44.28800 8.94600 32.76300
O  43.43500 10.53600 34.24200
C  43.70700 9.63100 35.30800
H  37.31200 7.24900 31.45000
H  37.66700 7.61600 24.88400
H  43.21200 10.33500 25.47200
H  41.18100 9.08300 33.42500
H  38.28000 8.76500 33.17600
H  40.50300 6.92100 33.94500
H  39.38500 6.14100 32.92300
H  38.80500 7.03800 34.38600
H  38.82800 11.03200 32.79800
H  40.52900 11.59400 33.18400
H  39.59900 10.21400 35.32300
H  38.07300 10.86000 34.68900
H  35.41900 6.04500 30.77800
H  35.42200 4.91100 29.41200
H  34.32400 6.42200 29.52200
H  33.49600 7.09100 27.19300
H  33.85600 5.42000 27.58000
H  33.40500 5.87200 25.85700
H  39.10800 9.46400 23.61700
H  41.94100 8.85200 23.65000
H  39.83500 6.58300 23.77900
H  40.71400 7.43600 22.51700
H  38.97100 7.44700 22.47000
H  40.73200 10.82500 22.59700
H  42.16500 11.25800 23.45000
H  40.24000 11.62200 25.41700
H  39.55600 12.36800 23.96600
H  41.19000 12.84500 24.56800
H  45.91200 11.30700 28.26300
H  44.91100 12.42900 27.25900
H  45.30100 10.69900 26.65100
H  42.56500 11.68300 32.41200
H  42.78500 9.59000 35.88800
H  44.59600 9.81400 35.91100
H  43.83100 8.62400 34.91000

