158

Mg 42.90800 4.29200 48.26600
C  40.96200 6.93000 47.71900
C  40.20200 2.16900 47.95500
C  44.97200 1.65900 48.03500
C  45.83300 6.37700 47.51300
N  40.83000 4.52700 47.60200
C  40.25100 5.72800 47.51300
C  38.76300 5.59800 47.16800
C  38.48900 4.09700 47.63900
C  39.95600 3.56900 47.77900
C  37.75800 3.89800 48.99900
C  38.29000 5.80800 45.68600
C  37.08000 6.78400 45.54800
H  36.55200 6.76800 44.15200
N  42.61300 2.30600 48.13900
C  41.42600 1.60100 48.03300
C  41.64100 0.20900 48.09700
C  43.05300 -0.01600 48.30800
C  43.64100 1.34300 48.17500
C  40.59400 -0.83200 47.68700
C  43.70000 -1.37600 48.38900
O  43.07000 -2.41500 48.57100
C  45.16600 -1.56600 48.38300
N  45.13700 4.09600 47.75000
C  45.69000 2.88300 47.80700
C  47.21700 2.91800 47.62600
C  47.42900 4.41000 47.41600
C  46.09900 5.00300 47.57800
C  47.89900 2.41600 48.92800
C  48.07800 4.77500 46.03100
C  49.53400 4.48600 45.89600
N  43.40000 6.28700 48.04900
C  44.54300 6.99100 47.78500
C  44.20900 8.42300 47.74500
C  42.78900 8.42000 47.80400
C  42.37200 7.11000 47.88200
C  45.16700 9.61600 47.63300
C  41.58500 9.31800 47.66800
O  41.41100 10.55300 47.64200
C  40.38400 8.34400 47.63800
C  39.60600 8.58700 48.83400
O  39.99700 8.35700 49.98400
O  38.27900 8.72100 48.40000
C  37.33600 8.57400 49.52700
H  39.31000 1.54300 48.02100
H  45.68400 0.84800 47.86900
H  46.66300 7.05400 47.29900
H  38.29500 6.22400 47.92700
H  37.93100 3.52500 46.89800
H  37.48900 4.87900 49.39100
H  38.35400 3.31200 49.69900
H  36.86400 3.36500 48.67700
H  38.00200 4.90100 45.15500
H  39.12900 6.17100 45.09200
H  37.45800 7.75000 45.88400
H  36.32600 6.41600 46.24400
H  40.24700 -1.47200 48.49800
H  41.00600 -1.41200 46.86100
H  39.74400 -0.37700 47.17800
H  45.67300 -0.89000 49.07200
H  45.61900 -1.32000 47.42200
H  45.47800 -2.59200 48.57800
H  47.39500 2.27700 46.76300
H  48.03600 4.92900 48.15700
H  47.17500 2.32300 49.73700
H  48.68400 3.00300 49.40300
H  48.26200 1.41000 48.71700
H  47.90200 5.82200 45.78200
H  47.53000 4.18500 45.29700
H  50.06300 5.43400 45.79900
H  49.69900 3.88800 45.00000
H  49.86900 3.95500 46.78700
H  45.13500 10.11400 46.66400
H  46.12800 9.13600 47.81600
H  44.99300 10.35400 48.41600
H  39.77200 8.59000 46.77000
H  36.94100 9.50300 49.93700
H  37.64600 7.96700 50.37700
H  36.62700 7.90900 49.03500
Mg 9.33100 47.88400 26.87200
C  7.32600 47.72400 29.65000
C  12.01100 48.78800 28.72800
C  11.14600 48.54500 24.00800
C  6.41300 47.70800 24.75000
N  9.50000 48.48000 28.89100
C  8.63900 48.16200 29.89600
C  9.33400 48.43400 31.25200
C  10.75000 48.76500 30.88800
C  10.75100 48.76000 29.34000
C  11.19500 50.16400 31.42200
C  9.03300 47.31100 32.28700
C  9.94100 47.07600 33.49900
H  9.26900 46.56900 34.82900
N  11.36100 48.37300 26.39100
C  12.28600 48.59000 27.33600
C  13.58400 48.68000 26.64800
C  13.36400 48.48400 25.22000
C  11.85600 48.45900 25.17600
C  14.83500 49.12700 27.37000
C  14.37300 48.47100 24.09300
O  13.94700 48.47400 22.92900
C  15.86500 48.33000 24.45200
N  8.86700 48.28200 24.65400
C  9.81200 48.36200 23.75100
C  9.22000 48.11400 22.33300
C  7.79300 47.75800 22.62700
C  7.67100 47.86800 24.11100
C  9.40400 49.25700 21.35100
C  7.32100 46.37800 22.09700
C  5.93900 46.29700 21.34900
N  7.28400 47.70400 27.13400
C  6.24900 47.62300 26.20300
C  5.00000 47.38300 26.98000
C  5.36900 47.27800 28.34600
C  6.79900 47.56500 28.36700
C  3.68700 47.05700 26.26400
C  4.94500 46.98900 29.70500
O  3.91500 46.55900 30.17400
C  6.17700 47.29200 30.62100
C  6.31800 45.94300 31.30000
O  7.14200 45.04800 31.09400
O  5.48400 45.92300 32.38700
C  5.72500 44.77900 33.35800
H  12.90200 48.95300 29.33600
H  11.69600 48.59200 23.06600
H  5.62200 47.51200 24.02300
H  8.82300 49.31900 31.63100
H  11.39600 48.03100 31.36900
H  12.17600 50.02500 31.87600
H  10.47800 50.50700 32.16800
H  11.26800 50.89100 30.61200
H  9.00500 46.38600 31.71100
H  8.05900 47.70300 32.58100
H  10.51400 47.98000 33.70700
H  10.63300 46.29000 33.19700
H  14.65700 49.54900 28.35900
H  15.28800 49.90500 26.75600
H  15.64300 48.39600 27.41700
H  16.02200 47.61500 25.26000
H  16.32300 49.31100 24.57600
H  16.26700 47.91800 23.52600
H  9.78400 47.30300 21.87200
H  7.18200 48.55700 22.20700
H  8.41900 49.30000 20.88500
H  10.34100 49.28500 20.79600
H  9.35200 50.12300 22.01200
H  7.07000 45.75200 22.95300
H  8.06600 45.90600 21.45600
H  5.40600 47.24200 21.45400
H  5.47100 45.45300 21.85600
H  5.96500 46.00900 20.29800
H  3.35100 48.02100 25.88300
H  2.98400 46.74300 27.03500
H  3.88200 46.30300 25.50200
H  6.00300 47.98500 31.44400
H  6.33600 45.01200 34.23000
H  6.02600 43.82900 32.91700
H  4.74000 44.44900 33.68700

