158

Mg 2.91800 -1.71600 43.55700
C  6.35700 -0.60900 43.54300
C  2.13600 1.33300 42.30600
C  -0.08300 -2.98000 43.00900
C  4.18700 -4.84600 44.33100
N  4.14100 0.06700 43.03200
C  5.49700 0.44300 43.19900
C  5.79900 1.86200 42.92700
C  4.40000 2.41500 42.65300
C  3.50100 1.20400 42.73000
C  3.91700 3.57400 43.62400
C  6.72200 2.23600 41.68500
C  6.70800 1.30400 40.47000
H  6.27500 1.83100 39.06200
N  1.30300 -0.93900 42.61000
C  1.18700 0.30100 42.20100
C  -0.21700 0.52700 41.74500
C  -0.84000 -0.80700 41.85300
C  0.12400 -1.64400 42.51400
C  -0.82000 1.79200 41.25400
C  -2.23000 -1.17400 41.40200
O  -3.05200 -0.35000 40.98100
C  -2.73300 -2.51500 41.33700
N  2.16900 -3.69000 43.66400
C  0.84600 -3.91500 43.54600
C  0.55900 -5.43000 43.87200
C  1.98100 -6.00400 44.10100
C  2.86600 -4.76900 44.03200
C  -0.46400 -5.42500 45.11400
C  2.49400 -7.02900 43.17700
C  2.35700 -8.48600 43.69100
N  4.90800 -2.63700 43.95900
C  5.20800 -3.86400 44.26400
C  6.57900 -3.95500 44.58600
C  7.18700 -2.71200 44.23300
C  6.04800 -1.92500 43.89100
C  7.18600 -5.29000 44.99600
C  8.42000 -1.94400 44.06300
O  9.61800 -2.29900 44.20600
C  7.92700 -0.51500 43.59100
C  8.51400 0.57200 44.48300
O  9.21100 1.47600 44.07000
O  8.23600 0.33100 45.84600
C  8.99200 1.19200 46.82400
H  1.82100 2.32200 41.96800
H  -1.14000 -3.24700 43.07600
H  4.58100 -5.82100 44.62500
H  6.25800 2.17000 43.86600
H  4.21600 2.74800 41.63200
H  3.21600 3.25300 44.39500
H  3.58400 4.37400 42.96300
H  4.74600 3.99500 44.19200
H  7.65900 1.99900 42.18900
H  6.57900 3.23600 41.27600
H  6.16500 0.37200 40.62900
H  7.73500 0.94100 40.42300
H  -0.09500 2.59300 41.40000
H  -1.62000 2.14900 41.90300
H  -1.21800 1.47500 40.29000
H  -3.10300 -2.96200 42.26000
H  -1.97100 -3.19000 40.94900
H  -3.54000 -2.51400 40.60400
H  0.14100 -5.93900 43.00300
H  2.12100 -6.40400 45.10500
H  -0.31000 -6.28200 45.76900
H  -1.43900 -5.63700 44.67400
H  -0.55200 -4.42600 45.54000
H  3.57500 -6.96100 43.05200
H  1.96000 -6.99700 42.22800
H  1.83400 -9.13600 42.98900
H  1.88100 -8.50100 44.67200
H  3.35200 -8.92300 43.76800
H  8.19900 -5.11100 45.35400
H  7.31200 -5.88500 44.09100
H  6.60700 -5.77500 45.78100
H  8.34300 -0.30600 42.60500
H  10.06700 1.01200 46.80900
H  8.61800 0.88900 47.80300
H  8.72800 2.24800 46.77600
Mg 17.99900 -2.48100 27.14600
C  17.03400 -0.69100 29.91800
C  20.09500 -4.31100 29.23900
C  19.23500 -3.94800 24.35700
C  16.06600 -0.29300 25.16700
N  18.50100 -2.49700 29.32100
C  17.98100 -1.65000 30.20100
C  18.40600 -2.09000 31.60200
C  19.63400 -3.07900 31.39400
C  19.46900 -3.29800 29.89400
C  21.06500 -2.54700 31.77600
C  17.21300 -2.72300 32.38300
C  16.89000 -2.15500 33.74900
H  18.15900 -1.77400 34.51500
N  19.52400 -3.95400 26.89400
C  20.25000 -4.53900 27.86800
C  21.04400 -5.60000 27.22800
C  20.86500 -5.51200 25.79300
C  19.87400 -4.40800 25.61600
C  21.76000 -6.70800 28.02700
C  21.41000 -6.38500 24.58000
O  21.31400 -6.10300 23.39400
C  22.15000 -7.57600 24.95900
N  17.67600 -2.22700 25.08200
C  18.24900 -3.02700 24.13600
C  17.96200 -2.54900 22.67500
C  16.80100 -1.46500 22.99200
C  16.86100 -1.27700 24.48900
C  19.24900 -1.98000 21.97600
C  15.39300 -1.98800 22.44200
C  14.92500 -1.36900 21.08400
N  16.83800 -0.87400 27.45700
C  16.15200 -0.11200 26.55800
C  15.22500 0.75700 27.27700
C  15.59300 0.60000 28.60000
C  16.52500 -0.41200 28.65600
C  14.12300 1.74100 26.68400
C  15.25100 0.97300 29.96400
O  14.38900 1.71500 30.41500
C  16.23500 0.14200 30.88900
C  16.98800 1.15800 31.58500
O  18.02700 1.62300 31.22200
O  16.31100 1.49800 32.77700
C  17.10300 2.42700 33.59500
H  20.71600 -4.92100 29.89900
H  19.59300 -4.47700 23.47100
H  15.36500 0.30800 24.58600
H  18.80500 -1.19900 32.08800
H  19.44900 -4.00500 31.93800
H  21.05100 -1.45900 31.84100
H  21.68400 -2.81000 30.91900
H  21.51900 -2.84100 32.72200
H  17.34100 -3.80400 32.43700
H  16.41800 -2.76600 31.63800
H  16.24500 -2.86800 34.26200
H  16.36800 -1.21900 33.54800
H  21.84800 -7.66100 27.50600
H  21.25000 -6.84900 28.98000
H  22.74000 -6.26800 28.21200
H  22.24500 -8.11200 24.01500
H  21.41600 -8.15100 25.52300
H  23.05900 -7.24900 25.46500
H  17.48900 -3.35400 22.11200
H  16.97000 -0.45900 22.60800
H  19.18900 -0.89400 22.03900
H  19.20400 -2.14500 20.89900
H  20.25500 -2.25800 22.29100
H  14.65700 -1.78300 23.21900
H  15.49800 -3.04600 22.20300
H  15.74300 -0.80100 20.64000
H  14.06700 -0.70300 21.17600
H  14.54900 -2.17100 20.44900
H  13.77500 1.50900 25.67700
H  14.59600 2.72300 26.68800
H  13.32200 1.81700 27.41900
H  15.55500 -0.37200 31.56800
H  16.75500 3.41900 33.30700
H  18.18400 2.28800 33.59700
H  16.87200 2.21600 34.64000

