158

Mg 47.63400 16.84700 29.05000
C  45.56500 16.24700 31.84300
C  50.03400 18.22200 30.95300
C  49.29000 17.83100 26.06600
C  45.02300 15.55300 26.94900
N  47.71000 17.23600 31.09800
C  46.79700 16.92200 32.09900
C  47.39200 17.39300 33.51300
C  48.54100 18.34800 33.04300
C  48.84500 17.82400 31.63500
C  48.18100 19.84600 33.05300
C  47.81600 16.26700 34.37700
C  48.35700 16.68500 35.82000
H  47.89900 18.02900 36.40000
N  49.44200 17.75100 28.61900
C  50.34800 18.07200 29.57600
C  51.62300 18.39900 28.98200
C  51.30700 18.55600 27.60100
C  49.95700 18.06400 27.35300
C  52.87800 18.51700 29.77900
C  52.17800 19.05300 26.45900
O  51.85700 19.13900 25.30200
C  53.58300 19.36900 26.77800
N  47.24500 16.72700 26.79700
C  48.07200 17.16000 25.83700
C  47.51600 16.94600 24.42600
C  46.18300 16.11500 24.73100
C  46.14000 16.12900 26.24800
C  47.41000 18.37700 23.71400
C  46.25200 14.63400 24.03900
C  45.02100 14.31500 23.13400
N  45.67600 16.13600 29.30200
C  44.78100 15.54100 28.35100
C  43.56000 15.09300 29.07400
C  43.89600 15.29500 30.44900
C  45.14100 15.92800 30.52400
C  42.37700 14.47300 28.46700
C  43.42000 15.06600 31.79600
O  42.46700 14.41600 32.17600
C  44.51300 15.68200 32.82100
C  43.81000 16.73500 33.61600
O  43.38300 17.80700 33.14200
O  43.65400 16.30100 34.84600
C  43.04000 17.26200 35.77200
H  50.84800 18.63100 31.55500
H  49.73200 18.17700 25.13000
H  44.21000 15.08100 26.39300
H  46.62400 17.93100 34.06900
H  49.46900 18.25700 33.60700
H  47.09300 19.87300 33.11900
H  48.44600 20.28900 32.09300
H  48.70800 20.34600 33.86500
H  48.60700 15.68000 33.91000
H  46.91800 15.65700 34.47700
H  49.44300 16.59700 35.78900
H  47.99000 15.89300 36.47200
H  53.53800 17.76600 29.34500
H  52.86000 18.17100 30.81200
H  53.36700 19.49200 29.78600
H  53.97000 18.39200 27.06600
H  53.58200 20.08100 27.60400
H  54.11300 19.80900 25.93400
H  48.21200 16.30200 23.88600
H  45.30400 16.65600 24.38100
H  47.91200 18.28900 22.75000
H  47.83400 19.18300 24.31400
H  46.33600 18.47800 23.56200
H  46.40200 13.85900 24.79100
H  47.18800 14.60600 23.48200
H  44.26700 15.10200 23.13800
H  44.60400 13.37100 23.48300
H  45.20000 14.09000 22.08300
H  42.71100 13.75600 27.71600
H  41.87500 15.31900 28.00000
H  41.81100 13.90400 29.20500
H  44.73300 14.81900 33.45000
H  43.70100 18.12100 35.88900
H  42.81800 16.83700 36.75100
H  42.15800 17.69900 35.30500
Mg 49.20100 46.60900 42.90000
C  46.06100 47.35100 41.69000
C  49.20400 43.67200 41.00700
C  52.69500 46.28800 43.18300
C  49.60800 50.06900 44.01800
N  47.84700 45.66800 41.50400
C  46.60100 46.17100 41.14500
C  45.90600 45.22300 40.12700
C  46.84400 43.93100 40.10100
C  48.02300 44.42400 40.96600
C  46.31700 42.56400 40.56600
C  45.93200 45.90300 38.69300
C  44.54700 46.05500 37.98500
H  44.27100 45.58200 36.56000
N  50.68300 45.12100 42.39600
C  50.42200 43.96100 41.66400
C  51.62600 43.23000 41.57000
C  52.68600 43.87200 42.23200
C  52.05200 45.16400 42.61900
C  51.59500 41.90100 41.03100
C  54.02900 43.34900 42.43500
O  54.42000 42.23400 42.09500
C  55.09100 44.14900 42.90800
N  50.86300 47.96400 43.54300
C  52.22800 47.58800 43.58000
C  53.05000 48.71200 44.08100
C  52.07800 49.82300 44.46400
C  50.75900 49.22900 44.00900
C  53.99800 48.27900 45.27400
C  52.31700 51.27400 43.68700
C  52.34500 52.52200 44.54500
N  47.99600 48.33100 43.03900
C  48.32100 49.66500 43.44100
C  47.11400 50.54400 43.19000
C  46.19500 49.59100 42.66400
C  46.83400 48.36200 42.41800
C  47.10900 52.09600 43.37500
C  44.86900 49.48600 42.17800
O  43.94000 50.30000 42.04900
C  44.80300 48.10400 41.42800
C  43.64300 47.32900 42.00300
O  43.36600 47.24800 43.21000
O  42.95300 46.64800 41.00800
C  41.98300 45.68800 41.47900
H  49.17600 42.80800 40.33900
H  53.78500 46.29000 43.25600
H  49.75500 51.00900 44.55400
H  44.96700 44.97000 40.61800
H  47.25500 43.74600 39.10900
H  46.07600 41.95800 39.69200
H  45.34600 42.70200 41.04200
H  47.06500 42.03400 41.15400
H  46.55500 45.48000 37.90500
H  46.27200 46.91900 38.89100
H  44.19300 47.08500 38.01300
H  43.86100 45.40800 38.53200
H  52.52100 41.47800 40.64000
H  50.96500 41.96500 40.14400
H  51.20300 41.17700 41.74500
H  54.99000 44.18000 43.99300
H  55.04800 45.08000 42.34300
H  56.04600 43.64500 42.75700
H  53.62300 49.03100 43.21100
H  51.95000 49.87900 45.54500
H  53.73000 47.23700 45.44800
H  53.79300 48.88500 46.15600
H  55.06900 48.34600 45.08300
H  51.61900 51.32100 42.85100
H  53.28700 51.22200 43.19300
H  51.38600 52.47800 45.06100
H  52.34200 53.39700 43.89500
H  53.24600 52.43100 45.15100
H  47.44500 52.27600 44.39700
H  46.06200 52.32700 43.17800
H  47.83600 52.65100 42.78200
H  44.69100 48.36500 40.37600
H  42.46200 44.87000 42.01500
H  41.44600 45.26200 40.63200
H  41.34300 46.11700 42.24900

