158

Mg 28.55300 59.10000 42.44500
C  25.94000 57.30800 40.87300
C  30.73900 56.86300 41.30100
C  30.88100 61.43400 42.91100
C  26.07600 61.49000 43.40700
N  28.38200 57.31900 41.07500
C  27.19700 56.70200 40.66600
C  27.53600 55.31200 39.97500
C  29.09200 55.14600 40.30200
C  29.41100 56.48700 40.92200
C  29.40000 53.89900 41.15500
C  27.07000 55.36800 38.50400
C  26.72100 54.03200 37.87800
H  27.41200 53.64500 36.55400
N  30.56200 59.09800 42.22100
C  31.32600 58.07300 41.69400
C  32.73200 58.46400 41.64000
C  32.77300 59.81100 42.08100
C  31.35200 60.20700 42.42400
C  33.85000 57.55800 41.16700
C  34.06600 60.61500 42.22700
O  35.08500 60.15500 41.71900
C  34.11600 61.88900 42.93400
N  28.49300 61.17800 42.98200
C  29.62400 61.89900 43.16900
C  29.36900 63.27900 43.46900
C  27.81600 63.35500 43.78200
C  27.43400 61.92100 43.36500
C  30.22400 63.93600 44.58600
C  27.06500 64.40000 42.93000
C  25.97900 65.29600 43.62700
N  26.45600 59.29400 42.29800
C  25.62100 60.26900 42.83100
C  24.21700 59.80800 42.69200
C  24.32200 58.69300 41.84200
C  25.70800 58.42300 41.66200
C  23.04000 60.51100 43.27100
C  23.59600 57.68800 41.20700
O  22.36600 57.56400 41.15200
C  24.55400 56.72300 40.52500
C  24.31700 55.33700 41.02100
O  24.17500 54.95900 42.19400
O  24.23400 54.56800 39.89900
C  24.06400 53.11500 39.97400
H  31.54400 56.12700 41.25300
H  31.70400 62.11700 43.12800
H  25.32400 62.23500 43.67600
H  26.89200 54.56000 40.43000
H  29.51400 55.21100 39.29900
H  28.50400 53.28100 41.18200
H  29.75500 54.12500 42.16100
H  30.24900 53.38500 40.70400
H  27.89500 55.70400 37.87500
H  26.25100 56.03600 38.23700
H  25.64300 53.94000 37.74000
H  26.88100 53.21700 38.58500
H  34.19600 57.90100 40.19200
H  33.69400 56.48200 41.08000
H  34.70700 57.58900 41.84000
H  33.54400 62.54300 42.27700
H  35.11900 62.26600 43.13500
H  33.63100 61.77100 43.90300
H  29.52600 63.85100 42.55500
H  27.58700 63.38000 44.84700
H  30.94300 64.61200 44.12300
H  30.69300 63.08900 45.08600
H  29.63100 64.41500 45.36600
H  26.68600 63.83700 42.07700
H  27.89300 65.00800 42.56500
H  26.41100 66.29600 43.64900
H  25.87400 64.95900 44.65800
H  24.99800 65.20900 43.15900
H  22.50800 59.86800 43.97300
H  22.27900 60.73700 42.52500
H  23.21400 61.40600 43.86900
H  24.50400 56.67500 39.43800
H  25.03200 52.73300 40.29600
H  23.72500 52.82100 38.98000
H  23.41500 52.78900 40.78700
Mg -12.19100 17.01400 42.36000
C  -9.17300 15.40500 42.21900
C  -10.93000 19.74500 40.73300
C  -15.37900 18.18200 41.93400
C  -13.65300 13.80000 43.04600
N  -10.27400 17.45400 41.40500
C  -9.17300 16.69100 41.65000
C  -7.93800 17.29700 40.88400
C  -8.50100 18.77500 40.53800
C  -9.99300 18.67100 40.93800
C  -7.81800 20.02000 41.31700
C  -7.55400 16.41400 39.67100
C  -6.08500 15.99800 39.63400
H  -5.31800 16.38300 38.38600
N  -13.04500 18.75600 41.51100
C  -12.33900 19.80300 40.97900
C  -13.22200 20.86800 40.68800
C  -14.50800 20.50900 41.21000
C  -14.35800 19.10400 41.60200
C  -12.81400 22.19600 39.95800
C  -15.78000 21.35500 41.26600
O  -15.76500 22.35700 40.58800
C  -17.05400 20.99100 41.97600
N  -14.26500 16.13500 42.38400
C  -15.42000 16.89500 42.32100
C  -16.68700 16.11200 42.71300
C  -16.07800 14.65500 43.06000
C  -14.57800 14.87000 42.76800
C  -17.63800 16.77900 43.67800
C  -16.80100 13.45100 42.39600
C  -16.81400 12.19100 43.22000
N  -11.54400 15.04200 42.72300
C  -12.20600 13.86500 42.97800
C  -11.26400 12.76800 43.14900
C  -10.07100 13.34000 42.96100
C  -10.28700 14.70500 42.71000
C  -11.67700 11.39600 43.35300
C  -8.68000 13.09700 42.88300
O  -8.04400 12.08700 43.08600
C  -7.99900 14.41800 42.53100
C  -7.10200 15.01900 43.53400
O  -7.57900 15.77100 44.38300
O  -5.78300 14.65300 43.32100
C  -4.81800 15.33900 44.19900
H  -10.45100 20.64800 40.34900
H  -16.38400 18.59600 42.03600
H  -14.05800 12.79600 43.18900
H  -7.11900 17.41500 41.59200
H  -8.34100 18.87100 39.46400
H  -6.92700 19.74300 41.88100
H  -8.48300 20.51200 42.02600
H  -7.43500 20.76500 40.61900
H  -7.69800 16.93500 38.72500
H  -8.15400 15.51100 39.55800
H  -5.91900 14.92400 39.71900
H  -5.48800 16.43100 40.43700
H  -12.93800 23.11800 40.52700
H  -13.50300 22.25400 39.11500
H  -11.76900 22.10300 39.66200
H  -16.84200 20.69500 43.00400
H  -17.58900 20.17900 41.48200
H  -17.64500 21.90700 41.99800
H  -17.26900 15.87400 41.82200
H  -16.10000 14.71800 44.14800
H  -17.14100 17.49100 44.33800
H  -18.05100 16.14000 44.45900
H  -18.45000 17.31900 43.19200
H  -16.31300 13.27900 41.43700
H  -17.83500 13.58400 42.07600
H  -16.27800 11.39200 42.70700
H  -17.83700 11.83300 43.33400
H  -16.29100 12.32000 44.16800
H  -12.56200 11.34500 43.98700
H  -10.84300 10.78400 43.69500
H  -11.97300 10.99100 42.38500
H  -7.32500 14.27700 41.68600
H  -5.24300 15.54000 45.18200
H  -4.53500 16.34400 43.88600
H  -3.96200 14.71300 44.45100

