158

Mg 46.87700 15.05600 27.74900
C  44.90000 15.08500 30.72000
C  48.91800 17.41800 29.24300
C  48.47200 15.18300 25.01200
C  44.24700 13.16700 26.25600
N  46.82000 16.07600 29.74700
C  45.98100 15.94300 30.78300
C  46.52300 16.62900 32.00300
C  47.55200 17.69200 31.37400
C  47.79700 16.99700 30.01200
C  47.20200 19.16400 31.22300
C  47.28000 15.56400 32.93200
C  46.96900 15.63600 34.40000
H  48.17700 15.47800 35.40300
N  48.57900 16.04800 27.22400
C  49.28900 16.94100 27.95600
C  50.42200 17.42200 27.19500
C  50.37000 16.75500 25.92100
C  49.12800 15.97100 26.01200
C  51.41400 18.43500 27.72500
C  51.30600 16.80600 24.69700
O  51.11600 16.19200 23.62900
C  52.56900 17.68200 24.83400
N  46.26700 14.37700 25.78800
C  47.25500 14.50800 24.84600
C  46.93800 13.61100 23.62400
C  45.53800 12.96000 24.02900
C  45.31000 13.51500 25.41600
C  46.83100 14.48800 22.35800
C  45.45500 11.32700 23.96600
C  46.68400 10.57500 24.62500
N  45.02600 14.22100 28.26300
C  44.05800 13.57900 27.52400
C  42.93400 13.26800 28.38100
C  43.23700 13.85200 29.61600
C  44.49800 14.43600 29.52900
C  41.63600 12.76000 27.95200
C  42.61300 14.10100 30.96500
O  41.50300 13.89500 31.46600
C  43.82300 14.84000 31.71500
C  43.27400 16.16700 32.19600
O  43.02200 17.10300 31.50100
O  43.12500 16.13000 33.58500
C  42.67600 17.30200 34.36200
H  49.59600 18.14100 29.70300
H  49.14900 15.18900 24.15600
H  43.41500 12.64200 25.78400
H  45.70900 17.03500 32.60300
H  48.44500 17.74000 31.99700
H  46.99100 19.39700 30.17900
H  48.04400 19.76100 31.57200
H  46.27200 19.30400 31.77300
H  48.35000 15.63500 32.73400
H  46.95500 14.57000 32.62400
H  46.26000 14.86800 34.70900
H  46.48500 16.59500 34.58500
H  51.70500 19.12600 26.93400
H  52.28500 17.90100 28.10600
H  51.03000 19.01800 28.56300
H  53.12600 17.62700 23.89900
H  53.18200 17.29800 25.64900
H  52.26800 18.72900 24.85900
H  47.67500 12.80800 23.63400
H  44.79000 13.26800 23.29700
H  46.50900 15.51400 22.53600
H  46.04700 14.10400 21.70500
H  47.84100 14.55500 21.95300
H  45.49500 11.02700 22.91900
H  44.59200 10.89500 24.47200
H  47.27300 10.15200 23.81200
H  46.24700 9.77700 25.22600
H  47.23900 11.22400 25.30300
H  41.22300 13.19600 27.04300
H  40.98600 13.04300 28.78000
H  41.80600 11.69100 27.82500
H  44.16600 14.35700 32.63000
H  42.30700 18.17100 33.81800
H  43.47600 17.69100 34.99200
H  41.85900 17.01300 35.02300
Mg 46.61800 25.02200 28.10600
C  47.30500 27.03100 30.89000
C  45.39400 22.61800 30.46300
C  46.49900 22.84800 25.58500
C  48.33000 27.32900 26.03800
N  46.51000 24.85800 30.41500
C  46.86000 25.77500 31.31600
C  46.63300 25.29200 32.75100
C  46.34400 23.77200 32.55100
C  46.00900 23.75800 31.04400
C  47.54500 22.89900 32.85000
C  45.52800 26.09200 33.51000
C  45.95000 27.01300 34.59400
H  44.90100 27.23000 35.63900
N  45.98300 23.08500 28.01000
C  45.35700 22.33000 29.00300
C  44.96300 21.06200 28.48300
C  45.42400 21.01000 27.11800
C  45.93700 22.36600 26.77900
C  44.24700 20.02400 29.37400
C  45.37000 19.88500 26.15100
O  45.63600 19.94200 24.94800
C  45.03200 18.42200 26.62000
N  47.39800 25.01600 26.12000
C  47.05700 24.08700 25.23900
C  47.69200 24.38600 23.83900
C  48.09300 25.90200 23.93700
C  47.97700 26.11300 25.46400
C  48.95700 23.49100 23.57700
C  47.13300 26.74800 23.02600
C  47.85400 27.23100 21.71800
N  47.41300 26.89200 28.36100
C  48.06700 27.67600 27.41700
C  48.36800 28.96600 28.13900
C  48.20800 28.68000 29.48800
C  47.59800 27.41300 29.56800
C  49.05900 30.21500 27.50000
C  48.51000 29.19900 30.81500
O  49.12600 30.19600 31.15800
C  47.89600 28.19600 31.78200
C  49.01200 27.77800 32.68900
O  49.94800 27.07500 32.39900
O  48.89700 28.33200 33.89800
C  49.78300 27.78800 34.90500
H  44.98300 21.93400 31.20800
H  46.64300 22.15300 24.75400
H  48.80300 28.02500 25.34200
H  47.62800 25.42900 33.17300
H  45.49500 23.36400 33.09900
H  48.00400 23.15900 33.80400
H  48.30900 23.08800 32.09600
H  47.31300 21.83700 32.77900
H  44.84700 25.37700 33.96900
H  44.98500 26.53400 32.67500
H  46.11300 27.96400 34.08600
H  46.91200 26.70600 35.00600
H  43.92600 20.29100 30.38100
H  44.88400 19.15900 29.55600
H  43.39900 19.61700 28.82300
H  45.32000 17.73200 25.82700
H  43.97000 18.29900 26.83200
H  45.54900 18.35100 27.57700
H  46.87900 24.08400 23.18000
H  49.12700 26.03000 23.61400
H  48.57100 22.47400 23.50300
H  49.39100 23.34000 24.56500
H  49.51200 23.82700 22.70100
H  46.79300 27.57700 23.64700
H  46.29000 26.15300 22.67500
H  48.84400 26.83300 21.49100
H  47.89000 28.32000 21.74800
H  47.21000 27.04200 20.85900
H  48.66900 30.45500 26.51000
H  50.03100 29.75500 27.32000
H  49.11700 31.06200 28.18400
H  47.07200 28.62400 32.35200
H  49.22500 27.26700 35.68300
H  50.45600 28.55100 35.29800
H  50.59700 27.16400 34.53600

