158

Mg 0.58600 7.79400 25.23800
C  0.97800 9.51500 28.28400
C  0.73400 4.82400 27.00600
C  0.40100 6.07500 22.43300
C  0.68500 10.78300 23.61000
N  0.97000 7.24000 27.37300
C  0.96800 8.08700 28.50800
C  0.99700 7.39200 29.90300
C  1.09600 5.85500 29.38300
C  0.91000 5.97100 27.84100
C  2.39400 5.21400 29.76300
C  -0.21300 7.78500 30.77600
C  0.06000 7.74900 32.32200
H  1.37000 7.18400 32.97100
N  0.43600 5.73000 24.83100
C  0.64900 4.67700 25.63000
C  0.66700 3.49500 24.84900
C  0.24100 3.82800 23.51600
C  0.33700 5.27000 23.58400
C  0.99600 2.24500 25.49600
C  -0.06400 2.92600 22.27400
O  -0.20600 3.38200 21.14400
C  -0.01300 1.42200 22.50900
N  0.45800 8.35600 23.25700
C  0.40200 7.47000 22.26000
C  0.50700 8.09400 20.92100
C  0.46500 9.61800 21.26800
C  0.55800 9.64300 22.79700
C  1.81100 7.72000 20.06700
C  -0.89100 10.25900 20.75400
C  -1.01600 11.78200 20.65200
N  0.69100 9.77100 25.74900
C  0.78300 10.89000 25.00400
C  0.86100 12.10500 25.80200
C  0.95400 11.57400 27.14800
C  0.85000 10.14400 27.01500
C  0.94700 13.58100 25.27700
C  1.20800 11.92800 28.53700
O  1.53500 13.02400 29.01200
C  1.00900 10.65500 29.34000
C  2.17700 10.42600 30.24900
O  3.27400 9.97200 29.85600
O  2.04600 11.00200 31.49900
C  3.23000 11.12400 32.34200
H  0.87400 3.93300 27.62200
H  0.41900 5.57800 21.46100
H  0.78600 11.65200 22.95600
H  1.94000 7.75500 30.31100
H  0.24900 5.31300 29.80300
H  2.96700 5.76300 30.51000
H  3.09800 5.12800 28.93500
H  2.29000 4.21300 30.18300
H  -1.04300 7.07900 30.78400
H  -0.59100 8.79000 30.58800
H  -0.67300 7.08900 32.78600
H  -0.11800 8.74400 32.72800
H  0.58500 1.34000 25.04900
H  0.73800 2.24000 26.55500
H  2.08300 2.30600 25.55300
H  -0.87000 1.13400 23.11800
H  0.94300 1.23300 22.99700
H  -0.09500 1.11700 21.46600
H  -0.38500 7.86100 20.33800
H  1.29300 10.28200 21.01900
H  1.71800 6.73500 19.60800
H  2.68100 7.60800 20.71300
H  1.99600 8.45700 19.28600
H  -1.57500 10.07000 21.58100
H  -1.22300 9.75400 19.84800
H  -1.60000 11.93800 19.74600
H  -0.09200 12.35500 20.56900
H  -1.57700 12.15300 21.51000
H  0.14500 14.21000 25.66400
H  0.95000 13.61100 24.18800
H  1.86400 14.12400 25.50600
H  0.05400 10.83900 29.83200
H  3.71900 10.16800 32.52800
H  2.92000 11.57700 33.28300
H  3.94100 11.84100 31.93100
Mg 35.69500 0.83100 30.16100
C  33.31800 1.99800 32.39400
C  38.00200 1.07800 32.54700
C  37.75800 -0.08200 27.88800
C  33.22600 1.35300 27.57800
N  35.71200 1.75800 32.25200
C  34.59500 1.83400 33.03700
C  34.97500 1.75800 34.54700
C  36.52700 1.87800 34.47100
C  36.76400 1.51500 33.01900
C  36.98500 3.33200 34.74600
C  34.50700 0.40200 35.17700
C  33.51300 0.57600 36.37400
H  33.99900 1.63300 37.42300
N  37.62500 0.42000 30.22300
C  38.41500 0.59200 31.30000
C  39.74600 0.11900 30.92500
C  39.68900 -0.24000 29.49800
C  38.28600 0.05200 29.14500
C  40.88100 -0.08900 31.86000
C  40.76400 -0.93300 28.54400
O  40.52600 -1.40900 27.42400
C  42.19000 -1.15700 29.04900
N  35.49300 0.57600 28.03900
C  36.51200 0.17100 27.35300
C  36.16300 0.00900 25.85900
C  34.63500 0.36000 25.82900
C  34.42600 0.77700 27.26200
C  37.07400 0.93500 24.94400
C  33.65900 -0.79500 25.36700
C  32.84300 -0.60400 24.07500
N  33.70400 1.62700 29.96000
C  32.87500 1.84300 28.84900
C  31.60000 2.38900 29.31300
C  31.68200 2.23000 30.73900
C  33.02100 1.94200 31.02800
C  30.42600 2.70800 28.48300
C  30.96400 2.30700 31.96100
O  29.77400 2.49200 32.04900
C  31.96100 2.19100 33.09700
C  32.02100 3.46600 33.81800
O  32.59500 4.49000 33.51100
O  31.33000 3.25800 34.97800
C  31.23000 4.40900 35.88600
H  38.82300 1.14600 33.26400
H  38.40800 -0.47100 27.10100
H  32.46000 1.30100 26.80200
H  34.61600 2.67200 35.02100
H  37.11200 1.11200 34.97900
H  36.74900 3.98400 33.90600
H  38.04800 3.29800 34.98500
H  36.56700 3.71200 35.67800
H  35.29900 -0.29100 35.46100
H  34.02500 -0.17900 34.39100
H  33.54400 -0.31800 36.99800
H  32.49000 0.70400 36.02000
H  41.72600 0.41300 31.38900
H  41.09000 -1.12300 32.13600
H  40.77900 0.46500 32.79300
H  42.74300 -1.71500 28.29300
H  42.15300 -1.86300 29.87900
H  42.51200 -0.17000 29.37900
H  36.17000 -1.06700 25.68900
H  34.29700 1.19300 25.21200
H  37.50400 1.65800 25.63800
H  36.39500 1.40500 24.23300
H  37.73500 0.35000 24.30500
H  32.98100 -1.07900 26.17200
H  34.16900 -1.75200 25.26200
H  33.31100 0.27300 23.62900
H  31.77500 -0.45300 24.23200
H  32.88300 -1.38300 23.31400
H  30.64200 2.58900 27.42100
H  30.14500 3.74600 28.65800
H  29.56100 2.12500 28.79700
H  31.70300 1.34600 33.73600
H  32.25400 4.46400 36.25700
H  30.54500 4.16300 36.69800
H  30.83900 5.33100 35.45500

