158

Mg 43.41500 4.29000 47.33600
C  41.26000 7.08200 47.40900
C  40.41600 2.37500 46.97500
C  45.30200 1.62800 46.65500
C  46.11000 6.35000 47.34300
N  41.08600 4.74000 46.88000
C  40.56000 5.92900 47.29800
C  39.05600 5.83900 47.49500
C  38.77000 4.26800 47.52000
C  40.17900 3.75800 47.09600
C  38.25300 3.69100 48.86000
C  38.13800 6.62600 46.37600
C  38.59000 6.40600 44.86000
H  38.81600 7.63600 43.99200
N  43.00500 2.32700 46.98200
C  41.69900 1.79500 46.93900
C  41.87100 0.40100 46.84700
C  43.22100 0.08400 46.57900
C  43.92600 1.36900 46.66300
C  40.67900 -0.57200 47.02700
C  43.78600 -1.27700 46.29800
O  43.03700 -2.24600 46.19900
C  45.16000 -1.53100 46.12700
N  45.43100 4.09000 47.06700
C  46.02900 2.81100 46.94000
C  47.52700 3.02800 46.90600
C  47.90500 4.57300 47.10900
C  46.40000 5.01400 47.19500
C  48.45800 2.05900 47.73800
C  48.75100 5.36300 46.06300
C  49.94000 4.67900 45.52200
N  43.69800 6.34500 47.31900
C  44.87900 7.06800 47.49600
C  44.60700 8.44200 47.67700
C  43.16800 8.47100 47.67000
C  42.68000 7.16900 47.36700
C  45.67700 9.53900 47.93900
C  42.04200 9.39400 47.88400
O  42.01800 10.59200 48.16600
C  40.76000 8.52800 47.70000
C  39.94100 8.54800 48.93900
O  40.21100 7.95800 50.01200
O  38.86300 9.39400 48.69300
C  37.82800 9.43800 49.84300
H  39.55300 1.71100 47.04900
H  46.05900 0.85500 46.50700
H  46.99400 6.98900 47.37200
H  38.87800 6.22800 48.49800
H  38.05800 4.08100 46.71600
H  37.59400 4.35200 49.42400
H  39.08400 3.33700 49.47100
H  37.70900 2.77500 48.62900
H  37.97200 7.65400 46.69600
H  37.16400 6.13800 46.35700
H  37.84600 5.76400 44.38600
H  39.50600 5.82200 44.77300
H  40.17100 -0.78200 46.08600
H  40.06000 -0.09800 47.78900
H  41.11900 -1.49700 47.40000
H  45.79300 -1.02100 46.85300
H  45.50200 -0.98900 45.24500
H  45.25700 -2.61100 46.02000
H  47.77500 2.71000 45.89300
H  48.41000 4.70000 48.06700
H  49.17500 1.57100 47.07800
H  47.82100 1.27600 48.15100
H  49.03500 2.55700 48.51700
H  48.96100 6.33300 46.51500
H  48.00400 5.52200 45.28500
H  49.70500 4.35900 44.50700
H  50.42600 3.86700 46.06300
H  50.68700 5.45800 45.37000
H  45.31700 10.56800 47.91300
H  46.46800 9.49200 47.19000
H  46.11700 9.21100 48.88000
H  40.20700 8.85200 46.81700
H  38.30300 9.98800 50.65500
H  37.67100 8.45300 50.28200
H  36.88100 9.80400 49.44400
Mg 35.90500 1.93400 29.58200
C  33.72500 3.19700 32.10100
C  38.45800 2.22200 31.82600
C  37.96000 0.97500 27.10100
C  33.39800 2.47300 27.37100
N  36.01400 2.56300 31.72500
C  34.99400 2.91900 32.56700
C  35.43000 3.03500 34.03800
C  36.99800 2.89400 33.93500
C  37.21600 2.48300 32.42500
C  37.86000 4.16900 34.37600
C  34.77900 1.88300 34.94200
C  34.11200 2.39700 36.18400
H  34.81300 3.36900 37.13800
N  37.93700 1.75800 29.41300
C  38.77500 1.85500 30.45000
C  40.13800 1.57300 29.94600
C  39.99200 1.04800 28.58400
C  38.57600 1.23800 28.29600
C  41.36800 1.54900 30.76200
C  41.07700 0.58500 27.63000
O  40.84200 0.47300 26.42700
C  42.46100 0.33200 28.18000
N  35.65000 1.45600 27.61900
C  36.65200 1.18200 26.73500
C  36.18600 1.06800 25.27400
C  34.67400 1.57200 25.41900
C  34.52100 1.75300 26.90600
C  36.99500 1.96100 24.33100
C  33.58800 0.71100 24.85500
C  33.40500 -0.70800 25.48700
N  33.90200 2.52200 29.70600
C  33.06100 2.78900 28.70800
C  31.82900 3.40300 29.14600
C  31.98500 3.49900 30.52900
C  33.29100 3.04700 30.77200
C  30.53100 3.68900 28.29100
C  31.36100 3.92100 31.72700
O  30.31600 4.48900 31.91400
C  32.45400 3.65800 32.82600
C  32.65600 5.00300 33.43700
O  33.21500 5.94200 32.94200
O  32.01100 5.03800 34.63300
C  31.89200 6.27700 35.33400
H  39.26900 2.35000 32.54600
H  38.67800 0.66400 26.34000
H  32.69800 2.74700 26.57800
H  35.09600 4.01800 34.36800
H  37.37300 2.08500 34.56300
H  38.60100 3.94700 35.14300
H  37.23400 4.97700 34.75500
H  38.39400 4.66800 33.56700
H  35.50700 1.16700 35.32300
H  33.97800 1.34500 34.43500
H  33.78300 1.51200 36.72800
H  33.17200 2.84200 35.85500
H  41.25900 1.86700 31.79900
H  41.99300 2.35100 30.37100
H  41.84000 0.56700 30.76000
H  42.80700 1.17800 28.77400
H  43.17100 0.18900 27.36500
H  42.43900 -0.61400 28.72100
H  36.16500 0.06700 24.84400
H  34.59300 2.56100 24.96800
H  36.81100 1.56900 23.33100
H  38.05300 1.93300 24.59200
H  36.66300 2.99600 24.41500
H  33.83200 0.52600 23.80900
H  32.65600 1.27500 24.85600
H  33.60700 -1.30000 24.59400
H  32.37100 -0.75700 25.82800
H  34.06400 -0.91200 26.33100
H  30.23600 4.70500 28.02600
H  29.65000 3.29100 28.79400
H  30.68600 3.18200 27.33900
H  32.02700 3.00900 33.59100
H  31.57100 6.10400 36.36200
H  31.19900 6.93400 34.80900
H  32.85900 6.76200 35.46200

