158

Mg 7.04600 2.87500 27.94800
C  8.65500 1.44200 30.88700
C  5.23100 4.78700 30.08800
C  5.50700 4.20300 25.26400
C  8.71300 0.67000 26.04700
N  6.91900 3.00400 30.32000
C  7.77200 2.44600 31.23000
C  7.46100 3.09900 32.60100
C  6.10400 4.01100 32.38200
C  6.14300 3.99900 30.82400
C  4.81200 3.44100 32.85000
C  8.61300 3.99600 33.01900
C  8.42200 4.72700 34.40000
H  9.34900 4.25000 35.47400
N  5.60600 4.28500 27.70000
C  4.91300 4.96300 28.70000
C  3.93400 5.91000 28.17700
C  4.10600 5.85500 26.74600
C  5.11700 4.80900 26.49200
C  3.08900 6.76700 29.10100
C  3.35200 6.65300 25.76400
O  3.61200 6.52100 24.59300
C  2.27700 7.73000 26.11800
N  6.99300 2.46200 25.96700
C  6.39200 3.14800 24.97700
C  6.72800 2.65400 23.54800
C  7.91500 1.66800 23.90000
C  7.82000 1.53300 25.43500
C  5.45200 2.04500 22.88400
C  9.27800 2.21800 23.39000
C  10.06200 3.18800 24.33600
N  8.25600 1.28300 28.35700
C  8.96300 0.54100 27.47700
C  9.82500 -0.34700 28.10400
C  9.72800 -0.09700 29.48700
C  8.82100 0.98800 29.58400
C  10.69100 -1.37300 27.33800
C  10.28100 -0.35900 30.79800
O  11.16200 -1.16500 31.12600
C  9.66000 0.68900 31.75200
C  9.07200 -0.01000 32.86800
O  7.95500 -0.44500 32.87500
O  9.96900 -0.18100 33.90700
C  9.50500 -0.56400 35.27800
H  4.87900 5.50900 30.82800
H  4.92500 4.58500 24.42200
H  9.21900 -0.06700 25.42000
H  7.21800 2.32300 33.32800
H  6.27300 4.99200 32.82600
H  4.57900 4.00600 33.75200
H  4.90500 2.36900 33.03000
H  4.00400 3.67100 32.15600
H  8.70600 4.81800 32.30900
H  9.53800 3.42000 33.05900
H  7.42500 4.43600 34.73000
H  8.52400 5.77700 34.12600
H  3.13800 7.80700 28.77800
H  3.50300 6.73400 30.10900
H  2.04300 6.45800 29.11000
H  1.57400 7.32900 26.84800
H  1.78700 8.08300 25.21100
H  2.79600 8.51900 26.66300
H  7.11800 3.60000 23.17300
H  7.57900 0.71700 23.48600
H  4.52300 2.34900 23.36700
H  5.52200 0.96000 22.95200
H  5.37200 2.27000 21.82000
H  9.03900 2.66000 22.42300
H  9.83600 1.32700 23.10000
H  9.90000 4.19500 23.95300
H  11.13900 3.02000 24.34500
H  9.80900 3.14500 25.39500
H  11.63200 -1.68400 27.79100
H  10.98600 -1.06200 26.33600
H  10.04500 -2.23600 27.17600
H  10.35000 1.48800 32.02200
H  8.58900 -1.15400 35.28700
H  9.21600 0.38300 35.73500
H  10.24200 -1.07100 35.90000
Mg 6.08700 54.40100 40.70500
C  4.77500 51.25900 40.74400
C  8.97000 53.27300 39.32100
C  7.08600 57.65800 40.36200
C  2.96800 55.66500 42.00800
N  6.65000 52.48400 40.02300
C  6.04700 51.30800 40.16400
C  6.82100 50.21900 39.57200
C  8.28500 50.80000 39.57500
C  7.95200 52.30600 39.61900
C  9.15000 50.30500 40.78500
C  6.28100 49.84100 38.11600
C  6.50400 48.40900 37.61600
H  5.77200 48.13800 36.34300
N  7.75300 55.32400 39.89200
C  8.90300 54.65900 39.48300
C  9.87100 55.67700 39.19200
C  9.34700 57.00200 39.49900
C  7.96100 56.69000 39.96700
C  11.29200 55.21200 38.60100
C  10.09200 58.29700 39.42900
O  11.31000 58.31100 39.28500
C  9.49500 59.67900 39.39700
N  4.98300 56.47800 40.92600
C  5.80700 57.61400 40.86500
C  5.02800 58.80800 41.52800
C  3.75200 58.06800 42.08900
C  3.89000 56.64600 41.65200
C  5.83200 59.61900 42.57500
C  2.39700 58.73900 41.68600
C  1.86300 59.85100 42.60100
N  4.29900 53.67900 41.32300
C  3.15800 54.28200 41.84600
C  2.20900 53.20000 42.21600
C  2.88300 52.01300 41.86500
C  4.09000 52.37300 41.28200
C  0.75200 53.35600 42.67400
C  2.76800 50.65300 41.92500
O  1.87400 49.92700 42.38200
C  4.03800 49.96700 41.27100
C  3.60800 48.91600 40.30900
O  2.77100 48.93500 39.49200
O  4.29600 47.80800 40.67900
C  3.77900 46.48900 40.27900
H  9.86000 52.77500 38.93200
H  7.38100 58.70200 40.48600
H  2.03800 55.90600 42.52700
H  6.69100 49.28600 40.11900
H  8.93600 50.59600 38.72500
H  10.16200 50.18600 40.39900
H  8.74300 49.40600 41.24900
H  9.27400 51.01200 41.60500
H  6.88500 50.36300 37.37300
H  5.29100 50.25700 37.92700
H  6.21400 47.62700 38.31800
H  7.53300 48.24600 37.29600
H  11.62700 54.57000 39.41500
H  12.00700 56.02200 38.45400
H  11.20300 54.53600 37.75100
H  8.46400 59.67000 39.04300
H  10.10100 60.29900 38.73500
H  9.49600 60.03400 40.42800
H  4.76200 59.39700 40.65100
H  3.86100 57.98000 43.17000
H  6.72200 59.03600 42.81200
H  5.30800 59.98700 43.45700
H  5.99400 60.50500 41.96100
H  1.62600 57.96900 41.72900
H  2.53000 59.01100 40.63900
H  2.66300 60.10400 43.29800
H  0.91300 59.55400 43.04600
H  1.58700 60.71500 41.99700
H  0.72900 54.28600 43.24300
H  0.48400 52.46000 43.23400
H  0.18000 53.45100 41.75100
H  4.52600 49.53500 42.14500
H  4.55600 45.73400 40.15700
H  3.22600 46.42400 39.34200
H  3.08800 46.26600 41.09300

