158

Mg 51.31400 46.29100 43.43200
C  48.33200 47.11300 41.95100
C  50.75300 43.01400 42.16100
C  54.37800 45.47200 44.43900
C  51.87500 49.59000 44.31500
N  49.57800 45.21400 42.32500
C  48.54200 45.79900 41.69400
C  47.68100 44.77200 40.89900
C  48.54000 43.53600 41.00800
C  49.69000 43.94400 41.96400
C  47.69900 42.24400 41.34400
C  47.43100 45.21500 39.38000
C  46.03700 44.89500 38.83900
H  45.88500 44.12100 37.59700
N  52.44800 44.55000 43.29800
C  52.05500 43.30800 42.72000
C  53.13400 42.35500 42.84300
C  54.20800 43.04200 43.53400
C  53.68200 44.38100 43.87200
C  53.05800 40.92100 42.38300
C  55.55800 42.45700 43.81700
O  55.86100 41.34300 43.46600
C  56.50700 43.29000 44.55100
N  53.04200 47.48300 44.05800
C  54.15200 46.89400 44.57800
C  55.06900 47.99700 45.32200
C  54.13100 49.15500 45.32300
C  52.98600 48.75600 44.46400
C  55.55300 47.45200 46.76100
C  54.70600 50.57300 44.99000
C  54.11000 51.69300 45.78400
N  50.33100 48.03900 43.37600
C  50.62500 49.27400 43.74900
C  49.59400 50.22000 43.35700
C  48.65200 49.40900 42.62700
C  49.12800 48.09800 42.68000
C  49.53700 51.67400 43.73900
C  47.39800 49.39200 42.04200
O  46.55100 50.29600 41.96800
C  47.17200 47.96100 41.40600
C  45.85800 47.41100 41.67000
O  45.41500 47.13400 42.75300
O  45.13700 47.37800 40.53200
C  43.70200 47.05300 40.58400
H  50.66600 42.02500 41.70500
H  55.30000 45.32500 45.00600
H  51.92900 50.61000 44.70100
H  46.85600 44.64700 41.60100
H  48.93800 43.34500 40.01100
H  47.90400 42.15900 42.41100
H  48.19100 41.41500 40.83600
H  46.62000 42.34900 41.23300
H  48.13500 44.68400 38.73900
H  47.54600 46.29700 39.31800
H  45.48400 45.81400 38.64600
H  45.43200 44.37100 39.57900
H  53.92900 40.74300 41.75300
H  52.21200 40.72800 41.72300
H  52.94900 40.23000 43.21900
H  57.43900 42.80100 44.83300
H  56.05100 43.49500 45.52000
H  56.79500 44.21100 44.04400
H  55.92700 48.32100 44.73400
H  53.70400 49.18600 46.32600
H  55.18800 48.16200 47.50300
H  56.61400 47.48900 47.00800
H  55.25500 46.40800 46.86000
H  54.49600 50.98900 44.00500
H  55.78700 50.60100 45.13200
H  53.63800 52.35200 45.05600
H  54.87700 52.20200 46.36800
H  53.35300 51.36600 46.49600
H  48.58300 52.11800 43.45800
H  50.41000 52.22300 43.38800
H  49.51900 51.67200 44.82900
H  47.45000 48.22500 40.38600
H  43.40800 46.32200 41.33600
H  43.43700 46.65400 39.60400
H  43.16500 47.98300 40.77100
Mg 43.34500 41.70500 26.10700
C  42.70100 44.10500 28.47600
C  44.13200 39.52400 28.90900
C  44.37600 39.37900 23.99900
C  43.10900 44.02900 23.61800
N  43.31100 41.81100 28.50000
C  43.00900 42.91500 29.20000
C  43.04900 42.67100 30.67000
C  43.58300 41.16400 30.79100
C  43.70700 40.77600 29.36400
C  44.79200 40.80500 31.74200
C  41.65900 43.04800 31.33300
C  41.02600 42.20000 32.52600
H  40.43200 42.82500 33.79000
N  44.06000 39.70500 26.34700
C  44.29900 39.03200 27.59200
C  44.79900 37.69600 27.19600
C  44.79200 37.54800 25.76900
C  44.39900 38.90600 25.34600
C  45.29500 36.69800 28.20600
C  44.98400 36.26500 24.95200
O  44.93200 36.32500 23.68500
C  45.18300 34.91200 25.52800
N  43.63500 41.76200 24.16500
C  43.96100 40.58900 23.52500
C  43.87300 40.79600 21.94600
C  43.61400 42.31800 21.80600
C  43.39000 42.75500 23.26300
C  45.00700 40.32600 21.08900
C  42.42200 42.67500 20.88300
C  42.69700 42.74800 19.38900
N  43.01400 43.59800 26.06100
C  42.88400 44.47200 24.96000
C  42.43900 45.76600 25.42500
C  42.35300 45.65700 26.76300
C  42.74600 44.35800 27.11900
C  42.08700 46.93300 24.63400
C  41.98400 46.40600 27.99900
O  41.59500 47.51800 28.21700
C  42.32900 45.41200 29.12800
C  43.35600 46.13400 30.03300
O  44.51000 46.40000 29.61700
O  42.79300 46.52800 31.23200
C  43.80300 46.95000 32.25400
H  44.24500 38.86300 29.77000
H  44.82300 38.75600 23.22100
H  42.94700 44.72900 22.79600
H  43.75800 43.38200 31.09300
H  42.84800 40.51800 31.27100
H  45.63900 40.41200 31.18000
H  44.48400 40.07100 32.48700
H  45.17900 41.70800 32.21500
H  40.92900 43.02100 30.52400
H  41.71500 44.05800 31.74000
H  41.60300 41.29800 32.72900
H  40.15300 41.91200 31.94000
H  46.34600 36.54000 27.96500
H  44.81300 35.73000 28.06400
H  45.26900 36.99100 29.25500
H  46.16000 34.94300 26.01200
H  45.24600 34.16600 24.73600
H  44.42000 34.61400 26.24700
H  42.95600 40.27100 21.67700
H  44.49200 42.85800 21.45300
H  44.80200 39.29900 20.78600
H  45.92200 40.52700 21.64700
H  45.15800 40.94500 20.20500
H  41.93600 43.62600 21.10100
H  41.65600 41.90400 20.97200
H  42.63200 43.73500 18.93100
H  42.06300 42.07100 18.81700
H  43.72100 42.37500 19.38200
H  41.88000 47.83200 25.21400
H  41.32000 46.76100 23.87900
H  43.00100 47.15300 24.08200
H  41.33800 45.25700 29.55400
H  44.68300 47.43500 31.83200
H  44.12000 46.13000 32.89900
H  43.30400 47.73900 32.81600

