158

Mg 1.80500 -1.17600 45.01300
C  5.22100 -0.51300 44.61100
C  0.98500 1.31600 42.93200
C  -1.47300 -2.26600 45.06400
C  2.78100 -4.26400 46.42800
N  2.97800 0.07900 43.84000
C  4.33400 0.25700 43.80700
C  4.78200 1.41700 42.88800
C  3.39000 2.02400 42.47600
C  2.40300 1.07100 43.13600
C  3.16100 3.56800 42.91700
C  5.80800 1.00800 41.64600
C  7.11200 1.81100 41.43400
H  7.69400 2.22600 40.09200
N  -0.06200 -0.47000 44.22100
C  -0.16100 0.62100 43.40800
C  -1.52100 0.88500 43.16800
C  -2.29600 -0.17300 43.73000
C  -1.28800 -1.03100 44.38800
C  -2.10100 2.06700 42.29600
C  -3.76200 -0.40100 43.54300
O  -4.44200 0.42100 42.94300
C  -4.61100 -1.54100 44.13400
N  0.86900 -3.02100 45.47700
C  -0.53900 -3.16000 45.55100
C  -0.90500 -4.40400 46.34200
C  0.42300 -5.11600 46.63400
C  1.41000 -4.02400 46.28500
C  -1.84700 -4.38100 47.55200
C  0.68400 -6.41900 45.74300
C  1.29500 -7.70600 46.38100
N  3.67600 -2.23100 45.53100
C  3.88500 -3.46100 46.14000
C  5.36000 -3.55200 46.42100
C  5.90000 -2.38700 45.97100
C  4.84700 -1.65300 45.36700
C  5.95400 -4.67100 47.18500
C  7.16100 -1.58100 45.87200
O  8.27900 -1.75100 46.25500
C  6.72600 -0.36500 44.88100
C  7.11300 1.00600 45.39900
O  6.52100 1.53800 46.30300
O  8.09100 1.51600 44.60800
C  8.16700 2.97700 44.73700
H  0.67500 2.09600 42.23400
H  -2.48000 -2.68700 45.09600
H  3.04600 -5.08800 47.09400
H  5.26100 2.24100 43.41800
H  3.15700 1.90300 41.41800
H  2.73300 4.13400 42.08900
H  4.05200 4.10600 43.24300
H  2.44900 3.54000 43.74100
H  5.20900 0.95300 40.73700
H  6.12900 -0.03300 41.68300
H  7.80500 1.13200 41.93100
H  7.02600 2.70300 42.05400
H  -2.75500 1.74900 41.48500
H  -1.36900 2.70700 41.80200
H  -2.74300 2.65700 42.95000
H  -4.38300 -1.64200 45.19500
H  -4.62400 -2.45200 43.53600
H  -5.62000 -1.12800 44.13100
H  -1.47600 -5.10000 45.72800
H  0.45800 -5.30900 47.70700
H  -2.73200 -4.98300 47.34900
H  -2.01200 -3.31900 47.73600
H  -1.40000 -4.88300 48.41000
H  1.39800 -6.15900 44.96200
H  -0.25200 -6.64400 45.23200
H  0.50800 -8.45800 46.33400
H  1.47900 -7.57000 47.44700
H  2.27900 -7.89000 45.95000
H  5.88400 -5.51600 46.50000
H  5.35500 -4.85200 48.07800
H  6.94600 -4.47400 47.59100
H  7.41000 -0.42500 44.03500
H  8.93700 3.17300 45.48300
H  7.28700 3.57200 44.97800
H  8.63400 3.38000 43.83800
Mg 25.08600 1.85900 29.26500
C  27.32700 1.38100 32.01600
C  22.54000 1.75300 31.46000
C  23.02100 1.74100 26.61400
C  27.92200 1.34100 27.18600
N  25.02300 1.67500 31.54500
C  26.04100 1.51700 32.46200
C  25.54000 1.69800 33.88500
C  23.98900 1.68300 33.56600
C  23.79100 1.65300 32.07500
C  23.23100 0.64100 34.36300
C  26.02500 2.95900 34.62300
C  25.15900 3.44100 35.78700
H  25.90500 4.22100 36.92700
N  23.03100 1.88400 29.10100
C  22.16200 1.84500 30.07700
C  20.88100 2.08500 29.55400
C  20.92100 1.95500 28.11400
C  22.31500 1.80000 27.89500
C  19.65400 2.05300 30.49900
C  19.84300 1.81700 27.01700
O  20.10100 1.69400 25.80400
C  18.39600 1.74400 27.47400
N  25.43500 1.40300 27.25900
C  24.41600 1.60000 26.33900
C  24.91300 1.55200 24.88300
C  26.51600 1.72000 25.14600
C  26.65900 1.41200 26.59200
C  24.45400 0.40000 24.01500
C  27.08000 3.14600 24.76700
C  26.82600 4.33100 25.65500
N  27.21400 1.48000 29.47000
C  28.16200 1.34900 28.54100
C  29.43100 1.07600 29.18900
C  29.15500 1.11400 30.55300
C  27.77200 1.37300 30.63700
C  30.82800 0.83300 28.64100
C  29.68200 1.02400 31.91100
O  30.81300 0.90900 32.32700
C  28.54600 1.21900 32.89000
C  28.47700 0.23700 34.03100
O  27.67500 -0.73200 34.05400
O  29.37800 0.51000 35.05500
C  29.59200 -0.61300 35.90100
H  21.76400 1.75500 32.22800
H  22.37100 1.90500 25.75200
H  28.73900 1.46200 26.47100
H  25.63600 0.86600 34.58400
H  23.64400 2.66000 33.90400
H  23.64600 -0.33700 34.11900
H  22.15100 0.65200 34.21400
H  23.34400 0.78400 35.43800
H  26.12500 3.73400 33.86400
H  27.05900 2.85200 34.94900
H  24.77800 2.51600 36.21900
H  24.33900 4.10200 35.50600
H  19.20600 3.02000 30.73100
H  19.96500 1.65900 31.46700
H  18.88300 1.36500 30.15300
H  17.93300 0.76200 27.57000
H  17.91300 2.29000 26.66300
H  18.18600 2.32700 28.37100
H  24.59600 2.48100 24.40900
H  27.15200 0.99800 24.63400
H  25.15600 0.18200 23.21000
H  23.45900 0.62100 23.63000
H  24.39500 -0.44900 24.69500
H  26.46900 3.46200 23.92100
H  28.11200 3.02800 24.43700
H  26.82300 3.91900 26.66400
H  25.89500 4.89000 25.56400
H  27.60300 5.08900 25.55400
H  31.02000 -0.16700 29.03200
H  31.57900 1.58300 28.89000
H  30.83300 0.73000 27.55600
H  28.70300 2.16900 33.40100
H  28.79900 -0.65200 36.64800
H  30.51600 -0.54300 36.47400
H  29.64300 -1.50800 35.28000

