158

Mg 55.91200 24.65400 45.16900
C  53.24800 26.50900 43.87000
C  54.49000 21.82500 43.67900
C  58.78000 22.98600 45.80000
C  57.27000 27.61800 46.47100
N  54.13400 24.27100 43.59900
C  53.19600 25.19600 43.34400
C  52.15100 24.63000 42.38100
C  52.25100 23.13500 42.88000
C  53.75900 22.98400 43.26700
C  51.25000 22.78500 43.95200
C  52.64000 24.91500 40.93300
C  51.70100 25.25100 39.81200
H  51.71600 24.45600 38.39700
N  56.52900 22.65000 44.82800
C  55.78000 21.60900 44.14500
C  56.56800 20.42800 44.16300
C  57.72600 20.68400 45.02400
C  57.73500 22.18000 45.31400
C  56.11800 19.18900 43.39400
C  58.68600 19.60400 45.44100
O  58.47800 18.42500 45.09900
C  59.93600 19.78500 46.19300
N  57.83200 25.29300 45.83700
C  58.79700 24.35000 46.17400
C  60.00300 25.05200 46.79700
C  59.52400 26.47000 47.14200
C  58.15800 26.49100 46.46500
C  60.66200 24.27900 47.98400
C  60.47700 27.68600 46.76600
C  60.90200 28.59700 47.93000
N  55.48500 26.71800 45.07500
C  56.01600 27.78500 45.78100
C  55.24100 28.97700 45.67300
C  54.12800 28.53100 44.88400
C  54.29300 27.17200 44.61500
C  55.41900 30.25200 46.42300
C  52.85500 28.93300 44.32900
O  52.21700 30.00100 44.48400
C  52.22600 27.65500 43.56400
C  52.13400 27.96800 42.17900
O  52.96500 28.51600 41.47900
O  50.79200 27.86800 41.81800
C  50.33200 28.67000 40.66200
H  54.03900 20.87500 43.38600
H  59.66900 22.45500 46.14700
H  57.59700 28.45900 47.08600
H  51.10300 24.89400 42.52400
H  52.04800 22.48700 42.02700
H  50.60000 23.65000 44.08000
H  51.85400 22.42900 44.78700
H  50.65900 21.96500 43.54300
H  53.12400 24.00100 40.59000
H  53.46000 25.62600 41.03500
H  51.76400 26.32400 39.63000
H  50.70900 25.01200 40.19600
H  55.63900 18.49600 44.08700
H  56.95400 18.60100 43.01600
H  55.61100 19.36000 42.44400
H  60.28300 18.78100 46.43700
H  59.59200 20.25500 47.11400
H  60.82200 20.21300 45.72400
H  60.77300 25.10800 46.02700
H  59.39000 26.47800 48.22300
H  61.71200 24.25900 47.69200
H  60.34600 23.26600 48.23000
H  60.66300 24.91100 48.87300
H  60.03200 28.30000 45.98300
H  61.42700 27.28900 46.40800
H  60.90900 29.64600 47.63200
H  61.91200 28.28100 48.19200
H  60.25200 28.38600 48.77900
H  56.46500 30.49600 46.61000
H  54.93400 30.20400 47.39700
H  55.07500 31.02700 45.73800
H  51.20900 27.50300 43.92600
H  49.29100 28.96000 40.80000
H  50.27200 28.12900 39.71700
H  50.92300 29.58200 40.57800
Mg 47.88300 16.23900 29.26400
C  45.65400 15.63600 31.96300
C  49.76100 18.12700 31.33700
C  49.58800 17.18500 26.53400
C  45.55600 14.75900 27.14300
N  47.68500 16.79700 31.38000
C  46.82700 16.30200 32.39800
C  47.26700 16.66600 33.75700
C  48.39100 17.71200 33.48600
C  48.65700 17.58000 31.94300
C  48.00800 19.21300 33.79900
C  47.73500 15.34900 34.45800
C  47.90700 15.41200 35.96400
H  47.81500 16.77700 36.73500
N  49.57900 17.29600 29.00000
C  50.24100 18.03200 29.99500
C  51.36500 18.59500 29.40300
C  51.39000 18.31000 28.03000
C  50.14300 17.56300 27.79500
C  52.41100 19.30700 30.24100
C  52.49000 18.54700 26.95100
O  52.16300 18.24100 25.83300
C  53.75900 19.12800 27.27800
N  47.51800 15.96200 27.08000
C  48.46600 16.45600 26.23300
C  48.15100 16.09300 24.78000
C  46.86100 15.17900 24.86500
C  46.58100 15.33400 26.37200
C  48.01800 17.36200 23.90500
C  46.95800 13.74200 24.33800
C  46.37800 13.37800 22.94800
N  45.95800 15.44400 29.47700
C  45.22500 14.82300 28.49500
C  44.01100 14.31200 29.12400
C  44.12700 14.55900 30.47000
C  45.32000 15.32400 30.63300
C  42.97000 13.40100 28.50900
C  43.58900 14.39000 31.79500
O  42.54300 13.88500 32.21500
C  44.54000 15.12500 32.82300
C  43.98800 16.16400 33.63300
O  43.34900 17.13200 33.27400
O  44.22500 15.75700 34.87300
C  43.86700 16.71700 35.94700
H  50.30100 18.77600 32.02900
H  50.02600 17.37900 25.55300
H  44.86600 14.25000 26.46700
H  46.43100 17.10900 34.29800
H  49.30500 17.47500 34.03000
H  48.46700 19.44000 34.76100
H  46.93700 19.21100 34.00500
H  48.23600 19.93600 33.01500
H  48.57200 14.84300 33.97800
H  46.96300 14.59900 34.28800
H  48.80900 14.89200 36.28700
H  46.96000 14.98400 36.29500
H  52.07000 20.24300 30.68300
H  53.39400 19.51300 29.81700
H  52.43400 18.58500 31.05700
H  53.59300 20.14900 27.62100
H  54.31800 19.25400 26.35100
H  54.18800 18.44100 28.00700
H  48.97100 15.43900 24.48200
H  46.06900 15.63000 24.26800
H  48.02600 18.25000 24.53600
H  47.09000 17.47400 23.34500
H  48.94400 17.24200 23.34400
H  46.50900 13.14000 25.12700
H  48.02400 13.52400 24.27000
H  45.92900 14.27900 22.52800
H  45.60200 12.65000 23.18400
H  47.13600 12.98800 22.26800
H  42.15200 13.99800 28.10600
H  42.53300 12.66900 29.18800
H  43.54100 12.87800 27.74200
H  44.86800 14.27400 33.42100
H  44.28000 17.70600 35.74900
H  44.23200 16.21900 36.84600
H  42.81200 16.70900 36.21800

