158

Mg 47.79800 24.52200 27.41200
C  48.94300 26.69200 29.82800
C  47.63000 22.06800 29.93400
C  47.02100 22.19600 25.08600
C  49.05700 26.57100 24.96700
N  48.07600 24.51500 29.69000
C  48.52000 25.52000 30.46800
C  48.38600 25.14600 31.98200
C  48.11600 23.61100 31.94000
C  47.92900 23.35200 30.47400
C  49.19500 22.70300 32.50900
C  47.27900 25.95400 32.72600
C  47.70700 26.56900 34.14200
H  46.68100 26.33800 35.37500
N  47.26200 22.47600 27.54500
C  47.25300 21.62600 28.63300
C  46.80900 20.32200 28.28600
C  46.36300 20.39600 26.91200
C  46.83600 21.73800 26.43400
C  46.96100 19.20700 29.30000
C  45.68200 19.39000 26.06000
O  45.46500 19.67500 24.86700
C  45.17600 18.00300 26.56100
N  48.27100 24.24600 25.22400
C  47.54700 23.31300 24.52100
C  47.76800 23.51500 23.00700
C  48.25300 25.01900 23.00000
C  48.58900 25.31000 24.45700
C  48.77000 22.47600 22.45000
C  47.20700 26.09700 22.48100
C  47.49800 26.49200 21.07500
N  48.58700 26.36800 27.30600
C  49.01100 27.07100 26.24600
C  49.62500 28.34500 26.72500
C  49.46800 28.26600 28.14500
C  48.92500 27.00300 28.42400
C  50.16100 29.40500 25.82700
C  49.62800 28.92200 29.38900
O  50.11000 29.99400 29.68300
C  49.22200 27.99700 30.53100
C  50.26300 27.92800 31.59900
O  51.34300 27.41500 31.57300
O  49.91400 28.82500 32.57700
C  50.70800 28.90400 33.82400
H  47.41600 21.49400 30.83800
H  46.80400 21.40100 24.36900
H  49.37400 27.28500 24.20400
H  49.36600 25.35900 32.40700
H  47.23600 23.35000 32.52900
H  49.83200 22.35300 31.69700
H  48.64100 21.91200 33.01400
H  49.77400 23.15900 33.31300
H  46.40400 25.33100 32.91400
H  46.95300 26.78500 32.10200
H  47.68600 27.65000 34.00700
H  48.72400 26.31800 34.44400
H  46.01200 18.99100 29.79200
H  47.71100 19.52000 30.02600
H  47.38300 18.33600 28.79800
H  45.93300 17.23000 26.69200
H  44.55500 17.65500 25.73600
H  44.58700 18.33100 27.41700
H  46.79800 23.39900 22.52300
H  49.19800 25.11800 22.46500
H  48.54100 22.39400 21.38700
H  48.70000 21.52200 22.97200
H  49.77500 22.78500 22.73600
H  47.26700 26.98600 23.10900
H  46.17300 25.75600 22.53800
H  48.31600 26.04100 20.51300
H  47.57800 27.57800 21.01400
H  46.64700 26.15400 20.48300
H  49.46400 29.67000 25.03200
H  51.05200 29.06400 25.30100
H  50.38800 30.22200 26.51200
H  48.32100 28.42000 30.97600
H  50.02100 29.01300 34.66300
H  51.08000 29.92800 33.81500
H  51.51500 28.20200 34.03500
Mg -5.06400 25.46400 25.66500
C  -3.88300 27.03900 28.68400
C  -6.56800 23.10400 27.69400
C  -5.71700 23.86000 22.90300
C  -3.00600 27.84400 23.93000
N  -5.18900 25.16200 27.93600
C  -4.87100 26.00500 28.91700
C  -5.49600 25.68300 30.26200
C  -6.24600 24.35000 29.92200
C  -5.96300 24.14100 28.38800
C  -5.87600 23.17700 30.84000
C  -6.37300 26.86300 30.82300
C  -6.32900 26.99900 32.39700
H  -5.72000 25.86200 33.30400
N  -6.01100 23.68000 25.33700
C  -6.61700 22.89100 26.23800
C  -7.48200 21.93900 25.51600
C  -7.35600 22.28400 24.09200
C  -6.30400 23.25300 24.04500
C  -8.48600 21.06500 26.27000
C  -8.12100 21.65500 22.95200
O  -7.99900 22.03400 21.79600
C  -9.21500 20.75400 23.32200
N  -4.59200 25.93100 23.76900
C  -4.88900 25.01800 22.73000
C  -4.39700 25.51000 21.36300
C  -3.64600 26.79000 21.68900
C  -3.82900 26.90900 23.22400
C  -3.53100 24.44300 20.67700
C  -4.02800 28.06800 20.88800
C  -5.15400 29.03700 21.50800
N  -3.79200 27.26100 26.13400
C  -3.01100 28.01100 25.36200
C  -2.27600 28.95600 26.21700
C  -2.61000 28.63800 27.54500
C  -3.60900 27.58900 27.42800
C  -1.33900 30.03800 25.73800
C  -2.31200 28.93500 28.93400
O  -1.58400 29.76000 29.48000
C  -3.07800 27.85900 29.71500
C  -2.34300 27.01100 30.60300
O  -2.07200 25.82200 30.37100
O  -2.05600 27.69200 31.72100
C  -1.27400 27.01700 32.79000
H  -7.28200 22.57600 28.32900
H  -5.90700 23.35600 21.95300
H  -2.45100 28.43400 23.19700
H  -4.61000 25.52100 30.87600
H  -7.31500 24.51600 30.05300
H  -6.75600 23.03500 31.46800
H  -4.96000 23.35900 31.40200
H  -5.70500 22.29500 30.22300
H  -7.41000 26.70600 30.52600
H  -6.13300 27.81700 30.35400
H  -7.34700 27.08200 32.77600
H  -5.82800 27.94400 32.60800
H  -8.27200 20.04300 25.95800
H  -9.55600 21.27200 26.26900
H  -8.20000 21.04000 27.32100
H  -9.93700 20.58500 22.52400
H  -9.83200 21.27100 24.05800
H  -8.80200 19.84500 23.75800
H  -5.27000 25.72800 20.74800
H  -2.60500 26.54300 21.48100
H  -2.46400 24.65900 20.74100
H  -3.85000 24.31600 19.64300
H  -3.67200 23.52400 21.24600
H  -4.37200 27.78100 19.89500
H  -3.06000 28.57000 20.91800
H  -5.97600 29.08300 20.79400
H  -4.71000 29.98200 21.82200
H  -5.65100 28.71800 22.42500
H  -1.28100 30.14000 24.65400
H  -0.36300 29.75600 26.13400
H  -1.61100 30.96100 26.25000
H  -3.76900 28.50200 30.26100
H  -1.87400 26.22900 33.24600
H  -1.07300 27.78100 33.54100
H  -0.42300 26.46100 32.39800

