158

Mg 17.68600 -1.94800 28.44000
C  16.74700 0.31300 31.08400
C  19.47900 -3.76000 30.58300
C  18.29700 -4.01400 25.90400
C  16.35200 0.39600 26.33100
N  18.24400 -1.54800 30.52700
C  17.72900 -0.64800 31.41300
C  18.20400 -1.04500 32.80500
C  19.14500 -2.24300 32.61900
C  18.85300 -2.61700 31.14700
C  20.67100 -1.88100 32.98000
C  17.04700 -1.31400 33.80400
C  17.09000 -0.72600 35.21300
H  18.35500 -0.65800 35.94800
N  18.66100 -3.76300 28.34600
C  19.38800 -4.30700 29.31500
C  19.99200 -5.55600 28.83600
C  19.72500 -5.66700 27.44500
C  18.81300 -4.49000 27.15900
C  20.56600 -6.54400 29.78900
C  20.17700 -6.75200 26.36000
O  19.79400 -6.73800 25.19200
C  21.05400 -7.88700 26.82400
N  17.44700 -1.78600 26.37900
C  17.71600 -2.79200 25.54500
C  17.50000 -2.38300 24.03900
C  16.77200 -0.97800 24.19400
C  16.92300 -0.70400 25.70400
C  18.61500 -2.48700 23.03800
C  15.31100 -0.85800 23.61600
C  15.24900 -0.19300 22.25800
N  16.73200 0.02300 28.57100
C  16.15800 0.73800 27.61100
C  15.43700 1.84500 28.13100
C  15.67500 1.78500 29.51100
C  16.48000 0.60100 29.76300
C  14.64000 2.81700 27.26200
C  15.45900 2.40900 30.79100
O  14.80600 3.38500 31.16900
C  16.11400 1.42000 31.82500
C  17.10700 2.16600 32.66400
O  18.32100 2.33800 32.41600
O  16.42700 2.79400 33.64400
C  17.33100 3.77000 34.39700
H  19.94600 -4.39500 31.33900
H  18.53600 -4.59100 25.00800
H  15.97900 1.10900 25.59300
H  18.75400 -0.13000 33.02600
H  18.77600 -3.01000 33.30100
H  20.95200 -2.02500 34.02400
H  20.90100 -0.82900 32.80700
H  21.32900 -2.50000 32.37000
H  17.11500 -2.37100 34.06300
H  16.09300 -1.13800 33.30800
H  16.43300 -1.20900 35.93600
H  16.53800 0.21400 35.19000
H  21.48000 -6.07400 30.15300
H  20.95600 -7.51100 29.47100
H  20.00300 -6.67300 30.71300
H  21.38200 -8.53400 26.01000
H  20.41900 -8.42900 27.52400
H  21.89300 -7.41000 27.32900
H  16.76300 -3.10200 23.68200
H  17.32900 -0.27100 23.57900
H  19.54700 -2.74500 23.54100
H  18.85900 -1.51300 22.61400
H  18.36400 -3.24000 22.29200
H  14.74100 -0.32100 24.37300
H  14.80000 -1.81800 23.54400
H  16.21900 -0.00400 21.79800
H  14.79400 0.79400 22.34300
H  14.72900 -0.90100 21.61300
H  15.24300 3.58800 26.78400
H  14.06400 3.33000 28.03200
H  13.95400 2.39700 26.52600
H  15.23500 1.14700 32.40900
H  16.97100 4.78200 34.21600
H  18.40300 3.74000 34.20400
H  17.16200 3.68100 35.47000
Mg 41.16200 41.71800 26.64000
C  40.30500 43.69600 29.34000
C  42.41200 39.40500 29.03700
C  42.80300 39.95900 24.26400
C  40.87700 44.33900 24.53900
N  41.17600 41.52300 29.02200
C  40.78300 42.45800 29.85000
C  40.97100 42.02200 31.32200
C  41.69100 40.64000 31.15600
C  41.83600 40.52000 29.66500
C  42.98600 40.58000 31.92400
C  39.65500 41.95500 32.12600
C  39.59700 41.26900 33.47800
H  39.81500 42.28200 34.73500
N  42.30600 39.84500 26.68100
C  42.57000 38.98200 27.74300
C  43.15800 37.74100 27.27100
C  43.23400 37.94500 25.85500
C  42.82200 39.33500 25.56900
C  43.60400 36.62800 28.19300
C  43.69200 36.97400 24.72900
O  43.75600 37.25400 23.50700
C  44.07400 35.54200 25.14200
N  41.96600 42.17300 24.68900
C  42.46400 41.20600 23.86400
C  42.32700 41.68400 22.41000
C  41.60800 43.07800 22.50000
C  41.35700 43.13400 24.00500
C  43.65900 41.69700 21.57100
C  40.31100 43.29800 21.54500
C  38.92900 43.14300 22.18800
N  40.53600 43.59900 26.76600
C  40.45700 44.60800 25.88400
C  39.97400 45.84700 26.52100
C  39.88900 45.52400 27.86100
C  40.22000 44.11400 27.99600
C  39.85100 47.15900 25.80100
C  39.53100 46.02800 29.11800
O  39.14200 47.10300 29.41200
C  39.76000 44.89400 30.15900
C  40.70700 45.41300 31.19600
O  41.96200 45.43900 30.98300
O  40.11900 45.94500 32.33000
C  41.06700 46.46100 33.39500
H  42.83000 38.65300 29.71000
H  43.07000 39.42600 23.34900
H  40.80000 45.09600 23.75600
H  41.73400 42.69900 31.70400
H  41.12300 39.72800 31.34000
H  43.78900 40.90700 31.26400
H  43.22500 39.52300 32.04500
H  42.99200 41.01400 32.92400
H  38.90700 41.52500 31.46000
H  39.38200 42.95200 32.47100
H  40.28800 40.44000 33.63000
H  38.63700 40.75900 33.55700
H  42.93800 35.80200 27.94400
H  43.50800 36.83000 29.26000
H  44.59900 36.24700 27.96500
H  44.78100 35.48000 25.96900
H  44.55100 35.03200 24.30600
H  43.07500 35.11700 25.24700
H  41.63100 41.01600 21.90200
H  42.24900 43.94400 22.33400
H  43.68700 42.36700 20.71200
H  43.82400 40.71100 21.13400
H  44.56300 41.96600 22.11800
H  40.39300 42.57700 20.73200
H  40.35500 44.32100 21.17100
H  38.30800 42.48900 21.57500
H  38.47700 44.13500 22.17300
H  38.95500 42.81300 23.22600
H  40.14300 47.83600 26.60400
H  38.81800 47.40600 25.55600
H  40.52300 47.26000 24.94900
H  38.77900 44.82500 30.62800
H  42.08900 46.45200 33.01500
H  41.16200 45.79100 34.25000
H  40.82100 47.49800 33.62200

