158

Mg 44.39700 3.91500 46.44300
C  42.49100 6.82000 46.35700
C  41.45200 2.02400 46.30400
C  46.34100 1.26900 45.74200
C  47.34500 5.99600 45.75200
N  42.24800 4.32900 46.45400
C  41.66300 5.63300 46.49500
C  40.11500 5.53600 46.58300
C  39.85700 4.00600 46.68800
C  41.27800 3.43000 46.39500
C  39.25000 3.51800 48.03200
C  39.37500 6.17600 45.40600
C  39.69100 5.83400 43.88300
H  40.00100 6.99400 42.92400
N  43.98000 1.87200 46.07300
C  42.73300 1.33200 46.09400
C  42.98300 -0.10700 45.95600
C  44.32500 -0.40400 45.68600
C  44.96600 0.93500 45.87200
C  41.81000 -1.09500 45.84000
C  44.93900 -1.67500 45.44500
O  44.33500 -2.75500 45.53100
C  46.36100 -1.81900 45.03800
N  46.62100 3.68600 45.88500
C  47.14100 2.39900 45.78200
C  48.67400 2.40300 45.59500
C  49.00800 3.95000 45.29200
C  47.60400 4.60500 45.67200
C  49.54200 1.82700 46.79800
C  49.43600 4.32600 43.92700
C  50.92900 4.64600 43.80100
N  44.90700 5.93600 46.15200
C  46.07800 6.64800 45.96600
C  45.80200 8.10100 45.86400
C  44.36400 8.13800 46.02800
C  43.89600 6.82200 46.19800
C  46.70100 9.19500 45.58000
C  43.23300 9.02100 46.24800
O  43.23800 10.28200 46.20500
C  42.00500 8.20100 46.41700
C  41.27900 8.52000 47.67600
O  41.62800 8.15400 48.77300
O  40.11700 9.18100 47.41600
C  39.15700 9.29200 48.53200
H  40.61200 1.32600 46.29100
H  47.04700 0.43800 45.67900
H  48.10200 6.75600 45.54500
H  39.91400 6.02900 47.53400
H  39.26300 3.71300 45.82300
H  39.88000 2.81200 48.57300
H  38.28700 3.06100 47.80600
H  39.08100 4.35800 48.70600
H  39.45500 7.26200 45.45200
H  38.31600 5.91900 45.43800
H  38.91600 5.20000 43.45300
H  40.57300 5.20500 44.00600
H  41.71900 -1.57500 46.81500
H  42.10000 -1.87900 45.14100
H  40.87500 -0.60400 45.57000
H  46.99500 -1.94000 45.91700
H  46.62500 -1.06400 44.29800
H  46.22100 -2.74000 44.47300
H  48.81500 1.75500 44.73000
H  49.71900 4.29500 46.04300
H  50.52300 1.55400 46.40900
H  49.08400 0.95900 47.27200
H  49.48900 2.67200 47.48500
H  48.78000 5.14700 43.64000
H  49.18600 3.41900 43.37600
H  51.46300 4.26200 44.67100
H  51.18000 5.70300 43.71100
H  51.38900 4.21200 42.91400
H  47.35800 9.22000 44.71100
H  47.29500 9.18800 46.49400
H  46.23000 10.17800 45.56100
H  41.28200 8.47900 45.65000
H  39.16600 10.30100 48.94400
H  39.43100 8.59700 49.32500
H  38.19700 8.99800 48.10800
Mg 9.98100 46.58300 25.64700
C  7.84300 46.92600 28.32900
C  12.47800 48.02900 27.35800
C  11.92800 46.48300 22.81600
C  7.10000 46.00700 23.64500
N  10.16100 47.17500 27.63600
C  9.21200 47.13700 28.60200
C  9.82200 47.68500 29.94600
C  11.05000 48.45100 29.45300
C  11.26700 47.90900 28.03300
C  11.21800 50.02000 29.62800
C  10.09600 46.55000 30.89300
C  10.04000 46.88600 32.34700
H  9.94900 45.68500 33.28000
N  11.96400 47.11400 25.16300
C  12.92800 47.61700 26.08900
C  14.28500 47.72800 25.45600
C  14.07500 47.24800 24.12000
C  12.58100 46.95000 23.93800
C  15.54600 48.11900 26.28400
C  15.02400 47.07600 23.08000
O  14.74700 46.68100 21.92000
C  16.40600 47.44400 23.31300
N  9.56400 46.47900 23.55400
C  10.57200 46.32000 22.62000
C  10.06000 45.96200 21.24400
C  8.58300 45.49400 21.65000
C  8.38600 46.05800 23.05700
C  10.14300 47.12800 20.22200
C  8.35000 43.96700 21.37700
C  7.91200 43.60000 19.95000
N  7.84300 46.50400 25.88400
C  6.82000 46.30700 24.98500
C  5.50700 46.23300 25.73700
C  5.92900 46.44100 27.05300
C  7.29900 46.68500 27.03300
C  4.12600 45.94300 25.22600
C  5.43900 46.62100 28.42600
O  4.30000 46.62200 28.87500
C  6.66100 46.92900 29.31100
C  6.84500 45.86400 30.35900
O  7.13600 44.71100 30.12300
O  6.58700 46.20900 31.61400
C  6.51700 45.13000 32.59700
H  13.21500 48.44400 28.04900
H  12.51300 46.40500 21.89700
H  6.21800 45.63800 23.11600
H  9.14200 48.45100 30.31700
H  11.89800 48.14700 30.06600
H  12.12500 50.22400 30.19700
H  10.44300 50.43700 30.27100
H  11.22200 50.52500 28.66300
H  11.09200 46.13000 30.74800
H  9.44700 45.68400 30.76800
H  9.28300 47.64900 32.52700
H  11.04400 47.25500 32.55700
H  15.18300 48.27800 27.29900
H  15.93800 49.06400 25.90700
H  16.35600 47.39600 26.37000
H  16.88400 46.81500 24.06400
H  16.37200 48.50400 23.56300
H  17.00200 47.28600 22.41500
H  10.63600 45.11800 20.86500
H  7.84100 46.08700 21.11400
H  10.40100 48.12700 20.57200
H  9.16500 47.31600 19.77900
H  10.83400 46.82900 19.43400
H  7.64200 43.58300 22.11100
H  9.24400 43.37300 21.56800
H  8.72500 43.10800 19.41600
H  7.69700 44.47200 19.33200
H  7.12100 42.85000 19.92000
H  4.12600 45.26100 24.37600
H  3.69000 46.86200 24.83500
H  3.47300 45.54100 26.00100
H  6.62000 47.90600 29.79300
H  6.94300 45.48700 33.53500
H  7.13100 44.26400 32.35000
H  5.52000 44.73200 32.78800

