158

Mg 45.64800 5.48100 47.31400
C  43.54600 8.27000 46.71400
C  42.87900 3.45700 46.84900
C  47.72900 2.94100 47.14300
C  48.49400 7.80400 47.25100
N  43.53400 5.86300 46.69300
C  42.85700 7.05200 46.64300
C  41.27700 6.91700 46.57100
C  41.19200 5.44400 46.60800
C  42.66500 4.89200 46.83200
C  40.27000 4.86900 47.72100
C  40.62800 7.65700 45.36000
C  39.29000 7.20500 44.90700
H  39.14600 6.51400 43.48800
N  45.39400 3.39500 47.08700
C  44.15000 2.80200 46.95400
C  44.40500 1.32400 46.90100
C  45.83100 1.14100 46.88700
C  46.38200 2.49700 47.01900
C  43.34500 0.28300 46.73100
C  46.50100 -0.27000 46.80800
O  45.79200 -1.24700 46.87900
C  47.96400 -0.33900 46.55500
N  47.79300 5.41200 47.27300
C  48.37200 4.18900 47.20600
C  49.92800 4.28000 47.17400
C  50.12500 5.79800 47.17900
C  48.70700 6.46100 47.17400
C  50.68200 3.62300 48.28900
C  51.19900 6.56200 46.27200
C  52.55700 6.86700 46.89400
N  46.00000 7.51500 47.12000
C  47.19500 8.27700 47.13300
C  46.80200 9.65400 47.02500
C  45.43400 9.67700 46.96600
C  44.99400 8.39200 46.81900
C  47.81800 10.82600 47.09900
C  44.31600 10.55800 46.86200
O  44.28400 11.79400 46.68200
C  43.01200 9.67700 46.70900
C  41.99600 9.93600 47.82600
O  41.96100 9.33300 48.94200
O  41.03100 10.81100 47.40300
C  39.79300 11.05200 48.19700
H  42.05900 2.73900 46.78800
H  48.30000 2.02200 47.28500
H  49.36300 8.46500 47.24200
H  40.90900 7.37600 47.48900
H  40.89700 4.94900 45.68300
H  40.81200 4.28000 48.46100
H  39.45800 4.26400 47.31900
H  39.77500 5.65100 48.29700
H  41.32600 7.51200 44.53600
H  40.50600 8.73500 45.46500
H  38.58000 8.01000 45.09700
H  38.93100 6.52100 45.67600
H  43.50400 -0.38400 45.88400
H  42.38500 0.79000 46.63600
H  43.34200 -0.44000 47.54700
H  48.47600 -0.20000 47.50800
H  48.11900 0.38500 45.75500
H  48.28500 -1.34000 46.27000
H  50.42200 3.90300 46.27800
H  50.45600 6.01900 48.19300
H  50.85800 2.58700 47.99800
H  50.13900 3.64200 49.23400
H  51.62800 4.10300 48.53900
H  50.87300 7.55100 45.95000
H  51.37100 5.94100 45.39300
H  53.29000 6.23700 46.39100
H  52.66800 6.68800 47.96300
H  52.79900 7.92600 46.79800
H  47.25800 11.75000 47.24000
H  48.47700 10.89700 46.23400
H  48.52800 10.73900 47.92200
H  42.46500 9.78000 45.77200
H  38.94400 11.16300 47.52100
H  39.96300 11.91200 48.84400
H  39.59600 10.20200 48.85000
Mg -11.64900 39.36100 41.32400
C  -10.21000 36.17400 40.72600
C  -9.01500 40.83400 39.69900
C  -13.32400 42.28600 41.27100
C  -14.50800 37.68100 42.44500
N  -9.90500 38.59100 40.28600
C  -9.55100 37.29100 40.20300
C  -8.23400 37.16100 39.40800
C  -7.77600 38.64300 39.23600
C  -8.93200 39.42900 39.83300
C  -6.39600 39.02800 39.74000
C  -8.36000 36.30600 38.08500
C  -7.26800 35.28500 37.81400
H  -6.10300 35.70800 36.97300
N  -11.15100 41.36900 40.67300
C  -10.05700 41.67400 40.00200
C  -10.03800 43.13300 39.83700
C  -11.27900 43.62500 40.16300
C  -11.99100 42.41300 40.71000
C  -8.91000 43.89400 39.18700
C  -11.90100 45.04000 40.00900
O  -11.17700 45.94100 39.59400
C  -13.26200 45.42800 40.39000
N  -13.69400 39.86700 41.55100
C  -14.10200 41.15600 41.64700
C  -15.44200 41.26500 42.24900
C  -15.65600 39.85400 42.85700
C  -14.57400 39.07300 42.16300
C  -15.57600 42.33500 43.29000
C  -17.20300 39.40400 42.76400
C  -17.63000 38.84900 41.40800
N  -12.26500 37.29700 41.70900
C  -13.45200 36.77900 42.15300
C  -13.30300 35.34700 42.27900
C  -12.03300 35.04600 41.72900
C  -11.45400 36.28400 41.42200
C  -14.32400 34.42400 42.83400
C  -11.06700 34.00500 41.48300
O  -11.00800 32.76500 41.69400
C  -9.88000 34.72200 40.81400
C  -8.57300 34.37500 41.56000
O  -7.78500 33.45900 41.40100
O  -8.36300 35.33900 42.49300
C  -7.22800 35.13600 43.37900
H  -8.07600 41.29000 39.37800
H  -13.82400 43.23200 41.48800
H  -15.32900 37.19700 42.97800
H  -7.49200 36.71300 40.06900
H  -7.85100 38.85300 38.16900
H  -5.88300 39.68100 39.03400
H  -5.78200 38.13900 39.88800
H  -6.60800 39.67700 40.58900
H  -8.19300 36.92700 37.20500
H  -9.30600 35.76700 38.13500
H  -7.79800 34.47300 37.31600
H  -6.84400 34.94000 38.75700
H  -9.01500 43.71500 38.11700
H  -7.97400 43.53400 39.61400
H  -8.84300 44.96300 39.39100
H  -13.48100 45.22800 41.43900
H  -13.85300 44.87900 39.65800
H  -13.42600 46.49100 40.21000
H  -16.11900 41.55800 41.44700
H  -15.44900 39.71800 43.91800
H  -14.67800 42.37600 43.90700
H  -16.50200 42.27000 43.86100
H  -15.59400 43.31900 42.82100
H  -17.84700 40.23800 43.04100
H  -17.34600 38.58100 43.46400
H  -17.37700 37.78900 41.41800
H  -17.07000 39.37600 40.63600
H  -18.70900 38.98100 41.32100
H  -13.81700 33.46000 42.88400
H  -15.12300 34.35800 42.09600
H  -14.60200 34.73900 43.84000
H  -9.76200 34.28200 39.82400
H  -6.37900 34.93500 42.72600
H  -7.32300 34.21500 43.95500
H  -6.97500 36.00400 43.98800

