158

Mg 25.34700 2.07900 30.08400
C  27.50600 1.91900 32.85500
C  22.65200 1.98500 32.27900
C  23.37500 1.63500 27.56700
C  28.10600 1.64900 28.03100
N  25.08400 1.86300 32.28000
C  26.12200 2.02600 33.22600
C  25.65100 2.24300 34.64900
C  24.08600 2.26000 34.39600
C  23.91300 2.07200 32.92300
C  23.26900 1.26000 35.20700
C  26.18600 3.68900 35.14700
C  26.45000 3.68700 36.70300
H  25.92600 4.79100 37.60900
N  23.29600 2.08300 29.95400
C  22.34100 1.94100 30.93000
C  21.07700 1.78300 30.27900
C  21.19600 1.72700 28.87500
C  22.71300 1.78100 28.75100
C  19.78900 1.77600 31.10100
C  20.12500 1.58900 27.76200
O  20.42400 1.51700 26.58400
C  18.61400 1.54600 28.18700
N  25.66400 1.72400 28.02900
C  24.69300 1.45500 27.19300
C  25.15300 1.51000 25.67300
C  26.68300 1.66700 25.91800
C  26.85500 1.65000 27.42900
C  24.69800 0.27700 24.86800
C  27.30500 2.99400 25.32600
C  26.59600 4.34600 25.65800
N  27.39600 1.71300 30.35000
C  28.36300 1.59400 29.37100
C  29.66300 1.33600 29.96900
C  29.42400 1.49000 31.36800
C  27.99800 1.69200 31.51200
C  30.90100 1.09600 29.28500
C  29.93700 1.52200 32.72200
O  31.10300 1.34900 33.07000
C  28.78700 1.93300 33.68000
C  28.73000 1.07500 34.90100
O  28.33800 -0.06700 34.96500
O  29.11800 1.86900 36.02100
C  29.10100 1.18500 37.30000
H  21.80100 2.13000 32.94800
H  22.73400 1.46000 26.70100
H  28.92300 1.39200 27.35400
H  26.00500 1.35200 35.16700
H  23.80400 3.28100 34.65400
H  22.34500 1.74000 35.52900
H  23.94000 1.02500 36.03300
H  23.05700 0.34700 34.65100
H  25.49300 4.48000 34.86300
H  27.05900 3.89100 34.52600
H  27.51200 3.90500 36.81100
H  26.24400 2.71100 37.14400
H  18.99000 2.41700 30.72800
H  19.97100 1.75300 32.17500
H  19.42900 0.74900 31.04000
H  17.94800 1.33500 27.35100
H  18.40500 2.46800 28.73000
H  18.46800 0.78900 28.95800
H  24.74500 2.41300 25.21900
H  27.31300 0.87500 25.51200
H  25.51700 -0.43500 24.96200
H  24.52100 0.54300 23.82600
H  23.74100 -0.09900 25.22900
H  27.47600 2.86000 24.25800
H  28.29900 3.05800 25.76800
H  26.04600 4.28300 26.59700
H  25.90200 4.68000 24.88700
H  27.40300 5.07500 25.72200
H  31.05700 1.82000 28.48600
H  30.96700 0.06600 28.93300
H  31.74700 1.28800 29.94600
H  29.03800 2.98400 33.82600
H  28.34600 1.56200 37.99000
H  30.03100 1.43800 37.80900
H  29.10600 0.10000 37.19500
Mg 34.95400 4.08400 30.17800
C  32.39600 4.98100 32.75100
C  37.14200 4.04900 32.86800
C  37.23300 3.07500 28.07700
C  32.48600 4.15300 27.78300
N  34.71300 4.42600 32.54600
C  33.63700 4.76900 33.32400
C  33.96600 4.97000 34.76900
C  35.57000 4.86500 34.78400
C  35.82300 4.37800 33.31100
C  36.42400 6.08300 35.31400
C  33.19100 3.95300 35.64300
C  33.38100 3.98300 37.19700
H  34.05100 5.23100 37.82400
N  36.87900 3.73600 30.35000
C  37.68100 3.85400 31.50700
C  39.02600 3.49600 31.23900
C  39.10700 3.22800 29.87100
C  37.69900 3.34000 29.36500
C  40.09700 3.51800 32.29400
C  40.27500 2.81400 29.03100
O  40.18700 2.58200 27.77100
C  41.57100 2.48200 29.70600
N  34.92000 3.65200 28.14600
C  35.97500 3.25200 27.42600
C  35.64800 2.94600 25.94000
C  34.15800 3.40200 25.92500
C  33.80600 3.72600 27.38000
C  36.60100 3.63400 24.94800
C  33.08400 2.48100 25.22700
C  32.88800 1.18700 25.91200
N  32.93400 4.47700 30.24000
C  32.11900 4.51200 29.04300
C  30.74800 4.95800 29.53400
C  30.82900 5.12500 30.91700
C  32.16100 4.84800 31.34800
C  29.52000 5.06600 28.66300
C  30.04200 5.39800 32.09400
O  28.84600 5.75400 32.20800
C  31.09200 5.44000 33.30300
C  31.05500 6.77500 33.91300
O  31.61300 7.75300 33.51100
O  30.49300 6.69900 35.18600
C  30.76200 7.76000 36.17900
H  37.80100 4.02600 33.73800
H  37.97200 2.71600 27.35700
H  31.74000 4.20800 26.98800
H  33.52100 5.93600 35.00900
H  35.81200 3.98500 35.38000
H  37.23300 5.63600 35.89200
H  35.89000 6.75300 35.98800
H  36.81200 6.62500 34.45200
H  33.32400 2.96600 35.20000
H  32.13200 4.19500 35.55900
H  34.02700 3.14600 37.46300
H  32.42600 3.81700 37.69600
H  39.68300 4.10200 33.11600
H  40.93600 4.02200 31.81300
H  40.38800 2.54600 32.69000
H  41.51400 1.60300 30.34700
H  41.88000 3.28900 30.37100
H  42.32300 2.38000 28.92300
H  35.80200 1.88300 25.75500
H  34.08200 4.40400 25.50300
H  37.19000 4.41800 25.42300
H  35.99100 4.06600 24.15400
H  37.18700 2.83400 24.49400
H  33.51300 2.21400 24.26200
H  32.16200 3.05400 25.12700
H  31.90000 1.22600 26.37200
H  33.62400 1.16700 26.71500
H  33.10800 0.34900 25.25000
H  29.64900 4.57300 27.69900
H  29.20500 6.09500 28.48800
H  28.72100 4.68400 29.29800
H  30.93900 4.63400 34.02100
H  29.91200 8.43700 36.26500
H  31.66100 8.36400 36.05500
H  30.78600 7.35400 37.19000

