158

Mg 35.34300 2.14400 29.70800
C  33.05100 3.26900 32.18700
C  37.83200 2.32000 32.12200
C  37.63600 1.67500 27.28600
C  32.78900 2.39300 27.29000
N  35.41700 2.66000 31.90600
C  34.37900 3.07300 32.71400
C  34.82300 3.29000 34.15800
C  36.32500 2.97200 34.10800
C  36.58000 2.63600 32.59900
C  37.22700 4.13700 34.69900
C  33.98700 2.41900 35.15900
C  34.49800 2.06800 36.58500
H  35.05300 3.19100 37.40000
N  37.40400 1.88700 29.73900
C  38.27900 1.94400 30.79500
C  39.61100 1.62300 30.40200
C  39.60900 1.35100 29.01600
C  38.18500 1.68900 28.59100
C  40.75200 1.58100 31.32900
C  40.78500 1.01200 28.16300
O  40.68500 0.86300 26.96400
C  42.15900 0.81000 28.74300
N  35.23500 1.92200 27.70300
C  36.29000 1.77800 26.86400
C  35.90900 1.86500 25.31900
C  34.39100 1.82600 25.44900
C  34.10300 2.03500 26.95200
C  36.42000 3.19600 24.73900
C  33.66600 0.49200 24.96900
C  32.58900 0.56300 23.87300
N  33.28700 2.68700 29.65900
C  32.37300 2.86100 28.60000
C  31.11000 3.38000 29.11600
C  31.37200 3.49000 30.54800
C  32.67900 3.06800 30.80200
C  29.90000 3.72100 28.30500
C  30.74600 3.96200 31.79800
O  29.61500 4.49700 31.98700
C  31.77200 3.62600 32.98500
C  31.96800 4.85900 33.85100
O  32.76400 5.83500 33.66200
O  31.18000 4.67500 35.03200
C  31.15100 5.81600 35.91200
H  38.70800 2.38000 32.77100
H  38.36200 1.53500 26.48200
H  32.03100 2.35600 26.50400
H  34.68400 4.34700 34.38600
H  36.60300 2.02100 34.56300
H  36.67000 4.88800 35.26000
H  37.66500 4.72900 33.89500
H  38.00100 3.80500 35.39100
H  33.78400 1.43800 34.73000
H  33.07700 3.01500 35.22400
H  35.22000 1.26900 36.41800
H  33.60900 1.70500 37.10100
H  41.69500 1.95400 30.92800
H  40.92700 0.54100 31.60400
H  40.56700 2.20600 32.20200
H  42.54300 1.78200 29.05300
H  42.77200 0.34200 27.97300
H  42.22400 0.08600 29.55500
H  36.42300 1.02400 24.85400
H  33.95900 2.69800 24.95900
H  35.70300 3.99500 24.54700
H  36.95200 2.98500 23.81100
H  37.17000 3.68900 25.35700
H  33.26200 -0.12300 25.77300
H  34.35700 -0.20200 24.48900
H  33.22600 0.43200 22.99900
H  32.15200 1.56100 23.91200
H  31.92700 -0.29700 23.97300
H  29.46700 4.43900 29.00100
H  29.19000 2.89600 28.23400
H  30.12600 4.24500 27.37700
H  31.29300 2.79900 33.51100
H  30.80900 5.55300 36.91300
H  30.64500 6.65400 35.43100
H  32.12900 6.26600 36.08500
Mg -11.49200 16.52200 42.58300
C  -8.10600 17.48800 42.89500
C  -12.24900 19.74000 41.84800
C  -14.58000 15.52900 41.74000
C  -10.50800 13.14200 42.78500
N  -10.23600 18.30400 42.14600
C  -8.90200 18.51300 42.38200
C  -8.46600 19.97500 42.13800
C  -9.83200 20.69300 42.25500
C  -10.88900 19.57200 42.07300
C  -10.05700 21.58100 43.47400
C  -7.73000 20.18900 40.79100
C  -6.24300 20.48700 40.81600
H  -5.36200 19.55300 39.95000
N  -13.26000 17.54300 41.99700
C  -13.33100 18.89500 41.75700
C  -14.70100 19.15200 41.29400
C  -15.39900 17.94500 41.12000
C  -14.42600 16.92400 41.58900
C  -15.14000 20.57600 41.30900
C  -16.93400 17.67400 40.79500
O  -17.62000 18.56900 40.39400
C  -17.69800 16.30100 40.65600
N  -12.37700 14.63400 42.28900
C  -13.73400 14.53500 42.18200
C  -14.28500 13.15400 42.37500
C  -13.01500 12.36900 42.62500
C  -11.84100 13.45300 42.56500
C  -15.35900 13.16200 43.54800
C  -12.76900 11.13600 41.73800
C  -13.83400 10.49800 40.90500
N  -9.63300 15.47000 42.73900
C  -9.45200 14.08400 42.88400
C  -8.03800 13.90900 43.26000
C  -7.48900 15.20600 43.31600
C  -8.51100 16.14100 42.98100
C  -7.47800 12.63400 43.51300
C  -6.24800 16.01400 43.54800
O  -5.10000 15.65100 43.89800
C  -6.66000 17.51900 43.27900
C  -6.69700 18.19400 44.61000
O  -7.29300 17.89700 45.63600
O  -5.78000 19.16600 44.49300
C  -5.48900 19.92900 45.77200
H  -12.49400 20.76400 41.55900
H  -15.59100 15.19700 41.49500
H  -10.19700 12.10200 42.90300
H  -7.95100 20.36800 43.01500
H  -9.94600 21.21000 41.30300
H  -9.23900 21.56600 44.19400
H  -10.93200 21.20700 44.00500
H  -10.30300 22.58500 43.13000
H  -8.29100 20.92800 40.21800
H  -7.89700 19.32200 40.15200
H  -5.87600 20.35100 41.83300
H  -6.08900 21.48400 40.40400
H  -15.04300 20.79000 40.24500
H  -14.43300 21.23200 41.81900
H  -16.11100 20.65500 41.79900
H  -18.66800 16.42700 40.17600
H  -18.01100 15.95300 41.64100
H  -17.11000 15.48500 40.23700
H  -14.80600 12.92500 41.44500
H  -13.19800 11.97400 43.62400
H  -16.03400 13.99900 43.36500
H  -14.87700 13.17600 44.52500
H  -15.89500 12.21300 43.53900
H  -12.54400 10.33200 42.43900
H  -11.93100 11.36600 41.07900
H  -13.82900 10.96100 39.91800
H  -14.77500 10.47000 41.45300
H  -13.69400 9.43000 40.73600
H  -6.46200 12.80400 43.86800
H  -7.46400 11.85800 42.74800
H  -8.00500 12.32500 44.41500
H  -5.87900 17.94500 42.65000
H  -6.41200 20.03200 46.34200
H  -4.93600 20.85600 45.62300
H  -4.76900 19.25100 46.23000

