158

Mg 2.22800 -1.68800 43.87900
C  5.52300 -0.93600 43.20600
C  1.26200 1.41200 42.79300
C  -1.00700 -2.76600 43.71200
C  3.30600 -4.91500 44.84700
N  3.26800 0.00200 43.01200
C  4.59800 0.10200 42.87400
C  4.91800 1.50700 42.31500
C  3.55100 2.36300 42.70200
C  2.59700 1.19000 42.82800
C  3.66000 3.36500 43.90200
C  5.36400 1.38200 40.87300
C  6.44000 2.34700 40.44300
H  6.30500 3.01800 39.03400
N  0.37200 -0.83900 43.31900
C  0.25500 0.48400 42.91500
C  -1.13700 0.74300 42.68600
C  -1.87200 -0.45100 42.93700
C  -0.85400 -1.42900 43.34900
C  -1.59100 2.17600 42.31400
C  -3.37300 -0.62400 42.82200
O  -4.19300 0.21600 42.45400
C  -4.04700 -2.05200 43.00400
N  1.29400 -3.67700 43.95000
C  -0.09100 -3.82900 43.99900
C  -0.41300 -5.28400 44.08700
C  0.89700 -5.85700 44.64400
C  1.89500 -4.76000 44.56400
C  -1.64100 -5.70300 44.92500
C  1.53200 -7.18000 44.00600
C  1.77800 -8.35500 44.97800
N  4.08700 -2.75400 44.22900
C  4.36600 -3.99800 44.57800
C  5.78700 -4.29600 44.68400
C  6.36200 -3.09300 44.16100
C  5.23800 -2.20100 43.79900
C  6.41400 -5.62400 45.24000
C  7.57100 -2.31300 43.82200
O  8.75300 -2.52300 44.01000
C  7.09500 -0.91300 43.29600
C  7.50200 0.13600 44.25500
O  7.53700 0.04000 45.47600
O  8.03300 1.31100 43.65200
C  8.31000 2.44500 44.62700
H  1.03100 2.44100 42.51100
H  -1.99200 -3.23600 43.73600
H  3.60000 -5.90900 45.18800
H  5.68600 1.95000 42.94900
H  3.23100 2.90900 41.81500
H  4.68100 3.72600 44.02600
H  3.33200 2.82200 44.78800
H  3.01700 4.23100 43.74400
H  4.49200 1.45300 40.22300
H  5.79300 0.38700 40.75800
H  7.37000 1.78900 40.54800
H  6.45000 3.21300 41.10500
H  -2.63600 2.17100 42.00600
H  -0.95700 2.46200 41.47500
H  -1.34400 2.86600 43.12100
H  -5.12400 -2.01500 42.83800
H  -3.96100 -2.24000 44.07400
H  -3.59000 -2.83800 42.40300
H  -0.45000 -5.66500 43.06600
H  0.79900 -6.00100 45.72000
H  -2.22800 -6.48900 44.44900
H  -2.24200 -4.80100 45.03500
H  -1.37400 -5.99100 45.94100
H  2.45800 -6.88800 43.51000
H  0.81900 -7.58700 43.28900
H  1.48900 -9.27800 44.47700
H  1.27100 -8.14800 45.92100
H  2.84300 -8.37100 45.21200
H  6.08600 -5.89400 46.24300
H  7.47300 -5.53400 45.48000
H  6.14000 -6.46500 44.60300
H  7.45300 -0.84400 42.26900
H  7.58400 2.57800 45.42900
H  8.27500 3.43500 44.17300
H  9.31500 2.27900 45.01600
Mg 24.09300 -5.73500 45.76200
C  26.34100 -3.39600 44.48100
C  21.70400 -4.70200 43.44600
C  22.34400 -8.75500 46.12900
C  26.74900 -7.18700 47.52600
N  24.11500 -4.32000 44.08100
C  25.16900 -3.42900 43.73200
C  24.75400 -2.48500 42.57400
C  23.18900 -2.73000 42.53600
C  22.97000 -3.97400 43.44600
C  22.26500 -1.52700 42.84400
C  25.51400 -2.86900 41.19700
C  26.22000 -1.78800 40.43100
H  25.61200 -1.30000 39.21500
N  22.23500 -6.55500 44.96900
C  21.42200 -5.91700 44.09200
C  20.21200 -6.66500 43.96100
C  20.33600 -7.87000 44.75700
C  21.69400 -7.77700 45.41000
C  19.05900 -6.16200 43.11100
C  19.38800 -9.02400 44.84700
O  18.34200 -9.08900 44.24900
C  19.50700 -10.14900 45.85600
N  24.44100 -7.65900 46.69300
C  23.62300 -8.69700 46.66900
C  24.22100 -9.96500 47.33700
C  25.58300 -9.45300 47.92400
C  25.64700 -8.04700 47.28500
C  23.23800 -10.72300 48.39300
C  26.79700 -10.40200 47.49800
C  27.64400 -10.81100 48.72900
N  26.13300 -5.40800 46.04500
C  27.07000 -6.01900 46.83800
C  28.31500 -5.30400 46.85100
C  28.06700 -4.19700 45.97900
C  26.76500 -4.38100 45.45600
C  29.63200 -5.71600 47.48500
C  28.66400 -2.99900 45.38500
O  29.74800 -2.52500 45.50100
C  27.57000 -2.46800 44.39200
C  27.14100 -1.03000 44.75700
O  26.10800 -0.65400 45.30700
O  28.14400 -0.13900 44.26400
C  28.05400 1.33600 44.68000
H  20.97200 -4.05900 42.95400
H  21.83100 -9.68900 46.36700
H  27.47400 -7.60200 48.22900
H  25.06800 -1.50400 42.92900
H  22.95000 -3.04600 41.52000
H  22.86400 -0.62700 42.98300
H  21.73700 -1.72000 43.77800
H  21.59800 -1.25300 42.02700
H  24.79500 -3.30700 40.50400
H  26.22200 -3.63900 41.50300
H  27.25300 -2.12200 40.33600
H  26.14700 -0.93900 41.11100
H  19.22100 -6.36600 42.05200
H  18.68600 -5.14000 43.17500
H  18.17400 -6.76800 43.30300
H  19.78900 -9.58100 46.74200
H  20.27800 -10.87100 45.58800
H  18.62100 -10.68600 46.19600
H  24.41900 -10.71100 46.56800
H  25.46900 -9.38400 49.00600
H  23.74500 -11.04100 49.30400
H  22.61800 -11.54600 48.03500
H  22.46700 -9.99600 48.64800
H  27.42100 -9.95700 46.72300
H  26.42600 -11.26800 46.94900
H  28.32800 -9.98500 48.92900
H  28.10700 -11.79100 48.61200
H  27.05000 -10.92400 49.63600
H  29.84700 -6.69600 47.06000
H  29.64300 -6.09800 48.50600
H  30.39600 -4.95800 47.31000
H  28.00100 -2.46600 43.39100
H  28.33300 1.93000 43.81000
H  28.78700 1.54500 45.46000
H  27.01700 1.57200 44.91900

