158

Mg 7.25500 53.54200 40.82300
C  6.73100 50.11000 40.51100
C  10.60100 53.09100 40.16600
C  7.64700 56.88200 40.37200
C  3.83300 54.03400 41.16500
N  8.45800 51.74300 40.27700
C  8.07100 50.46700 40.22800
C  9.33000 49.53200 40.16900
C  10.56900 50.52000 40.18500
C  9.84000 51.93100 40.19400
C  11.53400 50.45100 41.33600
C  9.35000 48.57200 38.89400
C  9.22000 49.17100 37.47800
H  8.17300 48.62300 36.58100
N  8.89200 54.83700 40.24600
C  10.18000 54.46500 40.14800
C  10.99000 55.61500 39.79600
C  10.17100 56.75600 39.93400
C  8.88300 56.21100 40.23700
C  12.47600 55.46900 39.50100
C  10.59900 58.18500 39.73400
O  11.72400 58.42100 39.34300
C  9.69000 59.35100 39.91100
N  5.92200 55.17500 40.75200
C  6.38700 56.43100 40.61100
C  5.24700 57.47600 40.87200
C  4.00900 56.53700 40.87600
C  4.60000 55.14500 40.86100
C  5.48600 58.16600 42.22200
C  3.00700 56.86100 39.73000
C  1.49400 56.73600 40.06700
N  5.60100 52.37900 40.91100
C  4.30900 52.70000 41.22000
C  3.57100 51.47000 41.44400
C  4.49700 50.49900 41.24000
C  5.71900 51.05800 40.82800
C  2.14400 51.30700 41.93900
C  4.64300 49.07100 41.27800
O  3.85400 48.20200 41.60500
C  6.14700 48.76600 40.88200
C  6.13500 47.77100 39.79700
O  5.52900 47.99700 38.73500
O  6.65700 46.56100 40.15500
C  6.58500 45.51300 39.07300
H  11.67300 52.89100 40.12100
H  7.65800 57.97100 40.44100
H  2.75900 54.21600 41.24400
H  9.53300 48.78100 40.93400
H  11.14200 50.35100 39.27400
H  12.55300 50.18700 41.05500
H  11.19700 49.74000 42.09100
H  11.53100 51.38700 41.89600
H  8.45500 47.98500 39.10200
H  10.20000 47.89100 38.95300
H  10.09200 49.25700 36.82900
H  9.02600 50.24100 37.55700
H  13.14900 55.89700 40.24400
H  12.69300 55.99400 38.57100
H  12.86300 54.45200 39.42800
H  8.89600 59.37700 39.16400
H  10.24200 60.29000 39.89100
H  9.23700 59.36400 40.90200
H  5.25000 58.21300 40.06800
H  3.53800 56.67800 41.84900
H  4.65700 58.80900 42.51700
H  6.46100 58.64700 42.14600
H  5.59300 57.34500 42.93100
H  3.26200 56.05300 39.04400
H  3.17400 57.83900 39.28000
H  1.03400 57.70000 39.85000
H  1.28400 56.22500 41.00600
H  1.01800 56.05500 39.36000
H  2.00900 52.19700 42.55300
H  2.03300 50.43400 42.58300
H  1.39100 51.32100 41.15100
H  6.58700 48.34600 41.78600
H  7.11200 44.63600 39.44800
H  6.93000 45.92100 38.12200
H  5.53200 45.23800 39.01900
Mg 1.80800 41.43800 26.80200
C  3.36600 42.25200 29.92200
C  -0.79000 40.14800 28.54900
C  0.48400 40.62300 23.87100
C  4.83700 42.22400 25.28500
N  1.34700 41.25400 29.03300
C  2.07300 41.71700 30.10300
C  1.21400 41.71300 31.37200
C  -0.07600 40.84200 30.91300
C  0.14500 40.77300 29.41100
C  -0.14500 39.44400 31.63600
C  0.95600 43.15600 31.93700
C  1.31700 43.41400 33.38100
H  1.18800 42.35300 34.45200
N  0.05800 40.57300 26.21700
C  -0.85300 40.05800 27.08900
C  -1.98300 39.52500 26.22600
C  -1.53500 39.54500 24.88800
C  -0.27500 40.28500 24.97300
C  -3.18600 38.76200 26.81900
C  -2.20600 38.95100 23.64500
O  -1.63300 39.05200 22.57800
C  -3.56100 38.15200 23.76200
N  2.63000 41.32800 24.96100
C  1.84700 40.99200 23.88100
C  2.60800 41.24500 22.51100
C  3.99000 41.74800 22.95100
C  3.85900 41.68600 24.50200
C  2.63100 39.99700 21.61800
C  4.36700 43.19600 22.34900
C  3.75300 44.35200 23.05000
N  3.71000 42.12200 27.41000
C  4.81100 42.46800 26.66400
C  5.91300 42.85700 27.56300
C  5.30500 42.76800 28.82600
C  4.02000 42.35900 28.73100
C  7.33000 43.18200 27.32500
C  5.65400 42.80000 30.20500
O  6.73600 42.99500 30.66700
C  4.37600 42.57300 31.02600
C  4.75100 41.39400 31.82100
O  4.89100 40.25900 31.37200
O  4.71400 41.75800 33.11600
C  4.86700 40.69500 34.10300
H  -1.68500 39.79700 29.06800
H  0.04300 40.54200 22.87600
H  5.78200 42.53400 24.83300
H  1.69800 41.19200 32.19900
H  -1.03400 41.29200 31.17200
H  0.56100 39.35300 32.46200
H  -0.18000 38.62600 30.91700
H  -1.13400 39.19000 32.01500
H  -0.12600 43.28900 31.94500
H  1.39100 43.89500 31.26500
H  0.66200 44.24600 33.63900
H  2.37100 43.67900 33.46800
H  -3.34400 38.86300 27.89300
H  -3.13000 37.67400 26.83000
H  -4.15600 39.16500 26.52700
H  -3.57100 37.36100 24.51200
H  -3.70700 37.77600 22.74900
H  -4.43500 38.78600 23.90900
H  2.12100 42.04700 21.95600
H  4.82900 41.12500 22.64100
H  2.24100 39.17900 22.22300
H  3.67300 39.80900 21.35700
H  2.09400 40.17600 20.68600
H  3.84100 43.31700 21.40200
H  5.41300 43.36700 22.09500
H  3.05100 43.89400 23.74600
H  3.19400 45.10100 22.49000
H  4.57400 44.88200 23.53200
H  7.63600 42.84900 26.33300
H  7.82700 42.56800 28.07600
H  7.45000 44.24900 27.50800
H  4.11400 43.51900 31.50100
H  4.53000 39.76800 33.63900
H  4.40800 40.93800 35.06200
H  5.89400 40.66800 34.46700

