158

Mg 48.74500 44.97800 42.68500
C  45.22200 44.64700 42.60800
C  48.89000 41.50700 42.18400
C  52.04700 45.29900 42.39800
C  48.27200 48.42900 42.64600
N  47.06200 43.28900 42.31200
C  45.76800 43.39600 42.51500
C  45.13200 42.00400 42.46100
C  46.32000 40.98300 42.43000
C  47.50700 41.98300 42.24500
C  46.43900 40.08700 43.67200
C  44.22300 41.75200 41.19800
C  44.83300 42.09600 39.74000
H  44.88400 40.96900 38.72500
N  50.33000 43.58000 42.21500
C  50.14200 42.25000 42.07600
C  51.52100 41.69500 41.89500
C  52.41700 42.82500 41.85900
C  51.60700 43.98400 42.18000
C  51.76400 40.28000 41.61400
C  53.96900 42.82200 41.63000
O  54.56400 41.76400 41.34600
C  54.86500 44.04300 41.63300
N  49.98700 46.62800 42.29900
C  51.30900 46.44100 42.55300
C  52.01200 47.69800 43.01500
C  50.86200 48.71900 42.82700
C  49.60800 47.91300 42.58200
C  52.72200 47.56200 44.45900
C  51.01800 49.76000 41.59000
C  50.47800 51.10100 41.89200
N  47.15200 46.24600 42.69100
C  47.07200 47.64400 42.63400
C  45.70800 48.11200 42.71600
C  44.94500 46.94000 42.69100
C  45.86700 45.86500 42.65700
C  45.21600 49.55000 42.75600
C  43.66000 46.47900 42.68700
O  42.66900 47.14900 42.77600
C  43.73100 44.99900 42.62000
C  42.97700 44.24100 43.61300
O  41.96600 43.55700 43.38000
O  43.55800 44.43300 44.84600
C  42.90000 43.69400 46.02200
H  48.96900 40.41900 42.24200
H  53.10000 45.44100 42.65100
H  48.20700 49.47100 42.96800
H  44.50300 41.94100 43.35000
H  46.19500 40.31000 41.58200
H  46.09000 39.06400 43.53200
H  46.01600 40.50400 44.58600
H  47.52000 40.11200 43.80100
H  43.28500 42.30100 41.28000
H  43.83300 40.74800 41.36900
H  45.79100 42.55400 39.98800
H  44.23700 42.84500 39.21900
H  52.82900 40.04600 41.61200
H  51.30900 40.06900 40.64700
H  51.25500 39.63600 42.33200
H  54.53100 44.90500 41.05600
H  55.90200 43.76300 41.44800
H  54.87600 44.21600 42.70900
H  52.67800 48.00400 42.20900
H  50.78000 49.18700 43.80800
H  53.74400 47.93900 44.48800
H  52.69500 46.56200 44.89000
H  52.20300 48.16200 45.20700
H  50.66900 49.34800 40.64300
H  52.07000 50.02200 41.47500
H  51.20400 51.90800 41.99400
H  49.96900 50.93900 42.84300
H  49.80100 51.43800 41.10700
H  45.71200 50.06200 43.58100
H  44.13500 49.66300 42.84300
H  45.57300 49.98300 41.82200
H  43.22300 44.65200 41.72000
H  41.92400 43.30100 45.73600
H  42.74600 44.37500 46.85900
H  43.49900 42.83900 46.33600
Mg -11.15700 17.22700 42.35800
C  -7.60400 18.24500 42.36500
C  -11.92500 20.59900 42.34000
C  -14.25600 16.32400 41.75100
C  -10.04800 13.89200 42.03700
N  -9.93400 19.21200 42.15100
C  -8.52800 19.34200 42.35700
C  -8.17100 20.75000 42.23600
C  -9.42200 21.48600 42.58500
C  -10.51500 20.41400 42.33300
C  -9.47300 22.06500 44.05200
C  -7.61000 20.98100 40.79100
C  -6.19800 21.61100 40.74900
H  -5.21500 21.04400 39.72700
N  -12.86400 18.33600 41.96600
C  -12.97800 19.68300 42.06500
C  -14.43900 19.96900 41.90600
C  -15.16000 18.74300 41.78400
C  -14.09600 17.74200 41.82500
C  -14.98500 21.41200 41.96200
C  -16.70000 18.54000 41.71200
O  -17.41600 19.54300 41.89700
C  -17.38200 17.24700 41.43500
N  -11.95700 15.35300 42.01300
C  -13.31500 15.27800 41.85400
C  -13.81400 13.83300 41.99800
C  -12.48700 13.00600 42.06600
C  -11.41700 14.14000 41.95700
C  -14.84000 13.60300 43.14900
C  -12.43400 11.86000 40.96200
C  -11.97400 10.53500 41.50500
N  -9.26600 16.23000 42.27200
C  -9.06200 14.86000 42.14600
C  -7.57900 14.60700 42.30400
C  -7.06900 15.96100 42.29100
C  -8.07800 16.90100 42.33200
C  -6.78400 13.38500 42.26000
C  -5.78700 16.61800 42.38800
O  -4.70400 16.12500 42.44300
C  -6.07400 18.20000 42.31600
C  -5.51400 18.75400 43.51300
O  -5.76600 18.38900 44.64100
O  -4.60600 19.71700 43.14800
C  -3.73000 20.29300 44.21800
H  -12.20100 21.65100 42.43100
H  -15.26700 15.91200 41.73100
H  -9.69200 12.86900 41.89600
H  -7.35400 21.00100 42.91100
H  -9.55700 22.35500 41.94200
H  -10.15500 21.40200 44.58400
H  -9.87300 23.08000 44.06200
H  -8.51600 21.94800 44.56000
H  -8.24100 21.76200 40.36700
H  -7.63300 20.04800 40.22800
H  -5.85000 21.73800 41.77400
H  -6.34500 22.63000 40.39200
H  -15.35700 21.76100 40.99800
H  -14.27100 22.05100 42.48100
H  -15.90100 21.31600 42.54500
H  -18.44300 17.49100 41.48400
H  -17.09200 16.67800 42.31800
H  -17.04800 16.70900 40.54700
H  -14.36400 13.70000 41.06600
H  -12.41100 12.64500 43.09200
H  -14.48600 12.77900 43.76800
H  -15.74700 13.23400 42.67100
H  -14.97400 14.53700 43.69600
H  -11.77800 12.14400 40.14000
H  -13.38600 11.69800 40.45600
H  -11.17900 10.09200 40.90500
H  -12.80400 9.84200 41.37200
H  -11.73800 10.63000 42.56500
H  -7.46600 12.66000 42.70400
H  -5.94800 13.50000 42.95000
H  -6.29100 13.18200 41.30900
H  -5.59300 18.60300 41.42500
H  -2.95700 19.57900 44.50200
H  -4.36100 20.47800 45.08700
H  -3.21400 21.16800 43.82300

