158

Mg 47.69000 25.71100 28.77800
C  48.46800 27.92300 31.35700
C  46.34700 23.49500 31.29800
C  47.32100 23.26200 26.47500
C  49.55200 27.62200 26.48100
N  47.45100 25.72600 31.09300
C  47.78500 26.82900 31.85400
C  47.33400 26.60500 33.27900
C  46.79600 25.16500 33.27200
C  46.89900 24.74500 31.79600
C  47.50800 24.15900 34.22600
C  46.39900 27.55800 34.03900
C  46.80000 27.85100 35.48800
H  45.79000 28.04600 36.54900
N  46.80000 23.78600 28.82300
C  46.31200 23.09600 29.95400
C  45.71300 21.88400 29.41200
C  45.95800 21.82100 27.99700
C  46.69000 23.02100 27.70600
C  44.99200 20.96500 30.32800
C  45.45000 20.82100 27.02000
O  45.67100 20.88300 25.81800
C  44.51700 19.70400 27.46200
N  48.37500 25.46700 26.89700
C  48.03400 24.42600 26.12600
C  48.53400 24.56400 24.66200
C  48.67100 26.12000 24.65200
C  48.86900 26.43200 26.10300
C  49.86800 23.79700 24.57500
C  47.41900 27.00400 24.18100
C  47.75600 28.13700 23.20600
N  48.75900 27.40500 28.79300
C  49.50400 28.09100 27.82600
C  50.04700 29.28000 28.47900
C  49.62400 29.27900 29.80800
C  48.86300 28.13200 29.94900
C  50.86300 30.30900 27.75200
C  49.74600 29.95300 31.10700
O  50.36300 30.96500 31.39900
C  48.83400 29.13700 32.06700
C  49.65300 28.89700 33.29800
O  50.59700 28.11100 33.33900
O  49.44300 29.75500 34.32800
C  50.32300 29.48800 35.54000
H  45.82300 22.90900 32.05500
H  47.19100 22.40700 25.80800
H  50.06300 28.29000 25.78400
H  48.29700 26.58300 33.79000
H  45.72800 25.16600 33.49100
H  48.21100 23.44800 33.79300
H  46.77700 23.58400 34.79500
H  48.10100 24.68600 34.97500
H  45.36300 27.21700 34.03400
H  46.46400 28.44400 33.40700
H  47.37100 28.77900 35.46800
H  47.35700 26.96000 35.77700
H  45.56900 20.04100 30.32100
H  43.94800 20.68700 30.18300
H  44.89700 21.17800 31.39300
H  45.01000 18.96800 28.09600
H  44.31100 19.15300 26.54400
H  43.60000 20.12300 27.87600
H  47.77400 24.11300 24.02500
H  49.51900 26.33200 24.00100
H  50.75900 24.42400 24.53900
H  49.92200 23.20100 23.66400
H  50.00800 23.24300 25.50400
H  46.91100 27.51100 25.00100
H  46.64900 26.37100 23.74100
H  46.96100 28.19700 22.46300
H  48.74700 28.01400 22.76900
H  47.61600 29.04300 23.79500
H  50.45100 30.59600 26.78400
H  51.88300 29.92800 27.79700
H  50.77900 31.26500 28.26900
H  47.95800 29.75000 32.28200
H  50.48200 30.41900 36.08500
H  51.33700 29.29200 35.19000
H  49.90600 28.67700 36.13700
Mg 16.64700 51.31400 27.09700
C  18.74300 50.15300 29.74200
C  14.39100 52.16300 29.31900
C  14.88500 52.36000 24.49200
C  19.15200 50.19100 24.88900
N  16.63200 51.25000 29.22600
C  17.56000 50.77800 30.16900
C  17.20900 51.05900 31.61600
C  15.70600 51.43800 31.48400
C  15.49900 51.61900 29.91400
C  14.64900 50.56000 32.16900
C  18.04500 52.23900 32.17800
C  18.37200 52.26600 33.67000
H  17.19600 51.79100 34.56300
N  14.89400 52.22500 26.89700
C  14.08100 52.50400 27.98000
C  12.98700 53.27900 27.55400
C  13.00400 53.33300 26.08500
C  14.27500 52.61300 25.75300
C  12.01600 53.96400 28.44700
C  12.02100 53.83400 25.01600
O  12.21100 53.77200 23.81000
C  10.80700 54.67500 25.52700
N  17.00800 51.21100 24.91900
C  16.09400 51.81400 24.04100
C  16.59700 51.86700 22.62900
C  17.98100 51.15800 22.75600
C  18.13400 50.92200 24.27400
C  15.66800 51.19300 21.59900
C  19.22800 51.87100 22.15900
C  19.68800 51.27100 20.80900
N  18.45600 50.29500 27.22200
C  19.31200 49.81600 26.26800
C  20.33800 49.05700 26.82900
C  20.20500 49.22800 28.22000
C  19.07600 49.99600 28.38100
C  21.45400 48.48600 26.02500
C  20.81100 48.89900 29.53500
O  21.81200 48.25100 29.74000
C  19.85200 49.53000 30.59300
C  19.32000 48.50700 31.53300
O  18.44000 47.70400 31.31700
O  20.07200 48.53300 32.71100
C  19.76700 47.43000 33.65600
H  13.62900 52.39200 30.06600
H  14.30700 52.83500 23.69600
H  19.96400 49.93700 24.20400
H  17.39500 50.18200 32.23600
H  15.66000 52.43900 31.91200
H  14.06800 50.01100 31.42800
H  13.96700 51.19200 32.73800
H  15.22000 49.89700 32.81900
H  17.53900 53.19900 32.07400
H  18.94700 52.32300 31.57200
H  18.59700 53.31100 33.88000
H  19.27200 51.67600 33.84100
H  11.10000 53.38000 28.53900
H  11.81200 55.00300 28.18900
H  12.39000 53.97200 29.47100
H  11.17700 55.60600 25.95500
H  10.27300 54.13800 26.31100
H  10.15800 54.88200 24.67700
H  16.76200 52.88700 22.28100
H  17.87400 50.16300 22.32300
H  15.00300 51.94300 21.17200
H  15.12800 50.48000 22.22200
H  16.15700 50.53000 20.88500
H  20.05900 51.74100 22.85200
H  19.23900 52.95700 22.06600
H  20.17600 52.08900 20.27900
H  18.87200 50.88100 20.20000
H  20.45900 50.52900 21.01500
H  21.08100 48.10500 25.07400
H  21.92800 47.70100 26.61400
H  22.09400 49.35800 25.88700
H  20.33200 50.21700 31.29000
H  20.13500 46.50500 33.21400
H  18.68600 47.36300 33.78100
H  20.32000 47.78400 34.52600

