158

Mg 0.94900 7.68300 25.41200
C  1.37200 9.91700 28.13100
C  1.05400 5.03600 27.52400
C  0.42700 5.88100 22.77800
C  1.36000 10.67100 23.27700
N  1.00300 7.50100 27.60600
C  1.09100 8.56400 28.55000
C  1.17000 7.98700 29.96100
C  1.18900 6.40300 29.74200
C  1.10700 6.28900 28.22400
C  2.46000 5.69600 30.31800
C  0.00300 8.44000 30.85300
C  0.42300 8.81100 32.24200
H  1.54600 7.95500 32.95000
N  0.60800 5.73800 25.19800
C  0.78500 4.76900 26.19100
C  0.61300 3.48800 25.59200
C  0.35300 3.65500 24.20500
C  0.39400 5.14700 23.98300
C  0.64900 2.19800 26.37300
C  0.19200 2.55700 23.14500
O  0.11700 2.87100 21.99800
C  0.19900 1.06200 23.54700
N  1.01400 8.24400 23.27000
C  0.59600 7.26400 22.47000
C  0.60000 7.83200 20.94800
C  0.86200 9.31800 21.16800
C  1.02600 9.43800 22.69400
C  1.65700 7.10100 20.10400
C  -0.21500 10.28400 20.50600
C  -1.56800 10.51900 21.29300
N  1.36300 9.80000 25.58100
C  1.50300 10.87300 24.63900
C  1.64600 12.20900 25.31900
C  1.63000 11.87300 26.71000
C  1.48400 10.40900 26.78200
C  1.92700 13.63100 24.63300
C  1.84500 12.41800 28.05800
O  2.08900 13.57600 28.37700
C  1.64700 11.19900 29.03300
C  2.94400 11.10400 29.78700
O  4.07000 11.29600 29.28100
O  2.73700 11.05300 31.14200
C  3.83200 11.51800 31.99000
H  1.15000 4.12900 28.12400
H  0.23000 5.32400 21.86000
H  1.51000 11.58800 22.70400
H  2.03400 8.42000 30.46500
H  0.27200 5.93200 30.09700
H  2.77500 6.36200 31.12300
H  3.24300 5.69800 29.56000
H  2.19700 4.72700 30.74100
H  -0.73000 7.63800 30.77300
H  -0.33000 9.37300 30.39800
H  -0.44000 8.94800 32.89300
H  0.85700 9.80900 32.29400
H  -0.28800 1.64200 26.31600
H  0.66700 2.29500 27.45900
H  1.38800 1.51300 25.95700
H  -0.55300 0.80000 24.29300
H  1.16100 0.75800 23.95900
H  -0.12200 0.65400 22.58900
H  -0.42200 7.73800 20.58100
H  1.88800 9.50100 20.84900
H  1.04700 6.40100 19.53200
H  2.50200 6.67100 20.64100
H  2.16100 7.79100 19.42600
H  -0.55400 9.75900 19.61200
H  0.39600 11.18000 20.39500
H  -1.70100 11.58500 21.47600
H  -1.55100 10.11700 22.30600
H  -2.42900 10.09600 20.77400
H  0.95700 14.12500 24.58300
H  2.27100 13.55700 23.60100
H  2.56200 14.25400 25.26300
H  0.89200 11.39500 29.79400
H  3.73600 11.09900 32.99100
H  3.82000 12.60800 31.96200
H  4.83000 11.27300 31.62600
Mg 25.97700 0.16900 29.79300
C  27.82300 -0.09200 32.73600
C  23.13100 0.65600 31.54300
C  24.29100 -0.06300 26.92100
C  28.97300 -0.73100 27.93300
N  25.55900 0.08300 31.92600
C  26.47200 0.14900 33.01600
C  25.78300 0.38600 34.35000
C  24.23700 0.50600 33.98800
C  24.30000 0.45000 32.36100
C  23.44300 -0.67300 34.57600
C  26.42200 1.62300 35.13500
C  26.85200 1.29100 36.55500
H  26.76400 2.34700 37.56900
N  23.99700 0.20600 29.31300
C  22.95600 0.44500 30.14700
C  21.69500 0.39700 29.42600
C  22.06300 0.26400 28.02600
C  23.52200 0.11200 28.06100
C  20.34900 0.79300 30.00600
C  21.13300 0.26200 26.81500
O  21.52900 0.30200 25.62800
C  19.61800 0.36100 27.00100
N  26.48000 -0.41700 27.72900
C  25.66000 -0.20400 26.74600
C  26.20500 -0.32300 25.35100
C  27.73100 -0.42400 25.66900
C  27.75000 -0.53000 27.16800
C  25.67800 -1.60700 24.61200
C  28.49400 0.80900 25.10900
C  29.84200 0.59700 24.43900
N  28.05000 -0.20100 30.15600
C  29.08400 -0.55700 29.33100
C  30.22900 -0.74700 30.19800
C  29.82300 -0.49500 31.47700
C  28.47400 -0.22500 31.45300
C  31.64100 -1.25900 29.89200
C  30.34100 -0.38200 32.87100
O  31.45800 -0.57100 33.33700
C  29.01100 -0.13900 33.75200
C  28.78300 -1.27000 34.71700
O  27.87900 -2.12200 34.62000
O  29.60100 -1.12600 35.82600
C  29.19100 -2.02200 37.02400
H  22.21300 0.84900 32.10200
H  23.72600 -0.04200 25.98700
H  29.95000 -0.90100 27.47700
H  25.77700 -0.53900 34.92700
H  23.84300 1.46400 34.33000
H  23.45700 -1.47700 33.84000
H  22.41300 -0.33300 34.68500
H  23.83900 -1.11800 35.48800
H  25.67100 2.41200 35.15000
H  27.24400 2.00100 34.52700
H  27.91300 1.04300 36.51700
H  26.45900 0.35700 36.95700
H  20.08700 1.69200 29.45000
H  20.27700 0.98700 31.07600
H  19.64800 -0.00700 29.76500
H  19.05700 0.29900 26.06900
H  19.35900 1.25600 27.56700
H  19.26800 -0.47500 27.60800
H  25.91100 0.62700 24.90600
H  28.11700 -1.37000 25.28900
H  25.03000 -2.18100 25.27500
H  26.46300 -2.29500 24.29900
H  25.22000 -1.40000 23.64500
H  28.53400 1.59400 25.86300
H  27.83000 1.23100 24.35400
H  30.54000 1.38000 24.73300
H  29.63800 0.58300 23.36900
H  30.21100 -0.39500 24.69900
H  32.35500 -0.50800 29.55400
H  31.51700 -1.97300 29.07800
H  31.99300 -1.78300 30.78100
H  29.17600 0.70400 34.42300
H  28.61700 -2.92500 36.81300
H  28.65500 -1.46100 37.79000
H  30.11200 -2.25700 37.55800

