158

Mg -2.12500 17.60300 25.68300
C  -2.39300 15.20800 28.43000
C  -2.56700 20.02100 27.94500
C  -1.87200 19.71300 23.19300
C  -1.94900 14.82200 23.51900
N  -2.45400 17.52900 27.93100
C  -2.52900 16.51900 28.91800
C  -2.97100 16.98600 30.28200
C  -3.05200 18.54100 29.99000
C  -2.63000 18.72800 28.56300
C  -4.47300 19.25500 30.33500
C  -2.14100 16.52100 31.59100
C  -2.95100 16.09800 32.82300
H  -2.25300 15.28300 33.99900
N  -2.15400 19.62400 25.57800
C  -2.37500 20.42400 26.60400
C  -2.37700 21.79200 26.16800
C  -2.25000 21.75100 24.74100
C  -2.09600 20.34500 24.41700
C  -2.61500 22.91900 26.97400
C  -2.32900 22.86600 23.67900
O  -2.38500 22.64200 22.47500
C  -2.24600 24.27200 24.12300
N  -1.83200 17.26000 23.66500
C  -1.69300 18.30600 22.84100
C  -1.50200 17.80900 21.37000
C  -1.35900 16.23700 21.54300
C  -1.66800 16.06700 23.01000
C  -2.60100 18.29600 20.40600
C  0.05800 15.68500 21.22800
C  -0.00800 14.39100 20.42800
N  -2.18500 15.45200 25.82600
C  -2.16600 14.46700 24.86600
C  -2.50500 13.17600 25.47700
C  -2.50800 13.43600 26.87300
C  -2.33900 14.81400 27.03200
C  -2.74700 11.88700 24.77600
C  -2.50500 12.82500 28.19800
O  -2.57500 11.64400 28.48600
C  -2.36900 13.91600 29.20500
C  -1.17400 13.66000 29.96600
O  -0.06900 14.07600 29.66400
O  -1.41700 12.86700 31.07000
C  -0.29300 12.56700 31.85300
H  -2.88800 20.86300 28.56200
H  -1.76800 20.33000 22.29800
H  -1.81700 14.11300 22.69900
H  -3.98000 16.66500 30.54100
H  -2.26700 19.07700 30.52500
H  -4.37800 19.87100 31.22900
H  -5.26200 18.53300 30.54500
H  -4.80600 19.79100 29.44700
H  -1.68200 17.46100 31.89700
H  -1.40700 15.76300 31.31800
H  -3.80800 15.52500 32.46800
H  -3.26900 17.02100 33.30700
H  -3.47400 23.37700 26.48300
H  -1.71800 23.51800 27.12600
H  -3.04900 22.58100 27.91500
H  -1.33900 24.32700 24.72600
H  -3.11800 24.69600 24.62000
H  -2.07700 24.88800 23.24000
H  -0.59900 18.28700 20.98900
H  -2.18100 15.80300 20.97300
H  -2.23600 19.21400 19.94400
H  -3.48900 18.49300 21.00700
H  -2.80200 17.59100 19.60000
H  0.59200 15.30900 22.10100
H  0.73900 16.43600 20.82600
H  0.36400 14.55600 19.41600
H  -1.03300 14.02100 20.40700
H  0.64600 13.67800 20.93200
H  -2.31800 11.98300 23.77800
H  -3.82400 11.72800 24.82100
H  -2.17800 11.10600 25.27900
H  -3.20500 13.93400 29.90500
H  -0.64700 11.78100 32.52000
H  -0.02700 13.41900 32.48000
H  0.46700 11.98700 31.32900
Mg 41.45800 41.14000 25.98800
C  40.65900 43.44500 28.43600
C  42.49800 38.97500 28.49400
C  42.50500 39.05700 23.55400
C  41.11000 43.68300 23.49200
N  41.71600 41.29200 28.21700
C  41.11800 42.22200 28.93700
C  41.17700 41.87800 30.44300
C  41.81900 40.46700 30.42400
C  42.06500 40.21100 29.01600
C  43.08100 40.38700 31.24600
C  39.74700 41.81700 31.07500
C  39.73300 41.72400 32.63000
H  39.24200 43.00800 33.47600
N  42.10800 39.20000 26.04700
C  42.49500 38.45200 27.15200
C  42.87800 37.18300 26.65200
C  42.69100 37.14300 25.27400
C  42.49800 38.54300 24.90800
C  43.25700 35.99800 27.57800
C  42.66500 35.87700 24.36000
O  42.35400 36.02800 23.18400
C  42.84500 34.40900 24.91000
N  41.83300 41.37400 23.84100
C  42.19200 40.33100 23.04900
C  42.18000 40.79200 21.49600
C  41.63100 42.22100 21.52300
C  41.50700 42.46600 23.01500
C  43.57700 40.61500 20.88100
C  40.31100 42.43700 20.77900
C  39.03100 41.90700 21.51100
N  40.96700 43.15300 25.91500
C  40.94000 44.05700 24.85800
C  40.52200 45.36700 25.38500
C  40.35400 45.17100 26.83600
C  40.71900 43.79100 27.06800
C  40.27600 46.64100 24.63800
C  39.98800 45.82800 28.11900
O  39.72100 47.01600 28.45300
C  40.16400 44.72700 29.21100
C  41.20400 45.22200 30.14800
O  42.31400 45.62700 29.83600
O  40.70800 45.17100 31.35200
C  41.64200 45.43400 32.50700
H  42.85900 38.23600 29.21300
H  42.83900 38.23900 22.91300
H  41.07400 44.47800 22.74400
H  41.75600 42.58500 31.03700
H  41.16000 39.63100 30.65600
H  42.97100 39.71000 32.09300
H  43.20300 41.40100 31.62700
H  43.98000 40.16000 30.67400
H  39.35400 40.82100 30.86900
H  39.07500 42.60000 30.72400
H  40.69600 41.39800 33.02400
H  38.97900 41.01000 32.96000
H  42.47900 35.25000 27.73100
H  43.23300 36.33800 28.61300
H  44.25100 35.63700 27.31400
H  43.65600 34.39200 25.63700
H  43.23300 33.83400 24.06800
H  41.91700 33.96400 25.26800
H  41.45300 40.16600 20.97900
H  42.36000 42.92000 21.11500
H  44.33300 40.58000 21.66500
H  44.05400 41.32800 20.20900
H  43.64200 39.66900 20.34300
H  40.29000 41.89900 19.83100
H  40.17000 43.50100 20.58700
H  38.34800 42.72000 21.75900
H  39.23500 41.26800 22.37000
H  38.52400 41.28200 20.77600
H  41.19000 47.23500 24.66000
H  39.51700 47.22600 25.15700
H  39.89400 46.37000 23.65400
H  39.18500 44.54900 29.65700
H  41.15100 45.17000 33.44400
H  41.99200 46.45800 32.38300
H  42.45300 44.72700 32.32900

