158

Mg 8.59600 3.73800 26.84700
C  10.09300 2.03800 29.63100
C  6.69800 5.42700 29.09400
C  6.93500 4.93500 24.31100
C  10.38400 1.63400 24.78400
N  8.40300 3.63800 29.14500
C  9.15300 3.01800 30.05500
C  8.81400 3.57500 31.50600
C  7.58700 4.45700 31.28400
C  7.54800 4.47000 29.70600
C  6.25500 3.97700 31.97800
C  9.89800 4.37400 32.15900
C  9.66400 4.46200 33.68600
H  10.79600 4.58400 34.64700
N  7.21000 5.27300 26.70700
C  6.50200 5.78900 27.74900
C  5.40900 6.60500 27.20100
C  5.59100 6.53000 25.79200
C  6.61800 5.55100 25.51800
C  4.48100 7.39400 28.07000
C  4.88200 7.37700 24.72100
O  5.23100 7.35200 23.54300
C  3.72200 8.27700 25.05500
N  8.68800 3.30100 24.80700
C  7.90400 3.93700 23.92900
C  8.13400 3.46000 22.47700
C  9.31300 2.50800 22.69600
C  9.53600 2.52300 24.16500
C  6.83200 2.90800 21.85600
C  10.53200 2.67700 21.70400
C  11.32500 1.45100 21.20900
N  9.91400 2.13500 27.07600
C  10.65800 1.42900 26.13100
C  11.48400 0.42600 26.78000
C  11.24100 0.64400 28.15700
C  10.29800 1.68300 28.32200
C  12.32200 -0.60900 26.12300
C  11.71800 0.23800 29.40200
O  12.47700 -0.64900 29.80100
C  11.14100 1.26800 30.43800
C  10.58900 0.47100 31.60000
O  9.59200 -0.12900 31.43500
O  11.18100 0.78200 32.82700
C  10.57900 0.19700 34.07600
H  5.98900 5.80200 29.83500
H  6.31300 5.20800 23.45500
H  10.89900 0.99800 24.06100
H  8.53800 2.67700 32.05800
H  7.74900 5.49700 31.56700
H  5.84000 4.61300 32.76000
H  6.44500 3.01100 32.44800
H  5.49800 3.86100 31.20300
H  10.02000 5.26300 31.54000
H  10.87500 3.90800 32.02700
H  8.97800 3.67900 34.00800
H  9.09700 5.38300 33.82500
H  4.45000 8.42700 27.72500
H  4.76800 7.36500 29.12100
H  3.51900 6.95100 27.81400
H  2.98000 7.88400 25.75000
H  3.25300 8.59200 24.12300
H  4.08100 9.24200 25.41200
H  8.42900 4.31600 21.87000
H  8.87300 1.53700 22.46800
H  6.16500 2.62600 22.67100
H  7.02400 1.99700 21.28900
H  6.26700 3.60400 21.23600
H  11.16500 3.37800 22.24700
H  10.30200 3.14100 20.74500
H  11.30900 1.50800 20.12100
H  11.07000 0.48100 21.63500
H  12.37400 1.51400 21.50100
H  13.17600 -0.74300 26.78800
H  12.60900 -0.25000 25.13500
H  11.74500 -1.53300 26.16500
H  11.95100 1.92900 30.74700
H  10.25700 1.05700 34.66200
H  11.22400 -0.29800 34.80200
H  9.70000 -0.41500 33.87400
Mg 23.90100 -6.24700 45.64400
C  26.51300 -4.01500 44.52900
C  21.82300 -4.53000 43.63700
C  21.74200 -8.81100 46.01000
C  26.40300 -8.09800 47.35900
N  24.20600 -4.52000 44.29400
C  25.24200 -3.69800 44.06900
C  24.78300 -2.40500 43.30300
C  23.21200 -2.50300 43.30900
C  23.09900 -3.93300 43.76400
C  22.52800 -1.55200 44.28300
C  25.38500 -2.31800 41.89000
C  25.45600 -1.02600 41.11800
H  24.76400 -0.91200 39.75400
N  22.09400 -6.52900 44.93300
C  21.31900 -5.68900 44.15600
C  20.03300 -6.25500 43.90500
C  19.94400 -7.49800 44.52800
C  21.34300 -7.68500 45.18300
C  18.85500 -5.52800 43.21800
C  18.71800 -8.35500 44.62400
O  17.65800 -7.89100 44.24700
C  18.74900 -9.74800 45.05700
N  24.11900 -8.28400 46.41400
C  23.00300 -9.05500 46.60100
C  23.29400 -10.32600 47.42700
C  24.73700 -10.03800 48.05000
C  25.15600 -8.71800 47.22800
C  22.23800 -10.73300 48.56900
C  25.54500 -11.31000 47.66800
C  26.58000 -11.70500 48.83700
N  25.99000 -5.99100 46.14600
C  26.85600 -6.83300 46.78500
C  28.20100 -6.27900 46.82300
C  28.05600 -5.15700 45.93700
C  26.73800 -5.05800 45.53400
C  29.47800 -6.79200 47.42400
C  28.76400 -4.01700 45.38800
O  29.85900 -3.61300 45.71400
C  27.76700 -3.20600 44.46800
C  27.60300 -1.87800 45.00700
O  27.53200 -1.52000 46.23000
O  27.75200 -1.00200 44.00500
C  27.56900 0.43600 44.40700
H  21.09400 -3.97200 43.04500
H  21.12200 -9.63700 46.36700
H  27.25700 -8.58900 47.83000
H  25.14300 -1.54600 43.86900
H  22.78600 -2.33000 42.32100
H  21.56900 -1.20200 43.90200
H  23.16500 -0.68500 44.45500
H  22.28600 -2.07900 45.20600
H  24.96400 -3.04900 41.19900
H  26.42600 -2.63200 41.97100
H  26.47500 -0.69000 40.92400
H  25.04100 -0.24300 41.75300
H  18.60000 -6.11500 42.33600
H  19.22300 -4.57400 42.84100
H  18.01400 -5.41400 43.90200
H  17.92500 -10.30000 44.60400
H  18.62800 -9.93500 46.12400
H  19.65100 -10.19200 44.63700
H  23.34900 -11.10100 46.66200
H  24.74000 -9.81600 49.11700
H  22.82600 -10.71000 49.48800
H  21.86200 -11.75600 48.56800
H  21.39000 -10.05200 48.50000
H  26.16900 -11.07800 46.80500
H  24.90900 -12.19100 47.58500
H  26.51600 -12.78000 49.00600
H  26.56600 -11.11400 49.75200
H  27.57000 -11.43700 48.46800
H  29.94000 -7.49000 46.72500
H  29.28200 -7.24700 48.39400
H  30.25400 -6.02900 47.49600
H  28.21900 -3.18400 43.47600
H  26.61700 0.50800 44.93300
H  27.40300 0.92500 43.44700
H  28.48400 0.73300 44.92000

