158

Mg 36.03100 2.46900 30.13200
C  33.54400 3.46900 32.34500
C  38.40200 2.75400 32.65200
C  38.29100 1.97400 27.75200
C  33.45900 2.62200 27.47500
N  36.03300 3.14700 32.27000
C  34.83400 3.38000 32.98900
C  35.09700 3.56300 34.43700
C  36.71400 3.53900 34.46700
C  37.10600 3.12300 33.05200
C  37.27400 4.91000 34.78500
C  34.41300 2.45500 35.28300
C  33.75300 2.83100 36.60600
H  34.54300 3.87000 37.53700
N  38.08600 2.49900 30.22900
C  38.89100 2.51100 31.35200
C  40.23400 1.97900 30.94300
C  40.20300 1.95200 29.49400
C  38.84700 2.18600 29.06700
C  41.29300 1.49500 31.85900
C  41.31200 1.77100 28.57000
O  41.13200 1.87200 27.39300
C  42.64200 1.35300 29.15500
N  35.86900 2.38900 27.87600
C  36.99600 1.97000 27.22300
C  36.72300 1.88900 25.71900
C  35.13200 1.84700 25.62900
C  34.78200 2.36900 27.09500
C  37.24100 3.02600 24.85300
C  34.56700 0.46300 25.41900
C  33.32900 0.33900 24.47100
N  33.93000 2.86400 29.92900
C  33.02600 2.92400 28.83400
C  31.69200 3.35500 29.28600
C  31.87300 3.62100 30.64700
C  33.24000 3.26100 30.96800
C  30.57300 3.68700 28.44000
C  31.23100 4.09700 31.88900
O  30.12100 4.58800 32.08300
C  32.24900 4.01900 32.97300
C  32.41600 5.41300 33.54700
O  32.99800 6.34100 32.97700
O  31.72200 5.55700 34.73100
C  31.57700 6.99200 35.03400
H  39.19400 2.75100 33.40400
H  38.85200 1.60700 26.89000
H  32.65900 2.69800 26.73600
H  34.69300 4.54700 34.67600
H  37.11300 2.77100 35.12900
H  36.52900 5.69400 34.92500
H  37.98400 5.33100 34.07400
H  37.93900 4.84800 35.64700
H  35.11300 1.62900 35.41000
H  33.60400 2.01100 34.70300
H  33.63500 1.87200 37.11100
H  32.76600 3.19300 36.31500
H  40.97000 1.43500 32.89900
H  42.15200 2.16500 31.83000
H  41.76900 0.56100 31.56100
H  42.99200 2.14500 29.81800
H  43.35200 1.20400 28.34200
H  42.71700 0.35800 29.59500
H  37.17200 0.96100 25.36500
H  34.69900 2.56300 24.93100
H  36.45600 3.65600 24.43600
H  37.92400 2.68700 24.07400
H  37.81800 3.60900 25.57100
H  34.27700 0.02000 26.37200
H  35.37400 -0.12700 24.98400
H  33.19000 1.25200 23.89100
H  32.42600 0.01800 24.99000
H  33.38900 -0.50300 23.78200
H  29.68900 3.72100 29.07800
H  30.61600 2.83100 27.76700
H  30.67400 4.66800 27.97600
H  31.90200 3.45500 33.83900
H  30.94300 7.24900 35.88300
H  31.13500 7.42300 34.13600
H  32.57500 7.37000 35.25400
Mg 5.32600 54.12900 41.38000
C  5.00800 50.69900 40.88500
C  8.73400 53.79500 40.41000
C  5.76900 57.39400 41.54600
C  2.00600 54.22700 42.07000
N  6.61400 52.55200 40.48800
C  6.18900 51.25100 40.40100
C  7.38800 50.38100 39.90500
C  8.58800 51.32200 40.18400
C  7.92500 52.62600 40.37500
C  9.61200 50.91200 41.32500
C  7.27800 49.84600 38.45300
C  6.52000 50.84500 37.41700
H  5.83600 50.20000 36.16500
N  7.03100 55.43300 41.01800
C  8.30100 55.13800 40.65100
C  9.07800 56.35500 40.64000
C  8.29400 57.45300 41.04900
C  6.97000 56.77900 41.28100
C  10.54900 56.41500 40.25400
C  8.70600 58.94200 41.15200
O  9.78800 59.36200 40.68400
C  7.77300 59.97000 41.79700
N  4.07200 55.67100 41.71500
C  4.48300 56.90300 41.87000
C  3.20600 57.84700 41.96600
C  2.07900 56.82000 42.12800
C  2.76000 55.48000 41.90800
C  3.23000 58.82500 43.08600
C  0.96500 56.94700 41.16100
C  0.45200 58.32900 40.70400
N  3.79000 52.76300 41.52800
C  2.51500 52.91300 41.94500
C  1.89600 51.60400 42.01900
C  2.85700 50.73600 41.65300
C  3.94200 51.44600 41.36600
C  0.42800 51.35800 42.51500
C  3.08900 49.29100 41.54300
O  2.34700 48.30000 41.67800
C  4.57500 49.25800 41.04500
C  4.44900 48.55000 39.79000
O  4.09100 49.07500 38.74400
O  4.72000 47.24400 39.95400
C  4.65500 46.33200 38.77400
H  9.82000 53.68400 40.36700
H  5.71300 58.48400 41.50500
H  0.93200 54.36700 42.20600
H  7.46400 49.53400 40.58700
H  9.14800 51.49700 39.26600
H  9.51600 49.84600 41.53300
H  9.45100 51.47100 42.24700
H  10.62500 51.16300 41.00900
H  6.76200 48.88600 38.42000
H  8.29500 49.87000 38.06200
H  7.21900 51.58500 37.02900
H  5.71000 51.36100 37.93300
H  10.65000 56.82000 39.24700
H  10.96300 55.41000 40.16700
H  11.19600 56.99200 40.91400
H  8.39200 60.82100 42.08000
H  7.49200 59.48000 42.72900
H  6.94000 60.10400 41.10700
H  3.14100 58.38300 41.01900
H  1.62000 56.83800 43.11600
H  3.14100 59.80000 42.60800
H  4.21200 58.79800 43.55900
H  2.47600 58.72400 43.86700
H  0.14900 56.47100 41.70500
H  1.23500 56.34900 40.29100
H  0.85800 58.46000 39.70100
H  0.83600 59.11700 41.35100
H  -0.63700 58.28700 40.70600
H  0.49800 51.66200 43.55900
H  0.20100 50.31900 42.27500
H  -0.16000 52.09400 41.96500
H  5.19500 48.68600 41.73600
H  5.04900 46.71500 37.83300
H  3.66600 45.93100 38.55400
H  5.42200 45.56500 38.88500

