158

Mg 17.70600 -1.51300 26.84900
C  16.48100 0.50500 29.31300
C  19.61500 -3.31900 29.17900
C  18.99100 -3.21800 24.31700
C  16.21200 0.73600 24.30100
N  18.16400 -1.28700 28.90300
C  17.35700 -0.53800 29.76700
C  17.72000 -0.75300 31.20900
C  18.75700 -1.82200 31.12700
C  18.90300 -2.20400 29.68400
C  20.16500 -1.52000 31.73300
C  16.55000 -1.07500 32.06500
C  16.50900 -0.39100 33.52800
H  17.88700 0.12500 34.17200
N  18.98200 -3.18400 26.73500
C  19.70300 -3.79400 27.79600
C  20.42500 -4.91500 27.21500
C  20.15300 -4.93300 25.80200
C  19.24900 -3.80900 25.59600
C  21.27100 -5.80400 28.14000
C  20.67100 -5.88400 24.70700
O  20.44500 -5.75600 23.49200
C  21.61500 -6.98500 25.06700
N  17.39500 -1.40500 24.52800
C  18.20400 -2.17900 23.77600
C  18.21300 -1.77200 22.23200
C  17.31500 -0.55100 22.30800
C  16.88200 -0.36700 23.79200
C  19.66700 -1.49900 21.69900
C  16.14000 -0.57100 21.27700
C  14.70800 -0.94300 21.69400
N  16.51400 0.23600 26.74900
C  15.99400 1.00100 25.71700
C  15.22800 2.10300 26.30500
C  15.46400 1.99700 27.71700
C  16.16800 0.81100 27.96800
C  14.41300 3.13100 25.58600
C  15.28700 2.60800 28.95600
O  14.80300 3.64000 29.35300
C  15.82100 1.64300 30.08000
C  16.80600 2.52200 30.73900
O  17.90700 2.80300 30.31700
O  16.28600 2.95800 31.99000
C  17.14900 3.70700 32.86500
H  20.21300 -3.83200 29.93500
H  19.58800 -3.70600 23.54400
H  15.87900 1.43600 23.53200
H  18.12600 0.18400 31.59000
H  18.39200 -2.72300 31.61900
H  20.27100 -0.48300 32.05000
H  21.00200 -1.78900 31.08900
H  20.34500 -2.22700 32.54400
H  16.34300 -2.13400 32.21800
H  15.72400 -0.64600 31.49800
H  16.23700 -1.16800 34.24200
H  15.69300 0.33100 33.54600
H  21.55600 -5.22800 29.02000
H  22.14500 -6.20700 27.62800
H  20.64600 -6.64200 28.44800
H  21.21200 -7.80800 25.65700
H  22.41500 -6.58400 25.69000
H  21.90200 -7.41800 24.10900
H  17.55600 -2.48300 21.73200
H  17.88500 0.32200 21.98900
H  20.42300 -1.61900 22.47400
H  19.74800 -0.44900 21.41700
H  19.83500 -2.22000 20.89900
H  16.50800 -1.09300 20.39400
H  15.94500 0.43700 20.91100
H  14.36300 -0.15900 22.37000
H  14.66500 -1.88300 22.24400
H  14.19500 -1.02800 20.73600
H  14.00300 2.71700 24.66500
H  15.06200 3.93400 25.23500
H  13.64300 3.52200 26.25000
H  15.11700 1.26300 30.82000
H  18.19400 3.64800 32.56200
H  16.98000 3.36500 33.88500
H  16.94800 4.77400 32.76400
Mg 40.93700 8.00700 29.05600
C  42.74800 9.36400 31.78400
C  38.97300 6.40600 31.29700
C  39.33200 6.89800 26.44900
C  43.31500 9.48800 26.91600
N  40.95800 7.77000 31.25700
C  41.64500 8.62300 32.17100
C  41.08300 8.57300 33.58500
C  39.96800 7.41000 33.41000
C  39.92300 7.18700 31.89300
C  40.14700 6.19800 34.35400
C  40.47600 9.95400 34.13200
C  40.14500 9.97000 35.63600
H  41.03500 10.82300 36.55100
N  39.43300 6.74900 28.92300
C  38.76200 6.08900 29.93100
C  37.76400 5.25700 29.41600
C  37.69500 5.45000 27.98100
C  38.84600 6.36600 27.71700
C  36.84900 4.49800 30.36500
C  36.70300 4.97100 27.03400
O  36.86600 5.17500 25.85900
C  35.45300 4.24600 27.40000
N  41.24000 8.18800 27.04200
C  40.41700 7.69500 26.16200
C  40.74600 7.99100 24.73500
C  41.93100 8.99600 24.89300
C  42.20000 8.88200 26.38600
C  40.98800 6.78300 23.82600
C  41.52400 10.45300 24.48200
C  40.72300 11.29800 25.53800
N  42.70900 9.12100 29.23700
C  43.60600 9.59700 28.27300
C  44.64300 10.32800 28.92100
C  44.33800 10.28400 30.30900
C  43.16400 9.53700 30.44200
C  45.88100 10.93200 28.22900
C  44.80300 10.64400 31.66400
O  45.91700 11.06200 32.02800
C  43.71400 10.09300 32.70600
C  44.36500 9.22500 33.71200
O  44.87500 8.10200 33.60200
O  44.08300 9.80900 34.89100
C  44.35100 9.06100 36.11800
H  38.32700 5.93100 32.03900
H  38.84000 6.57000 25.53100
H  43.86100 9.96100 26.09700
H  41.85500 8.08800 34.18300
H  39.00500 7.79800 33.74100
H  39.87500 5.22700 33.94000
H  39.46700 6.35700 35.19100
H  41.15600 6.17900 34.76600
H  39.53200 10.15300 33.62400
H  40.96400 10.85100 33.75300
H  40.32200 8.95000 35.97700
H  39.08800 10.21300 35.74100
H  37.22100 4.26100 31.36200
H  36.60700 3.56200 29.86000
H  35.91500 5.05400 30.28300
H  34.87900 4.72500 28.19300
H  35.85500 3.26600 27.65700
H  34.71200 4.13000 26.60900
H  39.87000 8.56600 24.43700
H  42.81000 8.77900 24.28500
H  40.12100 6.85100 23.16900
H  40.80700 5.82200 24.30900
H  41.85700 6.85000 23.17100
H  40.90400 10.35700 23.59100
H  42.44700 10.91800 24.13500
H  40.82600 10.90400 26.54900
H  39.68000 11.13300 25.26700
H  40.97100 12.35900 25.50100
H  45.77800 12.01700 28.23700
H  45.91200 10.61300 27.18800
H  46.70800 10.54400 28.82300
H  43.19400 10.88800 33.24100
H  43.49500 8.40500 36.27800
H  44.38800 9.76300 36.95100
H  45.28000 8.50400 35.99700

