158

Mg 55.51100 22.59500 44.78200
C  53.42500 24.96200 43.52900
C  53.12900 20.23400 43.89200
C  57.84500 20.19800 45.16300
C  57.89200 24.99300 45.35200
N  53.57500 22.61600 43.69000
C  52.90100 23.71500 43.18800
C  51.54300 23.30000 42.71000
C  51.34800 21.83700 43.33600
C  52.72700 21.54500 43.72800
C  50.32200 21.71600 44.49900
C  51.33700 23.66800 41.22200
C  50.05600 24.40300 40.91100
H  49.25100 23.86900 39.75200
N  55.46400 20.57800 44.39500
C  54.42700 19.75500 44.03500
C  54.81100 18.36900 44.06000
C  56.20000 18.34800 44.33500
C  56.60200 19.72600 44.63300
C  53.87600 17.25600 43.87500
C  57.03300 17.07900 44.52000
O  56.44300 15.96300 44.46300
C  58.47400 17.05900 45.01700
N  57.54300 22.51000 45.32800
C  58.32100 21.45400 45.48100
C  59.83700 21.71900 45.85100
C  59.80400 23.35000 45.74000
C  58.30300 23.65100 45.47500
C  60.25400 21.23600 47.28700
C  60.69800 23.94700 44.53100
C  61.44800 25.25100 44.79700
N  55.63700 24.55700 44.65800
C  56.60700 25.44700 45.00800
C  56.11700 26.80700 44.83900
C  54.84300 26.70300 44.32800
C  54.58600 25.29800 44.21500
C  56.85100 28.09700 45.19400
C  53.65200 27.38000 43.86600
O  53.38100 28.57500 43.89100
C  52.82800 26.31200 43.15000
C  52.92000 26.54700 41.69400
O  53.87500 26.23100 40.95500
O  51.86300 27.30400 41.35200
C  51.93100 28.12000 40.14900
H  52.38500 19.47100 43.65300
H  58.64900 19.51700 45.44600
H  58.54700 25.85500 45.49200
H  50.89300 23.89900 43.34800
H  51.05500 21.08600 42.60100
H  50.85800 21.19500 45.29300
H  49.49100 21.09800 44.15700
H  49.93400 22.71600 44.68800
H  51.39000 22.73600 40.66000
H  52.14100 24.31900 40.88000
H  50.26500 25.40300 40.53000
H  49.42000 24.43400 41.79500
H  54.02600 16.94000 42.84300
H  52.82900 17.48500 44.07400
H  54.11100 16.42700 44.54300
H  58.53300 17.40900 46.04800
H  59.07700 17.66400 44.33900
H  58.94100 16.07500 45.05100
H  60.37600 21.27300 45.01500
H  60.05700 23.86300 46.66700
H  59.39600 20.75200 47.75300
H  60.56300 22.13400 47.82200
H  61.02000 20.47200 47.15100
H  60.07600 24.10700 43.65000
H  61.43600 23.17800 44.30100
H  61.33200 25.79900 43.86100
H  62.52800 25.20300 44.93700
H  60.97800 25.89800 45.53800
H  56.36500 28.64700 46.00000
H  56.72000 28.76400 44.34100
H  57.93200 27.98300 45.27500
H  51.77200 26.37200 43.41300
H  51.28500 28.99800 40.15100
H  51.57600 27.50500 39.32300
H  52.96800 28.39000 39.95100
Mg 30.43700 57.47400 40.94600
C  27.46900 55.57500 39.84000
C  32.34500 54.90400 39.90000
C  32.87000 59.50800 41.37600
C  28.02500 59.94800 41.73600
N  29.91400 55.52100 39.97900
C  28.71100 54.91000 39.62500
C  28.93000 53.45700 39.12500
C  30.47300 53.28100 39.32300
C  30.96400 54.60100 39.80700
C  30.91600 52.15300 40.25200
C  28.47100 53.13600 37.65300
C  28.88700 54.30100 36.68500
H  27.88000 55.30900 36.10500
N  32.41200 57.21800 40.69800
C  33.01900 56.08900 40.25600
C  34.43000 56.28600 40.46100
C  34.60600 57.64500 40.81700
C  33.25500 58.19800 41.01100
C  35.47100 55.12600 40.30000
C  35.91800 58.36100 41.16900
O  37.00700 57.78400 41.00500
C  36.02400 59.71400 41.83500
N  30.42100 59.42400 41.26800
C  31.65800 60.02200 41.50000
C  31.40100 61.54600 41.82300
C  29.88800 61.58600 42.26900
C  29.40800 60.23800 41.71900
C  32.30700 62.26800 42.87000
C  29.05000 62.81200 41.97100
C  28.02700 63.25700 43.06200
N  28.13100 57.71900 40.98800
C  27.35700 58.82700 41.28200
C  25.95400 58.59100 41.10800
C  25.98400 57.32800 40.54900
C  27.29200 56.83700 40.43800
C  24.81500 59.45200 41.51200
C  25.13200 56.25100 39.99700
O  23.91200 56.23000 39.89600
C  26.05200 55.06300 39.62000
C  25.67900 53.90300 40.42600
O  25.54800 53.88100 41.58500
O  25.58100 52.74200 39.64900
C  25.19500 51.56200 40.44800
H  32.94800 54.00800 39.73800
H  33.71600 60.17100 41.57100
H  27.36000 60.75500 42.05000
H  28.42200 52.85300 39.87600
H  30.91500 53.07200 38.34800
H  30.23200 51.33200 40.47100
H  31.06500 52.57400 41.24600
H  31.91500 51.84500 39.94200
H  27.43000 52.82200 37.72500
H  29.05200 52.25300 37.38700
H  29.32400 53.75800 35.84700
H  29.68600 54.93100 37.07600
H  36.47100 55.55700 40.24300
H  35.33600 54.72600 39.29500
H  35.31700 54.25700 40.93900
H  35.73900 60.54400 41.18900
H  37.06100 59.79500 42.16200
H  35.42700 59.60500 42.74000
H  31.50700 62.05400 40.86400
H  29.80100 61.41500 43.34200
H  33.27700 61.82400 43.09500
H  31.70700 62.33000 43.77700
H  32.55100 63.30600 42.64300
H  28.46700 62.65300 41.06400
H  29.68600 63.67100 41.75800
H  28.33700 64.14200 43.61700
H  27.82600 62.56400 43.88000
H  27.04700 63.40000 42.60700
H  24.37300 59.95400 40.65200
H  25.14500 60.34100 42.05100
H  24.07200 58.90300 42.09000
H  25.89900 54.82700 38.56700
H  24.87700 50.86300 39.67500
H  24.35600 51.76300 41.11300
H  26.13600 51.31900 40.94200

