158

Mg 25.86700 0.67300 29.15500
C  27.95100 0.37300 32.07600
C  23.17900 1.35100 31.19100
C  24.10500 0.59400 26.50100
C  28.66900 -0.73600 27.32400
N  25.60500 0.73700 31.45400
C  26.62700 0.64500 32.41800
C  25.95800 0.84500 33.79500
C  24.47900 1.28100 33.46400
C  24.36600 1.09300 31.99700
C  23.39900 0.22300 34.12800
C  26.70900 1.91000 34.66300
C  26.93400 1.48700 36.08500
H  26.47100 2.47600 37.16700
N  23.90000 1.02900 28.89600
C  22.94400 1.24700 29.78300
C  21.75400 1.45300 29.15700
C  21.92800 1.18900 27.76400
C  23.38300 0.90900 27.65900
C  20.44200 1.72200 29.88100
C  20.81300 1.08100 26.67400
O  21.00500 0.53500 25.57600
C  19.39600 1.57400 26.93400
N  26.37800 -0.00800 27.21400
C  25.40100 0.18400 26.27600
C  25.92000 -0.14800 24.82500
C  27.36400 -0.62100 25.07500
C  27.52200 -0.47700 26.57500
C  25.04600 -1.05900 23.94200
C  28.35400 0.15900 24.20700
C  28.84700 1.48100 24.76500
N  27.85800 -0.05100 29.57700
C  28.81200 -0.56900 28.73200
C  30.10800 -0.67700 29.42100
C  29.77600 -0.35100 30.76800
C  28.41500 0.05800 30.78200
C  31.45400 -1.25900 28.95000
C  30.32900 -0.33600 32.13400
O  31.40400 -0.58400 32.61300
C  29.17700 0.14700 32.97600
C  28.84400 -0.87400 33.93100
O  28.13400 -1.80700 33.68600
O  29.38400 -0.61700 35.16500
C  28.92000 -1.53800 36.21100
H  22.28300 1.60100 31.76200
H  23.47400 0.76500 25.62600
H  29.54700 -0.91600 26.70000
H  25.98300 -0.09900 34.33900
H  24.22000 2.32500 33.63900
H  23.60500 -0.80600 33.83400
H  22.35200 0.41500 33.89200
H  23.45300 0.20100 35.21600
H  26.09100 2.80100 34.77200
H  27.63800 2.22000 34.18500
H  28.00600 1.56100 36.27100
H  26.68000 0.46500 36.36800
H  19.59100 1.33300 29.32200
H  20.28700 2.78900 30.04500
H  20.54300 1.22100 30.84400
H  18.84400 0.76900 27.42000
H  18.94300 1.86000 25.98500
H  19.41200 2.47400 27.54800
H  25.75200 0.83900 24.39400
H  27.36800 -1.70400 24.95100
H  24.08700 -1.37600 24.35100
H  25.62300 -1.88400 23.52500
H  24.77800 -0.38200 23.13100
H  27.77900 0.31400 23.29400
H  29.23600 -0.36700 23.84100
H  28.34600 1.72400 25.70300
H  28.68000 2.26600 24.02700
H  29.92200 1.45200 24.93900
H  32.29300 -0.72200 29.39300
H  31.60200 -0.98100 27.90600
H  31.42600 -2.33200 29.14200
H  29.48600 1.04400 33.51200
H  29.72000 -1.54900 36.95100
H  28.83100 -2.59000 35.93900
H  28.01700 -1.20300 36.72000
Mg 26.80100 51.13600 26.56200
C  24.82800 52.02900 29.21400
C  29.33200 50.22400 28.83100
C  28.65200 49.97500 23.90500
C  24.33900 52.12000 24.32500
N  27.09100 51.29400 28.81100
C  26.02300 51.52700 29.68100
C  26.43600 51.17400 31.10700
C  27.94800 50.85300 30.97600
C  28.20400 50.79700 29.43600
C  28.83100 51.91100 31.64900
C  25.56400 50.05400 31.73100
C  24.84800 50.26300 33.11700
H  25.61900 50.90100 34.29500
N  28.75900 50.27300 26.38000
C  29.55900 49.91900 27.40400
C  30.73300 49.22400 26.86700
C  30.60200 49.12800 25.46100
C  29.24200 49.82900 25.14300
C  31.81500 48.50100 27.67200
C  31.50200 48.48000 24.43300
O  31.10000 48.37700 23.25600
C  32.85800 47.81400 24.63500
N  26.59300 51.22100 24.39800
C  27.44700 50.60100 23.53300
C  26.94500 50.74500 22.07600
C  25.52800 51.38500 22.24000
C  25.44600 51.59500 23.75700
C  27.87400 51.51100 21.12100
C  24.43300 50.38100 21.66000
C  23.32600 51.06500 20.90600
N  25.12300 52.11100 26.61300
C  24.13200 52.41300 25.71800
C  22.97300 52.96600 26.29600
C  23.17400 52.80100 27.66200
C  24.47000 52.23900 27.81100
C  21.81600 53.59000 25.58700
C  22.61200 52.96700 28.94400
O  21.56500 53.48700 29.21700
C  23.58100 52.43700 30.02500
C  23.90800 53.56000 30.97900
O  24.64200 54.44600 30.75100
O  23.13400 53.32700 32.07200
C  23.34100 54.24400 33.23500
H  30.12700 49.94400 29.52500
H  29.20300 49.56900 23.05400
H  23.56000 52.39500 23.61000
H  26.32300 52.07100 31.71600
H  28.11500 49.82700 31.30300
H  28.56300 52.88700 31.24300
H  29.84400 51.60300 31.38900
H  28.81700 51.88600 32.73900
H  26.02500 49.07500 31.86000
H  24.75700 49.97000 31.00200
H  24.35900 49.35600 33.47200
H  24.07200 50.96600 32.81100
H  32.70100 49.11600 27.82700
H  32.07900 47.58200 27.14800
H  31.39500 48.31200 28.66000
H  33.32500 47.66100 23.66200
H  32.73300 46.84500 25.11800
H  33.36600 48.47900 25.33400
H  26.84400 49.71000 21.75000
H  25.38700 52.39000 21.84200
H  27.44500 52.41900 20.69700
H  28.38300 50.84400 20.42600
H  28.62300 51.87800 21.82200
H  24.00800 49.76600 22.45300
H  24.85700 49.70500 20.91700
H  23.12200 50.53500 19.97600
H  23.59400 52.06200 20.55700
H  22.39400 50.96200 21.46100
H  22.14100 54.55500 25.19900
H  21.07800 53.64800 26.38800
H  21.51300 52.84900 24.84600
H  23.01000 51.66300 30.53800
H  23.67200 55.23900 32.93700
H  24.03300 53.77600 33.93500
H  22.40900 54.44800 33.76300

