158

Mg 16.52300 -1.91400 27.85100
C  15.47500 0.31200 30.37400
C  18.79200 -3.31500 30.12000
C  17.71000 -3.72800 25.35900
C  14.43300 0.02400 25.59200
N  17.11100 -1.42300 29.94000
C  16.49500 -0.51600 30.83300
C  16.96900 -0.85100 32.26400
C  18.16400 -1.75400 32.06700
C  18.11000 -2.15400 30.61600
C  19.54700 -1.07700 32.31900
C  15.88300 -1.43500 33.21800
C  15.41300 -0.50900 34.29900
H  16.45300 0.37000 35.10600
N  17.88800 -3.36900 27.83700
C  18.65800 -3.84200 28.85600
C  19.26200 -5.13100 28.50100
C  19.05000 -5.26000 27.12000
C  18.21600 -4.10500 26.71700
C  20.04500 -6.14200 29.38700
C  19.52600 -6.41600 26.17400
O  19.30200 -6.31800 25.00200
C  20.34700 -7.48200 26.72100
N  16.33800 -1.62200 25.72400
C  16.93300 -2.57800 24.91100
C  16.45700 -2.34800 23.46500
C  15.29500 -1.33900 23.61600
C  15.35300 -1.00600 25.10800
C  17.55300 -2.00600 22.44300
C  13.87300 -1.83400 23.12000
C  12.87400 -2.56400 24.07500
N  15.24400 -0.11900 27.91600
C  14.43800 0.44000 26.93500
C  13.60400 1.42700 27.51000
C  13.93100 1.32500 28.89700
C  14.98600 0.44400 29.05200
C  12.63600 2.32900 26.74600
C  13.56300 1.92200 30.17500
O  12.75600 2.82600 30.49400
C  14.56000 1.24900 31.20600
C  15.39200 2.27400 31.94700
O  16.58200 2.58400 31.83300
O  14.59000 2.80300 32.94700
C  15.15500 3.94500 33.57500
H  19.27600 -3.89100 30.91100
H  18.19100 -4.28200 24.55000
H  13.83600 0.53800 24.83600
H  17.30000 0.15600 32.51900
H  18.12300 -2.68900 32.62600
H  19.37500 -0.15400 32.87300
H  20.25300 -0.99500 31.49300
H  20.04100 -1.77000 33.00000
H  16.17800 -2.44000 33.51900
H  14.97500 -1.69300 32.67400
H  14.94000 -1.20700 34.98900
H  14.54200 0.10500 34.07000
H  19.47800 -7.06000 29.54200
H  20.19800 -5.68700 30.36500
H  21.08600 -6.32100 29.11600
H  21.33600 -7.18600 27.07200
H  20.63100 -8.06500 25.84500
H  19.67900 -7.95900 27.43800
H  16.08500 -3.34300 23.22200
H  15.51100 -0.42000 23.07300
H  18.54500 -2.14400 22.87200
H  17.27100 -0.99600 22.14700
H  17.56000 -2.56700 21.50800
H  14.07900 -2.56700 22.34100
H  13.39300 -0.99700 22.61300
H  13.20700 -2.49000 25.11000
H  12.70000 -3.55600 23.65800
H  11.88400 -2.11000 24.04100
H  12.53600 1.93600 25.73400
H  13.03300 3.33600 26.62100
H  11.67000 2.27200 27.24600
H  13.97900 0.64700 31.90400
H  15.25600 4.76100 32.85900
H  16.06800 3.79600 34.15200
H  14.39400 4.44000 34.17900
Mg 49.20000 35.36400 27.63800
C  46.84700 34.08000 30.09100
C  49.78100 38.03500 29.74200
C  51.16100 36.71000 25.30000
C  48.22400 32.85000 25.52800
N  48.45300 35.91900 29.70900
C  47.48400 35.26900 30.47300
C  47.28200 36.07400 31.80400
C  48.05300 37.44200 31.51100
C  48.80100 37.17600 30.15400
C  47.23200 38.76900 31.56500
C  47.64300 35.47400 33.18800
C  48.85300 34.56700 33.26000
H  50.15400 35.22700 33.80500
N  50.30700 37.08300 27.54300
C  50.50600 38.06100 28.56200
C  51.24300 39.16100 28.05700
C  51.80800 38.77500 26.76700
C  51.10400 37.52400 26.49600
C  51.40700 40.49400 28.80700
C  52.87900 39.39100 26.04300
O  53.28900 38.88400 25.04500
C  53.39300 40.74400 26.43400
N  49.65800 34.85700 25.76000
C  50.45900 35.56300 24.94900
C  50.87900 34.86100 23.73700
C  49.76100 33.73600 23.76100
C  49.21200 33.72600 25.12900
C  50.74200 35.67900 22.39600
C  50.34100 32.37500 23.41000
C  49.58900 31.58700 22.24000
N  48.00600 33.65900 27.82000
C  47.63000 32.83900 26.82600
C  46.69800 31.80000 27.39800
C  46.38900 32.28200 28.68000
C  47.17800 33.38600 28.87000
C  46.03100 30.62500 26.65900
C  45.60200 31.98500 29.83000
O  44.85600 31.02100 30.05200
C  45.77600 33.20900 30.82900
C  45.95400 32.67200 32.23900
O  46.98800 32.10300 32.62300
O  44.87300 32.91000 33.04300
C  44.76300 32.41400 34.40900
H  49.88600 38.87800 30.42900
H  51.80200 37.08200 24.49700
H  47.94000 32.09100 24.79600
H  46.22100 36.32200 31.77300
H  48.77900 37.67000 32.29100
H  47.59800 39.43500 32.34600
H  46.17700 38.60800 31.78300
H  47.26600 39.22500 30.57600
H  46.78600 35.00700 33.67300
H  47.78600 36.32400 33.85400
H  49.06400 34.09200 32.30200
H  48.71900 33.73500 33.95200
H  50.68800 40.66300 29.60800
H  51.22600 41.26900 28.06200
H  52.43600 40.51800 29.16500
H  54.02800 40.74400 27.31900
H  52.59400 41.48500 26.39500
H  54.09200 41.14800 25.70100
H  51.88000 34.43300 23.78600
H  48.97600 34.07800 23.08700
H  51.54100 36.41000 22.27300
H  49.79100 36.21000 22.41200
H  50.91500 34.95900 21.59500
H  50.20700 31.71100 24.26400
H  51.38200 32.46400 23.09900
H  48.92700 30.85000 22.69500
H  50.29900 31.02200 21.63500
H  49.00500 32.23900 21.59000
H  46.84500 29.92400 26.47300
H  45.62100 31.08900 25.76200
H  45.18700 30.25700 27.24400
H  44.88900 33.83700 30.74500
H  44.14300 31.52400 34.52100
H  44.39200 33.20200 35.06500
H  45.78500 32.15000 34.68100

