158

Mg 48.98800 45.98200 44.28100
C  45.85800 46.32800 42.60200
C  49.36000 42.98800 42.40700
C  52.40900 46.30300 44.56700
C  48.68500 49.31100 45.36700
N  47.75600 44.93000 42.65800
C  46.53100 45.13600 42.26100
C  45.89300 44.00500 41.39700
C  46.98600 42.91000 41.55600
C  48.14200 43.58700 42.20000
C  46.48500 41.63900 42.52100
C  45.49900 44.56900 40.01800
C  44.02000 44.41900 39.40700
H  43.88300 43.44800 38.16500
N  50.55900 44.76000 43.62200
C  50.54600 43.57100 42.95900
C  51.79500 42.92200 43.03800
C  52.69100 43.80800 43.75600
C  51.89800 45.05300 43.99900
C  52.04700 41.48900 42.47200
C  54.09500 43.37300 44.19900
O  54.60200 42.30900 43.78400
C  54.85600 44.15200 45.18800
N  50.36400 47.54600 44.84800
C  51.73000 47.48800 44.84700
C  52.41200 48.82300 45.38100
C  51.19900 49.74500 45.73400
C  50.00200 48.87100 45.28600
C  53.28800 48.58600 46.57800
C  51.20600 51.11600 45.03700
C  52.27100 52.08000 45.45800
N  47.43300 47.43300 44.29800
C  47.53900 48.76400 44.73000
C  46.16000 49.36000 44.61400
C  45.48000 48.38800 43.80800
C  46.36700 47.29000 43.57300
C  45.66100 50.73100 44.90700
C  44.23800 48.13900 43.13900
O  43.28000 48.78200 42.95200
C  44.37700 46.74400 42.30200
C  43.47300 45.77400 42.97200
O  43.70100 45.06000 43.96400
O  42.26400 45.85500 42.26700
C  41.22900 44.91200 42.73300
H  49.45300 41.98100 41.99400
H  53.48800 46.36600 44.72400
H  48.49600 50.31700 45.74700
H  44.96300 43.56000 41.75100
H  47.19200 42.48000 40.57600
H  45.47500 41.79700 42.90000
H  46.96500 41.61400 43.49900
H  46.52000 40.67200 42.02000
H  46.06600 44.08200 39.22400
H  45.94400 45.55300 39.86900
H  43.67200 45.43400 39.21700
H  43.46200 43.96500 40.22600
H  53.08400 41.43100 42.14300
H  51.40600 41.36400 41.59900
H  51.78400 40.76000 43.23900
H  54.25800 44.55200 46.00700
H  55.29200 44.97400 44.62100
H  55.58100 43.44700 45.59500
H  53.02900 49.16000 44.54900
H  51.13700 49.78200 46.82200
H  53.11800 47.60500 47.02200
H  53.17400 49.30900 47.38600
H  54.33600 48.65800 46.28600
H  50.27100 51.67000 45.12200
H  51.25900 50.89400 43.97100
H  51.75900 53.02600 45.63600
H  52.99100 52.32500 44.67700
H  52.75900 51.72600 46.36500
H  45.85100 51.10200 45.91400
H  44.62300 50.78400 44.57700
H  46.12700 51.40200 44.18500
H  44.31600 46.90600 41.22500
H  40.32600 45.52000 42.79700
H  41.49700 44.33200 43.61600
H  41.01300 44.12500 42.01100
Mg 30.96200 58.25200 39.92100
C  28.45900 56.20800 38.34800
C  33.16700 55.70300 39.27900
C  33.56900 60.39900 40.34100
C  28.70400 60.86500 39.88500
N  30.81900 56.24500 38.75400
C  29.72000 55.59200 38.29800
C  29.96000 54.15600 37.87600
C  31.43100 53.95800 38.37200
C  31.85600 55.36900 38.81900
C  31.62800 52.82400 39.44200
C  29.70600 53.71400 36.37500
C  29.73500 54.89400 35.33800
H  28.61600 54.71000 34.21600
N  33.07300 58.09300 39.89600
C  33.72800 56.91400 39.66300
C  35.12300 57.16400 39.70600
C  35.31700 58.53300 40.12400
C  33.91700 59.04500 40.16900
C  36.12000 55.92600 39.41900
C  36.56900 59.13700 40.60700
O  37.55000 58.42500 40.76100
C  36.59800 60.50800 41.17200
N  31.18400 60.30500 40.14300
C  32.29300 60.97100 40.30100
C  31.99100 62.49000 40.56700
C  30.46800 62.55200 40.41000
C  30.07600 61.11400 40.05400
C  32.58900 62.84800 42.01100
C  29.89800 63.64200 39.47100
C  30.12800 63.44200 37.95800
N  28.93200 58.49200 39.25400
C  28.18000 59.68300 39.36700
C  26.88800 59.37600 38.90900
C  26.92000 58.02800 38.53000
C  28.23000 57.54500 38.71200
C  25.81500 60.44900 38.73400
C  26.12900 56.94600 37.94900
O  24.93800 56.89400 37.60300
C  27.12600 55.66000 37.92400
C  26.55800 54.70100 38.96300
O  26.97700 54.51400 40.09700
O  25.35700 54.17900 38.50600
C  24.69800 53.40300 39.45500
H  33.84200 54.85400 39.16100
H  34.37800 61.10100 40.55400
H  28.01400 61.71000 39.92900
H  29.30600 53.50200 38.45200
H  32.07700 53.69600 37.53400
H  30.69400 52.33500 39.71500
H  32.16200 52.99100 40.37700
H  32.11100 51.99600 38.92300
H  28.71500 53.26300 36.33500
H  30.56600 53.08300 36.15200
H  30.68800 54.89400 34.80900
H  29.42500 55.82600 35.81200
H  35.85100 55.34600 38.53600
H  35.95100 55.21800 40.23000
H  37.13700 56.31400 39.36200
H  35.72100 60.54200 41.81800
H  36.61600 61.21300 40.34000
H  37.49800 60.65700 41.76800
H  32.42400 63.11300 39.78500
H  29.97800 62.64900 41.37900
H  33.15600 63.77300 41.90200
H  33.18600 62.00300 42.35400
H  31.75100 63.01200 42.68900
H  30.40000 64.54200 39.82700
H  28.82400 63.72200 39.63800
H  29.25200 63.07200 37.42500
H  30.89800 62.70500 37.72700
H  30.45200 64.38400 37.51600
H  25.65400 60.88600 39.72000
H  24.84200 60.02700 38.48200
H  26.09100 61.23700 38.03400
H  26.90600 55.25000 36.93800
H  24.63900 53.98900 40.37200
H  25.26100 52.49500 39.67000
H  23.69700 53.09500 39.15000

