158

Mg 1.93400 -1.21100 44.99200
C  5.30300 -0.39600 44.48300
C  1.08200 1.32300 42.61700
C  -1.15500 -2.44800 44.66800
C  2.97500 -4.08500 46.72200
N  3.13300 0.17200 43.60000
C  4.48500 0.37900 43.67800
C  4.86100 1.48700 42.72000
C  3.49600 2.11200 42.27700
C  2.44200 1.19700 42.88800
C  3.15100 3.50900 42.93000
C  5.70700 0.92200 41.44600
C  7.11100 1.56600 41.45500
H  7.58900 2.24300 40.19300
N  0.16200 -0.56900 43.94700
C  0.07400 0.46700 43.04200
C  -1.37500 0.63700 42.72100
C  -2.07800 -0.49100 43.29400
C  -0.97700 -1.21000 44.01500
C  -1.98200 1.69500 41.85300
C  -3.56800 -0.72400 43.12300
O  -4.15500 -0.15900 42.22100
C  -4.38900 -1.68200 43.96800
N  1.04400 -2.98400 45.61200
C  -0.29300 -3.23600 45.43800
C  -0.67300 -4.65800 46.05800
C  0.69000 -5.11500 46.73100
C  1.60800 -4.00200 46.37200
C  -1.93100 -4.67800 47.02900
C  1.20300 -6.49400 46.13900
C  2.03800 -7.31600 47.18600
N  3.72200 -2.09000 45.62700
C  4.01300 -3.22600 46.35600
C  5.43800 -3.24000 46.57600
C  5.99500 -2.14000 45.89900
C  4.89700 -1.49700 45.26700
C  6.18600 -4.26100 47.23600
C  7.24200 -1.43300 45.58200
O  8.43900 -1.56600 45.92800
C  6.78200 -0.28600 44.62400
C  7.25600 1.03600 45.16300
O  6.75900 1.55100 46.14200
O  8.30900 1.54100 44.38400
C  8.46000 3.00100 44.54500
H  0.74100 2.07300 41.90000
H  -2.17000 -2.83400 44.55900
H  3.27800 -4.90800 47.37200
H  5.49200 2.08600 43.37700
H  3.33600 1.97300 41.20800
H  3.10400 4.19800 42.08700
H  3.87800 3.90100 43.64100
H  2.23800 3.67900 43.49900
H  5.20200 1.25200 40.53800
H  5.85700 -0.15100 41.56100
H  7.92700 0.93500 41.81000
H  7.16900 2.38900 42.16700
H  -2.25300 1.35000 40.85500
H  -1.25200 2.47700 41.64400
H  -2.91100 2.11000 42.24200
H  -5.37600 -1.24600 44.12000
H  -3.90300 -1.86100 44.92700
H  -4.42800 -2.60600 43.39000
H  -0.89300 -5.34000 45.23700
H  0.64400 -5.18700 47.81800
H  -1.65100 -5.08900 48.00000
H  -2.82100 -5.16600 46.63300
H  -2.10300 -3.61600 47.20000
H  1.80600 -6.35000 45.24200
H  0.38400 -7.17000 45.89500
H  1.29500 -8.08400 47.40500
H  2.24300 -6.74700 48.09200
H  2.95600 -7.81800 46.88100
H  7.21800 -3.96000 47.41500
H  6.15500 -5.23900 46.75500
H  5.74400 -4.60300 48.17200
H  7.24200 -0.43200 43.64700
H  9.18000 3.13000 45.35400
H  7.56200 3.54200 44.84700
H  8.80400 3.48000 43.62900
Mg 47.13000 16.27100 27.05100
C  45.05000 15.88300 29.84900
C  49.43600 17.87000 29.10400
C  48.86900 17.13600 24.30300
C  44.72700 14.85600 24.98800
N  47.21300 16.85300 29.26600
C  46.26200 16.51200 30.22200
C  46.78300 16.90100 31.63500
C  48.09500 17.68100 31.29800
C  48.33000 17.40700 29.81000
C  47.98200 19.17100 31.63700
C  46.93300 15.66400 32.60100
C  46.15400 15.71900 33.92800
H  45.98900 17.15200 34.53200
N  48.97400 17.18700 26.75200
C  49.85400 17.68600 27.72700
C  51.07200 18.11800 27.11300
C  50.92800 17.87400 25.75000
C  49.51600 17.36700 25.49900
C  52.25100 18.67500 27.84700
C  51.91000 18.20700 24.61400
O  51.69600 17.90800 23.46300
C  53.09700 19.01300 24.81000
N  46.79200 16.09600 24.97600
C  47.64200 16.56700 24.09400
C  47.13600 16.35300 22.70900
C  46.06400 15.35600 22.87400
C  45.82200 15.39800 24.35100
C  46.80600 17.69100 21.91900
C  46.13700 13.90500 22.23600
C  44.76600 13.21900 21.94500
N  45.32100 15.50100 27.34000
C  44.49000 14.86600 26.37800
C  43.28900 14.31000 27.09200
C  43.50700 14.79300 28.43500
C  44.73600 15.43100 28.55800
C  41.91800 13.66600 26.66000
C  42.87400 14.66200 29.75000
O  41.75900 14.27000 30.13500
C  43.86900 15.40200 30.73900
C  43.05500 16.43000 31.43400
O  42.49900 17.39400 30.97500
O  43.10400 16.20700 32.82900
C  42.14900 17.05500 33.49700
H  50.16600 18.30300 29.79000
H  49.30700 17.46000 23.35700
H  44.00700 14.33000 24.35800
H  45.89800 17.45100 31.95400
H  48.87800 17.24800 31.92000
H  47.11700 19.20400 32.30000
H  47.90700 19.78800 30.74300
H  48.82100 19.38400 32.29900
H  47.95800 15.34700 32.79500
H  46.51800 14.74100 32.19800
H  46.79200 15.14300 34.59800
H  45.17900 15.24200 33.83300
H  52.44500 19.59700 27.29800
H  53.10600 18.00000 27.88300
H  51.88900 18.99200 28.82500
H  52.90900 20.00000 25.23300
H  53.52800 19.07200 23.81000
H  53.89600 18.55700 25.39400
H  47.90400 15.84700 22.12500
H  45.12700 15.75600 22.48300
H  45.78900 17.74800 21.53100
H  47.41300 17.75900 21.01700
H  46.99600 18.57000 22.53500
H  46.63100 13.28600 22.98500
H  46.83500 13.96100 21.40100
H  44.85100 12.94000 20.89500
H  43.94100 13.87600 22.22000
H  44.69300 12.28500 22.50200
H  42.01700 12.58200 26.59300
H  41.65400 13.97600 25.64900
H  41.22700 14.00200 27.43200
H  44.20900 14.76000 31.55200
H  41.17300 16.57500 33.43600
H  41.95700 18.08500 33.19600
H  42.38400 17.06900 34.56100

