158

Mg 30.22200 58.18400 40.10300
C  27.62400 55.67300 39.50600
C  32.39800 55.68500 39.36900
C  32.50300 60.58900 40.07900
C  27.65600 60.43200 40.74500
N  30.00000 55.83200 39.62300
C  28.88400 55.17500 39.21800
C  29.27000 53.75300 38.69200
C  30.83600 53.63600 39.10900
C  31.11000 55.09600 39.40700
C  31.10200 52.60600 40.27800
C  29.17400 53.59600 37.13500
C  27.75100 53.17500 36.66800
H  27.00500 54.13400 35.65600
N  32.19000 58.15200 39.72300
C  32.93600 57.03200 39.50300
C  34.29400 57.40900 39.35600
C  34.37300 58.83000 39.41000
C  33.01700 59.28400 39.69400
C  35.49100 56.43500 39.34700
C  35.66100 59.66600 39.29800
O  36.75400 59.15400 39.09100
C  35.67500 61.12100 39.52000
N  30.05300 60.31000 40.17800
C  31.18400 61.06300 40.27200
C  30.79300 62.48100 40.77800
C  29.24400 62.42600 41.07200
C  28.96600 60.94800 40.68400
C  31.73600 63.06800 41.89800
C  28.33400 63.42800 40.19600
C  27.21700 64.11200 40.97800
N  28.10700 58.14300 40.13800
C  27.25100 59.16300 40.44900
C  25.87900 58.62400 40.34600
C  26.00300 57.22600 40.06700
C  27.34600 57.00100 39.91800
C  24.66200 59.44700 40.62600
C  25.32200 55.93300 39.90000
O  24.11500 55.76000 39.96800
C  26.28400 54.84500 39.42400
C  26.18700 53.71400 40.48200
O  26.66200 53.70800 41.54900
O  25.47800 52.61900 40.00600
C  25.44300 51.48800 40.94700
H  33.13400 54.91700 39.12500
H  33.19600 61.38200 40.36600
H  26.90900 61.16800 41.04700
H  28.58600 53.07600 39.20400
H  31.47700 53.33500 38.28100
H  31.92900 51.95700 39.99000
H  30.21800 52.00400 40.48800
H  31.53200 53.01300 41.19300
H  29.81500 52.76100 36.85200
H  29.47000 54.55900 36.72000
H  27.10800 52.94600 37.51800
H  27.77200 52.20700 36.16800
H  36.04400 56.53700 38.41400
H  35.31600 55.39300 39.61500
H  36.12400 56.81100 40.15100
H  34.92500 61.58700 38.88200
H  36.68600 61.49700 39.36200
H  35.47900 61.45600 40.53800
H  30.83800 63.08800 39.87400
H  28.99200 62.59700 42.11800
H  32.33200 62.23700 42.27600
H  31.28700 63.50600 42.78900
H  32.31000 63.84500 41.39400
H  27.92300 62.91200 39.32800
H  29.06200 64.16000 39.84600
H  27.42500 65.17700 41.07700
H  27.22900 63.61300 41.94700
H  26.38500 63.88600 40.31100
H  23.80700 58.87300 40.98200
H  24.45100 59.75900 39.60300
H  24.88400 60.24500 41.33400
H  25.95400 54.40700 38.48200
H  25.57900 50.50800 40.49000
H  24.43400 51.31800 41.32300
H  26.05000 51.53000 41.85200
Mg 9.44200 48.02200 25.40300
C  7.30000 48.06500 28.09200
C  11.95200 49.17200 27.59300
C  11.58400 47.95400 22.92600
C  6.75300 47.47500 23.21800
N  9.50500 49.03000 27.65600
C  8.54400 48.58100 28.51000
C  9.04600 48.77400 30.00500
C  10.37000 49.53100 29.67200
C  10.68400 49.27900 28.19200
C  10.35500 51.07100 29.97100
C  9.29600 47.46600 30.87700
C  8.88000 47.53400 32.30000
H  9.06100 46.34000 33.16200
N  11.47700 48.37200 25.33900
C  12.33000 48.79400 26.36200
C  13.72900 48.64200 25.82900
C  13.56100 48.25200 24.47600
C  12.14700 48.17200 24.16400
C  14.95100 49.11800 26.63300
C  14.78700 47.98200 23.55500
O  14.70700 47.93900 22.36300
C  16.21100 47.77800 24.19100
N  9.16400 48.12300 23.29700
C  10.27800 47.86500 22.50400
C  9.85000 47.50400 21.06400
C  8.30600 47.33600 21.20600
C  8.03900 47.70500 22.66500
C  10.41800 48.36500 19.87400
C  7.78300 46.04500 20.63800
C  8.27200 44.73400 21.33500
N  7.41900 47.83100 25.56400
C  6.42500 47.50900 24.61600
C  5.18800 47.34100 25.23100
C  5.49400 47.47500 26.62000
C  6.86100 47.81700 26.76900
C  3.86700 46.92600 24.73200
C  4.93200 47.35000 27.90100
O  3.76600 47.06900 28.17600
C  6.04800 47.79300 28.96100
C  6.27600 46.57400 29.80000
O  6.88100 45.56100 29.53200
O  5.51200 46.70600 30.90400
C  5.40300 45.52200 31.82200
H  12.78700 49.24600 28.29300
H  12.38800 47.71100 22.22800
H  6.06700 47.22300 22.40700
H  8.24700 49.35700 30.46200
H  11.16100 49.14200 30.31400
H  9.36600 51.49700 29.80300
H  11.10000 51.53900 29.32900
H  10.58900 51.23600 31.02300
H  10.37800 47.48100 31.00300
H  8.89100 46.59400 30.36400
H  7.81000 47.73000 32.37200
H  9.38700 48.43700 32.64000
H  15.48000 48.30000 27.12100
H  14.59400 49.78900 27.41500
H  15.65900 49.67000 26.01500
H  16.17200 47.27900 25.16000
H  16.73600 48.73000 24.26500
H  16.87300 47.24400 23.50900
H  10.42100 46.59400 20.88000
H  7.70900 48.04400 20.63200
H  11.16800 49.02700 20.30600
H  9.64700 48.97900 19.41000
H  10.99400 47.76500 19.17000
H  8.15500 46.00600 19.61400
H  6.69600 45.96700 20.62100
H  7.47200 44.09600 21.71100
H  8.79100 44.93800 22.27100
H  8.82600 44.14300 20.60700
H  4.20900 46.28600 23.91800
H  3.49300 47.84300 24.27800
H  3.16300 46.53000 25.46300
H  5.79800 48.64500 29.59300
H  5.91200 45.70300 32.76900
H  5.73500 44.57300 31.39900
H  4.36200 45.44300 32.13500

