158

Mg 0.04100 7.51500 26.79000
C  0.95200 9.88500 29.09100
C  -0.09600 5.12500 29.21900
C  -0.52000 5.19600 24.30900
C  0.52600 9.94400 24.27600
N  0.36000 7.49200 28.93600
C  0.69600 8.59900 29.66800
C  0.60900 8.29100 31.12400
C  0.61900 6.73400 31.16500
C  0.26100 6.42000 29.69500
C  1.95000 6.12000 31.45700
C  -0.70200 8.94700 31.68900
C  -0.76200 8.81500 33.26900
H  -1.48900 7.52100 33.83900
N  -0.23300 5.55900 26.76200
C  -0.32900 4.71700 27.86900
C  -0.53100 3.37500 27.50400
C  -0.75000 3.38800 26.09800
C  -0.46200 4.75100 25.62000
C  -0.57200 2.20200 28.57000
C  -1.15000 2.26600 25.14900
O  -1.31100 2.29700 23.93000
C  -1.34500 0.92500 25.76200
N  0.03700 7.57200 24.53200
C  -0.26500 6.47400 23.76000
C  -0.41900 6.87300 22.31100
C  0.06200 8.39000 22.40800
C  0.19800 8.71600 23.79100
C  0.42200 6.00100 21.38300
C  -0.70100 9.40500 21.41300
C  -1.94500 10.19000 21.98600
N  0.59900 9.49800 26.63100
C  0.70900 10.36400 25.54300
C  1.06800 11.69200 26.01100
C  1.18500 11.53000 27.38900
C  0.94800 10.20100 27.69300
C  1.30700 12.94500 25.22000
C  1.48600 12.22800 28.62100
O  1.89400 13.39100 28.75900
C  1.28000 11.23000 29.80000
C  2.43400 11.23900 30.76000
O  3.54900 10.72600 30.56300
O  2.04600 11.77900 31.89800
C  3.08500 11.66100 32.99000
H  -0.13400 4.41300 30.04500
H  -0.83500 4.44700 23.57900
H  0.52400 10.67900 23.46800
H  1.40900 8.65900 31.76700
H  -0.17400 6.31700 31.78600
H  2.67600 6.92700 31.36300
H  2.01500 5.21600 30.85100
H  2.04200 5.59100 32.40500
H  -1.55000 8.43900 31.22900
H  -0.72100 10.01500 31.47000
H  -1.38200 9.60400 33.69500
H  0.17300 8.90700 33.82300
H  -1.42300 1.52900 28.47100
H  -0.68600 2.41700 29.63300
H  0.33800 1.60900 28.49000
H  -1.95300 0.33400 25.07800
H  -1.99400 1.14400 26.60900
H  -0.48300 0.34100 26.08500
H  -1.46000 6.83400 21.99300
H  1.10500 8.29900 22.10300
H  1.12800 6.54900 20.75900
H  -0.10600 5.28500 20.75200
H  1.01200 5.28000 21.94700
H  -0.99400 8.80400 20.55300
H  -0.05400 10.07100 20.84200
H  -1.57400 11.19900 21.80400
H  -2.16100 10.08400 23.04900
H  -2.88100 10.04900 21.44500
H  0.42100 13.57700 25.16400
H  1.82900 12.73800 24.28500
H  1.98800 13.63200 25.72200
H  0.41500 11.47400 30.41700
H  3.73400 12.49400 32.71500
H  3.62800 10.71900 33.06300
H  2.65700 11.90100 33.96300
Mg 35.08600 3.47500 30.40000
C  32.70700 4.55400 32.71600
C  37.40100 3.59500 32.98800
C  37.29900 2.74500 28.16600
C  32.58800 3.73600 27.90500
N  35.00800 4.03500 32.59000
C  33.92200 4.35900 33.31300
C  34.25600 4.25300 34.86600
C  35.85800 4.29900 34.88100
C  36.08800 3.90400 33.38200
C  36.39500 5.72300 35.13900
C  33.72200 2.95700 35.59200
C  34.01300 2.76000 37.08900
H  34.44900 3.98100 37.91300
N  37.10400 3.12200 30.60500
C  37.93600 3.14500 31.72600
C  39.28900 2.72800 31.36600
C  39.30700 2.76200 29.92000
C  37.86800 2.85900 29.50500
C  40.41400 2.66200 32.46200
C  40.39800 2.61300 28.94100
O  40.15500 2.83300 27.76500
C  41.73300 2.08800 29.38700
N  34.94300 3.37000 28.29900
C  35.99400 2.99300 27.61300
C  35.77400 3.06600 26.01400
C  34.23100 3.29200 25.98600
C  33.86700 3.47200 27.48700
C  36.55200 4.18800 25.19300
C  33.50700 2.13900 25.26500
C  33.10700 0.94400 26.07200
N  33.07100 4.11900 30.27700
C  32.18800 4.08900 29.17400
C  30.84000 4.27000 29.66900
C  31.02100 4.50900 31.05300
C  32.41000 4.41000 31.38800
C  29.61900 4.28900 28.78200
C  30.37300 4.75500 32.29700
O  29.18700 4.93300 32.47900
C  31.39100 4.74600 33.46000
C  31.21100 6.02800 34.12100
O  30.98400 7.13200 33.56100
O  31.27900 5.81700 35.46600
C  31.49600 7.08400 36.14100
H  38.12100 3.70500 33.80200
H  38.03200 2.45200 27.41100
H  31.78400 3.67100 27.16900
H  33.78900 5.11300 35.34600
H  36.20400 3.64300 35.68000
H  36.91600 5.71400 36.09600
H  35.65900 6.52100 35.22400
H  37.15800 5.86900 34.37400
H  34.12400 2.05600 35.12900
H  32.63500 2.93400 35.51100
H  34.64300 1.87000 37.10700
H  33.15100 2.33600 37.60400
H  40.13700 3.22000 33.35600
H  41.23900 3.20800 32.00400
H  40.85700 1.70800 32.74900
H  41.50000 1.28700 30.08800
H  42.28500 2.94700 29.76800
H  42.36500 1.73800 28.57100
H  36.16700 2.13800 25.59700
H  34.01000 4.18800 25.40700
H  37.12200 4.71900 25.95600
H  35.81600 4.84100 24.72500
H  37.17700 3.63200 24.49400
H  34.18700 1.77600 24.49500
H  32.66200 2.58600 24.74200
H  33.63700 0.88000 27.02300
H  33.20300 0.08800 25.40500
H  32.04600 0.98700 26.32200
H  29.00200 3.39200 28.81300
H  29.88300 4.35100 27.72600
H  28.95300 5.11400 29.03400
H  31.06800 3.99000 34.17500
H  32.27800 7.61900 35.60100
H  31.96000 6.83200 37.09400
H  30.63200 7.74900 36.12800

