158

Mg -0.91700 33.52400 26.67100
C  -2.48500 31.97900 29.52200
C  0.68900 35.45300 28.80500
C  -0.14100 35.31500 24.03500
C  -2.78800 31.31900 24.63000
N  -0.96700 33.65100 28.95100
C  -1.57400 32.97400 29.91500
C  -1.08200 33.18500 31.30100
C  -0.06800 34.40000 31.12100
C  -0.05300 34.57000 29.53000
C  -0.30000 35.71600 31.98900
C  -0.43700 31.93800 31.98200
C  -1.06100 31.55700 33.38100
H  -0.26000 32.09100 34.66500
N  0.12400 35.21400 26.50800
C  0.76700 35.85800 27.46300
C  1.53500 36.92500 26.91500
C  1.23300 36.91700 25.53600
C  0.37100 35.75400 25.31300
C  2.37600 37.83900 27.77000
C  1.71400 37.80000 24.43300
O  1.36400 37.73000 23.24600
C  2.66000 38.84600 24.84400
N  -1.65800 33.49800 24.55800
C  -0.99900 34.26800 23.66800
C  -1.47500 33.91500 22.27600
C  -2.09500 32.51500 22.46900
C  -2.22300 32.41000 23.96200
C  -2.42100 34.92800 21.67900
C  -1.23600 31.27300 21.95000
C  0.22200 31.07100 22.30500
N  -2.32700 31.95400 26.97700
C  -2.94700 31.14800 26.02900
C  -3.75200 30.24500 26.72400
C  -3.68400 30.54300 28.09400
C  -2.73800 31.58000 28.23300
C  -4.77400 29.29400 26.10200
C  -4.19900 30.28800 29.46400
O  -5.00900 29.49600 29.82800
C  -3.34800 31.14800 30.46500
C  -4.33200 31.91400 31.22800
O  -5.07200 32.82300 30.75900
O  -4.29400 31.62700 32.52900
C  -5.23900 32.43400 33.28800
H  1.46500 35.89600 29.43200
H  0.08700 35.82100 23.09500
H  -3.07900 30.52900 23.93400
H  -1.94000 33.49500 31.89900
H  0.98400 34.14100 31.24600
H  -0.66800 36.46600 31.29000
H  0.68600 36.03900 32.32400
H  -0.90500 35.53000 32.87700
H  0.60600 32.17500 32.19100
H  -0.50400 31.10600 31.28000
H  -1.04300 30.47500 33.50800
H  -2.04400 32.00700 33.52000
H  3.44700 37.67300 27.88600
H  2.03600 37.82300 28.80600
H  2.02100 38.80900 27.42200
H  2.94500 39.43000 23.96900
H  3.58800 38.35300 25.13400
H  2.20100 39.52600 25.56200
H  -0.65100 33.81200 21.57100
H  -3.06800 32.47600 21.97800
H  -1.94000 35.83300 21.30700
H  -3.12500 35.18100 22.47300
H  -3.03300 34.49000 20.89100
H  -1.25600 31.44100 20.87300
H  -1.80100 30.36500 22.16300
H  0.47600 31.90200 22.96300
H  0.84100 31.22700 21.42200
H  0.30800 30.13600 22.85900
H  -4.82400 29.33000 25.01300
H  -5.81600 29.48800 26.35300
H  -4.59200 28.29800 26.50600
H  -2.80000 30.44800 31.09600
H  -6.27000 32.08300 33.23500
H  -5.20200 33.49800 33.05400
H  -5.05800 32.34600 34.35900
Mg -4.82400 24.85700 26.56700
C  -3.12400 26.41700 29.20400
C  -6.36500 22.79600 28.97900
C  -6.79700 23.50200 24.13400
C  -3.15200 26.64000 24.31200
N  -4.77600 24.67600 28.79900
C  -4.11100 25.52000 29.66100
C  -4.35200 25.15000 31.18300
C  -5.22300 23.82400 31.01700
C  -5.50000 23.75700 29.51800
C  -4.49400 22.56700 31.55200
C  -5.08300 26.45200 31.78700
C  -5.98000 26.17000 33.00500
H  -5.47000 25.08100 33.98700
N  -6.29400 23.24200 26.53600
C  -6.72800 22.48700 27.60500
C  -7.71200 21.51400 27.07300
C  -7.96500 21.89200 25.75700
C  -6.98500 22.85300 25.43300
C  -8.37000 20.43100 27.96500
C  -9.08800 21.36200 24.80400
O  -9.17500 21.73900 23.62400
C  -10.06900 20.31000 25.25700
N  -4.89300 24.91700 24.43200
C  -5.89600 24.40100 23.63000
C  -5.75100 24.77300 22.13000
C  -4.67600 25.86500 22.28000
C  -4.21100 25.82300 23.81100
C  -5.45200 23.57500 21.19600
C  -5.03500 27.26600 21.69200
C  -5.26200 27.41700 20.15200
N  -3.39400 26.21600 26.68400
C  -2.75700 26.81000 25.66100
C  -1.67300 27.61800 26.14000
C  -1.78300 27.50900 27.52900
C  -2.89800 26.71900 27.82500
C  -0.75500 28.38000 25.34700
C  -1.26300 27.94800 28.76800
O  -0.27400 28.69500 28.81300
C  -2.17000 27.30400 29.96300
C  -1.28900 26.53600 30.89900
O  -0.55300 25.60400 30.56300
O  -1.33700 26.94300 32.14600
C  -0.36200 26.47100 33.13900
H  -6.87200 22.25300 29.77900
H  -7.35200 23.15000 23.26200
H  -2.54600 27.19900 23.59600
H  -3.42600 24.90700 31.70300
H  -6.17600 23.79100 31.54300
H  -3.45800 22.48600 31.22400
H  -4.98300 21.62300 31.31400
H  -4.47400 22.64300 32.63900
H  -5.77700 26.89700 31.07500
H  -4.40800 27.27900 32.00800
H  -7.01000 25.97500 32.70600
H  -5.94400 27.03800 33.66300
H  -8.36800 19.50700 27.38700
H  -9.32700 20.79200 28.34100
H  -7.70700 20.23900 28.80800
H  -10.83100 20.11800 24.50300
H  -10.69700 20.50600 26.12600
H  -9.57900 19.35900 25.46900
H  -6.68300 25.27000 21.86100
H  -3.85100 25.55500 21.63900
H  -4.90300 22.79800 21.72800
H  -4.86300 23.93700 20.35300
H  -6.37400 23.17000 20.77800
H  -4.23700 27.97200 21.92200
H  -5.96700 27.57200 22.16800
H  -6.29200 27.71100 19.95000
H  -5.10100 26.44600 19.68500
H  -4.56000 28.20000 19.86700
H  -1.22300 29.09500 24.67100
H  -0.09900 27.87500 24.63800
H  -0.24800 29.00700 26.08100
H  -2.73300 28.01900 30.56200
H  0.59300 26.26500 32.65500
H  -0.72200 25.59100 33.67200
H  -0.18100 27.40000 33.67900

