158

Mg 53.09000 25.02100 43.28100
C  50.77600 27.52600 42.71300
C  50.88700 22.68100 41.99800
C  55.64300 22.74600 42.81300
C  55.54200 27.43600 44.09500
N  51.09800 25.10300 42.45900
C  50.24700 26.20500 42.43700
C  48.87600 25.89800 41.93000
C  48.85900 24.25000 41.91000
C  50.33500 23.97800 42.21200
C  47.97100 23.65700 43.11900
C  48.45800 26.38000 40.48100
C  49.54700 26.29300 39.36400
H  49.33700 25.55200 38.08400
N  53.23200 22.95800 42.59000
C  52.19900 22.13500 42.27500
C  52.64300 20.82800 41.95200
C  54.01200 20.81700 42.05300
C  54.35100 22.21000 42.58800
C  51.72500 19.66900 41.52600
C  54.94800 19.65400 41.88200
O  54.54200 18.58700 41.49200
C  56.46400 19.73200 42.14800
N  55.23700 25.15600 43.49600
C  56.06600 24.03200 43.23500
C  57.64000 24.41200 43.55200
C  57.43500 25.86900 44.10800
C  55.96200 26.21800 43.83300
C  58.37300 23.43900 44.53100
C  58.54100 26.78200 43.50400
C  59.39700 27.55500 44.60000
N  53.16600 27.07100 43.45600
C  54.20000 27.92100 43.83200
C  53.58700 29.19800 44.14300
C  52.33900 29.10300 43.56200
C  52.08000 27.79100 43.25400
C  54.29300 30.43900 44.65900
C  51.05400 29.78400 43.37100
O  50.73200 30.93800 43.56800
C  50.04500 28.76700 42.76300
C  49.57500 29.38500 41.44800
O  50.31000 29.55100 40.41300
O  48.20400 29.66400 41.51800
C  47.56300 30.16000 40.33300
H  50.10100 21.99700 41.67200
H  56.52900 22.11400 42.71800
H  56.27700 28.11800 44.52800
H  48.20700 26.21100 42.73100
H  48.47000 23.79800 40.99800
H  47.62700 24.48600 43.73700
H  48.55600 22.93000 43.68300
H  47.12400 23.15300 42.65500
H  48.05900 27.39400 40.44400
H  47.59300 25.78100 40.19600
H  50.40500 25.78800 39.80800
H  49.87200 27.25400 38.96600
H  52.00500 19.27400 40.54900
H  50.71500 20.01000 41.29800
H  51.70900 18.79400 42.17600
H  56.95500 18.79900 41.87400
H  56.61600 20.12700 43.15200
H  56.79600 20.49600 41.44400
H  58.18700 24.33900 42.61200
H  57.58600 25.95700 45.18400
H  57.78000 22.54300 44.71800
H  58.50600 23.97300 45.47200
H  59.33600 23.18400 44.09000
H  58.07800 27.54000 42.87100
H  59.20400 26.24600 42.82500
H  59.08600 28.59900 44.55000
H  60.46900 27.41600 44.46000
H  59.17400 27.37700 45.65200
H  55.08600 30.69800 43.95800
H  54.74000 30.18100 45.62000
H  53.55100 31.23100 44.75300
H  49.15000 28.65200 43.37400
H  47.52900 29.41200 39.54000
H  48.16100 31.01900 40.02800
H  46.56500 30.52100 40.58300
Mg 42.77900 42.30900 27.01600
C  41.75000 44.45200 29.67600
C  43.68900 40.13200 29.52400
C  44.40800 40.51500 24.55100
C  42.50000 44.97400 24.75400
N  42.73000 42.29200 29.40100
C  42.12000 43.23200 30.20400
C  42.00800 42.73200 31.64300
C  42.82100 41.31700 31.57800
C  43.11000 41.21200 30.11200
C  44.10300 41.26500 32.60400
C  40.52900 42.61400 32.11000
C  40.07900 43.45000 33.28200
H  39.46300 42.75100 34.51100
N  43.83500 40.57400 27.07200
C  44.04100 39.76100 28.21000
C  44.68100 38.56400 27.70900
C  44.99300 38.77600 26.28800
C  44.42400 40.02500 25.91500
C  44.98700 37.35900 28.57200
C  45.81400 37.85600 25.37100
O  46.26100 38.20800 24.28000
C  46.28300 36.50500 25.84000
N  43.18500 42.58800 24.91900
C  43.84400 41.68600 24.06700
C  43.97900 42.22200 22.66200
C  43.19900 43.63200 22.72400
C  42.88800 43.75000 24.20000
C  45.41100 42.40500 22.13000
C  41.90500 43.71900 21.85400
C  40.98800 42.48300 21.77600
N  42.18600 44.28200 27.15300
C  42.13800 45.25500 26.11000
C  41.56700 46.43600 26.72300
C  41.33600 46.16600 28.04300
C  41.77700 44.84100 28.28600
C  41.21500 47.64700 25.96700
C  40.87800 46.71900 29.25100
O  40.34000 47.77100 29.41700
C  41.06800 45.59400 30.43600
C  41.90700 46.22700 31.42500
O  43.04100 46.46000 31.34800
O  41.06700 46.82500 32.39300
C  41.60000 47.88300 33.20200
H  43.93100 39.32200 30.21500
H  44.82800 40.02900 23.66900
H  42.26500 45.80100 24.08000
H  42.46000 43.57200 32.17100
H  42.18800 40.47800 31.86600
H  44.08800 42.05000 33.35900
H  44.96900 41.32400 31.94500
H  44.13000 40.27300 33.05500
H  40.31900 41.59400 32.43200
H  39.98500 42.78500 31.18100
H  39.19000 43.91500 32.85800
H  40.78200 44.22500 33.58900
H  44.35100 37.34300 29.45700
H  46.03600 37.27100 28.85700
H  44.90400 36.41400 28.03500
H  46.97200 36.01800 25.15100
H  45.45500 35.82200 26.03000
H  46.90900 36.61200 26.72600
H  43.42700 41.53500 22.02000
H  43.86500 44.40400 22.33900
H  45.62300 43.45400 21.92200
H  45.56800 41.82000 21.22300
H  46.10300 42.12500 22.92400
H  42.30900 43.84800 20.84900
H  41.30900 44.61800 22.00800
H  41.08700 41.63700 22.45700
H  40.98800 41.92800 20.83700
H  39.94900 42.80900 21.82100
H  41.16300 48.47200 26.67600
H  40.24400 47.58800 25.47500
H  42.01700 47.91800 25.28000
H  40.06000 45.36400 30.78300
H  42.11600 47.31500 33.97600
H  40.85900 48.57900 33.59500
H  42.32200 48.51500 32.68400

