158

Mg 53.96100 24.56600 43.44200
C  51.36300 26.75800 42.86200
C  52.08100 22.11900 41.87400
C  56.89600 22.73600 42.69000
C  55.89600 27.20700 44.33800
N  52.02500 24.55100 42.37300
C  51.11200 25.48800 42.39000
C  49.77200 25.05600 41.83100
C  49.91500 23.56400 41.94500
C  51.42900 23.36200 42.06900
C  49.19800 23.07800 43.25200
C  49.46800 25.46100 40.30700
C  50.49700 24.98000 39.24600
H  50.85600 25.80100 37.98700
N  54.42600 22.59400 42.61100
C  53.46500 21.76400 42.04700
C  54.06900 20.56200 41.69000
C  55.46000 20.67900 42.00800
C  55.68000 22.04700 42.45200
C  53.33900 19.40400 41.10000
C  56.50300 19.55800 41.82000
O  56.14800 18.48700 41.33000
C  58.00400 19.59700 42.19800
N  56.13600 24.98000 43.35200
C  57.09800 24.04500 43.15600
C  58.51500 24.64600 43.33500
C  58.17700 26.07900 43.84200
C  56.65400 26.10100 43.87000
C  59.31000 23.76800 44.39600
C  58.86300 27.24300 43.07500
C  59.84400 28.33300 43.66700
N  53.66000 26.51600 43.82700
C  54.51800 27.50000 44.27700
C  53.80800 28.72500 44.49400
C  52.54800 28.44900 44.00300
C  52.55900 27.10700 43.48200
C  54.23100 30.01000 45.07600
C  51.26000 29.03500 43.68700
O  50.74100 30.15200 43.99800
C  50.47100 27.99500 42.92200
C  50.24000 28.50700 41.51600
O  51.10800 28.64700 40.64500
O  48.84900 28.72100 41.25800
C  48.42500 28.86800 39.89400
H  51.36000 21.32300 41.67700
H  57.80600 22.15300 42.53200
H  56.35100 28.12400 44.71700
H  48.95200 25.47500 42.41500
H  49.59900 23.08800 41.01600
H  48.96100 22.01500 43.21100
H  48.28400 23.64000 43.44400
H  49.90300 23.10000 44.08300
H  49.37700 26.54700 40.29900
H  48.50300 25.10500 39.94500
H  50.02000 24.11300 38.78900
H  51.50500 24.88700 39.65000
H  53.71200 18.52700 41.62900
H  53.58600 19.20700 40.05600
H  52.29700 19.32300 41.40900
H  58.03300 20.08900 43.17000
H  58.46700 20.29200 41.49800
H  58.44600 18.60100 42.19000
H  58.91100 24.57100 42.32200
H  58.51300 26.23400 44.86700
H  59.67700 22.80000 44.05200
H  58.71900 23.84100 45.30800
H  60.23600 24.27000 44.67700
H  58.06300 27.74200 42.52800
H  59.35800 26.67700 42.28600
H  60.51900 27.92500 44.42000
H  59.21400 29.12000 44.08000
H  60.48100 28.82000 42.92900
H  53.91900 30.17500 46.10700
H  53.74900 30.75900 44.44800
H  55.28100 30.29500 45.01200
H  49.53300 27.84400 43.45700
H  48.04600 29.87900 39.74400
H  47.69000 28.07900 39.73600
H  49.21500 28.73100 39.15600
Mg 16.94300 52.28800 26.18400
C  18.79400 50.93200 28.80000
C  14.71000 53.48500 28.47900
C  15.36900 53.99100 23.67900
C  19.30200 51.00800 23.91400
N  16.61200 52.01000 28.35600
C  17.61600 51.60600 29.25300
C  17.35000 52.17200 30.65300
C  15.83300 52.57300 30.57000
C  15.69500 52.67500 29.01500
C  14.78200 51.57900 31.14100
C  18.35200 53.17100 31.28900
C  18.65400 52.88200 32.78500
H  17.70300 52.02600 33.63400
N  15.31800 53.54200 26.13900
C  14.50400 53.92500 27.18300
C  13.43300 54.75800 26.68300
C  13.77600 55.09400 25.28100
C  14.89400 54.22500 24.98500
C  12.52000 55.44900 27.72800
C  13.06600 56.06100 24.29700
O  13.53900 56.26800 23.16300
C  11.86100 56.75800 24.75400
N  17.20900 52.44000 24.03500
C  16.43300 53.18100 23.23000
C  16.92200 53.09700 21.72600
C  18.23300 52.24700 21.85000
C  18.25900 51.79900 23.35500
C  15.83100 52.43800 20.85200
C  19.50700 53.11200 21.54000
C  20.55600 52.52500 20.61900
N  18.57300 51.11900 26.27800
C  19.46000 50.67600 25.31100
C  20.53500 49.92200 25.94700
C  20.36900 50.04300 27.28800
C  19.13700 50.73700 27.47700
C  21.69400 49.29100 25.22200
C  20.93200 49.70300 28.53400
O  21.99900 49.14700 28.80500
C  19.97000 50.34500 29.61200
C  19.40900 49.29300 30.50100
O  18.56600 48.48200 30.14300
O  20.03400 49.30300 31.71200
C  19.65200 48.42800 32.84500
H  14.06400 53.92100 29.24400
H  14.90300 54.56400 22.87500
H  20.11600 50.63000 23.29100
H  17.39100 51.29500 31.29800
H  15.55100 53.50100 31.06700
H  14.00800 51.27400 30.43700
H  14.35600 51.95700 32.07100
H  15.22800 50.61500 31.38700
H  17.87200 54.14800 31.23200
H  19.15600 53.08800 30.55700
H  18.61800 53.83000 33.32200
H  19.68800 52.57100 32.93200
H  11.57200 55.82200 27.34100
H  13.10100 56.26400 28.16000
H  12.13500 54.78100 28.49900
H  12.00200 57.54900 25.49000
H  11.09000 56.04400 25.04600
H  11.41700 57.30000 23.91900
H  17.14900 54.10800 21.38400
H  18.06600 51.36300 21.23400
H  15.47300 53.07100 20.03900
H  15.01500 52.11900 21.50100
H  16.16700 51.46700 20.48700
H  19.90900 53.40500 22.50900
H  19.32600 54.08500 21.08300
H  21.56400 52.74700 20.96900
H  20.42900 52.77700 19.56700
H  20.39300 51.44800 20.57100
H  21.26400 48.53000 24.57100
H  22.33400 48.77000 25.93500
H  22.32200 49.95800 24.63200
H  20.43200 51.17200 30.15100
H  18.75100 47.84800 32.64600
H  19.35600 49.06100 33.68200
H  20.39600 47.71000 33.19000

