158

Mg 35.45900 3.12500 29.50700
C  33.43300 4.20900 32.18300
C  38.20700 3.03800 31.60500
C  37.58300 2.73200 26.87600
C  32.77900 3.36400 27.38500
N  35.77100 3.47100 31.69300
C  34.78300 3.86300 32.55200
C  35.32500 3.80700 33.93800
C  36.84600 3.79300 33.74000
C  37.01000 3.47300 32.27900
C  37.61400 5.03400 34.25000
C  34.59300 2.63400 34.74600
C  34.25200 2.92600 36.23400
H  35.25300 3.84000 37.05500
N  37.51200 2.76400 29.26200
C  38.46500 2.70700 30.25300
C  39.66000 2.09500 29.68500
C  39.62300 2.13000 28.30900
C  38.20000 2.67100 28.04200
C  40.89400 1.66500 30.56500
C  40.71300 1.82400 27.23100
O  40.59100 1.83700 26.01000
C  42.08400 1.41900 27.74500
N  35.24000 3.13300 27.48300
C  36.19100 2.88200 26.56500
C  35.72000 2.93700 25.10500
C  34.17200 2.85300 25.34000
C  34.02400 3.16400 26.84200
C  36.19400 4.16800 24.25400
C  33.60300 1.40900 25.03400
C  32.51800 1.39000 23.95700
N  33.44800 3.60600 29.70500
C  32.47300 3.68600 28.76200
C  31.16200 4.03600 29.34900
C  31.44800 4.26000 30.72400
C  32.91900 4.11400 30.82600
C  29.80100 4.06500 28.56200
C  30.97100 4.65700 32.04200
O  29.83800 4.84900 32.52800
C  32.19000 4.60800 32.99400
C  32.31500 5.90200 33.71900
O  32.31600 7.02700 33.26500
O  32.23300 5.68000 35.04500
C  32.35700 6.85500 35.90900
H  39.04400 2.90100 32.29400
H  38.12700 2.42400 25.98100
H  31.87000 3.42900 26.78400
H  35.06200 4.78700 34.33500
H  37.25800 3.02300 34.39300
H  36.90800 5.85900 34.35000
H  38.46400 5.22700 33.59600
H  38.03300 4.78300 35.22400
H  35.28800 1.79500 34.78300
H  33.66200 2.41000 34.22600
H  34.31300 1.97100 36.75700
H  33.24100 3.31600 36.34400
H  41.16900 0.67300 30.20800
H  40.55700 1.66900 31.60100
H  41.71400 2.37800 30.65600
H  42.66800 2.08000 28.38600
H  42.62300 1.03600 26.87800
H  41.98300 0.49800 28.31900
H  36.14700 2.01800 24.70400
H  33.76800 3.66700 24.73800
H  37.16000 4.35100 24.72400
H  35.55900 5.04900 24.16400
H  36.52700 3.92400 23.24600
H  33.13400 1.10400 25.96900
H  34.40700 0.72100 24.77400
H  32.20500 2.43400 23.92600
H  31.63800 0.79400 24.20200
H  32.95500 0.99900 23.03900
H  29.70200 3.14300 27.98900
H  29.95400 4.88100 27.85500
H  28.97800 4.08400 29.27700
H  32.01900 3.81900 33.72600
H  33.39700 7.17000 35.83200
H  32.13300 6.56800 36.93700
H  31.66200 7.67900 35.74400
Mg 54.98500 23.76300 45.12500
C  52.48000 26.00800 44.08200
C  52.88700 21.16900 43.91100
C  57.50300 21.51400 45.38100
C  57.10600 26.47600 45.86100
N  52.89200 23.66900 44.00500
C  52.08600 24.68000 43.80300
C  50.72900 24.16800 43.21400
C  50.75500 22.67500 43.64800
C  52.22900 22.47000 43.83000
C  49.82100 22.27200 44.85300
C  50.42000 24.42200 41.70400
C  48.99600 24.36500 41.19000
H  48.97200 24.16700 39.63100
N  55.15400 21.66100 44.72200
C  54.17300 20.78500 44.30400
C  54.63400 19.41700 44.13000
C  55.99500 19.46000 44.57000
C  56.34200 20.87800 44.89200
C  53.79700 18.21400 43.71800
C  56.92500 18.25800 44.62700
O  56.47400 17.15300 44.24100
C  58.40100 18.34800 45.00400
N  57.00100 23.98600 45.54100
C  57.81900 22.85600 45.65900
C  59.25400 23.33600 46.04200
C  59.14700 24.98400 46.14200
C  57.68400 25.21100 45.83000
C  59.98300 22.53000 47.21300
C  60.11600 25.78400 45.21300
C  60.77100 27.02700 45.75900
N  54.84900 25.84200 45.00800
C  55.75800 26.84100 45.48400
C  55.05100 28.12000 45.49700
C  53.80300 27.84700 44.90500
C  53.70100 26.48500 44.68200
C  55.59000 29.38200 46.08700
C  52.54000 28.45600 44.51600
O  52.13100 29.61600 44.56100
C  51.61900 27.27100 43.91700
C  51.39900 27.57600 42.42400
O  52.30300 27.73000 41.58800
O  50.10100 27.86000 42.21800
C  49.72900 28.23100 40.85400
H  52.26600 20.35100 43.54000
H  58.43700 20.96200 45.51200
H  57.71000 27.32000 46.19800
H  49.98300 24.70700 43.79900
H  50.39600 21.99000 42.88100
H  50.41200 22.08400 45.74900
H  49.30800 21.34200 44.60900
H  49.03800 22.99800 45.07400
H  50.92200 23.62000 41.16200
H  50.92900 25.36500 41.50500
H  48.44100 25.28700 41.36500
H  48.49300 23.50700 41.63700
H  53.79700 17.99600 42.65000
H  52.77400 18.32800 44.07700
H  54.15000 17.30200 44.19900
H  58.79100 17.33300 45.08100
H  58.43700 18.76200 46.01100
H  59.00600 18.84900 44.24800
H  59.76700 23.11500 45.10600
H  59.25400 25.21500 47.20200
H  60.98900 22.30000 46.86300
H  59.45200 21.60900 47.45500
H  60.03400 23.19100 48.07800
H  59.50600 26.20100 44.41200
H  60.79800 25.07400 44.74600
H  61.79400 26.96600 45.38700
H  60.73500 27.05400 46.84800
H  60.32800 27.89400 45.26800
H  56.68000 29.37300 46.07200
H  55.22300 29.41900 47.11300
H  55.15300 30.24900 45.59300
H  50.58900 27.21300 44.26900
H  50.35800 27.77000 40.09300
H  49.76000 29.30900 40.69500
H  48.72500 27.86500 40.64000

