158

Mg 7.88900 3.20500 27.84500
C  9.41300 1.62300 30.64400
C  6.31900 5.38900 30.17300
C  6.33400 4.76800 25.28400
C  8.95000 0.63200 25.85200
N  7.85200 3.44000 30.15400
C  8.61300 2.70500 31.01500
C  8.41200 3.26200 32.49800
C  7.36300 4.37600 32.32700
C  7.12600 4.40100 30.81600
C  6.06200 4.27900 33.13100
C  9.77800 3.71100 33.14300
C  9.92200 3.49800 34.69000
H  10.49700 4.61200 35.55300
N  6.58800 4.84300 27.75800
C  6.13100 5.59100 28.79500
C  5.38200 6.68400 28.22100
C  5.23200 6.46200 26.83000
C  6.02900 5.25600 26.59000
C  4.84000 7.78700 29.11000
C  4.65000 7.35900 25.72600
O  4.72200 7.11500 24.52100
C  4.01900 8.61600 26.07100
N  7.53500 2.64600 25.90400
C  7.07500 3.50800 24.96900
C  7.38200 3.20100 23.48600
C  8.02200 1.72500 23.75200
C  8.23600 1.65300 25.25400
C  6.05100 3.31100 22.67100
C  9.32500 1.60900 22.89800
C  10.55200 2.43400 23.39100
N  8.92000 1.42400 28.14100
C  9.18400 0.41100 27.29800
C  9.87400 -0.65500 27.99500
C  10.07400 -0.11200 29.27200
C  9.40800 1.05800 29.30900
C  10.57300 -1.83600 27.51700
C  10.75000 -0.36100 30.52700
O  11.48800 -1.25100 30.89700
C  10.25900 0.71700 31.43600
C  9.47600 0.13700 32.52000
O  8.49400 -0.55800 32.34300
O  10.15300 0.32400 33.73200
C  9.35300 -0.18400 34.86700
H  5.85900 6.13500 30.82400
H  6.06100 5.48100 24.50300
H  9.29400 -0.22900 25.27500
H  7.96300 2.44100 33.05800
H  7.79700 5.31700 32.66900
H  5.23900 3.86700 32.54600
H  5.77200 5.28100 33.44700
H  6.11700 3.64300 34.01500
H  9.89000 4.77300 32.92800
H  10.53400 3.10000 32.65000
H  10.64800 2.70300 34.86300
H  8.94800 3.24500 35.11000
H  5.40600 7.96800 30.02400
H  3.77200 7.67000 29.29700
H  4.90600 8.72700 28.56200
H  3.32000 8.44600 26.89000
H  3.54900 8.81800 25.10800
H  4.82400 9.29500 26.35400
H  8.11700 3.84700 23.00700
H  7.37800 0.88000 23.50800
H  5.16600 3.50300 23.27800
H  5.94400 2.34700 22.17500
H  6.04100 4.03200 21.85400
H  9.10100 1.95400 21.88900
H  9.54300 0.54200 22.84300
H  11.13200 1.80500 24.06700
H  10.25100 3.33800 23.92000
H  11.10900 2.78100 22.52000
H  11.59000 -1.69200 27.15300
H  9.97100 -2.36400 26.77800
H  10.67300 -2.56400 28.32200
H  11.13800 1.20800 31.85300
H  9.24600 -1.26800 34.91200
H  8.35700 0.23700 34.99900
H  9.80800 0.09500 35.81700
Mg -5.35400 24.61600 26.08000
C  -4.09100 26.05600 29.04900
C  -7.16600 22.45500 28.19000
C  -5.99800 22.76600 23.43500
C  -3.37200 26.77900 24.27100
N  -5.52600 24.33500 28.31700
C  -5.03300 25.10300 29.32900
C  -5.40100 24.66400 30.67100
C  -6.29900 23.35400 30.40300
C  -6.35100 23.38200 28.83700
C  -5.79500 21.96700 30.96500
C  -6.19300 25.81900 31.43300
C  -5.78200 25.99400 32.89200
H  -5.36200 24.76600 33.74400
N  -6.45200 22.86200 25.80400
C  -7.18700 22.19400 26.80000
C  -7.98100 21.15100 26.14400
C  -7.73000 21.27100 24.74500
C  -6.59700 22.28900 24.61600
C  -8.98500 20.29600 26.85700
C  -8.34200 20.49200 23.54700
O  -7.97900 20.67400 22.38300
C  -9.55400 19.53600 23.70700
N  -4.79600 24.88400 24.19200
C  -5.17700 23.88800 23.27600
C  -4.61800 24.25300 21.85700
C  -4.00200 25.62100 22.13800
C  -4.06700 25.79500 23.62200
C  -3.79400 23.12400 21.05000
C  -4.56600 26.79200 21.24600
C  -3.47200 27.35700 20.38500
N  -4.04300 26.26200 26.55400
C  -3.27000 26.96900 25.65700
C  -2.43200 27.94300 26.40900
C  -2.67500 27.59600 27.78400
C  -3.71600 26.56500 27.80900
C  -1.46400 28.98200 25.91700
C  -2.33600 27.84400 29.16400
O  -1.65700 28.71600 29.67600
C  -3.27400 26.81800 30.05700
C  -2.26000 26.00200 30.85500
O  -1.78900 24.97300 30.38000
O  -1.99500 26.56200 32.06400
C  -1.21000 25.83700 33.09800
H  -7.73200 21.82600 28.88000
H  -6.20800 22.18000 22.53800
H  -2.65600 27.31000 23.64000
H  -4.45500 24.46200 31.17300
H  -7.28900 23.47500 30.84300
H  -6.73700 21.53100 31.29900
H  -5.04300 21.90500 31.75200
H  -5.36200 21.24400 30.27400
H  -7.20600 25.41800 31.44100
H  -6.22900 26.79500 30.94900
H  -6.64500 26.44700 33.38000
H  -4.91700 26.65500 32.93900
H  -8.82900 19.26500 26.53700
H  -10.01500 20.65200 26.84700
H  -8.67700 20.22000 27.90000
H  -10.28800 20.12600 24.25500
H  -9.18700 18.70200 24.30500
H  -9.73700 19.11900 22.71700
H  -5.49800 24.56100 21.29300
H  -2.93300 25.43200 22.03100
H  -3.69000 22.30300 21.75900
H  -2.79000 23.38200 20.71400
H  -4.47500 22.91800 20.22400
H  -4.99000 27.57900 21.87000
H  -5.44300 26.58900 20.63000
H  -3.74700 27.34100 19.33000
H  -2.50600 26.88500 20.56000
H  -3.33400 28.39700 20.67800
H  -1.90300 29.97900 25.87800
H  -1.02400 28.62200 24.98700
H  -0.63700 29.07700 26.62100
H  -3.73100 27.51900 30.75400
H  -1.78600 25.86900 34.02300
H  -0.21000 26.23500 33.27100
H  -1.12500 24.75400 33.00400

