158

Mg 0.62400 -2.74700 43.43300
C  4.00000 -1.99500 42.32100
C  -0.43600 -0.22600 41.38700
C  -2.50900 -3.85200 43.79300
C  1.82100 -5.80300 44.55300
N  1.72500 -1.40100 41.93900
C  3.06700 -1.16900 41.64300
C  3.24600 -0.00400 40.67500
C  1.83100 0.67500 40.61000
C  0.96800 -0.42800 41.33100
C  1.76300 2.10800 41.24900
C  3.88600 -0.37000 39.29700
C  5.15300 0.32800 38.95300
H  5.42800 0.69800 37.47000
N  -1.25000 -1.98900 42.90600
C  -1.48900 -0.93900 42.08400
C  -2.86800 -0.68400 42.00300
C  -3.49800 -1.69200 42.77000
C  -2.42600 -2.55500 43.23400
C  -3.39000 0.50600 41.37400
C  -4.95600 -1.71100 43.00400
O  -5.69700 -0.83900 42.46900
C  -5.60700 -2.81500 43.73100
N  -0.22200 -4.69200 43.88000
C  -1.59900 -4.86100 44.02100
C  -1.86400 -6.36900 44.40400
C  -0.41900 -6.79000 44.89600
C  0.50500 -5.66800 44.46800
C  -3.01800 -6.46100 45.49300
C  0.00500 -8.20700 44.42200
C  -1.03200 -9.31400 44.39400
N  2.51000 -3.68200 43.63600
C  2.86700 -4.91800 44.15800
C  4.30900 -4.93300 44.18100
C  4.79600 -3.82700 43.50600
C  3.66400 -3.12000 43.07300
C  5.17600 -6.06700 44.83500
C  5.98500 -3.14100 43.11000
O  7.17400 -3.26100 43.43400
C  5.52500 -1.90900 42.29600
C  6.19000 -0.65900 42.68300
O  7.00500 -0.08600 41.94700
O  5.85300 -0.34200 44.00300
C  6.36700 1.02000 44.41800
H  -0.71000 0.74200 40.96100
H  -3.51600 -4.24400 43.94800
H  2.14700 -6.74300 45.00400
H  3.91700 0.63200 41.25200
H  1.51200 0.88300 39.58900
H  1.28700 2.18500 42.22700
H  1.32200 2.84200 40.57500
H  2.81500 2.31700 41.44100
H  3.20800 0.03600 38.54500
H  4.09500 -1.43300 39.18300
H  6.03700 -0.20900 39.29700
H  5.19400 1.22100 39.57600
H  -3.93600 0.29000 40.45600
H  -2.71500 1.35300 41.24800
H  -4.10100 1.03900 42.00500
H  -5.08000 -3.11900 44.63500
H  -5.63500 -3.76300 43.19600
H  -6.58700 -2.41900 43.99600
H  -2.15200 -6.97300 43.54300
H  -0.43800 -6.70700 45.98300
H  -3.23500 -5.42900 45.76700
H  -2.72000 -6.78900 46.48900
H  -3.92600 -6.94900 45.13800
H  0.79800 -8.57200 45.07400
H  0.53200 -8.18000 43.46800
H  -1.33200 -9.31000 43.34600
H  -1.93800 -9.18000 44.98400
H  -0.61900 -10.28300 44.67400
H  6.13600 -5.58100 45.01100
H  5.26800 -6.91500 44.15600
H  4.88200 -6.50300 45.79000
H  5.72800 -2.11200 41.24500
H  7.26700 1.01600 45.03300
H  5.67800 1.58000 45.05000
H  6.63400 1.68300 43.59500
Mg 16.89500 51.29200 26.68600
C  18.87600 49.92700 29.21500
C  14.54200 52.03200 29.22700
C  14.84500 52.46200 24.32700
C  19.22100 50.17800 24.33700
N  16.68000 50.95000 28.95100
C  17.66600 50.41900 29.73200
C  17.42900 50.77300 31.19700
C  15.92400 51.04700 31.18200
C  15.70200 51.37800 29.73900
C  14.98800 49.86600 31.84500
C  18.35000 51.83500 31.69800
C  18.86900 51.48300 33.11900
H  18.03400 52.01500 34.30500
N  15.04700 52.24400 26.77900
C  14.26900 52.47000 27.89300
C  13.05500 53.18500 27.45400
C  13.14200 53.41200 26.06500
C  14.37500 52.64200 25.68800
C  12.03100 53.61000 28.45700
C  12.24500 54.27600 25.09200
O  12.57200 54.46700 23.94500
C  11.10100 55.02800 25.68100
N  16.91600 51.14900 24.63600
C  15.97200 51.75800 23.84700
C  16.49300 51.85100 22.45900
C  17.90300 51.16700 22.38200
C  18.00700 50.78900 23.91100
C  15.47200 51.27500 21.43500
C  19.09900 51.99800 21.80400
C  19.81500 51.30000 20.59300
N  18.67700 50.20900 26.63200
C  19.57200 49.87300 25.62900
C  20.65700 49.11000 26.21100
C  20.45700 49.19100 27.56300
C  19.19200 49.80200 27.86200
C  21.83100 48.56000 25.39100
C  21.03900 48.76000 28.87300
O  22.02200 48.04600 29.08400
C  20.04700 49.32600 29.96000
C  19.59700 48.21100 30.88900
O  18.64700 47.49300 30.73300
O  20.40800 48.20500 32.01600
C  20.08900 47.31400 33.11700
H  13.90800 52.44100 30.01500
H  14.39400 53.11100 23.57400
H  19.89700 49.95100 23.51000
H  17.59500 49.81100 31.68100
H  15.77100 51.89500 31.84900
H  14.36300 50.18600 32.67900
H  15.62100 49.04400 32.17900
H  14.30600 49.44700 31.10500
H  17.89200 52.82000 31.78200
H  19.16600 52.01100 30.99700
H  19.91800 51.76400 33.20900
H  18.88300 50.40200 33.26300
H  12.07100 54.68000 28.66000
H  12.03400 53.01800 29.37200
H  11.07300 53.56500 27.93900
H  10.42200 54.45600 26.31500
H  10.56400 55.50000 24.85800
H  11.47200 55.87700 26.25500
H  16.64200 52.92100 22.31200
H  17.79200 50.26200 21.78500
H  15.89000 50.45300 20.85400
H  15.14200 52.08300 20.78200
H  14.60900 51.00400 22.04200
H  19.76900 52.24300 22.62800
H  18.71600 52.91100 21.34800
H  19.59200 50.24000 20.46800
H  20.88500 51.49200 20.67600
H  19.55500 51.82700 19.67500
H  21.46800 48.74800 24.38000
H  22.02400 47.53800 25.71600
H  22.71200 49.18900 25.52000
H  20.50300 50.14200 30.52100
H  20.74900 47.70200 33.89300
H  20.46000 46.29100 33.04500
H  19.06100 47.44200 33.45500

