158

Mg 45.80400 3.88700 47.94600
C  43.80100 6.68800 47.05200
C  43.15900 1.94700 47.17900
C  47.97800 1.30500 47.83000
C  48.63200 6.17500 48.10400
N  43.68500 4.27800 47.04600
C  43.03500 5.46100 47.01400
C  41.62800 5.34800 46.53700
C  41.35100 3.78900 46.75400
C  42.82500 3.31600 47.02200
C  40.22100 3.47300 47.70300
C  41.42100 5.66700 45.00700
C  40.26000 6.58600 44.68100
H  40.47400 7.54600 43.47600
N  45.57900 1.85900 47.67700
C  44.35000 1.24300 47.46000
C  44.51000 -0.12100 47.54200
C  45.90100 -0.38200 47.75500
C  46.56900 0.93100 47.77600
C  43.43900 -1.03700 47.20200
C  46.59300 -1.76000 47.86900
O  45.90000 -2.74500 47.91800
C  48.04000 -1.94400 48.16200
N  47.99500 3.79800 47.89300
C  48.58400 2.55100 47.99000
C  50.11500 2.67500 48.15200
C  50.29300 4.27000 48.19000
C  48.89600 4.81800 48.07500
C  50.68400 2.02300 49.37400
C  51.15900 4.76000 47.08200
C  52.28900 5.68000 47.58800
N  46.18700 5.96300 47.65800
C  47.33900 6.77200 47.84200
C  47.00900 8.17600 47.66300
C  45.62500 8.09800 47.36800
C  45.18900 6.80600 47.40800
C  47.85600 9.34400 47.66100
C  44.54200 9.02100 47.06200
O  44.65200 10.21400 46.87000
C  43.29800 8.09500 46.93800
C  42.35800 8.44800 48.00000
O  42.14100 7.82500 49.03300
O  41.67100 9.55200 47.54500
C  40.59100 10.08100 48.37900
H  42.26300 1.35600 46.98200
H  48.75300 0.54100 47.92300
H  49.41200 6.93700 48.16100
H  40.99500 5.93400 47.20200
H  41.10900 3.20200 45.86800
H  40.27400 4.07900 48.60800
H  40.19700 2.41800 47.97300
H  39.24900 3.66500 47.25000
H  41.06400 4.70300 44.64600
H  42.36400 6.00500 44.57700
H  40.13400 7.32900 45.46800
H  39.42300 5.93900 44.41600
H  42.50200 -0.59100 46.86700
H  43.29500 -1.70800 48.04900
H  43.74000 -1.59000 46.31200
H  48.29700 -2.93600 48.53400
H  48.28100 -1.25800 48.97400
H  48.68100 -1.71700 47.31000
H  50.50200 2.22700 47.23700
H  50.58100 4.70100 49.14900
H  49.80300 1.76300 49.96000
H  51.40100 2.63700 49.91900
H  51.26300 1.21400 48.92800
H  50.59600 5.45500 46.45800
H  51.61200 3.95300 46.50700
H  52.45700 6.57200 46.98400
H  53.15600 5.02500 47.49800
H  52.13600 5.86100 48.65200
H  47.29600 10.17200 47.22600
H  48.66600 9.34900 46.93200
H  48.33700 9.48500 48.62900
H  42.73800 8.26800 46.01800
H  39.59800 9.92000 47.95800
H  40.66500 11.16200 48.49700
H  40.52400 9.73000 49.40900
Mg 48.07300 16.16300 28.63700
C  46.11200 16.11300 31.58200
C  50.50300 17.91300 30.29800
C  49.85600 16.22000 25.77200
C  45.41200 14.63200 26.96900
N  48.21300 16.98200 30.65900
C  47.34300 16.81000 31.70600
C  47.95100 17.44200 33.02700
C  49.18100 18.23300 32.48500
C  49.35100 17.72200 31.06800
C  49.03000 19.80700 32.38200
C  48.26700 16.34000 34.09000
C  47.80600 16.46400 35.50900
H  47.50800 17.89400 36.09400
N  49.94400 16.89400 28.14900
C  50.84800 17.54200 28.95400
C  52.10400 17.76500 28.27600
C  51.97300 17.23400 27.00500
C  50.58200 16.68200 26.93900
C  53.27600 18.55000 28.81400
C  52.99700 17.13100 25.74800
O  52.69800 16.67300 24.64900
C  54.37000 17.45400 25.99500
N  47.56500 15.76400 26.60800
C  48.50700 15.82300 25.56100
C  48.09600 15.03700 24.33800
C  46.67100 14.38500 24.81600
C  46.54400 14.92400 26.21500
C  47.92800 15.87200 23.04400
C  46.54100 12.87400 24.61100
C  45.76800 12.44700 23.33800
N  46.20800 15.42200 29.11300
C  45.18300 14.82300 28.32300
C  43.94700 14.59600 29.10200
C  44.30200 15.02600 30.39600
C  45.66100 15.57400 30.33300
C  42.79200 13.89800 28.50100
C  43.86700 15.14600 31.74800
O  42.78100 14.78000 32.17000
C  45.06800 15.83400 32.59400
C  44.49500 16.94000 33.38800
O  44.26400 18.09400 33.02500
O  44.17400 16.41400 34.66500
C  43.34500 17.19800 35.53900
H  51.32900 18.50200 30.70400
H  50.50800 16.32500 24.90200
H  44.67100 14.21600 26.28400
H  47.13100 18.07300 33.37000
H  50.04000 18.08500 33.14000
H  48.97800 20.11700 31.33800
H  49.96500 20.23600 32.74300
H  48.16300 20.12200 32.96300
H  49.35100 16.34400 34.20100
H  47.99300 15.37700 33.65700
H  48.63900 16.05700 36.08000
H  46.90300 15.85500 35.56000
H  54.14800 17.89700 28.77800
H  52.98600 18.84500 29.82200
H  53.44800 19.43100 28.19600
H  55.02000 17.25700 25.14300
H  54.77600 16.85300 26.80800
H  54.35300 18.52000 26.22500
H  48.75800 14.18300 24.19100
H  46.00200 14.84200 24.08700
H  47.17100 15.53900 22.33400
H  48.85000 15.92300 22.46700
H  47.81800 16.92700 23.29700
H  46.04200 12.44500 25.48000
H  47.50800 12.38200 24.51100
H  46.03300 11.46900 22.93700
H  45.92200 13.16800 22.53500
H  44.70600 12.26600 23.50200
H  42.76900 14.05900 27.42300
H  41.94300 14.29600 29.05700
H  42.86900 12.83100 28.71000
H  45.46900 15.12300 33.31700
H  42.41000 17.43000 35.02800
H  43.79200 18.17300 35.73200
H  43.08800 16.63400 36.43600

