158

Mg 9.12200 4.13900 27.72500
C  10.28800 2.51700 30.56600
C  7.37700 6.31200 29.72200
C  7.70800 5.60100 24.95900
C  10.67500 1.84400 25.69000
N  8.92600 4.38200 29.91200
C  9.47100 3.63000 30.93000
C  9.11900 4.11800 32.32400
C  8.07700 5.23100 31.99800
C  8.09300 5.31100 30.43600
C  6.65100 5.06300 32.41900
C  10.40300 4.63100 33.23000
C  10.38600 4.20200 34.69800
H  10.65700 5.35900 35.71400
N  7.67800 5.78500 27.38000
C  7.17400 6.60200 28.36200
C  6.33100 7.62200 27.77100
C  6.49700 7.43400 26.36300
C  7.26900 6.24300 26.15700
C  5.47700 8.64600 28.50000
C  6.04400 8.30900 25.29600
O  6.19300 8.09100 24.11300
C  5.47400 9.65400 25.57500
N  9.12500 3.66300 25.62000
C  8.56400 4.49500 24.71700
C  8.88000 4.07600 23.31200
C  9.98800 3.02900 23.51800
C  9.87100 2.76300 24.98200
C  7.57500 3.61600 22.50800
C  11.45700 3.38500 23.11200
C  12.24500 2.19500 22.63200
N  10.23500 2.56100 28.04500
C  10.82600 1.62200 27.06100
C  11.57500 0.63600 27.79400
C  11.36400 0.95600 29.12800
C  10.54200 2.08800 29.26100
C  12.45800 -0.40300 27.28400
C  11.79300 0.52700 30.41400
O  12.46200 -0.42700 30.76600
C  11.21400 1.59900 31.42900
C  10.50100 0.79600 32.50400
O  9.57300 0.04900 32.38100
O  10.95500 1.20800 33.74000
C  10.30300 0.52700 34.86800
H  6.77600 6.92400 30.39800
H  7.36400 6.15000 24.08000
H  11.21600 1.11900 25.07900
H  8.59900 3.28300 32.79300
H  8.30100 6.19600 32.45400
H  6.49300 5.93400 33.05400
H  6.55300 4.19100 33.06500
H  5.90400 5.12600 31.62800
H  10.28500 5.70700 33.36000
H  11.39100 4.39900 32.83100
H  11.16000 3.44000 34.79100
H  9.38500 3.88000 34.98600
H  5.69000 8.54500 29.56500
H  4.41600 8.48400 28.31000
H  5.78500 9.65200 28.21500
H  4.49800 9.63400 26.06200
H  5.42800 10.06500 24.56700
H  6.18800 10.19600 26.19500
H  9.16100 4.98600 22.78200
H  9.56900 2.21900 22.92100
H  7.19700 4.46400 21.93700
H  6.86300 3.37400 23.29700
H  7.62900 2.75300 21.84400
H  11.88500 3.93100 23.95300
H  11.41600 4.06100 22.25800
H  12.88000 2.41100 21.77300
H  11.62100 1.33800 22.37700
H  12.91700 1.99500 23.46700
H  13.52900 -0.20400 27.31200
H  12.15800 -0.47700 26.23900
H  12.26400 -1.35500 27.77700
H  12.04800 2.17500 31.83200
H  10.28800 1.15700 35.75700
H  10.80300 -0.41300 35.10200
H  9.25700 0.33000 34.63600
Mg 55.33800 24.24500 44.98700
C  52.62100 26.11000 44.05100
C  53.84900 21.44500 43.59800
C  58.19100 22.56300 45.55000
C  56.81400 27.23900 46.27300
N  53.51500 23.83300 43.95700
C  52.58900 24.79100 43.60600
C  51.50900 24.11300 42.73000
C  51.57300 22.62800 43.28300
C  53.07300 22.62000 43.58100
C  50.66800 22.38200 44.48800
C  51.83300 24.18600 41.26300
C  50.68200 24.45000 40.21400
H  50.54600 23.46700 39.05000
N  55.87200 22.26700 44.63700
C  55.15400 21.26200 44.13000
C  55.85700 19.99400 44.20900
C  57.12400 20.30100 44.71300
C  57.10500 21.76000 45.03500
C  55.23800 18.65800 43.80400
C  58.20200 19.18300 44.94800
O  57.87500 17.99300 44.87900
C  59.71000 19.46900 45.38400
N  57.26800 24.87400 45.71100
C  58.29400 23.98900 45.77500
C  59.51100 24.73800 46.23500
C  59.15800 26.25900 46.49300
C  57.69500 26.19600 46.03200
C  60.31500 24.06700 47.37100
C  59.99500 27.33200 45.68400
C  60.40500 28.63000 46.49500
N  54.78400 26.23300 45.35200
C  55.48800 27.32500 45.88800
C  54.57500 28.45000 46.00100
C  53.43400 28.09100 45.24300
C  53.59300 26.71300 44.87600
C  54.87000 29.68300 46.74700
C  52.16400 28.49100 44.65500
O  51.64300 29.59100 44.71600
C  51.59300 27.22600 43.86800
C  51.48900 27.69500 42.45200
O  52.26200 28.44600 41.87900
O  50.25600 27.31900 41.96700
C  49.65200 27.92800 40.80100
H  53.30600 20.53700 43.33000
H  59.08900 21.95600 45.68200
H  57.11300 28.13700 46.81600
H  50.57500 24.57700 43.04600
H  51.26100 21.97700 42.46700
H  50.00100 23.19500 44.77300
H  51.24200 22.14100 45.38300
H  50.10000 21.47400 44.28700
H  52.36400 23.26400 41.02700
H  52.57000 24.98900 41.23000
H  51.06300 25.40200 39.84400
H  49.75500 24.62200 40.76000
H  55.76300 18.20300 42.96400
H  54.16900 18.56200 43.61300
H  55.43200 17.96700 44.62400
H  60.27800 20.18500 44.78900
H  60.22000 18.50900 45.46800
H  59.71700 19.85900 46.40100
H  60.14600 24.75400 45.35000
H  59.26700 26.36700 47.57300
H  59.70900 23.20800 47.66000
H  60.37700 24.77000 48.20100
H  61.27500 23.81800 46.91900
H  59.28400 27.62500 44.91200
H  60.82200 26.81800 45.19500
H  61.30700 29.13700 46.15500
H  60.42100 28.40700 47.56200
H  59.66900 29.43300 46.47200
H  54.11000 30.42100 46.49100
H  55.88400 29.94700 46.44800
H  54.94900 29.38100 47.79100
H  50.66100 26.91600 44.34000
H  50.43000 28.12200 40.06200
H  49.17900 28.87100 41.07600
H  48.89100 27.24400 40.42600

