158

Mg 1.88300 -1.97700 43.79900
C  5.05400 -0.62500 43.25900
C  0.63300 0.78800 42.07200
C  -1.11800 -3.48700 43.80300
C  3.36900 -4.74700 45.14800
N  2.74500 -0.21400 42.69900
C  4.04900 0.16600 42.67600
C  4.26700 1.50800 41.93900
C  2.78800 2.11500 42.08500
C  2.02100 0.84700 42.22600
C  2.59200 3.18500 43.20400
C  4.78600 1.37900 40.49100
C  5.46200 2.64400 39.83600
H  5.58900 2.63700 38.28000
N  -0.00500 -1.39200 43.13000
C  -0.27500 -0.27600 42.37100
C  -1.75400 -0.22100 42.11100
C  -2.29400 -1.38000 42.70200
C  -1.13000 -2.19000 43.24600
C  -2.45700 0.92400 41.43300
C  -3.73800 -1.87400 42.77300
O  -4.64700 -1.23500 42.19800
C  -4.22300 -3.12100 43.49200
N  1.18100 -3.85200 44.41100
C  -0.11900 -4.27400 44.39900
C  -0.29100 -5.72800 44.90200
C  1.21800 -6.10100 45.38200
C  1.97200 -4.77400 45.05400
C  -1.37800 -5.93400 45.97400
C  1.71200 -7.27000 44.48600
C  1.48300 -8.63800 45.15500
N  3.77200 -2.60700 44.18700
C  4.20000 -3.75700 44.73100
C  5.62900 -3.73200 44.87200
C  6.01300 -2.53100 44.32900
C  4.83400 -1.88400 43.90100
C  6.43400 -4.78700 45.59300
C  7.10700 -1.65900 44.03600
O  8.30000 -1.87300 44.19700
C  6.53300 -0.39700 43.30800
C  6.82400 0.73100 44.27700
O  6.38800 0.83500 45.40400
O  7.85800 1.52100 43.80200
C  8.34400 2.55900 44.65400
H  0.16100 1.69500 41.68800
H  -1.98100 -4.13100 43.62100
H  3.90100 -5.62800 45.51200
H  4.87400 2.17700 42.54800
H  2.37100 2.56500 41.18400
H  3.50300 3.59100 43.64600
H  1.99300 2.75100 44.00500
H  1.91200 3.95000 42.83200
H  4.00400 1.00200 39.83100
H  5.63100 0.68900 40.49000
H  6.52900 2.53900 40.03000
H  5.01800 3.50800 40.33100
H  -2.27300 0.79600 40.36600
H  -2.20400 1.85200 41.94600
H  -3.54300 0.86900 41.51100
H  -4.10200 -3.96800 42.81600
H  -5.24500 -2.92100 43.81500
H  -3.68600 -3.31000 44.42100
H  -0.61600 -6.41000 44.11600
H  1.32400 -6.30900 46.44700
H  -2.12300 -5.14000 46.01900
H  -1.01100 -6.11300 46.98400
H  -1.78700 -6.92200 45.76100
H  2.75400 -7.11400 44.20600
H  1.13600 -7.29000 43.56100
H  0.83500 -8.76500 46.02300
H  2.52100 -8.92200 45.32200
H  0.92500 -9.31800 44.51200
H  5.95400 -5.16100 46.49800
H  7.44800 -4.49000 45.86100
H  6.48100 -5.62200 44.89400
H  7.10600 -0.24800 42.39300
H  9.01900 2.24800 45.45200
H  7.47800 3.02500 45.12300
H  8.86400 3.23300 43.97400
Mg 48.16700 25.58400 28.47300
C  49.03300 27.53000 31.28700
C  47.38500 23.05400 30.62400
C  47.66200 23.58600 25.83600
C  49.76900 27.89500 26.53100
N  47.96200 25.36100 30.65900
C  48.42000 26.30000 31.60400
C  48.09400 25.84300 33.02300
C  47.85800 24.31000 32.90300
C  47.70000 24.19600 31.30500
C  48.95200 23.43800 33.69200
C  46.93700 26.65900 33.65700
C  47.11400 27.15000 35.09400
H  45.81900 27.32600 35.95400
N  47.24000 23.72900 28.26900
C  47.06200 22.83700 29.27200
C  46.52600 21.62400 28.67300
C  46.54800 21.73900 27.20500
C  47.14400 23.07000 27.05600
C  46.09500 20.49000 29.48000
C  46.11400 20.86500 26.10100
O  46.26400 21.18600 24.91100
C  45.31400 19.57300 26.45600
N  48.71700 25.77200 26.47100
C  48.28700 24.83500 25.51900
C  48.76300 25.25000 24.12900
C  49.34800 26.69200 24.36100
C  49.27400 26.80100 25.86600
C  49.77400 24.30700 23.50700
C  48.47500 27.80100 23.60400
C  49.24200 28.92400 22.84200
N  49.17600 27.35300 28.75900
C  49.76600 28.23300 27.85900
C  50.41000 29.44000 28.55900
C  50.04300 29.18800 29.90000
C  49.36000 27.93600 29.97000
C  50.95900 30.62400 27.87800
C  50.17600 29.70700 31.19700
O  50.85700 30.67300 31.58500
C  49.57200 28.60500 32.17800
C  50.57400 28.28800 33.26300
O  51.18000 27.23700 33.22700
O  50.65300 29.25800 34.22800
C  51.37700 28.99100 35.47100
H  47.32100 22.19900 31.30000
H  47.75700 22.83800 25.04700
H  50.31100 28.55800 25.85400
H  48.95400 26.15000 33.61800
H  46.91500 23.94400 33.31000
H  49.65000 22.88800 33.06100
H  48.36600 22.78000 34.33300
H  49.64900 24.05700 34.25700
H  46.08300 25.98300 33.69900
H  46.64800 27.53900 33.08200
H  47.74600 28.02800 35.22700
H  47.85500 26.47400 35.51900
H  46.54400 20.49900 30.47300
H  46.48900 19.57000 29.04800
H  45.00800 20.43700 29.52700
H  45.92800 18.89100 27.04400
H  45.00000 18.95300 25.61600
H  44.38000 19.84200 26.94800
H  47.86600 25.35100 23.52000
H  50.40400 26.69600 24.09000
H  49.23300 24.00700 22.61000
H  50.03500 23.46800 24.15200
H  50.67500 24.82400 23.17600
H  47.87800 28.30100 24.36700
H  47.75900 27.45000 22.86000
H  50.12000 28.61200 22.27600
H  49.49600 29.72700 23.53500
H  48.51600 29.30600 22.12500
H  50.85900 30.62600 26.79200
H  51.99700 30.56700 28.20600
H  50.40700 31.48700 28.25000
H  48.73300 29.10200 32.66600
H  52.07800 29.76700 35.77600
H  52.06400 28.14600 35.52000
H  50.61700 28.88100 36.24400

