158

Mg 1.63900 -1.57100 43.42500
C  5.01800 -0.67600 43.05700
C  0.85700 1.31200 41.80900
C  -1.49300 -2.76100 43.15900
C  2.65300 -4.62700 44.66100
N  2.87300 0.01500 42.33500
C  4.20400 0.23900 42.39900
C  4.64100 1.60700 41.82600
C  3.26200 2.27100 41.58000
C  2.23400 1.15100 41.91800
C  2.99200 3.45400 42.51900
C  5.51400 1.49900 40.55700
C  6.44600 2.70200 40.33900
H  6.42900 3.27000 38.97900
N  -0.07600 -0.82900 42.58900
C  -0.24900 0.42000 42.00200
C  -1.63700 0.71600 41.75900
C  -2.33800 -0.42000 42.19000
C  -1.35000 -1.46400 42.58300
C  -2.14200 1.96200 41.08500
C  -3.90000 -0.55300 42.20600
O  -4.68100 0.37200 41.92900
C  -4.60300 -1.84800 42.47900
N  0.79300 -3.53600 43.79100
C  -0.54400 -3.69800 43.67200
C  -1.02800 -5.08500 44.15600
C  0.30200 -5.70700 44.70400
C  1.28100 -4.58600 44.39600
C  -2.30000 -5.18700 45.08500
C  0.72200 -7.11400 44.02100
C  1.30300 -8.10100 44.96700
N  3.43500 -2.45100 43.80800
C  3.72600 -3.70900 44.35300
C  5.17500 -3.80600 44.58300
C  5.68400 -2.59500 44.12200
C  4.60400 -1.84800 43.64800
C  5.96600 -4.98000 45.28800
C  6.87000 -1.76800 44.11400
O  7.99800 -1.95200 44.58400
C  6.48500 -0.52000 43.25100
C  6.83900 0.75700 44.02300
O  6.36800 1.04300 45.14200
O  7.75900 1.48400 43.28200
C  8.05400 2.75100 43.92500
H  0.57500 2.27900 41.38700
H  -2.53400 -3.08200 43.08000
H  2.85000 -5.62400 45.06000
H  5.11300 2.22000 42.59400
H  3.13400 2.60500 40.55000
H  3.80700 3.71800 43.19400
H  2.13900 3.25500 43.16700
H  2.82700 4.33300 41.89500
H  4.98600 1.31200 39.62100
H  6.10600 0.58500 40.59200
H  7.40400 2.36200 40.73200
H  6.15800 3.52300 40.99600
H  -2.68000 2.59800 41.78700
H  -2.89900 1.69200 40.34800
H  -1.42300 2.52900 40.49400
H  -5.62600 -1.57800 42.21800
H  -4.59600 -1.95600 43.56400
H  -4.13300 -2.60700 41.85400
H  -1.28200 -5.62300 43.24300
H  0.24500 -5.90600 45.77400
H  -3.17500 -5.65900 44.63900
H  -2.56200 -4.15700 45.32800
H  -2.09100 -5.66300 46.04300
H  1.48100 -6.86700 43.27900
H  -0.09700 -7.54000 43.44100
H  0.57600 -8.80900 45.36400
H  1.80400 -7.53600 45.75300
H  2.12300 -8.63200 44.48500
H  7.03000 -4.76400 45.38300
H  5.98500 -5.90700 44.71600
H  5.55300 -5.19900 46.27300
H  7.11500 -0.47900 42.36300
H  8.91300 3.03400 43.31600
H  8.40300 2.56400 44.94100
H  7.16800 3.38500 43.91300
Mg 50.15800 46.45200 41.35100
C  47.33500 47.65000 40.01500
C  49.47700 43.27400 39.89100
C  53.41600 45.22800 42.04800
C  51.25200 49.66900 42.09100
N  48.70600 45.65400 40.17200
C  47.50700 46.24500 39.80400
C  46.50400 45.40500 39.11800
C  47.11200 43.98500 39.34600
C  48.51500 44.33300 39.81300
C  46.36200 42.96400 40.31600
C  46.17300 45.79400 37.66400
C  44.81700 45.20800 37.10300
H  44.90800 44.23700 35.92500
N  51.24500 44.55300 41.09100
C  50.81200 43.40400 40.41400
C  51.82300 42.36200 40.52900
C  52.93500 42.91800 41.25700
C  52.54800 44.30000 41.55400
C  51.62400 40.90700 40.10800
C  54.15500 42.16600 41.69900
O  54.31800 41.02900 41.29800
C  55.18000 42.67700 42.66100
N  52.19000 47.34700 41.82600
C  53.22700 46.65100 42.22400
C  54.25800 47.59900 42.73900
C  53.62600 48.98600 42.96100
C  52.26700 48.71200 42.16500
C  55.18400 47.13800 43.93000
C  54.39900 50.28200 42.56600
C  54.48900 51.39500 43.59300
N  49.41100 48.24400 41.24900
C  49.96300 49.51400 41.56000
C  48.98200 50.57200 41.33500
C  47.91400 49.81200 40.74800
C  48.27400 48.42600 40.62900
C  48.95500 52.05200 41.44600
C  46.53500 49.94200 40.40500
O  45.79200 50.91500 40.63100
C  46.19000 48.59300 39.76500
C  44.86700 48.14700 40.26300
O  44.64700 47.57100 41.31600
O  43.83400 48.36900 39.33100
C  42.55600 47.76600 39.64600
H  49.25300 42.26300 39.54400
H  54.44800 44.92800 42.24200
H  51.42600 50.71100 42.36700
H  45.59800 45.31400 39.71700
H  47.30000 43.53200 38.37300
H  46.93400 42.51900 41.13000
H  46.03900 42.13400 39.68700
H  45.46400 43.45200 40.69200
H  46.92000 45.36100 36.99900
H  46.24100 46.85500 37.42500
H  44.18100 46.02400 36.75900
H  44.40200 44.71500 37.98200
H  51.54300 40.31800 41.02200
H  52.46200 40.57400 39.49600
H  50.65700 40.64200 39.67900
H  54.73200 43.05200 43.58100
H  55.82500 43.41000 42.17600
H  55.82600 41.83800 42.91800
H  55.03400 47.83700 42.01200
H  53.38000 49.07400 44.01900
H  56.26600 47.21100 43.81800
H  54.99000 46.08400 44.12600
H  55.01400 47.62800 44.88900
H  53.87500 50.60000 41.66500
H  55.38500 49.95900 42.23200
H  54.09000 52.30700 43.14900
H  55.55400 51.41200 43.82400
H  53.80700 51.23000 44.42700
H  48.64300 52.56600 40.53700
H  50.01200 52.23700 41.64100
H  48.33500 52.41000 42.26800
H  46.09900 48.84300 38.70800
H  42.60300 46.73300 39.99100
H  41.88200 47.74000 38.79000
H  41.99500 48.35400 40.37300

