158

Mg 42.45600 41.06200 26.66900
C  41.73800 43.58700 29.02600
C  43.85200 39.21700 29.25000
C  43.21700 38.85200 24.39100
C  41.72400 43.41100 24.18000
N  42.77800 41.34300 28.94000
C  42.28500 42.43800 29.66100
C  42.39900 42.17100 31.17600
C  43.39900 40.91800 31.15200
C  43.38700 40.44800 29.66700
C  44.93500 41.18800 31.63000
C  40.92900 41.93000 31.80600
C  40.61000 42.90400 32.90700
H  39.98200 42.44700 34.28000
N  43.38500 39.24500 26.73800
C  43.84800 38.64300 27.92900
C  44.33800 37.27800 27.59500
C  44.07700 37.10400 26.19700
C  43.55700 38.43100 25.69400
C  45.03500 36.33500 28.57200
C  44.33500 35.84400 25.30700
O  44.21900 35.90100 24.09600
C  44.60500 34.59900 25.89400
N  42.50600 41.24200 24.62000
C  42.76300 40.09600 23.87400
C  42.53000 40.25500 22.37000
C  41.95800 41.68300 22.32900
C  42.13200 42.20400 23.76600
C  43.85000 40.03900 21.52300
C  40.48400 41.76300 21.79000
C  40.00200 43.18400 21.36200
N  41.68900 43.00700 26.60700
C  41.42500 43.87000 25.55200
C  40.99700 45.16800 25.97400
C  41.00300 45.05400 27.37900
C  41.52100 43.76100 27.65900
C  40.68900 46.36800 25.18700
C  40.61900 45.76400 28.68100
O  40.10300 46.83200 28.97500
C  41.17900 44.78100 29.74300
C  42.28500 45.51700 30.35500
O  43.23100 45.93500 29.75500
O  42.12400 45.69300 31.71700
C  43.10600 46.57400 32.46500
H  44.15100 38.56700 30.07600
H  43.22500 38.04800 23.65200
H  41.43500 44.15000 23.43000
H  42.96800 42.99900 31.59800
H  43.00800 40.06300 31.70200
H  44.85600 42.16100 32.11400
H  45.50900 41.18200 30.70300
H  45.27900 40.46200 32.36700
H  40.90200 40.96000 32.30200
H  40.05500 41.92500 31.15500
H  39.84600 43.58500 32.53000
H  41.46900 43.53500 33.13700
H  46.09700 36.47000 28.77800
H  44.86100 35.26700 28.44400
H  44.61800 36.55200 29.55600
H  43.89900 34.49100 26.71800
H  45.61300 34.53900 26.30300
H  44.34900 33.80600 25.19100
H  41.76400 39.56000 22.02700
H  42.57700 42.30300 21.68000
H  44.62300 40.80500 21.58900
H  43.51000 40.03600 20.48700
H  44.21200 39.04500 21.78500
H  39.94700 41.46800 22.69100
H  40.31900 40.96300 21.06800
H  39.40600 43.54700 22.19900
H  39.35800 43.28200 20.48900
H  40.92100 43.76800 21.30300
H  41.22100 47.20100 25.64600
H  39.63000 46.61300 25.26500
H  41.10400 46.26400 24.18500
H  40.45400 44.59100 30.53400
H  43.51700 45.93300 33.24500
H  42.71400 47.53500 32.79800
H  43.99900 46.81500 31.88800
Mg 28.38800 56.41400 40.56100
C  26.07900 53.62200 39.95200
C  30.89200 54.56900 39.45100
C  30.16000 59.21300 40.50900
C  25.42600 58.37300 40.69900
N  28.41200 54.36200 39.86500
C  27.44700 53.39800 39.72300
C  28.08400 52.16900 39.10300
C  29.62600 52.36800 39.41700
C  29.63500 53.86100 39.57800
C  30.21000 51.67000 40.69600
C  27.66300 51.82000 37.68300
C  27.20300 52.97100 36.78200
H  27.34400 52.74900 35.22600
N  30.25800 56.81000 40.08000
C  31.15600 55.88900 39.62800
C  32.49200 56.56500 39.43600
C  32.34300 57.92200 39.76200
C  30.90200 58.01400 40.18600
C  33.76100 55.83000 39.13100
C  33.41100 58.95700 39.72700
O  34.43200 58.65100 39.11700
C  33.24900 60.35000 40.33900
N  27.83800 58.47800 40.45300
C  28.80700 59.38500 40.68600
C  28.26000 60.76100 40.81900
C  26.69900 60.58300 40.88600
C  26.66100 59.04200 40.61100
C  28.93800 61.49500 42.03100
C  25.88000 61.47300 39.86200
C  25.38900 62.77000 40.41000
N  26.20000 56.14000 40.57700
C  25.16100 56.99800 40.62900
C  23.86400 56.25400 40.65000
C  24.20500 54.96800 40.48900
C  25.58400 54.96300 40.34400
C  22.56300 56.94800 40.86400
C  23.63500 53.68200 40.30900
O  22.50100 53.23300 40.43700
C  24.80700 52.71900 39.86700
C  24.82400 51.51700 40.78200
O  24.50200 50.36900 40.51400
O  25.31700 51.93800 42.01200
C  25.81700 50.79900 42.72600
H  31.72700 53.91500 39.19100
H  30.68400 60.16000 40.64900
H  24.57100 59.04100 40.81800
H  27.83100 51.31700 39.73400
H  30.35500 52.11000 38.64800
H  29.84200 50.64400 40.67900
H  29.79800 52.16500 41.57600
H  31.29800 51.64300 40.74600
H  26.80400 51.15100 37.74100
H  28.41100 51.28400 37.09900
H  27.78900 53.85800 37.02100
H  26.13100 53.07900 36.95200
H  33.86600 55.94800 38.05200
H  33.68600 54.75000 39.25500
H  34.67600 56.14800 39.63000
H  32.70500 60.31500 41.28300
H  32.65900 60.84100 39.56600
H  34.20100 60.85300 40.50900
H  28.47700 61.28600 39.88900
H  26.22800 60.74600 41.85500
H  28.22700 62.00500 42.68200
H  29.64800 62.16700 41.55000
H  29.59100 60.78000 42.53100
H  25.05300 60.93800 39.39400
H  26.58600 61.81500 39.10600
H  25.75900 62.91500 41.42500
H  24.30500 62.85100 40.49400
H  25.81100 63.56200 39.79100
H  22.40000 57.62400 40.02500
H  22.57000 57.51100 41.79800
H  21.87200 56.10700 40.80100
H  24.63800 52.35800 38.85300
H  26.52700 51.11100 43.49200
H  26.42500 50.08800 42.16700
H  25.05000 50.26000 43.28300

