158

Mg 0.54100 7.97700 25.08200
C  1.04500 10.01500 27.80400
C  0.74900 5.26400 27.10800
C  0.14700 6.00000 22.38900
C  0.69200 10.78400 22.93200
N  0.85500 7.71300 27.22900
C  0.99500 8.65600 28.17400
C  1.10500 8.10100 29.55600
C  1.23100 6.51600 29.29300
C  0.95900 6.46600 27.77400
C  2.58600 5.82900 29.69000
C  -0.11000 8.48500 30.40400
C  0.00100 8.63300 31.93600
H  1.20200 8.04900 32.61700
N  0.42600 5.86900 24.78400
C  0.45600 4.98100 25.79000
C  0.18200 3.66500 25.20800
C  0.19200 3.80900 23.79500
C  0.21200 5.23200 23.58400
C  0.12600 2.35900 26.08800
C  -0.02700 2.67200 22.66300
O  0.03600 2.84900 21.47800
C  -0.19600 1.21000 23.03600
N  0.43300 8.37300 23.00500
C  0.18600 7.33600 22.14000
C  -0.17000 7.90600 20.83000
C  -0.11500 9.45500 20.96200
C  0.32900 9.58000 22.36800
C  0.71300 7.21200 19.77300
C  -1.54000 10.13400 20.75900
C  -1.61500 11.61200 20.22700
N  0.88100 10.02600 25.25800
C  0.81900 11.03900 24.34500
C  1.06100 12.33700 25.06300
C  1.15900 11.95200 26.43200
C  0.98600 10.53500 26.48300
C  1.05700 13.70700 24.47100
C  1.36700 12.46600 27.80500
O  1.74800 13.56300 28.16800
C  1.21300 11.26300 28.66900
C  2.39900 11.19700 29.47600
O  3.47700 10.68200 29.18900
O  2.06300 11.57200 30.74700
C  3.11100 11.54900 31.80000
H  0.69100 4.37700 27.74200
H  -0.04200 5.50000 21.43700
H  0.72000 11.68700 22.31900
H  2.02500 8.54900 29.93100
H  0.43500 5.99500 29.82500
H  3.05700 5.59200 28.73600
H  2.48400 4.87300 30.20300
H  3.14600 6.45800 30.38200
H  -0.88500 7.73100 30.27000
H  -0.53600 9.46300 30.18000
H  -0.86200 8.24400 32.47700
H  0.15300 9.67000 32.23700
H  1.02100 1.74100 26.01200
H  -0.74600 1.87300 25.65100
H  0.08100 2.53900 27.16300
H  0.72500 0.87900 23.51500
H  -0.16500 0.65400 22.09900
H  -1.03900 1.02400 23.70100
H  -1.19700 7.58700 20.65300
H  0.50300 9.98100 20.23400
H  1.61000 6.80300 20.23800
H  0.96600 7.81000 18.89800
H  0.21600 6.37500 19.28300
H  -2.07400 10.12500 21.70900
H  -2.13800 9.49600 20.10800
H  -1.96800 11.54700 19.19800
H  -0.60300 12.01800 20.21200
H  -2.18300 12.21100 20.94000
H  1.08100 13.69400 23.38200
H  1.97700 14.13800 24.86600
H  0.18900 14.32600 24.69800
H  0.29000 11.38800 29.23500
H  3.92100 10.84700 31.60000
H  2.70400 11.08600 32.69900
H  3.33100 12.60000 31.98500
Mg 16.54500 51.54100 26.92900
C  18.41900 50.00500 29.45200
C  14.41500 52.61800 29.42500
C  14.84400 52.95400 24.54700
C  18.67500 50.02100 24.55600
N  16.33800 51.18700 29.24800
C  17.32600 50.71100 30.10800
C  17.10500 51.09400 31.61800
C  15.59600 51.63000 31.47500
C  15.40500 51.84300 29.92900
C  14.54900 50.79300 32.05600
C  18.04400 52.07900 32.28600
C  18.41800 51.96700 33.77400
H  17.49400 51.05600 34.65100
N  14.83200 52.58400 27.02200
C  14.12900 53.02500 28.13800
C  13.08000 53.93400 27.68600
C  13.27300 54.17000 26.26800
C  14.39900 53.19700 25.87300
C  12.18200 54.52100 28.74500
C  12.48900 55.10300 25.37000
O  12.61700 55.18300 24.16600
C  11.35000 55.87300 26.01400
N  16.59900 51.29800 24.82200
C  15.80500 52.08000 24.06900
C  16.13500 51.89200 22.56500
C  17.28500 50.73900 22.59800
C  17.54800 50.67000 24.06900
C  15.02200 51.72100 21.53800
C  18.44300 50.99200 21.61700
C  19.55100 52.04600 22.12100
N  18.20800 50.31400 26.88200
C  19.03400 49.73300 25.84500
C  20.10300 48.97200 26.44800
C  19.87900 49.20200 27.82900
C  18.69800 49.90400 28.07700
C  21.22700 48.20600 25.80300
C  20.47100 48.82900 29.09100
O  21.48200 48.09600 29.30400
C  19.53700 49.34600 30.24800
C  19.06700 48.31600 31.15200
O  18.06800 47.64800 31.10800
O  19.91900 48.40700 32.25500
C  19.61700 47.66400 33.48500
H  13.83700 53.01900 30.26100
H  14.39200 53.50900 23.72300
H  19.37100 49.59700 23.82800
H  17.13700 50.19500 32.23400
H  15.43700 52.61400 31.91600
H  14.95600 50.41200 32.99200
H  14.41600 49.95800 31.36800
H  13.57000 51.18000 32.34000
H  17.46700 52.98800 32.11000
H  18.95200 52.05300 31.68400
H  18.36600 52.99400 34.13500
H  19.42700 51.57200 33.89100
H  11.28700 55.02200 28.37700
H  12.89300 55.18500 29.23600
H  11.85500 53.72800 29.41800
H  10.91700 56.60100 25.32900
H  11.56000 56.46100 26.90800
H  10.52100 55.16600 26.05600
H  16.53400 52.86900 22.29300
H  16.90500 49.78900 22.22100
H  15.10800 50.78900 20.98000
H  15.01700 52.53800 20.81700
H  14.08300 51.78400 22.09000
H  18.13300 51.31400 20.62300
H  18.98000 50.05700 21.45500
H  19.70600 52.77500 21.32700
H  20.44500 51.58400 22.54100
H  19.21400 52.57100 23.01500
H  20.82400 47.70000 24.92600
H  21.73000 47.58600 26.54500
H  21.96700 48.91000 25.42300
H  20.10000 50.08800 30.81400
H  18.71600 47.05200 33.53400
H  19.58700 48.33600 34.34200
H  20.55400 47.11600 33.58000

