158

Mg 7.40200 53.51800 40.98600
C  6.89600 50.14000 40.66100
C  10.63600 53.06600 39.63100
C  7.62800 56.86500 40.26800
C  4.20900 53.98200 41.98800
N  8.59000 51.81000 40.18600
C  8.13000 50.55900 40.17700
C  9.12400 49.58300 39.52800
C  10.42000 50.48500 39.40600
C  9.93900 51.85600 39.83400
C  11.54200 50.06700 40.37800
C  8.75400 49.02600 38.08900
C  7.97200 49.92100 37.09400
H  7.20200 49.25100 35.91600
N  8.96000 54.77300 40.12800
C  10.17400 54.40600 39.71900
C  11.01000 55.62500 39.60300
C  10.12800 56.76000 39.63700
C  8.82800 56.17100 40.02100
C  12.51000 55.53900 39.15900
C  10.48300 58.19600 39.29500
O  11.59400 58.44400 38.92900
C  9.55700 59.34200 39.33100
N  6.06600 55.24100 41.19600
C  6.37900 56.52300 40.84700
C  5.18000 57.45800 41.08100
C  4.02600 56.50200 41.59800
C  4.79200 55.16800 41.54800
C  5.52100 58.65000 42.00700
C  2.73800 56.32500 40.66500
C  1.48000 56.85700 41.35500
N  5.89600 52.39000 41.46200
C  4.65200 52.67200 41.93500
C  3.93700 51.43700 42.26200
C  4.85200 50.44500 41.82900
C  5.98900 51.02500 41.29400
C  2.52100 51.15900 42.79700
C  4.91400 49.02300 41.69000
O  4.16900 48.06300 42.06100
C  6.25300 48.78200 40.84600
C  5.86100 48.02500 39.55800
O  5.28000 48.48400 38.63900
O  6.25200 46.71500 39.60800
C  5.65100 45.80200 38.60200
H  11.66900 52.91300 39.31300
H  7.57500 57.91100 39.95800
H  3.23300 54.12300 42.45700
H  9.18400 48.71200 40.18100
H  10.92200 50.53600 38.44000
H  11.29200 49.12800 40.87200
H  11.66800 50.83700 41.13900
H  12.51700 49.82800 39.95300
H  8.25700 48.05800 38.15000
H  9.69200 48.94400 37.54000
H  8.70300 50.65900 36.76500
H  7.19000 50.44500 37.64300
H  12.54900 54.83900 38.32500
H  13.01800 55.17200 40.05200
H  12.93400 56.44300 38.72300
H  9.20700 59.40300 40.36100
H  8.78700 59.14500 38.58400
H  10.06300 60.25100 39.00700
H  4.95400 57.82300 40.08000
H  3.64400 56.73800 42.59100
H  5.24800 59.62800 41.61200
H  6.55600 58.66400 42.34900
H  4.89100 58.53900 42.89000
H  2.62600 55.26000 40.45900
H  2.89100 56.91500 39.76100
H  1.36900 57.88000 40.99400
H  1.55000 56.87700 42.44300
H  0.66900 56.22600 40.99300
H  2.09700 52.03600 43.28600
H  2.62600 50.36200 43.53400
H  1.88500 50.88800 41.95400
H  7.02200 48.25300 41.40900
H  4.59400 46.06500 38.65100
H  5.90300 44.77000 38.84400
H  6.11000 46.04600 37.64400
Mg -5.74300 24.91200 25.75900
C  -4.12300 26.06700 28.68600
C  -7.66700 22.72000 27.71700
C  -6.62500 23.29600 23.00100
C  -3.25000 26.73200 23.95200
N  -5.80500 24.34500 27.90100
C  -5.12000 25.06300 28.92500
C  -5.66100 24.61000 30.31700
C  -6.58500 23.37400 29.99000
C  -6.75700 23.48000 28.46100
C  -5.98000 21.97300 30.32200
C  -6.51000 25.83000 30.92800
C  -6.30000 26.02500 32.52200
H  -5.49200 24.95200 33.28600
N  -7.14600 23.37000 25.36300
C  -7.82000 22.59500 26.28300
C  -8.67400 21.67600 25.60400
C  -8.44200 21.87400 24.21000
C  -7.37900 22.87200 24.13700
C  -9.58700 20.72500 26.28400
C  -9.02500 21.14700 22.95800
O  -8.68400 21.40500 21.81500
C  -10.12200 20.12400 23.07500
N  -4.98300 25.03300 23.71400
C  -5.57100 24.22200 22.77500
C  -4.93200 24.46400 21.40100
C  -4.05000 25.70500 21.64400
C  -4.02200 25.85400 23.19400
C  -4.11800 23.27200 20.88600
C  -4.57100 26.97400 20.88200
C  -3.65600 27.62200 19.74200
N  -4.11600 26.20800 26.19400
C  -3.26900 26.96800 25.33000
C  -2.46700 27.93700 26.14400
C  -2.80600 27.54600 27.47900
C  -3.76200 26.51700 27.46300
C  -1.40300 28.96700 25.69000
C  -2.37900 27.81200 28.87400
O  -1.54300 28.51900 29.35400
C  -3.36000 26.86400 29.68500
C  -2.57100 26.13000 30.66600
O  -1.99900 25.06900 30.46000
O  -2.65100 26.77400 31.88700
C  -1.73800 26.11100 32.82800
H  -8.17800 21.97100 28.32500
H  -6.81300 22.87000 22.01300
H  -2.67300 27.42800 23.33900
H  -4.79000 24.40000 30.93700
H  -7.60800 23.40600 30.36600
H  -4.96400 21.93100 30.71300
H  -5.99600 21.38900 29.40300
H  -6.77600 21.60000 30.96700
H  -7.57400 25.66700 30.76200
H  -6.26600 26.74900 30.39500
H  -7.31400 26.21900 32.87300
H  -5.75000 26.96300 32.59700
H  -10.58100 20.78100 25.84000
H  -9.81300 20.98200 27.31800
H  -9.27100 19.68200 26.25100
H  -10.25600 19.73900 22.06500
H  -11.02200 20.61500 23.44600
H  -9.73800 19.30700 23.68600
H  -5.74200 24.67300 20.70200
H  -3.05000 25.46000 21.28500
H  -3.62100 22.65200 21.63300
H  -3.30900 23.63200 20.25000
H  -4.69400 22.56500 20.28800
H  -4.60200 27.73500 21.66200
H  -5.59700 26.84000 20.54200
H  -2.74000 27.04100 19.63500
H  -3.32600 28.62300 20.02100
H  -4.16700 27.74700 18.78700
H  -0.64500 29.15100 26.45100
H  -1.82600 29.95000 25.48300
H  -1.06000 28.61500 24.71700
H  -4.09200 27.39300 30.29600
H  -1.86500 26.65000 33.76700
H  -0.73900 26.07900 32.39300
H  -2.00000 25.05500 32.88000

