158

Mg 49.28600 44.79400 42.01000
C  45.84900 45.36600 41.19900
C  48.76600 41.68600 40.69800
C  52.54600 44.45300 41.94400
C  49.59900 48.31500 42.27400
N  47.43100 43.66500 41.16800
C  46.16000 44.05800 40.91400
C  45.31700 43.05000 40.15100
C  46.20200 41.81100 40.27100
C  47.59200 42.42200 40.69300
C  45.78800 40.79500 41.35000
C  45.12900 43.69700 38.75300
C  43.75200 43.68200 38.07600
H  43.52100 42.63100 37.00300
N  50.50300 43.18900 41.63700
C  50.11600 42.00800 41.04900
C  51.26000 41.16900 40.94000
C  52.42700 41.93500 41.35900
C  51.86500 43.23800 41.73200
C  51.13000 39.73900 40.34700
C  53.83300 41.39300 41.58100
O  54.08600 40.24600 41.26200
C  54.98000 42.16300 42.14400
N  50.85900 46.18100 42.04300
C  52.10700 45.75900 42.06800
C  53.15000 46.94500 41.91900
C  52.22600 48.15500 42.21800
C  50.79100 47.52200 42.19600
C  54.33400 46.78700 42.87800
C  52.56100 49.42900 41.40800
C  52.29300 50.75000 42.16900
N  48.04800 46.55200 41.99900
C  48.26600 47.89200 42.21500
C  47.08100 48.61100 42.34200
C  46.12000 47.69800 41.91600
C  46.74600 46.41600 41.70700
C  46.87900 50.04700 42.76400
C  44.62800 47.53100 41.59200
O  43.71800 48.36800 41.50000
C  44.47700 45.99300 41.18300
C  43.63400 45.42500 42.19400
O  44.00500 44.70700 43.13400
O  42.32900 45.69900 41.90400
C  41.36200 45.13900 42.76900
H  48.68600 40.64100 40.39200
H  53.60000 44.35700 41.67500
H  49.70200 49.40300 42.26400
H  44.36500 42.97900 40.67500
H  46.19400 41.35700 39.28000
H  44.79300 41.14000 41.63200
H  46.44600 40.84100 42.21700
H  45.70500 39.80300 40.90600
H  45.84400 43.15500 38.13500
H  45.40500 44.74800 38.67200
H  43.52500 44.70500 37.77500
H  43.09000 43.45300 38.91100
H  50.71800 39.05500 41.08800
H  51.99600 39.17100 40.00700
H  50.35200 39.76300 39.58400
H  54.53100 42.76800 42.93200
H  55.32600 42.77600 41.31200
H  55.75100 41.52400 42.57500
H  53.52800 46.90300 40.89800
H  52.37400 48.51800 43.23500
H  55.29300 46.45800 42.47800
H  54.01700 46.14000 43.69600
H  54.57700 47.73200 43.36400
H  51.98500 49.39800 40.48300
H  53.64500 49.53300 41.35100
H  51.92100 50.52000 43.16800
H  51.51800 51.25200 41.58900
H  53.18000 51.38100 42.22200
H  47.72400 50.33200 43.39200
H  45.94000 50.12000 43.31400
H  46.88400 50.53400 41.78900
H  44.10400 45.84200 40.17100
H  41.72900 44.20700 43.19700
H  40.49900 44.89400 42.15000
H  41.02700 45.81400 43.55600
Mg 0.13900 43.73100 25.51100
C  2.39300 43.79300 28.16900
C  -2.27300 42.75100 27.77500
C  -1.88200 42.99800 22.95900
C  2.85300 44.12700 23.32400
N  0.09300 43.29000 27.78700
C  1.13900 43.52500 28.62600
C  0.64600 43.57500 30.11300
C  -0.79800 42.97500 29.99200
C  -1.06200 43.03000 28.44800
C  -0.95500 41.60100 30.55400
C  0.74000 45.07900 30.58900
C  0.62000 45.18000 32.16600
H  0.47800 43.97500 33.14800
N  -1.85800 43.16200 25.42500
C  -2.64700 42.80500 26.44900
C  -4.04200 42.62500 25.99500
C  -3.92700 42.65500 24.62700
C  -2.48900 42.95800 24.24200
C  -5.25000 42.47200 26.86200
C  -5.06900 42.54000 23.56000
O  -4.84000 42.62400 22.31600
C  -6.54200 42.41600 23.94700
N  0.49000 43.40600 23.41500
C  -0.50500 43.17800 22.56600
C  -0.10600 43.34500 21.07600
C  1.38200 43.84600 21.21200
C  1.60800 43.87700 22.73000
C  -0.35800 41.98000 20.23900
C  1.68200 45.20100 20.38600
C  2.21800 45.05500 18.90300
N  2.21500 44.03400 25.64900
C  3.22700 44.18100 24.69900
C  4.56700 44.18700 25.34700
C  4.29300 44.10600 26.73800
C  2.84400 43.94000 26.83500
C  5.92400 44.29300 24.71000
C  4.88000 43.99400 28.05200
O  6.02300 43.77100 28.41600
C  3.65200 44.01600 29.03600
C  3.85400 42.85600 30.02000
O  3.77100 41.62600 29.77400
O  4.18200 43.41400 31.23600
C  4.42700 42.44600 32.30300
H  -3.01400 42.40700 28.50000
H  -2.54800 42.97700 22.09400
H  3.69300 44.15600 22.62700
H  1.27800 42.92900 30.72200
H  -1.47700 43.61200 30.55900
H  -1.33300 40.94900 29.76700
H  -1.60400 41.71400 31.42200
H  -0.01100 41.18300 30.90500
H  -0.13500 45.56900 30.16000
H  1.65700 45.57300 30.27000
H  -0.14200 45.95900 32.17200
H  1.53200 45.51100 32.66400
H  -5.85500 41.68700 26.41000
H  -5.89500 43.34900 26.81400
H  -5.06700 42.20100 27.90200
H  -6.86000 43.27100 24.54400
H  -6.46600 41.45700 24.45900
H  -7.02600 42.29100 22.97900
H  -0.64800 44.18300 20.63600
H  1.97200 43.06200 20.73600
H  -1.09200 42.14700 19.45000
H  -0.85700 41.23600 20.85900
H  0.62100 41.57400 19.98400
H  2.28900 45.92600 20.92800
H  0.68500 45.63800 20.33200
H  1.28800 45.23200 18.36300
H  2.55900 44.04400 18.68100
H  3.05600 45.70600 18.65300
H  6.59300 44.76900 25.42600
H  5.89400 44.89400 23.80100
H  6.26700 43.29000 24.45700
H  3.79700 44.98100 29.52200
H  5.43100 42.02500 32.24400
H  3.67900 41.66800 32.15400
H  4.28000 42.93100 33.26900

