158

Mg 41.26500 7.29100 29.36500
C  43.14800 8.46500 32.06800
C  39.04800 5.98400 31.61100
C  39.45100 6.21300 26.77300
C  43.96400 7.97700 27.24800
N  41.11600 7.19700 31.59700
C  41.86400 7.88700 32.46500
C  41.22500 7.97100 33.82700
C  40.22200 6.77200 33.73600
C  40.13900 6.58200 32.24200
C  40.67900 5.42400 34.42400
C  40.68000 9.31200 34.14300
C  40.58700 9.68000 35.59800
H  41.53300 10.72200 36.30200
N  39.52200 6.27100 29.22400
C  38.71500 5.83400 30.21600
C  37.55600 5.18400 29.57700
C  37.54800 5.39100 28.20900
C  38.91600 5.95600 28.02200
C  36.55300 4.42200 30.50200
C  36.49800 5.06700 27.24400
O  36.58800 5.04100 26.04200
C  35.11000 4.85400 27.81400
N  41.71800 6.91600 27.33500
C  40.72100 6.62600 26.48800
C  41.10500 6.79700 24.98400
C  42.49600 7.45800 25.08200
C  42.84400 7.38500 26.66800
C  40.98300 5.55200 24.07400
C  42.58400 8.94600 24.48500
C  42.13600 10.12800 25.42100
N  43.18100 8.12800 29.55800
C  44.15600 8.29900 28.62700
C  45.26000 9.01700 29.21400
C  44.87600 9.14300 30.57900
C  43.63400 8.55300 30.76700
C  46.40100 9.64500 28.51800
C  45.29600 9.74100 31.84200
O  46.27000 10.39400 32.16000
C  44.10300 9.33800 32.80000
C  44.61700 8.66000 34.00300
O  44.44700 7.44400 34.28400
O  45.44200 9.48800 34.78800
C  45.88500 8.82300 36.01600
H  38.28800 5.58000 32.28300
H  38.73100 5.96900 25.98900
H  44.66800 8.19300 26.44200
H  42.05600 7.79700 34.51000
H  39.26400 7.06700 34.16400
H  40.11900 5.16700 35.32300
H  41.75000 5.56000 34.57700
H  40.60400 4.56800 33.75500
H  39.68900 9.45800 33.71400
H  41.30400 9.99300 33.56400
H  40.56500 8.77700 36.20800
H  39.58200 10.09900 35.66200
H  37.09300 4.06200 31.37800
H  36.08400 3.55700 30.03300
H  35.78500 5.13000 30.81500
H  35.16800 3.83200 28.18700
H  34.39300 5.06600 27.02100
H  34.97200 5.53400 28.65600
H  40.42400 7.50600 24.51200
H  43.30000 6.90200 24.59900
H  40.22400 4.83300 24.38100
H  41.96300 5.07500 24.07000
H  40.73200 5.89300 23.06900
H  41.97700 8.85800 23.58400
H  43.49400 9.15500 23.92400
H  41.85000 9.84400 26.43400
H  41.30400 10.56400 24.86700
H  42.91100 10.89500 25.44200
H  46.26600 10.14300 27.55800
H  47.18900 8.89300 28.48200
H  46.90900 10.38500 29.13700
H  43.68600 10.28800 33.13500
H  45.05300 8.63900 36.69600
H  46.56600 9.52600 36.49700
H  46.46900 7.92400 35.82200
Mg 7.03300 53.72200 40.55600
C  6.80400 50.19200 40.06700
C  10.26700 53.52600 39.31700
C  7.24600 57.08600 40.53500
C  3.78900 53.74700 41.37100
N  8.31700 52.09700 39.61600
C  8.05000 50.75500 39.73800
C  9.35500 50.00000 39.50500
C  10.46400 51.08200 39.55100
C  9.63200 52.30200 39.37600
C  11.27700 51.09400 40.91000
C  9.38300 49.09300 38.19500
C  9.02400 49.70100 36.84200
H  8.02200 48.99600 35.94500
N  8.63100 55.11100 40.07800
C  9.86700 54.81000 39.61900
C  10.61700 55.95100 39.48100
C  9.82600 57.05000 39.94300
C  8.52100 56.46100 40.29500
C  12.06300 55.99000 39.07300
C  10.22500 58.47600 40.09900
O  11.40900 58.71800 39.80300
C  9.32200 59.63800 40.47800
N  5.56600 55.21700 40.65500
C  6.00200 56.54000 40.86800
C  4.82000 57.43000 41.25000
C  3.75700 56.37000 41.64500
C  4.38500 55.00200 41.13200
C  4.93800 58.57600 42.20400
C  2.27400 56.63500 41.06900
C  1.12100 57.05500 41.98600
N  5.50000 52.29400 40.64500
C  4.22600 52.45300 41.06400
C  3.61000 51.16900 41.17400
C  4.56000 50.23100 40.87500
C  5.70000 50.96200 40.49500
C  2.16200 50.93900 41.57200
C  4.89300 48.82000 40.70200
O  4.17500 47.84200 40.98900
C  6.30300 48.72700 40.20500
C  6.25900 47.81900 39.06000
O  5.81100 48.13000 37.96000
O  6.70400 46.53900 39.41700
C  6.29300 45.49600 38.41700
H  11.34900 53.41900 39.21600
H  7.42200 58.16400 40.56700
H  2.77800 53.80200 41.78000
H  9.46700 49.33800 40.36300
H  11.12000 51.00400 38.68400
H  11.51900 50.05400 41.12800
H  10.77800 51.55300 41.76400
H  12.24100 51.57800 40.75000
H  8.70600 48.24700 38.31300
H  10.40300 48.71000 38.16200
H  9.98500 49.74900 36.33100
H  8.69400 50.70500 37.10800
H  12.21100 56.28400 38.03400
H  12.53600 55.00800 39.08600
H  12.68600 56.63800 39.69000
H  8.62400 59.65700 39.64100
H  9.92000 60.54700 40.54400
H  9.02500 59.42700 41.50500
H  4.54000 57.85100 40.28400
H  3.64900 56.29500 42.72800
H  5.92100 58.72500 42.65000
H  4.32900 58.41000 43.09200
H  4.64500 59.49300 41.69200
H  1.98200 55.75200 40.50000
H  2.43600 57.52700 40.46400
H  0.67000 57.96100 41.58000
H  1.48800 57.21100 43.00000
H  0.29100 56.35300 42.05900
H  1.59900 51.83300 41.84000
H  2.19500 50.13600 42.30800
H  1.45000 50.51500 40.86300
H  6.83900 48.17100 40.97500
H  6.48200 45.87000 37.41100
H  5.23700 45.24300 38.52000
H  6.76600 44.51500 38.47000

