158

Mg 41.22600 40.92400 26.39600
C  40.78300 43.42800 28.85100
C  42.26400 38.74900 28.86500
C  41.69200 38.73900 24.11600
C  40.44300 43.32000 23.98400
N  41.41500 41.07700 28.63000
C  41.26700 42.20600 29.38200
C  41.33500 41.79800 30.83100
C  42.18900 40.50100 30.82300
C  42.01000 40.02300 29.36300
C  43.77700 40.67100 31.06600
C  39.94000 41.63500 31.61600
C  39.56300 42.70400 32.69800
H  39.05000 42.25400 34.05900
N  41.80300 39.00900 26.50700
C  42.18500 38.26300 27.52900
C  42.52000 36.91300 27.12600
C  42.34200 36.85000 25.71400
C  41.98100 38.19200 25.35400
C  42.99000 35.77300 28.05800
C  42.56500 35.67700 24.73100
O  42.48900 35.82900 23.48200
C  42.92900 34.35300 25.23900
N  41.19000 41.05800 24.34900
C  41.37100 39.95100 23.61900
C  41.34400 40.21400 22.14800
C  40.79600 41.67600 22.06600
C  40.81200 42.08900 23.57100
C  42.68800 40.02600 21.42700
C  39.32800 41.74300 21.53700
C  38.33700 40.84900 22.33000
N  40.63800 42.96500 26.34100
C  40.32300 43.84800 25.28300
C  39.83400 45.06300 25.80200
C  39.93700 44.94900 27.19300
C  40.53800 43.72800 27.48400
C  39.24300 46.17400 24.97300
C  39.71900 45.60700 28.44700
O  39.27600 46.70300 28.66800
C  40.31800 44.66800 29.58500
C  41.38800 45.43900 30.31300
O  42.60500 45.29200 30.10500
O  40.85800 46.25900 31.28000
C  41.72000 46.79400 32.33000
H  42.52200 38.06300 29.67500
H  41.75000 38.02500 23.29200
H  40.12600 43.95800 23.15700
H  41.82300 42.55600 31.44200
H  41.82700 39.77500 31.55100
H  44.02800 41.72900 31.13800
H  44.35600 40.39600 30.18500
H  43.91800 40.12300 31.99800
H  39.95300 40.73200 32.22600
H  39.11800 41.58600 30.90200
H  38.68000 43.22100 32.32300
H  40.40200 43.37700 32.87100
H  42.33600 34.90700 27.95800
H  43.17100 36.05100 29.09600
H  43.95200 35.47700 27.63900
H  43.94700 34.50600 25.59800
H  42.89400 33.52100 24.53600
H  42.21500 34.06100 26.00900
H  40.61100 39.44400 21.91000
H  41.44000 42.30600 21.45200
H  43.44000 40.26100 22.18000
H  42.82700 40.75200 20.62700
H  42.77700 39.05300 20.94300
H  39.00700 41.54000 20.51600
H  39.15800 42.81700 21.61300
H  38.92900 40.21500 22.99100
H  37.87600 40.10000 21.68500
H  37.57500 41.44200 22.83600
H  38.71200 45.77400 24.11000
H  40.07300 46.86500 24.82900
H  38.46800 46.62800 25.59200
H  39.53200 44.39600 30.28900
H  42.08100 45.91400 32.86300
H  41.11200 47.52200 32.86700
H  42.53500 47.31200 31.82300
Mg -1.08300 34.99400 27.34800
C  -3.08800 33.22900 29.55300
C  -0.41200 37.20800 29.88900
C  0.46200 36.83000 25.01600
C  -2.45500 33.00900 24.69700
N  -1.79900 35.22900 29.46300
C  -2.40000 34.23500 30.19400
C  -2.29800 34.53000 31.73700
C  -1.70200 35.97700 31.75700
C  -1.24400 36.18900 30.31100
C  -2.65600 37.13500 32.18600
C  -1.43600 33.51300 32.53600
C  -2.07200 32.71300 33.64600
H  -2.61600 33.58200 34.83100
N  0.08800 36.65400 27.53600
C  0.20900 37.42200 28.62400
C  1.14700 38.45200 28.31600
C  1.49100 38.42700 26.91000
C  0.65000 37.31600 26.41200
C  1.64100 39.42900 29.38000
C  2.54500 39.14400 26.08300
O  2.93700 38.78500 24.97800
C  3.06400 40.46300 26.58600
N  -1.08500 34.91600 25.19000
C  -0.34000 35.83700 24.48700
C  -0.25600 35.50700 22.94200
C  -1.25100 34.28300 22.90400
C  -1.62500 34.05400 24.37600
C  -0.63100 36.78400 22.09900
C  -0.50900 32.98200 22.36600
C  0.74000 32.52200 23.20400
N  -2.52400 33.49500 27.11300
C  -2.95100 32.82700 25.95700
C  -3.96100 31.87200 26.37600
C  -3.93800 31.85400 27.74100
C  -3.10100 32.95300 28.16900
C  -4.73200 30.96600 25.45700
C  -4.43000 31.18400 28.94000
O  -5.17200 30.23300 29.10400
C  -3.80600 31.92700 30.18700
C  -4.92800 32.20400 31.11900
O  -5.71700 33.14400 31.03300
O  -4.91200 31.29700 32.11700
C  -5.78200 31.59200 33.25400
H  -0.02300 37.76600 30.74300
H  1.19000 37.24500 24.31500
H  -2.78300 32.39400 23.85600
H  -3.32000 34.48000 32.11400
H  -0.81400 36.13500 32.36900
H  -3.06300 37.51900 31.25100
H  -2.11600 37.90800 32.73200
H  -3.48900 36.87200 32.83800
H  -0.57200 33.98100 33.00700
H  -1.09100 32.73700 31.85200
H  -1.21200 32.18600 34.06000
H  -2.86800 32.07200 33.26800
H  2.58900 39.02100 29.73200
H  0.91100 39.60000 30.17100
H  1.76100 40.45800 29.04300
H  2.32000 41.18900 26.91500
H  3.75300 40.95600 25.90000
H  3.67900 40.25500 27.46100
H  0.78900 35.21400 22.84100
H  -2.15700 34.58700 22.37900
H  -1.45900 36.61900 21.40900
H  0.28900 37.11700 21.61800
H  -0.99600 37.60000 22.72200
H  -0.07700 33.27300 21.40900
H  -1.10000 32.12500 22.04300
H  0.83200 32.99500 24.18100
H  1.64300 32.54600 22.59400
H  0.55800 31.46400 23.39700
H  -4.13100 30.39600 24.74900
H  -5.37500 31.67900 24.94100
H  -5.22000 30.26100 26.13000
H  -3.06300 31.39600 30.78200
H  -5.55700 32.46000 33.87400
H  -5.87600 30.64500 33.78500
H  -6.80500 31.77900 32.92900

