158

Mg 16.88700 -1.64600 28.54900
C  15.75100 0.66200 31.09900
C  18.95200 -3.08900 30.90000
C  18.42100 -3.22400 26.04900
C  15.10200 0.36700 26.24300
N  17.45900 -1.08800 30.73400
C  16.66200 -0.32300 31.56900
C  17.20000 -0.45200 33.06600
C  18.34300 -1.58300 32.95700
C  18.24400 -1.98000 31.43700
C  19.80500 -1.14600 33.34400
C  16.00700 -0.82700 33.94300
C  15.86900 -0.02200 35.35100
H  17.10800 0.52300 36.06200
N  18.44200 -3.00800 28.47200
C  19.13800 -3.54300 29.55200
C  19.90500 -4.73700 29.06800
C  19.63800 -4.83700 27.67300
C  18.78000 -3.72000 27.31200
C  20.67600 -5.53800 30.03000
C  20.29200 -5.74300 26.70600
O  20.20700 -5.72400 25.49500
C  21.12500 -6.91300 27.17400
N  16.79600 -1.39400 26.45100
C  17.58400 -2.10800 25.62700
C  17.22400 -1.90300 24.17400
C  15.95200 -0.88200 24.21500
C  15.86100 -0.65200 25.75100
C  18.42600 -1.22200 23.36300
C  14.68600 -1.55700 23.60600
C  13.68300 -0.68400 22.87200
N  15.62200 0.03200 28.64300
C  14.92500 0.69500 27.62400
C  14.18200 1.83300 28.19500
C  14.39100 1.75600 29.55500
C  15.33100 0.72300 29.73600
C  13.21900 2.74600 27.37600
C  14.01100 2.34900 30.82900
O  13.18600 3.25000 31.07500
C  14.93700 1.69600 31.85600
C  15.80200 2.76400 32.35600
O  16.41000 3.42900 31.58300
O  15.89500 2.84900 33.68800
C  16.76100 3.94600 34.16600
H  19.47500 -3.70200 31.63800
H  18.88600 -3.79700 25.24400
H  14.40500 0.85600 25.55800
H  17.63800 0.51900 33.30000
H  18.22300 -2.51000 33.51700
H  19.76400 -0.17900 33.84600
H  20.18000 -0.91400 32.34700
H  20.32600 -1.87400 33.96700
H  16.07000 -1.88900 34.17800
H  15.06700 -0.54100 33.47100
H  15.49900 -0.81500 36.00000
H  15.13800 0.78300 35.27000
H  20.50000 -5.25500 31.06800
H  21.76000 -5.47000 29.93900
H  20.37400 -6.58200 29.94300
H  21.87200 -6.52500 27.86600
H  21.65000 -7.40600 26.35500
H  20.44500 -7.56400 27.72400
H  17.02400 -2.88900 23.75700
H  16.20500 0.08300 23.77500
H  18.19000 -0.18500 23.12300
H  18.60800 -1.78200 22.44600
H  19.33900 -1.09700 23.94500
H  14.20200 -2.10400 24.41500
H  15.01300 -2.33800 22.91900
H  14.13600 0.30300 22.78300
H  12.80800 -0.58700 23.51500
H  13.25000 -0.87200 21.89000
H  13.11500 3.73000 27.83400
H  12.18000 2.41900 27.33900
H  13.60500 2.78400 26.35700
H  14.36500 1.32900 32.70800
H  16.63600 4.11100 35.23600
H  16.55700 4.90800 33.69500
H  17.81700 3.82100 33.92600
Mg 27.02000 49.95000 26.04200
C  25.49700 51.45900 28.67200
C  29.81000 49.35700 27.96500
C  28.80000 49.13800 23.17800
C  24.51100 51.28100 23.91500
N  27.55300 50.48100 28.04300
C  26.70200 50.94500 28.99000
C  27.08100 50.55100 30.38400
C  28.56600 50.12300 30.15100
C  28.65000 49.95700 28.67100
C  29.75900 50.93000 30.76900
C  26.17100 49.44100 31.11700
C  25.64000 49.64400 32.55800
H  26.48000 50.37400 33.62000
N  28.99900 49.22900 25.66800
C  29.97500 49.03400 26.59900
C  31.13100 48.51300 26.00200
C  30.94600 48.49000 24.59200
C  29.48200 48.96500 24.42200
C  32.25500 48.05400 26.81700
C  31.94200 48.17500 23.56100
O  31.63300 48.15800 22.36700
C  33.34700 47.82200 23.92000
N  26.76500 50.24800 23.82400
C  27.53400 49.61600 22.92900
C  26.91000 49.48200 21.49200
C  25.50600 50.15400 21.77500
C  25.52000 50.53900 23.26400
C  27.64200 50.23900 20.31300
C  24.27900 49.23200 21.63600
C  23.01000 49.98200 21.11400
N  25.33600 51.11400 26.24700
C  24.39500 51.61000 25.29500
C  23.33900 52.33300 25.97600
C  23.64100 52.25900 27.33100
C  24.88500 51.49600 27.43500
C  22.01800 52.76800 25.47100
C  23.22400 52.56000 28.68500
O  22.16200 53.04200 29.10400
C  24.49300 52.12800 29.61500
C  25.00300 53.22700 30.46800
O  25.87400 53.95800 30.12300
O  24.27400 53.34000 31.59300
C  24.72500 54.13700 32.69600
H  30.60300 49.14700 28.68600
H  29.35900 48.71200 22.34200
H  23.79400 51.58600 23.14900
H  27.09500 51.47800 30.95800
H  28.72500 49.11300 30.53000
H  30.27600 51.57000 30.05400
H  30.47700 50.20600 31.15500
H  29.36500 51.58800 31.54300
H  26.70600 48.49200 31.10200
H  25.32900 49.21400 30.46200
H  25.45300 48.63900 32.93800
H  24.62800 50.04200 32.48500
H  32.02500 47.99900 27.88100
H  33.04600 48.78600 26.65700
H  32.60300 47.09100 26.44300
H  33.36800 46.95900 24.58500
H  33.72300 48.75500 24.34100
H  33.83800 47.51800 22.99600
H  26.82700 48.46500 21.10800
H  25.33100 51.14800 21.36300
H  28.63400 49.82700 20.12600
H  27.71500 51.30600 20.52700
H  27.10700 50.14000 19.36900
H  24.01900 48.79000 22.59800
H  24.54800 48.40700 20.97700
H  23.26700 50.99700 20.80900
H  22.34200 50.14000 21.96100
H  22.53200 49.38600 20.33700
H  21.81300 52.35700 24.48300
H  21.85700 53.84200 25.57100
H  21.21200 52.34900 26.07300
H  24.19600 51.40200 30.37200
H  24.01600 54.02000 33.51500
H  24.67200 55.19600 32.44200
H  25.71500 53.78700 32.99000

