158

Mg 23.96100 -4.69200 46.18400
C  25.81900 -2.24200 44.51800
C  21.38700 -4.07000 43.82800
C  22.40500 -7.67300 46.97400
C  26.77100 -5.65000 47.86700
N  23.73900 -3.35300 44.34900
C  24.58000 -2.38800 43.90300
C  24.15000 -1.58700 42.71200
C  22.54300 -1.91500 42.82300
C  22.49300 -3.18100 43.70700
C  21.60500 -0.80500 43.43000
C  24.79900 -2.07900 41.45300
C  25.55600 -1.04000 40.58100
H  25.01100 -0.87200 39.13300
N  22.17000 -5.65400 45.63800
C  21.26900 -5.23100 44.73400
C  20.10700 -6.03400 44.78700
C  20.26700 -7.08600 45.71600
C  21.67100 -6.85000 46.15100
C  18.89000 -5.70300 43.92200
C  19.31200 -8.14800 46.09400
O  18.23000 -8.15100 45.55500
C  19.64200 -9.22000 47.17500
N  24.53700 -6.45800 47.36900
C  23.64900 -7.47800 47.58100
C  24.38600 -8.59700 48.33400
C  25.78300 -7.98700 48.58100
C  25.70000 -6.60400 47.98000
C  23.65000 -9.12800 49.72200
C  26.99600 -8.79600 47.91400
C  28.18800 -8.96200 48.85100
N  25.88700 -3.97400 46.44100
C  26.90900 -4.43000 47.22600
C  28.02300 -3.49500 47.13200
C  27.62700 -2.64300 46.13100
C  26.27700 -2.97000 45.69100
C  29.36500 -3.65600 47.74800
C  28.01800 -1.50300 45.38800
O  29.05200 -0.86900 45.47600
C  26.87300 -1.26800 44.21500
C  26.51500 0.11600 44.21100
O  25.84100 0.63100 45.09600
O  27.09600 0.73600 43.13200
C  27.29400 2.15800 43.33700
H  20.45400 -3.89900 43.28800
H  22.03800 -8.69300 47.10700
H  27.63500 -5.94100 48.46700
H  24.25500 -0.51300 42.86500
H  22.15000 -2.07200 41.81800
H  22.30900 -0.08600 43.85000
H  21.08800 -1.27700 44.26500
H  20.97300 -0.32700 42.68100
H  24.02600 -2.42100 40.76500
H  25.49800 -2.89300 41.64600
H  26.58800 -1.38700 40.54700
H  25.58500 -0.09000 41.11300
H  19.18300 -5.39700 42.91800
H  18.46100 -4.80200 44.36000
H  18.13100 -6.48500 43.96900
H  20.39000 -9.93100 46.82300
H  18.74500 -9.82900 47.28300
H  19.77500 -8.71900 48.13400
H  24.44300 -9.43300 47.63700
H  26.01500 -7.81400 49.63200
H  23.77000 -10.21200 49.73000
H  22.62600 -8.75500 49.72700
H  24.06000 -8.87200 50.69900
H  27.47200 -8.40900 47.01200
H  26.68800 -9.80500 47.64200
H  28.02700 -9.84100 49.47500
H  28.30500 -8.04200 49.42400
H  29.13500 -8.95600 48.31200
H  29.58500 -4.66200 48.10500
H  29.48800 -2.91100 48.53300
H  30.06500 -3.38000 46.96000
H  27.29400 -1.49300 43.23500
H  28.03200 2.51100 42.61600
H  27.53800 2.43400 44.36300
H  26.39600 2.70100 43.04500
Mg 48.73800 35.68000 27.30500
C  46.57200 34.24500 29.77500
C  48.90000 38.53300 29.31800
C  50.27400 37.15700 24.91800
C  47.93300 32.97000 25.23400
N  47.94400 36.19000 29.36800
C  47.11100 35.48300 30.18900
C  46.99100 36.31300 31.53000
C  47.53400 37.71900 31.24200
C  48.19300 37.47900 29.90700
C  46.51000 38.82500 31.21100
C  47.54800 35.54500 32.73600
C  46.59700 35.44100 33.90900
H  46.64000 36.61600 34.92900
N  49.60700 37.55600 27.16400
C  49.52800 38.60800 28.07300
C  50.17900 39.72100 27.53600
C  50.61600 39.34600 26.19100
C  50.15900 37.91600 26.02900
C  50.47100 40.99700 28.32800
C  51.33300 40.12400 25.10500
O  51.74200 39.69500 24.02600
C  51.61000 41.53100 25.30400
N  49.09500 35.11100 25.35100
C  49.86300 35.88600 24.56300
C  50.05500 35.23800 23.12500
C  49.53300 33.75700 23.43700
C  48.83000 33.90100 24.79200
C  49.21400 35.98500 22.10500
C  50.75000 32.75600 23.40300
C  51.27000 32.63000 21.98800
N  47.56700 33.97300 27.41000
C  47.29500 32.96100 26.45600
C  46.28200 32.05000 26.91600
C  45.94900 32.52700 28.21700
C  46.77600 33.66500 28.44800
C  45.77900 30.86300 26.14300
C  45.13200 32.29000 29.37200
O  44.30500 31.46100 29.67400
C  45.53100 33.34500 30.44300
C  46.09000 32.60100 31.51600
O  47.17400 32.08000 31.58400
O  45.18600 32.55400 32.50500
C  45.53900 32.01700 33.84300
H  48.95400 39.42700 29.94200
H  50.80800 37.60400 24.07700
H  47.70600 32.12800 24.57700
H  45.90600 36.29800 31.62500
H  48.32100 38.00600 31.93900
H  46.57000 39.40600 30.29100
H  46.88700 39.51700 31.96400
H  45.49700 38.55900 31.51100
H  48.37500 36.16600 33.07900
H  47.89200 34.55200 32.44800
H  46.80600 34.57600 34.53900
H  45.55900 35.34400 33.59300
H  50.22200 40.86100 29.38000
H  50.01400 41.85300 27.83300
H  51.53200 41.17200 28.14900
H  52.04900 42.03100 24.44000
H  52.37800 41.69700 26.05800
H  50.77500 42.18500 25.55600
H  51.08800 35.21800 22.77900
H  48.82700 33.36100 22.70700
H  49.62700 36.10600 21.10400
H  49.10700 36.96600 22.56800
H  48.28700 35.42100 21.99700
H  50.40600 31.77900 23.74300
H  51.58000 33.02200 24.05700
H  50.70400 33.16100 21.22200
H  51.15700 31.60800 21.62700
H  52.30900 32.95800 21.95100
H  44.82300 30.41400 26.41100
H  46.46600 30.01700 26.15700
H  45.68600 31.09400 25.08100
H  44.56900 33.78400 30.70800
H  45.72100 32.73000 34.64700
H  46.41000 31.36400 33.78200
H  44.62800 31.52700 34.18800

