158

Mg -11.40000 37.44200 43.16700
C  -9.01900 34.82400 42.68200
C  -9.05100 39.63100 42.08200
C  -13.80200 39.68700 43.06200
C  -13.75000 34.88400 43.75800
N  -9.22000 37.15600 42.49200
C  -8.44800 36.07100 42.46200
C  -7.01200 36.40700 41.87300
C  -7.07600 37.98500 41.87700
C  -8.51200 38.32500 42.20000
C  -6.20500 38.63600 42.87600
C  -6.74100 35.83500 40.39500
C  -5.28800 35.35700 40.11500
H  -4.59900 36.08600 38.90200
N  -11.42400 39.38400 42.59500
C  -10.33900 40.14300 42.31200
C  -10.77500 41.47000 42.03300
C  -12.18600 41.53200 42.24400
C  -12.54700 40.16900 42.64800
C  -9.85000 42.56500 41.50000
C  -13.05700 42.75700 41.91500
O  -12.70600 43.84800 41.49700
C  -14.57100 42.68400 42.16500
N  -13.58200 37.32400 43.34200
C  -14.27800 38.41500 43.39700
C  -15.72900 38.21000 43.80000
C  -15.68900 36.61300 43.69900
C  -14.24100 36.18700 43.67200
C  -16.25700 38.84600 45.13400
C  -16.48900 36.04800 42.46700
C  -17.68200 35.13200 42.93100
N  -11.40700 35.34400 43.43100
C  -12.47100 34.47700 43.57400
C  -12.05300 33.08800 43.55000
C  -10.65500 33.23000 43.27800
C  -10.33300 34.59100 43.12000
C  -12.77500 31.80900 43.80100
C  -9.39900 32.44900 43.10500
O  -9.16000 31.27600 43.23000
C  -8.36600 33.48700 42.59200
C  -7.20300 33.44200 43.57700
O  -7.27800 33.76200 44.76800
O  -6.10800 32.90000 43.04300
C  -5.01800 32.62700 44.09300
H  -8.29700 40.36000 41.77800
H  -14.58900 40.37800 43.36900
H  -14.46800 34.06200 43.81000
H  -6.32800 36.07800 42.65500
H  -6.94200 38.43800 40.89500
H  -5.45500 37.96200 43.29100
H  -6.74900 39.05500 43.72300
H  -5.61200 39.43700 42.43500
H  -6.87200 36.72900 39.78600
H  -7.38200 34.97600 40.20200
H  -5.25000 34.27500 39.99300
H  -4.65200 35.46200 40.99400
H  -8.85000 42.24500 41.21000
H  -9.77600 43.30600 42.29500
H  -10.38000 43.07400 40.69400
H  -15.02800 43.62600 41.86400
H  -14.85400 42.63300 43.21600
H  -14.84100 41.73800 41.69400
H  -16.45300 38.56000 43.06500
H  -16.10600 36.37000 44.67600
H  -17.34400 38.92300 45.11300
H  -15.82700 39.80900 45.40900
H  -15.84000 38.24300 45.94100
H  -15.82500 35.48200 41.81500
H  -16.81300 36.82700 41.77600
H  -17.77100 34.12000 42.53700
H  -18.66700 35.53300 42.69400
H  -17.69500 34.98400 44.01100
H  -13.85700 31.82900 43.66800
H  -12.50900 31.29300 44.72300
H  -12.63600 31.10300 42.98100
H  -8.01400 33.18800 41.60400
H  -5.17900 31.65700 44.56500
H  -4.97600 33.41900 44.84000
H  -4.02100 32.52100 43.66600
Mg 1.34500 41.76800 25.75000
C  3.21400 41.95000 28.76400
C  -1.23100 40.62800 27.76700
C  -0.39300 41.35500 23.03700
C  4.21300 42.72400 23.98900
N  1.06700 41.40600 28.12800
C  1.93000 41.71600 29.09500
C  1.35400 41.67100 30.50300
C  -0.11700 41.15500 30.07000
C  -0.11300 41.02100 28.54900
C  -0.60500 39.84100 30.89400
C  1.46800 43.05700 31.28200
C  2.10900 43.11700 32.64800
H  1.72700 42.05700 33.66700
N  -0.44400 40.90400 25.43300
C  -1.38400 40.58400 26.35700
C  -2.59100 39.99800 25.64900
C  -2.44500 40.37300 24.28500
C  -1.06000 40.91300 24.14600
C  -3.66600 39.29800 26.38700
C  -3.39700 40.28800 23.17900
O  -3.21700 40.68800 22.08600
C  -4.72100 39.85400 23.43900
N  1.85800 41.94000 23.79400
C  0.91600 41.73100 22.82300
C  1.61200 41.81000 21.44000
C  2.95600 42.43800 21.73900
C  3.03100 42.39200 23.26900
C  1.73000 40.47000 20.73400
C  3.08600 43.89700 21.12800
C  4.32400 44.08200 20.38000
N  3.33100 42.22600 26.19200
C  4.34800 42.57300 25.38300
C  5.50300 42.72000 26.16600
C  5.15800 42.44700 27.49400
C  3.73600 42.19100 27.48200
C  6.80900 43.26400 25.77400
C  5.73600 42.22600 28.78200
O  6.85400 42.29600 29.22600
C  4.43200 42.10500 29.69700
C  4.76200 40.91600 30.57900
O  4.52500 39.75100 30.29500
O  5.35300 41.34200 31.73400
C  5.63600 40.38400 32.76300
H  -2.10100 40.38000 28.37800
H  -0.87300 41.25000 22.06200
H  5.14300 43.03600 23.51000
H  1.89700 40.89400 31.04100
H  -0.86000 41.87600 30.41000
H  -1.29900 40.27400 31.61500
H  0.26400 39.51800 31.46700
H  -1.15700 39.10300 30.31100
H  0.42900 43.37700 31.35900
H  1.96200 43.74400 30.59600
H  1.73600 44.04000 33.09300
H  3.19000 43.15000 32.50900
H  -3.36500 38.95900 27.37800
H  -3.98400 38.42000 25.82500
H  -4.54600 39.93300 26.48800
H  -5.15900 40.40900 24.26900
H  -4.74500 38.77000 23.54500
H  -5.29800 40.06300 22.53900
H  0.95100 42.44500 20.85000
H  3.84900 41.86400 21.49300
H  1.45900 39.56600 21.28000
H  2.77900 40.39800 20.44600
H  1.12600 40.52800 19.82900
H  3.03800 44.65700 21.90800
H  2.24500 44.10000 20.46500
H  4.86200 44.86100 20.92100
H  4.05400 44.47100 19.39800
H  4.84700 43.12900 20.30500
H  6.68100 44.08400 25.06700
H  7.24700 42.42200 25.23800
H  7.41600 43.60400 26.61200
H  4.23700 42.94800 30.36000
H  5.50400 40.76100 33.77700
H  6.49200 39.70900 32.73000
H  4.75300 39.75100 32.67300

