158

Mg 53.84000 23.70300 44.93800
C  51.40400 26.14000 44.23200
C  51.76200 21.33600 43.60000
C  56.32000 21.42200 45.22900
C  56.08300 26.20900 45.58600
N  51.93200 23.81400 43.86200
C  51.11800 24.83000 43.75000
C  49.98600 24.51500 42.75800
C  49.83600 23.00900 43.23600
C  51.25600 22.65800 43.55800
C  48.83100 22.75400 44.36500
C  50.17100 24.68600 41.19500
C  51.48700 25.19900 40.68100
H  51.43700 25.93100 39.37400
N  53.99200 21.66800 44.59200
C  53.02200 20.87000 44.03400
C  53.43200 19.52900 44.14600
C  54.72600 19.48400 44.61600
C  55.09400 20.88800 44.82900
C  52.56600 18.32800 43.80100
C  55.56500 18.20600 44.91800
O  55.23800 17.06400 44.58000
C  56.84500 18.35100 45.65900
N  55.86800 23.79900 45.20300
C  56.71700 22.72100 45.28900
C  58.22400 23.15200 45.43100
C  58.09400 24.65200 45.75600
C  56.55900 24.92300 45.59200
C  59.11100 22.34400 46.52200
C  58.94800 25.64200 44.93100
C  58.45800 25.91300 43.50500
N  53.77100 25.82000 44.98400
C  54.72400 26.67000 45.31700
C  54.20000 28.07100 45.33300
C  52.83800 27.84400 45.02000
C  52.68900 26.48400 44.76700
C  54.93800 29.31000 45.70600
C  51.49200 28.49200 44.84800
O  51.16000 29.66200 45.07600
C  50.49400 27.35400 44.33500
C  49.87500 27.78800 43.08600
O  50.45500 28.25600 42.14200
O  48.47700 27.67900 43.13600
C  47.64000 27.94800 41.98300
H  51.05600 20.57800 43.25400
H  57.15400 20.72600 45.34000
H  56.78100 27.03700 45.72700
H  49.11600 25.02100 43.17600
H  49.40700 22.52100 42.36000
H  49.40100 22.25900 45.15100
H  48.02300 22.04300 44.19200
H  48.44100 23.70500 44.72800
H  49.45000 25.39900 40.79400
H  49.95500 23.72600 40.72800
H  52.17400 24.35300 40.68800
H  51.98000 25.88800 41.36600
H  52.51100 17.55300 44.56500
H  52.94600 18.00500 42.83200
H  51.50500 18.56800 43.72400
H  57.19000 17.37500 45.99900
H  56.69500 18.98400 46.53400
H  57.44100 18.86900 44.90800
H  58.71000 22.99500 44.46800
H  58.31900 24.87900 46.79900
H  59.28600 23.01600 47.36200
H  60.03600 22.29500 45.94600
H  58.69800 21.37100 46.78700
H  59.93200 25.18600 45.04600
H  58.94000 26.52500 45.57000
H  59.05000 25.68100 42.61900
H  58.45300 26.99400 43.36900
H  57.49300 25.43900 43.32800
H  55.79800 29.44500 45.05100
H  55.26800 29.20000 46.73900
H  54.29700 30.18800 45.62400
H  49.87500 27.06600 45.18400
H  46.97600 27.10600 41.78500
H  48.06300 28.31300 41.04800
H  47.04400 28.80600 42.29300
Mg 29.97500 57.68000 38.77100
C  27.15300 55.68800 38.35200
C  31.88900 54.80100 38.26600
C  32.76300 59.73900 38.83600
C  27.92800 60.61400 39.01800
N  29.59800 55.44000 38.35500
C  28.33800 54.93200 38.09900
C  28.42100 53.38700 37.80000
C  29.90600 53.15300 37.86200
C  30.52700 54.51300 38.31000
C  30.40000 51.99100 38.72600
C  27.71300 52.86000 36.57600
C  28.31900 53.36100 35.20300
H  27.49000 53.85600 34.08000
N  32.02100 57.35400 38.54400
C  32.63500 56.08100 38.32900
C  34.04400 56.22800 38.21100
C  34.34100 57.60300 38.37000
C  33.00600 58.29200 38.64600
C  34.99700 55.10700 37.99200
C  35.77200 58.24700 38.26800
O  36.78600 57.53000 38.10700
C  36.01900 59.69900 38.28200
N  30.30900 59.90900 38.76500
C  31.51500 60.41400 38.93600
C  31.41500 61.89000 39.28800
C  29.86200 62.16600 39.29900
C  29.31500 60.78500 39.07800
C  32.12500 62.58900 40.56300
C  29.47400 63.28000 38.16400
C  29.55800 64.77400 38.54400
N  28.00300 58.14100 38.67100
C  27.35200 59.36800 38.70100
C  25.95700 59.03300 38.58300
C  25.84600 57.63500 38.48900
C  27.10800 57.09100 38.46600
C  24.83400 60.04000 38.63000
C  24.86100 56.55000 38.52800
O  23.62100 56.44100 38.69400
C  25.63500 55.24400 38.28900
C  25.12700 54.12900 39.18200
O  25.28900 54.03900 40.39900
O  24.29700 53.22400 38.49000
C  23.55100 52.25300 39.31700
H  32.45900 53.91900 37.96600
H  33.62100 60.39800 38.98500
H  27.21000 61.42000 39.18200
H  27.89000 52.99900 38.66900
H  30.44800 52.99800 36.92900
H  29.56800 51.48200 39.21400
H  31.14200 52.32700 39.45000
H  30.81700 51.17000 38.14300
H  26.67900 53.19200 36.66800
H  27.73300 51.77000 36.58300
H  28.90600 52.53200 34.80600
H  29.00200 54.17200 35.45500
H  35.85500 55.44400 37.41000
H  34.57900 54.24900 37.46400
H  35.31300 54.74000 38.96800
H  35.76400 60.07700 39.27300
H  35.48300 60.19700 37.47400
H  37.05100 59.97400 38.06400
H  31.86000 62.47500 38.48300
H  29.57000 62.62700 40.24300
H  31.45700 62.71200 41.41500
H  32.25500 63.57600 40.11900
H  33.07500 62.11000 40.79900
H  28.48400 63.11200 37.74000
H  30.18600 63.02600 37.37800
H  29.62500 64.97400 39.61300
H  28.72900 65.38300 38.18400
H  30.54700 65.18000 38.33000
H  24.92800 60.70900 39.48500
H  23.93700 59.43300 38.75200
H  24.77100 60.71500 37.77700
H  25.35800 54.98200 37.26800
H  24.32900 51.61200 39.73300
H  22.86300 51.65200 38.72200
H  22.95400 52.73800 40.09000

