158

Mg 25.97700 1.52000 28.75200
C  28.09000 1.33200 31.76800
C  23.30400 1.57800 30.89300
C  24.20400 2.06600 26.08400
C  28.84200 1.28400 26.97200
N  25.77200 1.55800 31.06700
C  26.71700 1.64700 32.08300
C  26.04000 1.73100 33.50300
C  24.49600 1.74700 33.12200
C  24.51100 1.60600 31.62000
C  23.60000 0.66900 33.81600
C  26.59100 3.00300 34.16100
C  27.38300 2.89500 35.53900
H  26.98700 3.80700 36.73100
N  24.05200 1.55400 28.51800
C  23.06100 1.57300 29.50300
C  21.86400 1.58100 28.89000
C  22.04700 1.74200 27.50700
C  23.50200 1.84300 27.30600
C  20.61200 1.45900 29.65200
C  21.02900 1.97800 26.44800
O  21.40900 2.29700 25.30500
C  19.59000 1.82100 26.79300
N  26.45000 1.54400 26.76500
C  25.54000 1.92800 25.81300
C  26.17600 1.83500 24.40900
C  27.72400 1.68900 24.78000
C  27.71100 1.42600 26.25900
C  25.54200 0.70600 23.51700
C  28.52600 2.98200 24.35800
C  30.01300 2.78700 24.02600
N  28.05800 1.18700 29.17000
C  29.05300 1.10600 28.30100
C  30.31000 0.74100 29.07200
C  29.95200 0.93000 30.42500
C  28.56700 1.16700 30.43100
C  31.65400 0.48900 28.43700
C  30.50000 0.88500 31.77600
O  31.56400 0.53100 32.22700
C  29.28500 1.23700 32.66600
C  29.13400 0.06100 33.59600
O  28.39000 -0.87800 33.36200
O  29.87300 0.23900 34.68800
C  29.68000 -0.72900 35.74000
H  22.41900 1.67300 31.52500
H  23.65500 2.46700 25.23000
H  29.76000 1.17800 26.39100
H  26.25700 0.87000 34.13500
H  24.11000 2.74500 33.32900
H  23.34100 -0.13400 33.12600
H  22.74800 1.27800 34.11600
H  24.17700 0.30700 34.66700
H  25.78000 3.69300 34.39900
H  27.17100 3.57100 33.43500
H  28.43800 3.11500 35.37500
H  27.19800 1.88800 35.91300
H  20.12600 2.43500 29.62500
H  20.61800 1.30700 30.73100
H  19.90100 0.76500 29.20400
H  18.96800 1.90000 25.90100
H  19.39400 2.58900 27.54100
H  19.59300 0.80600 27.18900
H  25.87600 2.78500 23.96600
H  28.04700 0.86500 24.14400
H  26.24300 -0.04700 23.15700
H  25.07800 1.17600 22.64900
H  24.85400 0.20100 24.19500
H  28.32000 3.81300 25.03300
H  28.09100 3.33500 23.42200
H  30.24000 2.94500 22.97100
H  30.26800 1.76600 24.30900
H  30.56200 3.51500 24.62300
H  31.92700 1.11500 27.58700
H  31.50300 -0.55500 28.16400
H  32.47200 0.49400 29.15700
H  29.33700 2.14200 33.27100
H  28.86600 -0.27500 36.30600
H  30.59400 -0.70800 36.33400
H  29.44400 -1.74800 35.43600
Mg -6.37000 25.35100 26.15500
C  -5.04700 26.88200 29.09100
C  -8.11200 23.26100 28.28600
C  -7.08400 23.43800 23.49100
C  -4.22600 27.21700 24.29500
N  -6.43800 25.09300 28.44000
C  -5.91400 25.87000 29.44200
C  -6.46100 25.49000 30.83100
C  -7.30100 24.20900 30.57100
C  -7.28200 24.17200 29.01000
C  -6.86100 22.90200 31.25600
C  -7.08300 26.60600 31.65500
C  -6.72300 26.73700 33.15000
H  -6.06400 25.60500 33.86500
N  -7.54300 23.71400 25.88100
C  -8.17800 22.99700 26.88500
C  -9.10400 22.11800 26.26400
C  -8.91000 22.20500 24.87000
C  -7.81000 23.14600 24.68700
C  -10.14000 21.28500 27.05500
C  -9.64700 21.55400 23.72500
O  -9.34900 21.83400 22.59600
C  -10.62400 20.46200 24.07200
N  -5.79700 25.29600 24.25200
C  -6.21700 24.50300 23.23200
C  -5.45700 24.61700 21.95400
C  -4.86700 26.10100 22.16500
C  -4.87300 26.13600 23.73400
C  -4.47000 23.49000 21.61500
C  -5.64000 27.23300 21.47200
C  -5.15100 27.85900 20.15800
N  -4.99400 26.84300 26.56100
C  -4.19100 27.55200 25.66600
C  -3.52000 28.65100 26.38500
C  -3.78600 28.37300 27.70800
C  -4.71800 27.30700 27.76200
C  -2.69600 29.75200 25.73400
C  -3.46400 28.76600 29.02800
O  -2.67300 29.60500 29.47300
C  -4.30000 27.83500 29.91500
C  -3.26400 27.13500 30.79100
O  -2.58300 26.20500 30.49600
O  -3.34100 27.77900 31.97000
C  -2.25700 27.52200 32.88400
H  -8.73100 22.59300 28.88900
H  -7.18200 22.68200 22.71000
H  -3.74300 27.85200 23.55000
H  -5.59100 25.24700 31.44100
H  -8.26800 24.58000 30.91200
H  -7.38800 22.05300 30.81900
H  -7.14900 22.90400 32.30700
H  -5.78100 22.79600 31.35300
H  -8.17200 26.58000 31.69700
H  -6.85000 27.48700 31.05700
H  -7.60900 27.04800 33.70400
H  -6.03200 27.57800 33.10700
H  -9.88100 21.40900 28.10600
H  -10.26400 20.24200 26.76200
H  -11.08700 21.80400 26.90300
H  -10.14300 19.71400 24.70300
H  -11.06200 20.15800 23.12200
H  -11.43400 20.82600 24.70500
H  -6.11500 24.76400 21.09800
H  -3.80200 26.21100 21.96100
H  -4.48100 22.81000 22.46700
H  -3.45600 23.74200 21.30300
H  -4.89400 22.97700 20.75300
H  -5.83800 28.05300 22.16300
H  -6.66200 26.88900 21.31400
H  -4.71300 28.83400 20.37200
H  -5.87300 27.85700 19.34100
H  -4.23000 27.36400 19.85100
H  -2.07100 29.30200 24.96300
H  -2.11200 30.35000 26.43400
H  -3.42900 30.32900 25.17100
H  -4.89200 28.47300 30.57100
H  -1.28400 27.89400 32.56300
H  -2.24600 26.49000 33.23200
H  -2.53100 28.11600 33.75600

