158

Mg 35.20300 48.87500 24.93200
C  35.29100 47.35300 28.06500
C  33.84000 51.64100 26.45300
C  35.09600 50.32100 21.84100
C  36.21300 45.92300 23.48400
N  34.70900 49.43600 27.06500
C  34.81300 48.67600 28.13600
C  34.38000 49.37600 29.38600
C  34.01100 50.80600 28.87000
C  34.19600 50.61900 27.36200
C  32.65500 51.28600 29.28600
C  35.48700 49.47300 30.50500
C  34.97900 48.86900 31.90800
H  34.71200 49.90200 33.01600
N  34.52100 50.77100 24.25300
C  33.96900 51.72800 25.06700
C  33.75700 52.84500 24.18600
C  34.11900 52.56100 22.83400
C  34.57800 51.18600 22.92600
C  33.08300 54.12000 24.70700
C  33.87600 53.33200 21.53400
O  34.14900 52.90600 20.41400
C  33.22800 54.67800 21.59700
N  35.60000 48.15500 22.92700
C  35.53400 48.98800 21.82800
C  36.00900 48.22600 20.50300
C  36.57600 46.95500 21.12000
C  36.05600 46.96500 22.61600
C  35.05200 47.93600 19.47600
C  38.13600 46.78000 21.05300
C  38.61700 45.33500 20.86700
N  35.55700 47.00900 25.60200
C  35.89900 45.86500 24.82900
C  36.27500 44.84800 25.83100
C  35.98200 45.39500 27.07300
C  35.52000 46.71700 26.87700
C  36.80400 43.43300 25.65300
C  36.03500 45.05600 28.44700
O  36.40300 44.07500 29.08900
C  35.51300 46.29500 29.12300
C  34.22900 45.90400 29.84200
O  33.22400 45.53500 29.22400
O  34.31700 45.82600 31.19400
C  33.16700 45.34300 32.00200
H  33.65800 52.58300 26.97400
H  35.17000 50.68000 20.81200
H  36.78600 45.05500 23.15000
H  33.43200 49.03000 29.79900
H  34.68700 51.62800 29.10300
H  31.87800 51.08400 28.54900
H  32.63500 52.36100 29.46700
H  32.31800 50.76800 30.18400
H  35.68100 50.53800 30.63400
H  36.44400 49.03700 30.22100
H  35.68900 48.09400 32.19700
H  34.08800 48.26000 31.75300
H  32.26700 54.47000 24.07500
H  33.78800 54.95100 24.74600
H  32.66300 54.06800 25.71100
H  33.90400 55.28800 22.19700
H  32.18800 54.48500 21.85900
H  33.22600 54.96300 20.54500
H  36.86400 48.73800 20.06200
H  35.99800 46.12700 20.71100
H  35.25100 48.69900 18.72300
H  34.01300 48.00900 19.79700
H  35.27700 47.02200 18.92700
H  38.58200 47.10600 21.99300
H  38.55200 47.40400 20.26100
H  37.88700 44.64400 20.44400
H  38.83600 44.92900 21.85400
H  39.49500 45.25800 20.22600
H  37.55300 43.23200 26.41800
H  37.12700 43.33300 24.61700
H  35.93000 42.84400 25.93000
H  36.28700 46.52100 29.85700
H  33.27100 44.31100 32.33500
H  32.20600 45.45000 31.50000
H  33.18400 45.92800 32.92200
Mg 6.82000 54.46500 40.58700
C  6.54200 50.89400 40.46200
C  10.12700 54.09400 39.49200
C  6.97800 57.87900 39.68300
C  3.39600 54.62800 40.81800
N  8.07700 52.70900 40.07800
C  7.83500 51.32900 40.11800
C  9.03300 50.49800 39.73500
C  10.19200 51.55700 39.83100
C  9.42100 52.90600 39.71800
C  11.14200 51.41000 41.09300
C  8.91100 49.87000 38.33700
C  8.61700 50.77500 37.23400
H  7.29400 50.65600 36.54400
N  8.38900 55.81800 39.75800
C  9.66400 55.45100 39.47700
C  10.38300 56.65900 39.03700
C  9.52900 57.76400 39.42000
C  8.21900 57.17500 39.63800
C  11.83700 56.74300 38.57700
C  9.92800 59.20800 39.55400
O  11.09000 59.53800 39.32400
C  8.88800 60.22400 39.76500
N  5.42700 56.03800 40.25900
C  5.70800 57.36500 40.12800
C  4.44800 58.24400 40.26500
C  3.28200 57.13300 40.46900
C  4.08300 55.84000 40.48400
C  4.53700 59.32700 41.37500
C  2.09400 57.10100 39.36000
C  0.64500 57.53100 39.77100
N  5.25200 53.12700 40.85300
C  3.90700 53.35600 40.96300
C  3.23500 52.09500 41.22300
C  4.21500 51.20300 41.03800
C  5.41900 51.80300 40.81100
C  1.79100 51.82000 41.36300
C  4.40300 49.75700 41.13000
O  3.67400 48.81800 41.44400
C  5.96200 49.56400 40.69000
C  5.86400 48.72500 39.46000
O  5.54000 49.08500 38.34900
O  6.16000 47.45100 39.77400
C  5.74500 46.45700 38.81100
H  11.15700 53.94400 39.16300
H  6.83700 58.86500 39.23600
H  2.35200 54.76000 41.11000
H  9.17800 49.70700 40.47000
H  10.80100 51.43600 38.93500
H  10.62500 50.79700 41.83200
H  11.37400 52.40700 41.46700
H  12.11200 50.98700 40.83400
H  8.15400 49.09200 38.23700
H  9.86300 49.40200 38.08700
H  9.34400 50.72000 36.42400
H  8.68000 51.82200 37.53100
H  11.97900 57.20300 37.59900
H  12.27200 55.74500 38.52100
H  12.52000 57.30200 39.21700
H  8.26500 60.50500 38.91600
H  9.26500 61.22700 39.96300
H  8.31700 60.05600 40.67800
H  4.24200 58.75800 39.32600
H  2.79300 57.25900 41.43400
H  5.17400 59.01700 42.20300
H  3.51800 59.35900 41.75900
H  4.97200 60.25600 41.00600
H  2.03400 56.03900 39.12200
H  2.35400 57.64400 38.45100
H  -0.12700 56.79600 39.54400
H  0.35700 58.38100 39.15200
H  0.63700 57.78500 40.83000
H  1.79700 50.89000 41.93200
H  1.21700 51.78700 40.43700
H  1.35400 52.62200 41.95800
H  6.47300 48.96000 41.44000
H  4.98500 46.82100 38.12000
H  5.35400 45.53400 39.24000
H  6.69800 46.16600 38.37000

