158

Mg 48.42200 34.10500 27.43700
C  46.36200 32.62800 29.98900
C  48.38900 36.99300 29.46500
C  49.22800 35.89200 24.78400
C  47.78200 31.28200 25.57500
N  47.58300 34.68700 29.47100
C  47.02800 33.82000 30.36600
C  47.03300 34.39200 31.78400
C  47.21200 35.96500 31.48000
C  47.73900 35.90500 30.02100
C  45.80200 36.74300 31.59300
C  48.22400 33.88300 32.62400
C  48.15500 34.21700 34.12300
H  47.03000 35.10300 34.75500
N  48.93100 36.13300 27.17900
C  48.83600 37.13800 28.12400
C  49.47100 38.35800 27.50600
C  49.67600 38.10500 26.10000
C  49.29900 36.67700 25.95300
C  49.71000 39.62100 28.30000
C  50.04600 39.01000 24.98100
O  50.28900 38.48000 23.90300
C  50.26400 40.43400 25.24400
N  48.57400 33.62200 25.47100
C  49.00100 34.53000 24.52600
C  48.96500 33.84500 23.10100
C  48.83200 32.29800 23.44500
C  48.42400 32.39800 24.93900
C  47.84500 34.48000 22.18300
C  50.04300 31.33200 23.03400
C  51.25300 31.10300 23.93900
N  47.43700 32.27000 27.65000
C  47.19400 31.30600 26.77700
C  46.41700 30.27200 27.44300
C  45.85700 30.88200 28.53300
C  46.58200 32.04200 28.72200
C  46.13100 28.90200 26.96200
C  44.96100 30.67400 29.67400
O  44.26700 29.68700 29.98600
C  45.16700 31.91300 30.63400
C  45.43900 31.38800 31.99800
O  46.47300 30.90800 32.43300
O  44.29700 31.62900 32.61200
C  44.14600 31.22300 34.03800
H  48.50300 37.86500 30.11300
H  49.35500 36.44700 23.85200
H  47.74700 30.44000 24.88100
H  46.09300 34.16500 32.28600
H  47.88500 36.54800 32.10800
H  45.67200 37.27500 30.65100
H  45.89200 37.42300 32.44000
H  44.92100 36.11400 31.72700
H  49.18500 34.26100 32.27600
H  48.32400 32.80300 32.51100
H  49.08000 34.72500 34.39500
H  48.26200 33.29000 34.68600
H  48.75600 39.88800 28.75500
H  50.05400 40.48100 27.72600
H  50.39300 39.38900 29.11800
H  49.40800 40.90400 25.72900
H  50.63500 40.92700 24.34500
H  51.07500 40.54000 25.96500
H  49.91600 33.87000 22.57000
H  47.98800 31.85700 22.91500
H  48.41100 34.69400 21.27600
H  47.47800 35.38900 22.66100
H  47.00600 33.80500 22.01300
H  50.43700 31.53100 22.03800
H  49.48900 30.39300 23.04100
H  52.10300 31.42700 23.33800
H  51.38800 30.09200 24.32300
H  51.06800 31.79000 24.76400
H  46.02300 28.13500 27.72900
H  46.88900 28.58400 26.24500
H  45.23200 28.92800 26.34600
H  44.26400 32.51900 30.56100
H  43.95900 30.15200 33.95900
H  43.21300 31.62300 34.43500
H  44.98300 31.51500 34.67300
Mg -5.27500 25.32600 25.39700
C  -3.67000 26.83300 28.32100
C  -6.96300 23.37000 27.63500
C  -6.72500 23.81400 22.82800
C  -3.24700 27.20800 23.38500
N  -5.14100 25.02200 27.61500
C  -4.51600 25.81900 28.64300
C  -5.06100 25.44700 30.07800
C  -5.91300 24.17100 29.75800
C  -6.04700 24.25700 28.23400
C  -5.34500 22.72600 30.27900
C  -5.85500 26.68900 30.72000
C  -5.68600 27.01600 32.23600
H  -5.36600 25.77000 33.12500
N  -6.65900 23.74700 25.21300
C  -7.27800 23.15900 26.29800
C  -8.14300 22.16700 25.71300
C  -8.00800 22.19600 24.30300
C  -7.11900 23.33100 24.03500
C  -8.93600 21.23700 26.63200
C  -8.71600 21.24100 23.21100
O  -8.59100 21.44300 22.04300
C  -9.59400 20.24500 23.66900
N  -4.93000 25.38900 23.45000
C  -5.81300 24.77200 22.54000
C  -5.46100 25.26000 21.11300
C  -4.52000 26.41500 21.33400
C  -4.09500 26.28100 22.78600
C  -4.81700 24.14100 20.21000
C  -4.86000 27.76200 20.72700
C  -4.45400 27.86600 19.20700
N  -3.69200 26.75200 25.72900
C  -3.02900 27.45900 24.80800
C  -2.21700 28.42800 25.55400
C  -2.41600 28.20300 26.90800
C  -3.36000 27.19400 26.97800
C  -1.30800 29.50600 24.96800
C  -1.98300 28.62800 28.25100
O  -1.05900 29.35600 28.71100
C  -2.83100 27.81600 29.10900
C  -1.96800 27.11700 30.10300
O  -1.02900 26.39300 29.82400
O  -2.25300 27.53100 31.34700
C  -1.51800 26.87600 32.43800
H  -7.48700 22.85200 28.44200
H  -7.22200 23.47500 21.91600
H  -2.70700 27.95300 22.79800
H  -4.18800 25.26100 30.70300
H  -6.92200 24.24700 30.16400
H  -5.48700 21.93600 29.54200
H  -5.95200 22.40200 31.12400
H  -4.31500 22.86600 30.60700
H  -6.90900 26.65500 30.44300
H  -5.38900 27.59000 30.32300
H  -6.62300 27.47000 32.55500
H  -4.85800 27.70900 32.38300
H  -8.60200 21.30100 27.66800
H  -9.08700 20.20300 26.32100
H  -9.90100 21.73600 26.72100
H  -8.96300 19.54400 24.21600
H  -10.13000 19.81500 22.82300
H  -10.28400 20.78000 24.32100
H  -6.38000 25.51800 20.58600
H  -3.58900 26.18400 20.81500
H  -5.19700 23.15100 20.46400
H  -3.75100 24.17800 20.43000
H  -4.97000 24.36400 19.15400
H  -4.52500 28.57600 21.37100
H  -5.94700 27.79100 20.79800
H  -4.42800 26.84700 18.82000
H  -3.48300 28.35700 19.26900
H  -5.11000 28.52800 18.64200
H  -1.89800 30.08900 24.26000
H  -0.45000 29.07700 24.45100
H  -1.00200 30.16600 25.78000
H  -3.51200 28.39100 29.73700
H  -2.01800 27.05500 33.39000
H  -0.54200 27.35400 32.52800
H  -1.47100 25.80300 32.25400

