158

Mg 35.63300 1.75100 29.08000
C  33.60500 2.83700 31.65100
C  38.18700 1.30800 31.30900
C  37.70400 1.31300 26.61600
C  32.96200 2.24100 26.83500
N  35.83600 2.27200 31.21700
C  34.88900 2.54000 32.14300
C  35.39700 2.32300 33.57500
C  36.90500 2.11000 33.31800
C  37.00100 1.92000 31.84500
C  37.72600 3.38000 33.75000
C  34.69100 1.20300 34.40800
C  34.05800 1.59600 35.77400
H  34.64600 2.79000 36.50400
N  37.62500 1.16800 28.93500
C  38.46900 0.95900 29.98900
C  39.72200 0.59200 29.54500
C  39.66100 0.76200 28.09100
C  38.28500 1.05400 27.81800
C  40.93700 0.26800 30.49700
C  40.70200 0.48500 27.00800
O  40.48800 0.74000 25.88200
C  42.07300 -0.13800 27.32900
N  35.31500 1.83800 26.99800
C  36.42300 1.64900 26.19100
C  36.04700 1.75900 24.65800
C  34.52000 1.91000 24.77300
C  34.19000 1.92300 26.27100
C  36.75600 2.87600 23.83200
C  33.71400 0.83800 23.98600
C  33.06400 1.42800 22.71000
N  33.65600 2.47500 29.14500
C  32.66200 2.54200 28.21100
C  31.54200 3.18200 28.75600
C  31.80700 3.28100 30.12000
C  33.15500 2.77700 30.30400
C  30.24300 3.56400 27.99900
C  31.27500 3.62000 31.40600
O  30.11600 3.86100 31.75600
C  32.43200 3.36700 32.52200
C  32.67600 4.60000 33.34000
O  33.58300 5.42100 33.15600
O  31.69700 4.66200 34.32000
C  31.86400 5.89400 35.08900
H  38.89700 1.06600 32.10300
H  38.36400 1.17900 25.75700
H  32.24200 2.44700 26.04100
H  35.24000 3.20600 34.19500
H  37.33700 1.20700 33.74700
H  38.31500 3.63700 32.87000
H  38.46000 3.18500 34.53200
H  37.11300 4.27000 33.89000
H  35.43100 0.42300 34.58700
H  33.85500 0.84500 33.80800
H  34.27800 0.74500 36.41900
H  33.01400 1.69100 35.47400
H  41.18600 -0.79200 30.46000
H  40.71500 0.44700 31.54900
H  41.71100 0.94300 30.13200
H  42.08600 -0.78100 28.20900
H  42.76000 0.68100 27.54200
H  42.35300 -0.77400 26.49000
H  36.23300 0.76800 24.24400
H  34.23500 2.89700 24.41100
H  36.09100 3.45300 23.19000
H  37.40200 2.30100 23.16800
H  37.29400 3.64800 24.38300
H  33.02800 0.39400 24.70700
H  34.42900 0.08700 23.65000
H  33.37500 2.45300 22.50800
H  31.98300 1.40200 22.84600
H  33.40300 0.76800 21.91100
H  30.37900 4.23300 27.15000
H  29.42400 4.05400 28.52600
H  29.81700 2.71800 27.45800
H  32.08100 2.63100 33.24500
H  30.99900 6.01800 35.74000
H  31.98600 6.82600 34.53700
H  32.64100 5.54100 35.76700
Mg 0.72800 42.97100 26.44400
C  3.13000 42.45600 28.85600
C  -1.58000 41.78600 28.59000
C  -1.37800 42.71500 23.84700
C  3.38900 43.20200 23.97800
N  0.74800 42.51000 28.55300
C  1.83200 42.37900 29.39400
C  1.40900 42.20000 30.91100
C  -0.16100 41.81200 30.77600
C  -0.34100 41.97600 29.21500
C  -0.48500 40.29600 31.23700
C  1.66200 43.52600 31.64600
C  1.86700 43.52000 33.20200
H  1.45000 42.33000 34.07300
N  -1.32600 42.61900 26.32500
C  -2.09900 42.05900 27.29800
C  -3.42100 41.84900 26.75900
C  -3.40400 42.17700 25.38000
C  -1.97700 42.55500 25.12500
C  -4.58900 41.37300 27.56600
C  -4.50900 42.24500 24.33800
O  -4.31400 42.59700 23.17000
C  -5.90700 41.84200 24.72700
N  0.97800 42.80200 24.16900
C  -0.09600 42.90800 23.39300
C  0.28400 43.07700 21.87900
C  1.78300 43.52700 22.04200
C  2.06500 43.13500 23.50400
C  0.03000 41.85000 21.04100
C  2.16500 45.04200 21.68500
C  2.47400 46.01800 22.77600
N  2.78600 42.93700 26.35800
C  3.74000 43.06200 25.35700
C  5.04300 43.16100 25.89400
C  4.87200 42.85900 27.26700
C  3.48000 42.81600 27.49700
C  6.31000 43.45500 25.13500
C  5.55600 42.65700 28.52600
O  6.75900 42.68300 28.76600
C  4.39600 42.56300 29.62200
C  4.73200 41.41400 30.54700
O  4.78800 40.22500 30.31400
O  5.02300 42.00900 31.79000
C  5.19600 41.09300 32.94200
H  -2.43300 41.41700 29.16400
H  -2.06200 42.80800 23.00000
H  4.25300 43.33900 23.32400
H  2.04000 41.49200 31.44800
H  -0.85300 42.46700 31.30500
H  0.34900 39.83900 31.76900
H  -0.81100 39.74700 30.35300
H  -1.30400 40.50400 31.92600
H  0.79200 44.15800 31.46700
H  2.44600 44.07300 31.12300
H  1.45400 44.42400 33.64900
H  2.94900 43.54600 33.32700
H  -5.27400 42.20300 27.73400
H  -4.28200 41.03500 28.55600
H  -5.13000 40.56700 27.06900
H  -5.98600 40.78600 24.98700
H  -6.46900 42.09400 23.82800
H  -6.19800 42.50600 25.54100
H  -0.39100 43.85000 21.51100
H  2.40200 42.88900 21.41200
H  0.36000 41.09700 21.75600
H  0.65400 41.87400 20.14800
H  -0.99800 41.55600 20.83400
H  1.38100 45.53300 21.10800
H  3.01900 44.98900 21.01000
H  3.46100 46.47000 22.69100
H  2.47800 45.67300 23.81000
H  1.72500 46.80500 22.69300
H  6.58700 44.50900 25.09700
H  6.07500 43.10900 24.12800
H  7.13400 42.90300 25.58700
H  4.32400 43.54200 30.09700
H  6.24500 40.93700 33.19600
H  4.69900 40.13200 32.80300
H  4.86600 41.55900 33.87000

