158

Mg 46.83500 17.48900 28.64000
C  45.31500 16.93100 31.74800
C  49.26200 19.40600 30.02800
C  48.02800 17.87700 25.54600
C  44.28000 15.45000 27.20300
N  47.13400 18.11500 30.63000
C  46.45800 17.73700 31.76600
C  47.23400 18.30900 32.99300
C  48.36100 19.25500 32.36500
C  48.24800 18.93400 30.91000
C  48.17900 20.78700 32.70700
C  47.87500 17.16500 33.90000
C  47.67000 17.20800 35.44000
H  47.12700 18.54600 36.00300
N  48.46200 18.60700 27.86300
C  49.35500 19.30100 28.60700
C  50.41000 19.75100 27.71700
C  50.04800 19.33200 26.35800
C  48.81700 18.54000 26.54000
C  51.62600 20.60400 28.23400
C  50.63800 19.60900 25.04900
O  50.22800 19.10100 24.04900
C  51.86500 20.42100 25.05300
N  46.19700 16.77000 26.69500
C  46.81600 17.17600 25.59500
C  45.99900 16.82500 24.33200
C  45.05200 15.74400 24.86000
C  45.20700 15.95900 26.32100
C  45.27600 17.98500 23.59300
C  45.35000 14.31600 24.30200
C  44.16000 13.67000 23.56700
N  45.06200 16.48500 29.29400
C  44.15800 15.75500 28.60000
C  43.15300 15.23200 29.50400
C  43.58000 15.66900 30.86500
C  44.76100 16.38000 30.62600
C  41.92800 14.47800 29.04100
C  43.21600 15.71700 32.22100
O  42.21200 15.37800 32.80100
C  44.40000 16.59000 32.88400
C  43.78900 17.79300 33.55100
O  43.64900 18.92100 33.04000
O  43.35700 17.46500 34.79100
C  42.58700 18.58000 35.44300
H  50.04900 20.03800 30.44400
H  48.30700 18.09400 24.51300
H  43.42900 14.94000 26.74600
H  46.52100 18.85100 33.61400
H  49.31600 18.98300 32.81300
H  47.14000 20.97700 32.97400
H  48.59400 21.39700 31.90500
H  48.79000 20.96000 33.59300
H  48.95400 17.15600 33.74100
H  47.51200 16.20700 33.52600
H  48.57400 16.80200 35.89500
H  46.94000 16.43100 35.66500
H  52.59900 20.48200 27.75900
H  51.81600 20.38400 29.28500
H  51.29500 21.63900 28.15100
H  52.21100 20.66300 24.04700
H  52.66600 19.82600 25.49300
H  51.67800 21.33100 25.62100
H  46.73700 16.38300 23.66200
H  44.00400 16.01600 24.73300
H  45.17600 18.83700 24.26500
H  44.36900 17.58700 23.14000
H  45.83300 18.39100 22.74900
H  45.57500 13.63700 25.12500
H  46.20500 14.26700 23.62700
H  44.59400 13.47300 22.58600
H  43.26800 14.29600 23.52200
H  44.00900 12.65800 23.94100
H  42.19400 13.42400 28.96000
H  41.45800 14.89900 28.15200
H  41.21600 14.57400 29.86000
H  44.83500 15.87400 33.58100
H  41.56300 18.24300 35.28200
H  42.59100 19.58000 35.00900
H  42.93200 18.68500 36.47200
Mg -11.72500 38.89500 42.17300
C  -10.26600 35.96600 40.98000
C  -9.33200 40.73600 40.49900
C  -13.52200 41.64700 42.66300
C  -14.67100 36.91200 42.94500
N  -10.11000 38.40500 40.89900
C  -9.54400 37.18200 40.73400
C  -8.17700 37.23700 40.04200
C  -7.76900 38.72900 40.06400
C  -9.13600 39.34000 40.57100
C  -6.57200 39.17900 41.03700
C  -8.46600 36.73800 38.58400
C  -7.45800 35.68800 38.00400
H  -6.39000 36.24700 37.01600
N  -11.45400 40.89700 41.68100
C  -10.38100 41.48300 40.99000
C  -10.45300 42.91100 41.09900
C  -11.65100 43.17200 41.82800
C  -12.32100 41.87100 42.03300
C  -9.43800 43.92000 40.51700
C  -12.20000 44.51900 42.35800
O  -11.55600 45.43900 42.00700
C  -13.37300 44.74400 43.25500
N  -13.83500 39.19700 42.64700
C  -14.19800 40.47200 42.97700
C  -15.65700 40.51900 43.40400
C  -16.11800 38.98000 43.35400
C  -14.81100 38.27200 42.94700
C  -15.80300 41.16200 44.79700
C  -17.32200 38.59300 42.48300
C  -17.15500 38.07400 41.03400
N  -12.32000 36.84400 42.15600
C  -13.51700 36.22800 42.47600
C  -13.34300 34.80000 42.32400
C  -12.03500 34.64100 41.81000
C  -11.53800 35.88000 41.61300
C  -14.40400 33.76800 42.70100
C  -11.00700 33.66600 41.36600
O  -11.03800 32.45300 41.37900
C  -9.74400 34.49400 40.91700
C  -8.76500 34.19600 42.03700
O  -7.71000 33.53700 41.97800
O  -9.16400 34.89100 43.10300
C  -8.13200 34.79800 44.16100
H  -8.42600 41.31000 40.29100
H  -14.11200 42.51300 42.97200
H  -15.54600 36.28200 43.11700
H  -7.48800 36.48000 40.41700
H  -7.61200 39.07600 39.04300
H  -5.69700 39.43900 40.44100
H  -6.22200 38.28000 41.54500
H  -6.75100 40.06100 41.65100
H  -8.50100 37.60500 37.92400
H  -9.47300 36.32700 38.50500
H  -8.04600 34.90400 37.52700
H  -6.92500 35.09600 38.74600
H  -8.41800 43.54000 40.57800
H  -9.40500 44.86300 41.06200
H  -9.65800 44.14100 39.47300
H  -13.15400 45.77100 43.54700
H  -13.33700 44.06300 44.10600
H  -14.34800 44.81000 42.77300
H  -16.15100 41.11700 42.63800
H  -16.36300 38.73700 44.38700
H  -14.95500 40.99000 45.46000
H  -16.67300 40.70200 45.26300
H  -15.93700 42.24100 44.72400
H  -17.92600 39.48900 42.33900
H  -17.79400 37.86200 43.13900
H  -17.68800 37.13000 41.14900
H  -16.16600 37.85100 40.63600
H  -17.75400 38.68000 40.35400
H  -13.94100 32.84100 42.36200
H  -15.36500 33.98000 42.23400
H  -14.63100 33.66900 43.76300
H  -9.39600 34.17600 39.93500
H  -8.28300 35.69600 44.75900
H  -7.12400 34.86100 43.75100
H  -8.14800 33.87700 44.74400

