158

Mg 28.23500 55.84800 39.98900
C  25.95500 53.33200 39.24600
C  30.69400 53.61900 39.02300
C  30.41900 58.34700 39.84700
C  25.61600 58.03300 40.19200
N  28.31300 53.72400 39.19500
C  27.25600 52.88000 39.03100
C  27.66700 51.46100 38.69500
C  29.24800 51.54100 38.90500
C  29.45200 53.02900 39.12700
C  29.90100 50.74000 40.11700
C  27.19300 51.10700 37.29300
C  27.92500 51.68800 36.11000
H  27.10300 52.33000 34.91200
N  30.29500 55.94500 39.68600
C  31.13300 54.89200 39.37200
C  32.47500 55.31700 39.41700
C  32.45900 56.69100 39.70000
C  31.06100 57.06300 39.71900
C  33.70600 54.41300 39.20600
C  33.60400 57.56000 39.88500
O  34.79000 57.17100 39.71400
C  33.50000 59.09000 40.20600
N  28.05100 57.94300 39.86700
C  29.06700 58.76600 40.03000
C  28.58800 60.24600 40.18400
C  27.06300 60.10900 40.48400
C  26.84600 58.64100 40.07700
C  29.39200 61.15100 41.15000
C  26.17100 61.11300 39.70900
C  25.27300 62.06500 40.53900
N  26.21600 55.77900 39.87900
C  25.28300 56.78100 39.88700
C  23.95100 56.22100 39.86100
C  24.15800 54.88000 39.62700
C  25.58200 54.68300 39.46100
C  22.64200 56.98100 40.22600
C  23.54500 53.58900 39.50100
O  22.36900 53.22000 39.60000
C  24.68100 52.52600 39.23100
C  24.65200 51.50900 40.27300
O  24.13900 50.39500 40.08200
O  25.51500 51.79200 41.34000
C  25.92300 50.68000 42.19000
H  31.49700 52.91400 38.79600
H  31.16500 59.14100 39.92300
H  24.79200 58.70900 40.42700
H  27.16200 50.82800 39.42400
H  29.62300 51.12800 37.96900
H  29.14700 49.95400 40.15100
H  29.80500 51.38500 40.99000
H  30.91100 50.42500 39.85500
H  26.11700 51.13000 37.12200
H  27.49300 50.06300 37.21400
H  28.55600 50.86500 35.77400
H  28.57200 52.51300 36.40600
H  33.90700 54.39600 38.13500
H  33.41900 53.45600 39.64300
H  34.47400 54.78500 39.88400
H  32.81000 59.36500 41.00300
H  33.24900 59.69000 39.33100
H  34.50600 59.37700 40.51500
H  28.66300 60.60600 39.15800
H  26.98100 60.20400 41.56700
H  30.27000 60.64600 41.55300
H  28.81300 61.55700 41.98000
H  29.71700 62.04400 40.61600
H  25.55300 60.58200 38.98400
H  26.86200 61.65100 39.06000
H  25.93100 62.74800 41.07700
H  24.64800 61.52700 41.25100
H  24.68700 62.62500 39.81000
H  22.33000 57.59600 39.38200
H  22.91700 57.59000 41.08700
H  21.84100 56.30000 40.51500
H  24.46100 52.15800 38.22900
H  27.00400 50.67700 42.32400
H  25.73600 49.65900 41.86000
H  25.48900 50.69800 43.19000
Mg -10.53500 39.15200 39.25400
C  -9.99800 35.73800 38.64700
C  -7.06700 39.68400 38.43400
C  -11.13900 42.41800 39.09900
C  -13.92500 38.37400 39.65000
N  -8.81700 37.87900 38.51100
C  -8.90500 36.50700 38.44400
C  -7.48300 35.95900 38.01000
C  -6.50700 37.23500 38.31100
C  -7.54300 38.28700 38.42900
C  -5.80700 37.07900 39.72000
C  -7.40500 35.39400 36.50600
C  -7.68200 36.44500 35.33600
H  -8.70400 36.14400 34.27500
N  -9.27600 40.84400 38.90500
C  -7.92400 40.82600 38.53500
C  -7.48700 42.14300 38.39700
C  -8.62000 42.97100 38.51600
C  -9.74400 42.12200 38.88800
C  -6.12000 42.62500 37.91600
C  -8.65300 44.49800 38.31600
O  -7.61400 45.19500 38.08300
C  -9.96200 45.32400 38.51300
N  -12.31200 40.17700 39.49300
C  -12.22800 41.56800 39.37000
C  -13.63500 42.13000 39.36800
C  -14.56400 40.88600 39.72600
C  -13.52300 39.75000 39.69600
C  -13.86300 43.35100 40.21400
C  -15.78400 40.80100 38.70400
C  -17.09200 40.04700 38.96600
N  -11.75900 37.42900 39.18100
C  -13.10200 37.23100 39.32800
C  -13.59800 35.88100 39.22700
C  -12.36800 35.21400 39.05600
C  -11.30100 36.20800 38.94500
C  -14.99700 35.37100 39.47300
C  -11.71100 33.85300 38.92200
O  -12.09300 32.68300 39.13200
C  -10.27200 34.23800 38.45400
C  -9.25800 33.51100 39.29500
O  -9.07400 33.60500 40.49700
O  -8.43400 32.73700 38.43000
C  -7.27800 32.03700 39.13300
H  -5.99500 39.78300 38.61600
H  -11.42000 43.47100 39.02500
H  -14.96200 38.16800 39.92500
H  -7.17600 35.12200 38.63800
H  -5.84400 37.49700 37.48600
H  -6.03500 37.87800 40.42500
H  -4.72100 37.00200 39.65900
H  -6.20700 36.20800 40.23900
H  -8.03700 34.50700 36.48300
H  -6.39800 34.98000 36.56700
H  -6.66100 36.71800 35.07100
H  -8.00600 37.38100 35.79000
H  -5.45200 41.78600 38.11000
H  -5.85900 43.49300 38.52200
H  -6.02100 42.93100 36.87400
H  -10.26900 45.44000 39.55300
H  -10.67300 44.84000 37.84300
H  -9.69200 46.31400 38.14900
H  -13.88800 42.43800 38.35400
H  -14.91500 40.94200 40.75600
H  -14.73700 43.25100 40.85800
H  -14.04800 44.18200 39.53400
H  -13.02500 43.60700 40.86200
H  -15.31900 40.53000 37.75700
H  -16.17900 41.81700 38.71800
H  -17.38600 39.39100 38.14600
H  -17.92500 40.72800 39.13900
H  -17.00700 39.46900 39.88600
H  -15.23100 34.75800 38.60200
H  -15.77200 36.13000 39.58400
H  -15.04800 34.78700 40.39200
H  -10.28500 33.98600 37.39400
H  -7.48700 30.98000 39.29800
H  -6.95600 32.52100 40.05500
H  -6.33100 32.21900 38.62400

