158

Mg 43.45900 5.73300 47.17300
C  41.59800 8.78500 46.60500
C  40.60700 4.02000 46.43400
C  45.36800 2.95400 46.84200
C  46.36200 7.69800 46.78300
N  41.38600 6.35400 46.68600
C  40.88000 7.59200 46.43400
C  39.36300 7.49300 46.14100
C  39.03600 5.96100 46.20500
C  40.39700 5.38700 46.46900
C  37.91800 5.49100 47.22000
C  38.85000 8.34000 44.86400
C  39.73300 8.14100 43.56800
H  39.04100 8.47000 42.28300
N  43.04700 3.72500 46.80300
C  41.76600 3.21800 46.52500
C  41.87400 1.75100 46.35800
C  43.24400 1.37600 46.61500
C  43.95300 2.65800 46.82300
C  40.66900 0.86600 46.20400
C  43.71300 -0.00000 46.50700
O  42.97900 -0.90600 46.25200
C  45.16900 -0.34000 46.71800
N  45.54500 5.40800 46.76700
C  46.09400 4.16600 46.73100
C  47.61600 4.17800 46.68500
C  47.97800 5.64400 46.94400
C  46.54600 6.31900 46.76200
C  48.29400 3.12800 47.67700
C  49.10400 6.34500 46.09400
C  50.34600 5.46800 45.70700
N  43.90000 7.80800 47.04200
C  45.12800 8.43600 46.91500
C  44.90500 9.88600 46.97500
C  43.51700 10.00400 46.91700
C  42.96900 8.74200 46.86400
C  46.00200 10.97300 46.84000
C  42.46600 11.02600 46.83400
O  42.47400 12.23100 46.86000
C  41.14300 10.19500 46.58200
C  40.26400 10.54100 47.71400
O  40.29500 9.96600 48.79300
O  39.43800 11.68100 47.43000
C  38.46900 11.93000 48.53100
H  39.77600 3.35600 46.18500
H  46.02800 2.08800 46.75700
H  47.25500 8.32200 46.70700
H  38.86800 7.99700 46.97100
H  38.70900 5.64400 45.21500
H  37.57800 6.36000 47.78300
H  38.31200 4.76000 47.92600
H  37.07900 5.03800 46.69100
H  38.84600 9.34700 45.28200
H  37.79800 8.15400 44.64600
H  40.04200 7.09900 43.49000
H  40.62800 8.76200 43.55700
H  40.87800 0.24300 45.33400
H  39.80400 1.44900 45.89000
H  40.47400 0.14700 47.00000
H  45.87200 0.06100 45.98700
H  45.31800 -1.41900 46.77000
H  45.38400 0.07300 47.70400
H  47.89400 3.84900 45.68400
H  48.14800 5.73100 48.01700
H  49.23800 3.49000 48.08400
H  48.48500 2.17000 47.19400
H  47.69000 2.92500 48.56100
H  49.40700 7.22900 46.65600
H  48.64800 6.61700 45.14200
H  50.45800 5.57700 44.62800
H  50.21900 4.39900 45.87700
H  51.23300 5.83100 46.22700
H  46.70100 10.71800 46.04300
H  46.56800 11.03100 47.77000
H  45.57300 11.93900 46.57500
H  40.59600 10.51300 45.69400
H  37.70700 11.15300 48.59400
H  37.84400 12.82300 48.50800
H  39.01000 11.98700 49.47500
Mg 10.02800 48.35700 26.31100
C  8.05400 47.89100 29.25700
C  12.69000 49.20100 28.44300
C  11.84900 48.75800 23.61800
C  7.14700 47.93000 24.49600
N  10.34000 48.35600 28.56500
C  9.40700 48.20500 29.62900
C  9.99300 48.52700 30.99800
C  11.46600 48.91300 30.68400
C  11.50100 48.87200 29.10700
C  11.92900 50.20300 31.30800
C  9.85800 47.39000 32.03800
C  11.02000 47.17000 33.04900
H  10.62200 46.67000 34.49300
N  11.98000 48.91600 26.08600
C  12.92800 49.06200 27.04000
C  14.23300 49.36600 26.39100
C  14.03100 49.33500 25.01400
C  12.56800 48.96400 24.83800
C  15.55400 49.73200 27.04200
C  14.95100 49.68600 23.85600
O  14.62700 49.67200 22.66200
C  16.40700 49.98900 24.12300
N  9.51900 48.49500 24.29400
C  10.49000 48.44900 23.34200
C  10.00200 48.15400 21.90400
C  8.48100 47.75000 22.32200
C  8.32300 48.23100 23.79100
C  10.09400 49.37800 20.87800
C  8.14600 46.22300 22.05200
C  8.71100 45.20600 23.03600
N  8.01700 47.96400 26.78400
C  6.95000 47.81400 25.86700
C  5.73600 47.51500 26.57600
C  6.09300 47.42400 27.96400
C  7.44800 47.81500 28.00400
C  4.37000 47.40400 25.90300
C  5.62400 47.20400 29.33100
O  4.57200 46.87800 29.73500
C  6.90000 47.42700 30.20200
C  7.28800 46.06800 30.74700
O  7.85100 45.16100 30.11900
O  6.85800 46.09400 32.02000
C  7.27700 44.93400 32.81900
H  13.57400 49.38200 29.05700
H  12.48400 48.87400 22.73700
H  6.23000 47.70700 23.94700
H  9.47100 49.36100 31.46800
H  12.14500 48.10700 30.96200
H  11.14400 50.65500 31.91400
H  12.26200 50.97400 30.61200
H  12.78700 50.01000 31.95200
H  9.79700 46.43300 31.52000
H  8.94300 47.55300 32.60700
H  11.64300 48.05900 33.14700
H  11.69100 46.39400 32.68100
H  16.39300 49.06500 26.84300
H  15.40000 49.74800 28.12000
H  15.72000 50.76700 26.74300
H  16.84900 49.14400 24.65100
H  16.47600 50.86900 24.76300
H  17.00300 50.11900 23.22000
H  10.55400 47.32400 21.46400
H  7.87900 48.36500 21.65400
H  10.48400 49.08200 19.90400
H  10.86600 50.05200 21.25000
H  9.16400 49.90100 20.65600
H  8.58600 45.89400 21.11100
H  7.07300 46.04600 21.98200
H  9.20800 45.54700 23.94400
H  9.43600 44.51500 22.60700
H  7.87700 44.54400 23.27200
H  4.27000 48.22300 25.19100
H  3.74000 47.51700 26.78500
H  4.21800 46.42300 25.45100
H  6.67300 48.18600 30.95100
H  7.72700 45.32200 33.73300
H  7.99300 44.19200 32.46600
H  6.43300 44.31600 33.12600

