158

Mg 47.65600 16.45300 28.77200
C  45.62200 15.98000 31.78100
C  49.79100 18.20600 30.72600
C  49.22100 17.28900 25.92800
C  45.02300 15.08200 26.89800
N  47.62500 17.06500 31.09100
C  46.78500 16.76000 32.05400
C  47.36500 17.20600 33.41900
C  48.66300 18.01400 33.01000
C  48.68800 17.85700 31.46600
C  48.81200 19.42800 33.52600
C  47.57900 15.98200 34.33700
C  47.91000 16.19400 35.80900
H  47.70200 17.63900 36.52000
N  49.34600 17.42500 28.37500
C  50.14300 18.18300 29.29900
C  51.35400 18.50700 28.64000
C  51.14100 18.21500 27.29100
C  49.81800 17.59700 27.13800
C  52.51300 19.14100 29.33700
C  52.09200 18.38100 26.01400
O  51.84100 17.96700 24.91200
C  53.47600 18.75600 26.22700
N  47.10900 16.29700 26.58500
C  47.97100 16.67800 25.61200
C  47.32200 16.39000 24.19600
C  46.14600 15.42300 24.53100
C  46.06400 15.57200 26.09100
C  46.76700 17.68500 23.59700
C  46.44800 13.93400 24.23700
C  45.73300 13.10600 23.13200
N  45.76800 15.68000 29.18900
C  44.82700 15.09400 28.28000
C  43.64800 14.62900 29.02700
C  43.96100 14.92500 30.33500
C  45.25000 15.49800 30.43700
C  42.37200 14.04200 28.34600
C  43.40100 14.85300 31.64000
O  42.36200 14.38000 32.08700
C  44.49000 15.46700 32.58500
C  43.88200 16.62800 33.31500
O  43.71300 17.71700 32.80000
O  43.61700 16.36800 34.66700
C  42.97700 17.49800 35.35700
H  50.54100 18.68100 31.36200
H  49.70500 17.48900 24.97000
H  44.18100 14.68700 26.32600
H  46.62200 17.83500 33.90800
H  49.51000 17.42000 33.35300
H  48.69700 20.19600 32.76200
H  49.79300 19.61400 33.96400
H  48.10000 19.51300 34.34700
H  48.32900 15.26800 33.99700
H  46.62900 15.44600 34.33000
H  48.88000 15.71900 35.95800
H  47.21200 15.52000 36.30500
H  52.36300 19.13600 30.41600
H  52.75900 20.15100 29.00900
H  53.38900 18.52300 29.13700
H  53.85100 17.84700 26.69800
H  53.46500 19.63300 26.87400
H  54.03800 19.08300 25.35200
H  48.02400 15.94300 23.49300
H  45.14700 15.65600 24.16200
H  47.67000 18.14700 23.19800
H  46.33100 18.32400 24.36500
H  46.09800 17.53900 22.75000
H  46.27400 13.29500 25.10200
H  47.52200 13.98400 24.05900
H  46.48400 12.73400 22.43400
H  44.79700 13.50100 22.73900
H  45.39500 12.11200 23.42500
H  42.57600 13.07400 27.88900
H  41.99200 14.74000 27.60100
H  41.58800 14.00800 29.10300
H  44.89500 14.74400 33.29400
H  42.62700 17.02500 36.27500
H  42.14200 17.89200 34.77900
H  43.63500 18.28600 35.72200
Mg 49.01300 34.60000 27.57700
C  47.17700 33.55900 30.24200
C  49.70000 37.45800 29.38500
C  50.92900 35.81600 24.98000
C  47.81500 32.18000 25.63300
N  48.64900 35.26000 29.62700
C  47.95100 34.62700 30.62600
C  48.21900 35.20000 31.98100
C  48.55800 36.66400 31.51000
C  49.01700 36.49500 30.06600
C  47.34100 37.68400 31.69300
C  49.44000 34.45600 32.71200
C  49.44500 34.64800 34.28200
H  48.50400 35.62800 34.95600
N  50.22500 36.32700 27.27300
C  50.33100 37.41500 28.16900
C  51.20200 38.38000 27.58500
C  51.66800 37.83500 26.36300
C  50.94000 36.62500 26.12500
C  51.43700 39.72000 28.22800
C  52.76100 38.37000 25.33700
O  53.01900 37.87100 24.25000
C  53.57300 39.58100 25.68400
N  49.23900 34.13200 25.52900
C  50.10800 34.75000 24.71900
C  50.36000 33.92200 23.47400
C  49.40200 32.70100 23.61600
C  48.74500 33.01300 24.99000
C  50.27000 34.74900 22.08900
C  50.17800 31.34400 23.68700
C  49.30400 30.14400 23.15300
N  47.76800 33.00500 27.89500
C  47.29000 32.09700 26.94300
C  46.36700 31.17400 27.52900
C  46.34800 31.65600 28.89000
C  47.13200 32.80700 29.05000
C  45.81200 29.89900 26.92800
C  45.75800 31.45300 30.19300
O  44.95000 30.61100 30.58700
C  46.16300 32.68400 31.08900
C  46.68100 32.04200 32.33900
O  47.47700 31.15500 32.37300
O  46.26000 32.74000 33.44600
C  46.65900 32.08300 34.70400
H  49.94200 38.29200 30.04800
H  51.66500 36.01400 24.19800
H  47.40400 31.43100 24.95200
H  47.34500 35.15700 32.63000
H  49.36400 37.08800 32.10900
H  46.59300 37.24700 32.35400
H  46.93200 37.95200 30.71900
H  47.69100 38.65000 32.05700
H  50.38500 34.90500 32.40700
H  49.48800 33.45300 32.28800
H  50.44700 34.98700 34.54700
H  49.36800 33.65000 34.71400
H  52.45300 39.78200 28.61800
H  50.86500 39.97000 29.12100
H  51.22200 40.51800 27.51700
H  52.87300 40.36200 25.98200
H  54.21600 39.86100 24.84900
H  54.06400 39.12700 26.54500
H  51.39400 33.57600 23.48700
H  48.58300 32.78100 22.90100
H  51.24100 35.01800 21.67300
H  49.75600 35.70200 22.21000
H  49.60800 34.26200 21.37300
H  50.53200 31.24300 24.71300
H  51.00800 31.30400 22.98200
H  49.87900 29.62500 22.38700
H  48.37200 30.45700 22.68100
H  49.04200 29.44400 23.94600
H  46.48200 29.06300 27.12800
H  45.58400 29.99300 25.86600
H  44.88500 29.74400 27.48000
H  45.27900 33.24300 31.39600
H  46.34700 32.59700 35.61300
H  47.71600 31.83000 34.78300
H  46.03200 31.19800 34.81000

