158

Mg 43.43700 3.82200 46.88500
C  41.39000 6.73700 46.61300
C  40.69000 1.92600 46.88900
C  45.30300 1.14800 46.10000
C  46.27400 5.83000 46.42500
N  41.35800 4.36100 46.89100
C  40.71300 5.56500 46.76400
C  39.22100 5.47500 46.95700
C  39.00100 3.96300 47.25400
C  40.44900 3.35300 47.02700
C  38.24600 3.54000 48.56500
C  38.34700 5.97200 45.72800
C  38.57600 5.38800 44.31200
H  39.33800 6.28200 43.40200
N  43.04900 1.78500 46.64000
C  41.82900 1.19300 46.62500
C  41.94100 -0.22500 46.34200
C  43.32900 -0.48000 46.10900
C  43.95900 0.83200 46.23900
C  40.71900 -1.20400 46.42700
C  43.93900 -1.80400 45.76000
O  43.23200 -2.78200 45.71300
C  45.35900 -1.97500 45.29100
N  45.60400 3.55300 46.56900
C  46.06500 2.28000 46.32700
C  47.58900 2.30100 46.40000
C  47.91500 3.87400 46.20900
C  46.54400 4.48100 46.39100
C  48.23900 1.55800 47.65700
C  48.67500 4.25900 44.88200
C  50.22300 4.32100 44.95400
N  43.84000 5.87600 46.64000
C  45.03100 6.54100 46.53700
C  44.72500 7.96400 46.54000
C  43.32200 8.04200 46.53500
C  42.85300 6.74800 46.55200
C  45.75500 9.09500 46.66100
C  42.22900 8.96800 46.42800
O  42.26800 10.13900 46.26200
C  40.91900 8.18600 46.51500
C  40.26400 8.58300 47.78300
O  40.45600 8.10900 48.89800
O  39.26900 9.51500 47.45300
C  38.44500 9.86800 48.62500
H  39.74400 1.38700 46.80700
H  45.89300 0.24500 45.93100
H  47.18800 6.38600 46.20600
H  39.00900 5.97600 47.90200
H  38.42700 3.40600 46.51300
H  37.72300 4.38500 49.01300
H  38.87600 3.23000 49.39800
H  37.55000 2.71200 48.42500
H  38.34900 7.04800 45.55300
H  37.27400 5.95000 45.91700
H  37.55200 5.17500 44.00400
H  39.13500 4.45300 44.30900
H  40.45800 -1.48500 45.40600
H  39.85000 -0.69400 46.84200
H  40.88200 -2.05900 47.08300
H  46.04000 -1.81800 46.12700
H  45.57400 -1.41500 44.38100
H  45.50500 -3.01500 44.99600
H  47.85100 1.70400 45.52600
H  48.55600 4.27900 46.99200
H  48.79100 0.69400 47.28700
H  47.59100 1.09200 48.39900
H  48.85300 2.25200 48.23100
H  48.36200 5.24800 44.54700
H  48.38800 3.60300 44.06000
H  50.52700 3.75100 45.83200
H  50.47200 5.38100 44.91000
H  50.63300 3.78900 44.09500
H  46.26600 9.08900 45.69800
H  46.47400 8.84700 47.44200
H  45.17000 9.98000 46.91000
H  40.18800 8.28500 45.71300
H  37.71600 9.06800 48.75300
H  37.95300 10.78600 48.30600
H  38.98200 10.15300 49.53000
Mg 47.57900 24.57000 29.09400
C  48.45400 26.96400 31.53200
C  46.35500 22.60900 31.64100
C  46.77800 22.39800 26.78600
C  48.96000 26.58200 26.71000
N  47.42500 24.84400 31.32300
C  47.74800 25.88400 32.09400
C  47.30900 25.75100 33.59000
C  46.82000 24.20400 33.65500
C  46.89900 23.85000 32.14200
C  47.70100 23.31700 34.62500
C  46.15800 26.73700 33.96700
C  46.66200 27.71300 35.07900
H  47.08000 26.98100 36.41700
N  46.72300 22.69700 29.15200
C  46.25700 22.09700 30.35200
C  45.65100 20.85300 29.93600
C  45.59000 20.90200 28.47600
C  46.34300 22.05500 28.09100
C  45.06900 19.77600 30.91300
C  44.90900 19.89100 27.46300
O  45.10600 19.96000 26.23500
C  43.91600 18.84500 27.88700
N  48.09400 24.38000 27.10800
C  47.62100 23.39300 26.34300
C  48.09500 23.52300 24.87300
C  48.65500 24.98400 24.83500
C  48.57100 25.34600 26.31000
C  49.25800 22.50800 24.63400
C  47.89400 25.93000 23.97500
C  48.79500 27.01500 23.35200
N  48.53500 26.36500 29.03700
C  49.04300 27.11700 27.99600
C  49.48700 28.40700 28.39000
C  49.29800 28.33400 29.76900
C  48.72800 27.08000 30.13400
C  50.23700 29.39800 27.56900
C  49.63500 29.04400 30.97900
O  50.12000 30.15700 31.08700
C  49.04000 28.27700 32.14500
C  50.03000 27.98900 33.19800
O  50.81300 27.08800 33.31700
O  49.86300 28.98900 34.13500
C  50.62200 28.73800 35.42100
H  45.97800 21.92300 32.40200
H  46.39500 21.93600 25.87400
H  49.20600 27.27700 25.90400
H  48.26400 25.89900 34.09400
H  45.75100 24.23900 33.86800
H  48.57700 22.88700 34.13900
H  46.99100 22.58900 35.01700
H  47.98800 23.89500 35.50300
H  45.28000 26.18100 34.29600
H  45.91400 27.34200 33.09300
H  45.89600 28.48300 35.16600
H  47.53900 28.16800 34.61900
H  45.18800 18.77300 30.50200
H  44.01400 19.95600 31.12000
H  45.47200 19.92500 31.91500
H  43.11300 19.28300 28.48000
H  44.50500 18.16900 28.50700
H  43.51600 18.22000 27.08900
H  47.21700 23.20400 24.31100
H  49.72500 25.06600 24.64600
H  50.11000 23.11800 24.33500
H  48.90900 21.87600 23.81700
H  49.41500 21.98600 25.57800
H  47.03900 26.41600 24.44500
H  47.47000 25.36800 23.14300
H  48.37200 28.01900 23.40500
H  48.94700 26.76800 22.30100
H  49.83400 27.05900 23.67600
H  50.34400 30.29000 28.18600
H  49.76100 29.64000 26.61800
H  51.22000 28.99700 27.32300
H  48.11900 28.75000 32.48600
H  50.13100 27.95100 35.99300
H  50.72900 29.58700 36.09600
H  51.65800 28.44600 35.25500

