158

Mg 46.92800 23.78700 28.08200
C  47.89900 26.35600 30.62700
C  46.22300 21.78700 30.55600
C  46.18500 21.59500 25.73800
C  48.09400 25.99700 25.74300
N  46.98700 24.09100 30.41500
C  47.38600 25.15100 31.21100
C  46.97200 24.81900 32.66000
C  46.52200 23.31600 32.58900
C  46.53700 23.04200 31.12100
C  47.34400 22.32600 33.39500
C  46.04300 25.87000 33.35600
C  45.53000 25.48100 34.78500
H  45.35500 26.57700 35.86200
N  46.36100 21.95400 28.11300
C  46.09500 21.21700 29.22700
C  45.71100 19.87500 28.90800
C  45.53400 19.86400 27.50300
C  46.00900 21.22100 27.05900
C  45.46300 18.79600 29.99000
C  45.08500 18.78000 26.52100
O  44.93300 18.93700 25.27100
C  44.76000 17.42400 27.10800
N  47.17200 23.83300 26.04700
C  46.72900 22.84700 25.30100
C  47.03500 23.08400 23.80200
C  47.39000 24.60000 23.87400
C  47.53300 24.85800 25.31200
C  48.07600 22.11500 23.09500
C  46.22900 25.40100 23.12800
C  46.13300 25.18200 21.62900
N  47.79200 25.74000 28.10500
C  48.28900 26.47200 27.11100
C  48.87000 27.66500 27.56900
C  48.58700 27.70600 28.91900
C  48.06000 26.45200 29.24400
C  49.59600 28.66700 26.72400
C  48.75200 28.50100 30.07100
O  49.19800 29.63100 30.16200
C  48.20600 27.67300 31.28100
C  49.32800 27.60300 32.27900
O  50.33300 26.88400 32.12800
O  49.02100 28.30300 33.42800
C  49.82300 28.03400 34.69200
H  45.86800 21.08100 31.30900
H  45.87600 20.91600 24.94000
H  48.57000 26.69600 25.05200
H  47.95900 24.77000 33.11900
H  45.51800 23.20700 32.99900
H  46.78300 21.48600 33.80400
H  47.88000 22.78000 34.22900
H  48.01700 21.84000 32.68800
H  45.17700 25.96800 32.70100
H  46.64800 26.77300 33.44100
H  46.11800 24.67300 35.21900
H  44.49300 25.16700 34.66800
H  44.40000 18.57300 30.07900
H  45.70900 19.23900 30.95500
H  46.10900 17.93800 29.80200
H  45.69700 17.14900 27.59300
H  44.52900 16.73600 26.29500
H  43.97300 17.55900 27.85100
H  46.04200 22.98400 23.36400
H  48.39900 24.64000 23.46500
H  47.62300 21.95000 22.11800
H  48.08600 21.18100 23.65600
H  49.03800 22.58000 22.87900
H  46.37700 26.46400 23.31800
H  45.29400 25.06400 23.57600
H  46.89500 24.48700 21.27500
H  46.40100 26.13400 21.16900
H  45.17500 24.82300 21.25500
H  50.33600 28.12900 26.13200
H  50.15900 29.27100 27.43500
H  48.90400 29.22600 26.09400
H  47.32700 28.17700 31.68400
H  50.19100 28.98500 35.07800
H  50.59200 27.28400 34.50800
H  49.07500 27.62400 35.37100
Mg 8.51100 48.98400 26.00800
C  6.23000 49.26200 28.68000
C  10.91100 50.34500 28.11000
C  10.64100 48.66800 23.55300
C  5.77400 48.42900 23.75800
N  8.50600 49.62700 28.12000
C  7.53400 49.58400 29.07500
C  8.11500 49.79400 30.50700
C  9.51800 50.38500 30.24100
C  9.62400 50.16500 28.69000
C  9.70800 51.81300 30.75100
C  8.09100 48.53700 31.34500
C  7.69500 48.68200 32.85300
H  7.83500 47.46200 33.77100
N  10.51000 49.47700 25.82200
C  11.32000 49.95000 26.83200
C  12.68200 49.93300 26.35600
C  12.66900 49.36600 24.99200
C  11.22200 49.17200 24.74800
C  13.83100 50.57500 27.07000
C  13.85900 49.15700 23.94700
O  13.63500 49.04900 22.73900
C  15.24900 49.22500 24.40300
N  8.22400 48.67300 23.91600
C  9.35700 48.50900 23.17600
C  8.98900 48.04400 21.74500
C  7.44700 47.93000 21.82600
C  7.08100 48.35300 23.24900
C  9.49200 48.89600 20.56500
C  6.88900 46.48200 21.47000
C  5.65300 46.36700 20.49500
N  6.40400 48.82500 26.14700
C  5.42000 48.68600 25.15000
C  4.10200 48.76500 25.77700
C  4.36500 48.98400 27.15200
C  5.80100 49.04000 27.37100
C  2.69300 48.52300 25.23800
C  3.75700 49.13300 28.41400
O  2.61400 49.13000 28.77800
C  4.89900 49.46800 29.43900
C  4.64200 48.74900 30.69100
O  4.87300 47.55500 30.86900
O  4.14700 49.62800 31.66500
C  3.78700 49.14200 33.00100
H  11.68400 50.66300 28.81200
H  11.33600 48.45900 22.73600
H  4.86200 48.26500 23.18000
H  7.53600 50.47900 31.12600
H  10.24800 49.74000 30.73000
H  8.85700 52.04000 31.39300
H  9.74500 52.59900 29.99600
H  10.72000 51.88400 31.15000
H  9.04200 48.01500 31.23800
H  7.50400 47.73100 30.90400
H  6.63000 48.90600 32.80600
H  8.21700 49.59500 33.14000
H  14.14900 51.30400 26.32500
H  14.68100 49.91700 27.24800
H  13.53500 51.01000 28.02500
H  15.94300 48.78500 23.68700
H  15.46500 48.63500 25.29400
H  15.56700 50.24600 24.61500
H  9.35400 47.03400 21.55600
H  6.90000 48.53300 21.10200
H  10.36400 49.49400 20.83200
H  8.79900 49.64400 20.18100
H  9.72100 48.44900 19.59800
H  6.71500 45.77000 22.27800
H  7.57500 45.78800 20.98400
H  6.10900 46.05600 19.55600
H  5.15600 47.32100 20.32300
H  5.02700 45.53100 20.81000
H  2.03400 49.39100 25.24500
H  2.06400 47.86600 25.83800
H  2.76000 48.19300 24.20100
H  4.86600 50.51300 29.74800
H  2.79800 49.57000 33.16600
H  4.39400 49.51200 33.82800
H  3.92000 48.07000 33.14700

