158

Mg 49.01100 36.26100 28.14100
C  46.61500 34.86400 30.39600
C  49.58900 38.67400 30.37000
C  51.00500 37.51800 25.83200
C  48.03000 33.71800 25.88800
N  48.18100 36.59200 30.17200
C  47.26100 35.90500 30.88900
C  47.06700 36.55300 32.32000
C  47.79200 38.01100 32.11300
C  48.60000 37.73200 30.81600
C  46.78100 39.17500 31.82500
C  47.77600 35.85900 33.52300
C  49.02100 34.94700 33.25300
H  50.40800 35.38000 33.77500
N  50.21100 37.80000 28.13200
C  50.37800 38.67500 29.13600
C  51.31900 39.64100 28.75100
C  51.93200 39.25500 27.53900
C  51.07400 38.14900 27.14600
C  51.63700 40.80300 29.76100
C  53.04400 39.86800 26.70500
O  53.45000 39.39500 25.62100
C  53.80400 41.06700 27.19500
N  49.44300 35.69300 26.14400
C  50.24700 36.47200 25.40000
C  50.35000 35.99900 23.91500
C  49.70300 34.55100 24.00000
C  49.02000 34.59400 25.41400
C  49.52100 36.96500 22.97400
C  50.76000 33.38900 23.95000
C  50.97000 32.74700 22.56800
N  47.64800 34.62300 28.04700
C  47.34200 33.71000 27.12100
C  46.34500 32.73200 27.56600
C  46.00000 33.27600 28.80200
C  46.82300 34.33000 29.10500
C  45.85500 31.57200 26.81400
C  45.02900 33.12000 29.84900
O  44.02300 32.39100 29.92500
C  45.48400 34.05900 31.02800
C  45.84600 33.21000 32.12300
O  46.51100 32.14500 32.05400
O  45.30600 33.66100 33.34200
C  45.03600 32.59700 34.34600
H  49.70400 39.44400 31.13600
H  51.55500 37.96700 25.00100
H  47.79000 32.96200 25.13700
H  45.99100 36.58900 32.49200
H  48.45200 38.33100 32.91900
H  47.04500 40.12900 32.28200
H  45.77400 38.85000 32.08700
H  46.74200 39.33900 30.74800
H  47.09900 35.28500 34.15600
H  48.10200 36.65700 34.19000
H  49.18400 34.89300 32.17700
H  48.84000 33.91600 33.55700
H  52.34700 41.52500 29.35800
H  52.14300 40.33300 30.60400
H  50.79000 41.39500 30.10700
H  53.12200 41.90800 27.31900
H  54.62100 41.26400 26.50100
H  54.23700 40.70700 28.12900
H  51.37200 35.77300 23.60900
H  48.91300 34.44400 23.25600
H  48.87800 37.58300 23.60100
H  49.04200 36.38900 22.18300
H  50.22200 37.62900 22.46900
H  50.39900 32.63600 24.65100
H  51.61800 33.88300 24.40500
H  50.16100 33.09600 21.92700
H  50.81600 31.66900 22.61100
H  51.96900 32.89600 22.15700
H  46.62100 30.79800 26.77400
H  45.40300 31.99600 25.91700
H  45.09500 31.11500 27.44800
H  44.59600 34.59500 31.36200
H  45.86400 32.44800 35.04000
H  44.75100 31.65700 33.87300
H  44.13900 32.71100 34.95400
Mg -11.62200 37.46800 42.38300
C  -9.70800 34.74000 40.93800
C  -9.13800 39.50200 41.15100
C  -13.69800 39.98100 42.88500
C  -14.14700 35.11600 43.19000
N  -9.67400 37.17200 41.16600
C  -9.09400 35.99600 40.70900
C  -7.79300 36.21200 39.98000
C  -7.51700 37.68000 40.49100
C  -8.86200 38.19100 40.97400
C  -6.40200 37.75700 41.59300
C  -8.02600 36.03100 38.40800
C  -7.03900 35.18000 37.63600
H  -5.90200 35.82500 36.81800
N  -11.46100 39.56200 42.11700
C  -10.32500 40.23100 41.62000
C  -10.58100 41.60500 41.60900
C  -11.88500 41.84900 42.17800
C  -12.44200 40.44000 42.36900
C  -9.60800 42.69400 41.22100
C  -12.53000 43.12900 42.49100
O  -11.98900 44.15700 42.12500
C  -13.80900 43.27700 43.26800
N  -13.68400 37.52100 42.75200
C  -14.26600 38.68700 43.07700
C  -15.71700 38.47000 43.41000
C  -15.85600 36.93100 43.51600
C  -14.54000 36.48400 43.08200
C  -16.12300 39.18500 44.74900
C  -17.13100 36.42700 42.82200
C  -17.07900 36.35900 41.31400
N  -11.83100 35.37000 42.24800
C  -12.91000 34.62700 42.65600
C  -12.65900 33.24100 42.34000
C  -11.40300 33.26100 41.66100
C  -10.93800 34.52900 41.66200
C  -13.58500 32.01200 42.44400
C  -10.41600 32.39800 41.05100
O  -10.42100 31.18900 40.86500
C  -9.31500 33.36500 40.42700
C  -8.04800 32.77300 40.86400
O  -7.10800 32.61300 40.09800
O  -8.10000 32.32600 42.18800
C  -6.78800 32.39600 42.91300
H  -8.35300 40.18200 40.81300
H  -14.27200 40.83700 43.24600
H  -14.89300 34.32900 43.31500
H  -7.17100 35.43600 40.42500
H  -7.14500 38.25100 39.64100
H  -5.88800 36.80200 41.69800
H  -6.70300 38.22900 42.52800
H  -5.57100 38.32100 41.16900
H  -7.96000 36.96700 37.85300
H  -8.99900 35.56000 38.26700
H  -7.64800 34.49900 37.04100
H  -6.59300 34.47900 38.34100
H  -9.24600 43.23200 42.09700
H  -10.09600 43.36700 40.51700
H  -8.72600 42.28100 40.73000
H  -14.03600 44.29600 43.58400
H  -13.71900 42.61900 44.13200
H  -14.63200 42.92800 42.64500
H  -16.21700 38.77500 42.49000
H  -15.91800 36.53200 44.52800
H  -16.27800 40.25200 44.58600
H  -15.38000 39.23400 45.54400
H  -16.92800 38.61100 45.20800
H  -18.02200 36.95800 43.15800
H  -17.25000 35.38000 43.10300
H  -17.43000 35.36000 41.05400
H  -16.09500 36.50700 40.86900
H  -17.71900 37.14700 40.91700
H  -13.17400 31.08600 42.04100
H  -14.45000 32.32700 41.86100
H  -13.77400 31.58900 43.43100
H  -9.31600 33.29900 39.33900
H  -6.24800 31.46300 43.07500
H  -7.03100 32.65900 43.94200
H  -6.13400 33.14200 42.46100

