158

Mg 1.01500 7.19800 25.74500
C  1.64100 9.20100 28.60000
C  1.38900 4.44500 27.61000
C  0.46300 5.38800 22.95400
C  1.14100 10.17100 23.78300
N  1.59300 6.93800 27.88300
C  1.60400 7.83900 28.86500
C  1.71100 7.06500 30.21600
C  2.03200 5.60900 29.80300
C  1.73400 5.65900 28.28600
C  3.47400 5.08400 30.08800
C  0.47600 7.25300 31.17500
C  0.76400 7.71400 32.61100
H  1.97300 7.12600 33.25900
N  0.79400 5.23100 25.38400
C  0.94100 4.21700 26.28100
C  0.62700 2.92900 25.71100
C  0.41300 3.13800 24.30500
C  0.49600 4.62200 24.17300
C  0.64900 1.61000 26.39400
C  0.09400 2.09500 23.20900
O  -0.13900 2.41500 22.02500
C  0.04400 0.58900 23.49100
N  0.52500 7.77800 23.75100
C  0.59100 6.73900 22.78600
C  0.66700 7.40700 21.34900
C  0.56400 8.93900 21.64100
C  0.71400 9.00600 23.14400
C  1.94100 6.98900 20.59800
C  -0.69500 9.68900 21.06300
C  -0.37600 10.90600 20.20600
N  1.35000 9.20700 26.03000
C  1.45500 10.30400 25.14000
C  1.57500 11.56100 25.89900
C  1.71700 11.13000 27.24100
C  1.52300 9.72700 27.28900
C  1.55600 12.96300 25.42600
C  1.98800 11.59400 28.57600
O  2.30500 12.72200 28.98200
C  1.86000 10.36900 29.53300
C  2.98100 10.19200 30.43100
O  4.06600 9.63200 30.26500
O  2.63900 10.80400 31.61400
C  3.70300 10.80900 32.63600
H  1.44000 3.55500 28.24000
H  0.30600 4.89900 21.99000
H  1.32100 11.05900 23.17200
H  2.55100 7.52200 30.74000
H  1.41800 4.90300 30.36200
H  4.05400 5.87300 30.56600
H  3.98000 4.89100 29.14200
H  3.49300 4.23800 30.77500
H  -0.14200 6.35900 31.26500
H  -0.13300 8.08400 30.82100
H  -0.11200 7.49900 33.22400
H  0.91700 8.79100 32.66400
H  0.41200 1.72900 27.45100
H  1.54900 0.99900 26.32000
H  -0.20000 0.99600 26.09300
H  0.94500 0.16300 23.93300
H  -0.19600 0.17600 22.51200
H  -0.82300 0.49600 24.14400
H  -0.10500 7.05400 20.66500
H  1.44900 9.41100 21.21500
H  2.31700 7.81800 19.99900
H  1.80800 6.11200 19.96500
H  2.74000 6.74300 21.29700
H  -1.32800 10.09200 21.85400
H  -1.19100 8.93700 20.45100
H  -1.27500 11.23100 19.68300
H  0.54200 10.87300 19.61800
H  -0.31000 11.76000 20.88000
H  0.55500 13.16900 25.04700
H  2.50400 13.19300 24.93900
H  1.63600 13.51300 26.36400
H  0.92700 10.52200 30.07500
H  3.61700 9.92100 33.26200
H  3.59300 11.59200 33.38600
H  4.74000 10.85100 32.30300
Mg 9.05700 3.15700 27.57700
C  10.33200 1.62000 30.42000
C  7.26000 5.33600 29.52100
C  7.79800 4.45900 24.76600
C  10.63600 0.61000 25.69100
N  8.64000 3.22400 29.78400
C  9.42200 2.67300 30.74400
C  9.07400 3.33100 32.10500
C  7.89400 4.35600 31.77300
C  7.93900 4.31900 30.31100
C  6.48800 3.94500 32.34800
C  10.25300 3.95100 32.81400
C  9.91900 4.51600 34.18800
H  10.46300 3.72800 35.39900
N  7.74500 4.67400 27.23800
C  7.15200 5.45000 28.15700
C  6.36300 6.49000 27.45700
C  6.52600 6.25100 26.03300
C  7.38100 5.10100 25.96500
C  5.55200 7.45100 28.23800
C  6.01100 7.03000 24.87700
O  6.40700 6.85200 23.75800
C  5.08500 8.13900 25.11500
N  9.18300 2.61600 25.53800
C  8.59700 3.40100 24.57300
C  8.89300 2.84400 23.21100
C  9.82500 1.60400 23.47500
C  9.90800 1.60300 24.97800
C  7.75800 2.46600 22.28900
C  11.20000 1.73500 22.72900
C  11.33000 0.97400 21.43800
N  10.28300 1.41500 27.91700
C  10.80300 0.51100 27.03600
C  11.57600 -0.42900 27.79000
C  11.50000 -0.03800 29.13800
C  10.66100 1.10100 29.12800
C  12.27700 -1.73600 27.32600
C  11.98500 -0.24300 30.48100
O  12.80400 -0.98200 30.96600
C  11.12600 0.74400 31.36900
C  10.28200 0.00300 32.34800
O  9.19300 -0.51100 32.12900
O  10.97600 -0.00100 33.52000
C  10.19100 -0.63700 34.65300
H  6.72300 6.07600 30.11800
H  7.48500 4.96900 23.85300
H  11.02100 -0.22500 25.10100
H  8.66900 2.56800 32.76900
H  8.18700 5.32100 32.18600
H  6.32700 4.45500 33.29800
H  6.57300 2.87900 32.55400
H  5.67400 4.05600 31.63200
H  10.65900 4.73300 32.17100
H  11.00300 3.16100 32.77500
H  8.88100 4.79800 34.35900
H  10.54700 5.40600 34.20300
H  5.59800 8.44700 27.79900
H  5.84200 7.57500 29.28100
H  4.48600 7.22700 28.23800
H  4.74500 8.58900 24.18300
H  5.49800 8.87300 25.80700
H  4.16700 7.70200 25.50900
H  9.35500 3.57200 22.54500
H  9.27400 0.70100 23.21300
H  6.93000 2.39700 22.99500
H  7.88000 1.52900 21.74600
H  7.53700 3.30000 21.62300
H  11.97400 1.38600 23.41200
H  11.39300 2.79500 22.56100
H  11.99500 1.64400 20.89200
H  10.38400 0.92100 20.90000
H  11.77500 0.00300 21.65400
H  13.03000 -2.05100 28.04800
H  12.80500 -1.52700 26.39500
H  11.54100 -2.52900 27.19800
H  11.84800 1.30600 31.96000
H  10.06000 -1.69500 34.42700
H  9.20600 -0.23200 34.88400
H  10.66900 -0.50600 35.62400

