158

Mg 7.44000 2.29300 28.06400
C  9.05100 0.93400 30.78600
C  5.91800 4.59600 30.13900
C  5.93700 3.53500 25.38700
C  9.02100 -0.16300 26.01700
N  7.42300 2.74000 30.30300
C  8.18600 2.02800 31.13800
C  7.89300 2.51600 32.61800
C  6.68900 3.58200 32.34000
C  6.66700 3.68100 30.83600
C  5.31700 3.18200 32.94000
C  9.12300 2.91600 33.39400
C  9.03700 4.03000 34.50200
H  9.96900 3.78100 35.67400
N  6.05500 3.72400 27.85400
C  5.59300 4.60800 28.80700
C  4.72400 5.66800 28.17800
C  4.78600 5.40900 26.81800
C  5.61800 4.15600 26.65100
C  3.98300 6.70200 28.95100
C  4.17000 6.25500 25.68500
O  4.28500 5.96100 24.49600
C  3.55600 7.52900 25.90100
N  7.59800 1.79200 25.99500
C  6.85600 2.49200 25.14000
C  6.95300 1.80100 23.74800
C  8.06800 0.81800 23.90200
C  8.23500 0.72700 25.41400
C  5.60200 1.06900 23.30400
C  9.45500 1.18500 23.29300
C  10.52800 1.88000 24.18600
N  8.65000 0.60200 28.31700
C  9.17200 -0.23900 27.34600
C  10.11100 -1.12700 28.14900
C  10.10700 -0.64600 29.43200
C  9.17200 0.34500 29.49800
C  11.17200 -2.20500 27.54800
C  10.77900 -0.81700 30.74300
O  11.64400 -1.53500 31.17100
C  9.92600 0.11700 31.71000
C  9.06600 -0.79000 32.46600
O  7.99100 -1.31000 32.15000
O  9.49600 -0.75100 33.82500
C  8.50700 -1.18100 34.76200
H  5.61800 5.45400 30.74500
H  5.43000 3.94600 24.51200
H  9.77800 -0.81500 25.57700
H  7.43400 1.66800 33.12500
H  6.90100 4.60900 32.63600
H  4.73700 2.71000 32.14600
H  4.85000 4.10300 33.28600
H  5.31700 2.49100 33.78300
H  9.99500 3.05800 32.75600
H  9.22300 2.09200 34.10000
H  8.02600 4.17000 34.88500
H  9.22500 4.96500 33.97500
H  3.94500 6.48500 30.01900
H  3.03300 6.61300 28.42400
H  4.45200 7.67000 28.77700
H  3.31400 7.98200 24.93900
H  4.17400 8.17200 26.52700
H  2.60600 7.37500 26.41400
H  7.22000 2.49400 22.95000
H  7.85400 -0.23800 23.73400
H  4.84300 1.42600 23.99900
H  5.63900 -0.02000 23.26800
H  5.27200 1.49500 22.35700
H  9.24700 1.82100 22.43300
H  9.72300 0.18900 22.93900
H  9.99700 2.55100 24.86100
H  11.23400 2.53300 23.67200
H  11.09600 1.14400 24.75400
H  11.83300 -2.50800 28.36000
H  11.75400 -1.76000 26.74100
H  10.70400 -3.12900 27.20700
H  10.48500 0.77300 32.37800
H  7.56000 -0.65600 34.63300
H  8.92000 -1.00200 35.75500
H  8.41100 -2.25900 34.63500
Mg 16.72200 -2.61900 29.02800
C  15.57700 -0.27400 31.33400
C  18.95800 -3.75600 31.38700
C  18.17500 -4.51200 26.66100
C  14.74000 -1.11200 26.55900
N  17.11800 -2.09700 31.10800
C  16.49300 -1.18200 31.85000
C  16.86400 -1.34400 33.32300
C  18.08600 -2.35800 33.35000
C  18.04200 -2.79300 31.86600
C  19.46600 -1.92600 33.85200
C  15.77400 -1.81500 34.26700
C  15.44500 -0.88600 35.42200
H  16.52100 -0.28900 36.39400
N  18.33600 -3.98600 29.06700
C  19.09500 -4.35700 30.12400
C  20.07700 -5.35000 29.67200
C  19.88300 -5.52700 28.25900
C  18.73200 -4.67700 27.96600
C  20.97100 -6.13500 30.64000
C  20.77700 -6.33100 27.37300
O  20.55700 -6.47000 26.19200
C  21.99800 -7.07500 27.85600
N  16.67000 -2.73100 26.90100
C  17.23700 -3.69900 26.11200
C  16.66400 -3.72700 24.72400
C  15.73700 -2.45000 24.68100
C  15.66700 -2.14700 26.18400
C  17.78600 -3.52300 23.71300
C  14.30800 -2.75000 24.07900
C  13.70600 -1.70400 23.10000
N  15.43800 -1.08600 28.93800
C  14.72500 -0.53000 27.85600
C  13.98300 0.57100 28.33000
C  14.27200 0.71100 29.66600
C  15.17700 -0.27000 30.00300
C  12.95300 1.44900 27.55500
C  13.98600 1.53500 30.85700
O  13.33000 2.56400 30.94100
C  14.73300 0.76400 32.00400
C  15.39300 1.90400 32.84500
O  16.58600 2.10600 32.92300
O  14.48600 2.52800 33.61600
C  15.03800 3.39500 34.69300
H  19.68200 -4.09200 32.13200
H  18.53300 -5.27800 25.96900
H  14.14800 -0.66600 25.75700
H  17.18700 -0.38600 33.73200
H  17.80100 -3.16200 34.02800
H  19.45700 -1.01400 34.45000
H  20.06500 -1.68400 32.97400
H  19.88700 -2.74800 34.43100
H  15.77600 -2.83400 34.65500
H  14.90200 -1.69000 33.62400
H  14.69700 -1.32500 36.08200
H  14.88200 -0.01900 35.07600
H  20.88300 -7.20600 30.45700
H  20.80800 -5.76000 31.65000
H  22.00000 -5.83900 30.43600
H  22.55800 -7.30400 26.94900
H  21.62400 -8.02400 28.23900
H  22.58300 -6.48600 28.56300
H  16.04300 -4.58000 24.45200
H  16.32300 -1.65500 24.21800
H  18.14600 -4.48800 23.35300
H  18.60500 -2.95900 24.15900
H  17.30200 -2.99200 22.89400
H  13.63700 -2.84200 24.93400
H  14.21000 -3.72400 23.60100
H  13.03200 -1.13100 23.73600
H  13.18700 -2.20800 22.28500
H  14.34600 -0.95300 22.63500
H  12.13100 0.84200 27.17700
H  13.46400 1.98200 26.75300
H  12.69100 2.19000 28.31000
H  14.04800 0.26300 32.68800
H  15.09500 4.46300 34.48200
H  16.06400 3.17800 34.98800
H  14.31700 3.27200 35.50100

