158

Mg 40.16500 8.85200 30.11300
C  42.07100 10.17200 32.70600
C  37.75400 8.02900 32.37800
C  38.56200 7.25800 27.69300
C  42.72700 9.58800 27.91100
N  39.98900 9.10400 32.25500
C  40.87200 9.69100 33.11700
C  40.30500 9.80800 34.54800
C  39.00500 9.01100 34.42000
C  38.90300 8.64400 32.92300
C  38.95100 7.75300 35.34700
C  39.96000 11.34800 34.87400
C  39.59800 11.62800 36.33700
H  40.34500 12.60100 37.28400
N  38.41300 7.70600 30.02600
C  37.56800 7.47400 31.08200
C  36.43300 6.79500 30.59500
C  36.52200 6.73800 29.22000
C  37.88600 7.20600 28.90100
C  35.31700 6.30800 31.55300
C  35.54100 6.17800 28.24200
O  35.84000 6.05100 27.02100
C  34.17300 5.87200 28.68900
N  40.53300 8.48700 28.07700
C  39.80100 7.73800 27.31400
C  40.25000 7.68200 25.83800
C  41.52200 8.49900 25.85500
C  41.61600 8.89100 27.42200
C  40.46400 6.19300 25.41000
C  41.61700 9.70800 24.94800
C  40.81900 11.02900 25.32300
N  42.03300 9.71400 30.19600
C  42.95300 10.03400 29.18800
C  44.07800 10.71200 29.74600
C  43.75000 10.78500 31.13300
C  42.52000 10.16900 31.36100
C  45.29900 11.20400 28.99300
C  44.23600 11.17200 32.39000
O  45.30000 11.68900 32.67100
C  43.24000 10.73200 33.48700
C  43.94800 9.80300 34.44300
O  44.07200 8.56700 34.34900
O  44.36500 10.55400 35.47100
C  45.14000 9.83000 36.50000
H  36.95100 7.91500 33.11000
H  38.13800 6.83000 26.78200
H  43.58200 9.85000 27.28500
H  41.13200 9.44400 35.15900
H  38.14700 9.59900 34.74400
H  39.53200 7.93200 36.25100
H  39.32900 6.92900 34.74100
H  37.89200 7.58000 35.54100
H  39.09100 11.50100 34.23400
H  40.77200 11.97900 34.51200
H  39.42800 10.70300 36.88700
H  38.57200 11.99400 36.38600
H  35.56900 6.72400 32.52900
H  35.19400 5.22600 31.49400
H  34.33500 6.67700 31.25800
H  33.72000 5.40700 27.81400
H  33.62800 6.79400 28.89500
H  34.27200 5.20700 29.54700
H  39.54600 8.19800 25.18500
H  42.45200 7.93900 25.75100
H  40.09300 5.61800 26.25900
H  41.49100 5.84900 25.28400
H  39.78800 6.06500 24.56600
H  41.23100 9.32000 24.00500
H  42.67500 9.94800 24.84700
H  41.41200 11.93500 25.19500
H  40.39800 10.97000 26.32700
H  39.98800 11.14200 24.62700
H  45.27600 10.83100 27.96900
H  46.23300 10.81800 29.40100
H  45.32600 12.28600 29.12300
H  42.97400 11.62900 34.04600
H  44.91600 10.40100 37.40100
H  46.20100 9.89000 36.26100
H  44.85000 8.78700 36.62100
Mg 26.84700 51.51900 26.98100
C  24.54600 52.43600 29.50400
C  28.96100 50.46000 29.39600
C  29.13300 50.79000 24.56200
C  24.71900 53.01500 24.54900
N  26.71800 51.49100 29.20200
C  25.70800 51.95200 30.04000
C  26.04900 51.53600 31.47400
C  27.62200 51.17000 31.41600
C  27.80100 51.05900 29.91700
C  28.68600 52.08100 32.02100
C  25.09000 50.40700 32.04100
C  24.64900 50.49100 33.53000
H  25.63000 51.23000 34.55800
N  28.72900 50.58900 26.95100
C  29.45400 50.24800 28.09800
C  30.67200 49.59000 27.64000
C  30.71500 49.57200 26.27700
C  29.49000 50.26700 25.85700
C  31.68500 48.92400 28.62300
C  31.73100 48.96300 25.29800
O  31.65200 49.06400 24.05900
C  32.83900 48.09300 25.82000
N  26.91200 51.92100 24.85400
C  28.01500 51.43300 24.06000
C  27.71100 51.62400 22.47500
C  26.22600 52.33100 22.56900
C  25.88600 52.44500 24.07200
C  28.68900 52.41100 21.60900
C  25.12000 51.54000 21.87900
C  24.72300 50.17600 22.41000
N  25.12000 52.60800 26.95500
C  24.35900 53.15800 25.94000
C  23.12000 53.71400 26.49800
C  23.18900 53.51600 27.85700
C  24.41300 52.79400 28.10700
C  22.03100 54.40000 25.70800
C  22.49100 53.75400 29.12100
O  21.46600 54.36700 29.36700
C  23.35400 53.12900 30.25700
C  23.77500 54.12800 31.30300
O  24.66600 54.98400 31.20800
O  23.06100 54.01200 32.45600
C  23.33000 54.79300 33.64500
H  29.67600 50.00000 30.08300
H  29.79800 50.57400 23.72400
H  24.02000 53.43900 23.82600
H  26.03300 52.44000 32.08400
H  27.77700 50.17900 31.84300
H  28.26200 52.86000 32.65400
H  29.38700 52.45500 31.27600
H  29.25800 51.49500 32.74200
H  25.46300 49.39100 31.91200
H  24.19400 50.48300 31.42600
H  24.57100 49.45300 33.85500
H  23.66200 50.95000 33.47600
H  31.62900 47.85700 28.40700
H  31.42300 49.04100 29.67400
H  32.68800 49.34900 28.57800
H  33.68300 47.87900 25.16500
H  32.52300 47.09300 26.11700
H  33.26300 48.62900 26.66900
H  27.58800 50.58100 22.18300
H  26.14000 53.33200 22.14600
H  29.47300 52.70800 22.30400
H  28.12600 53.25700 21.21500
H  29.06700 51.75900 20.82100
H  25.35400 51.41000 20.82200
H  24.20200 52.12500 21.82000
H  25.43800 49.84800 23.16500
H  24.84800 49.40600 21.64800
H  23.74300 50.02900 22.86400
H  22.46800 55.24300 25.17200
H  21.18600 54.70900 26.32400
H  21.64300 53.73300 24.93800
H  22.74000 52.38700 30.76700
H  23.36300 54.10100 34.48700
H  22.48400 55.47800 33.70500
H  24.22200 55.41700 33.58500

