158

Mg 48.22000 44.72900 42.39700
C  44.85400 43.97400 42.19500
C  48.82600 41.27900 41.89000
C  51.47700 45.37100 42.16500
C  47.40000 48.09200 42.07600
N  46.96500 42.80300 41.95100
C  45.57800 42.82400 41.99600
C  44.99200 41.38800 41.96600
C  46.33800 40.49800 42.09900
C  47.47100 41.55400 41.96900
C  46.51400 39.52600 43.28800
C  43.92900 41.10500 40.80200
C  44.07900 41.96100 39.53100
H  44.34300 41.18300 38.24400
N  49.98000 43.50600 42.10200
C  49.99200 42.15500 41.95900
C  51.38300 41.74100 41.84000
C  52.19100 42.91400 41.95900
C  51.25700 43.97900 42.13700
C  51.74000 40.25300 41.66000
C  53.72100 42.98800 41.72000
O  54.38300 42.02800 41.28000
C  54.41600 44.31100 41.89400
N  49.26400 46.48000 42.12000
C  50.64200 46.45500 42.15200
C  51.23900 47.91500 42.13000
C  49.90600 48.79900 42.08100
C  48.73300 47.75300 41.99400
C  52.29700 48.21800 43.18800
C  49.78200 49.75200 40.90700
C  50.00300 51.25500 41.20300
N  46.45600 45.85700 42.26000
C  46.27400 47.27400 42.17600
C  44.87200 47.59800 42.23600
C  44.23800 46.33800 42.35300
C  45.26400 45.34200 42.33100
C  44.33600 48.96100 42.14700
C  42.98000 45.65500 42.39000
O  41.83000 46.05000 42.38700
C  43.30000 44.09600 42.33600
C  42.71300 43.44400 43.53900
O  41.89900 42.54300 43.57900
O  43.33400 43.99200 44.64400
C  42.96000 43.52000 46.03000
H  49.13300 40.23900 41.76200
H  52.50100 45.74600 42.21800
H  47.16500 49.15900 42.08900
H  44.36100 41.37700 42.85500
H  46.50100 39.92200 41.18800
H  46.56900 38.51800 42.87900
H  45.72600 39.55600 44.04100
H  47.49200 39.64900 43.75300
H  42.92000 41.29200 41.16800
H  43.93400 40.04100 40.56400
H  44.82300 42.75500 39.59900
H  43.15500 42.53900 39.54000
H  52.82400 40.17400 41.58100
H  51.33800 39.77500 40.76700
H  51.36700 39.73200 42.54200
H  54.14100 45.13800 41.24000
H  55.48800 44.11300 41.87000
H  54.12600 44.57000 42.91300
H  51.77400 47.90500 41.18000
H  49.61700 49.34100 42.98200
H  52.03400 47.55000 44.00800
H  52.17900 49.25200 43.51100
H  53.35200 48.03900 42.98100
H  48.79600 49.73100 40.44500
H  50.52200 49.51400 40.14200
H  49.18400 51.82600 40.76400
H  50.84200 51.77600 40.74200
H  50.30900 51.45500 42.22900
H  44.77300 49.53700 41.33100
H  44.53800 49.42200 43.11400
H  43.25500 48.99900 42.01200
H  42.78700 43.66000 41.47900
H  42.12700 44.12500 46.38800
H  43.84900 43.69500 46.63500
H  42.59100 42.49500 46.07100
Mg 0.27900 43.28900 26.55600
C  2.76100 42.85300 28.89000
C  -1.94000 41.99100 28.73400
C  -1.97700 43.34600 24.08400
C  2.88900 43.62100 24.07700
N  0.38800 42.58300 28.61600
C  1.50100 42.70900 29.37700
C  1.12900 42.45600 30.87900
C  -0.35900 42.01600 30.80100
C  -0.67700 42.11000 29.26300
C  -0.69000 40.53300 31.17500
C  1.28400 43.74300 31.74300
C  0.57400 43.82400 33.15100
H  0.12500 42.49900 33.77000
N  -1.70800 42.73600 26.43900
C  -2.50200 42.28000 27.44600
C  -3.80000 42.16300 26.95700
C  -3.86100 42.58600 25.64800
C  -2.46600 42.93300 25.35300
C  -4.92200 41.66400 27.96000
C  -5.03100 42.60300 24.74100
O  -4.91600 42.86800 23.53000
C  -6.43400 42.38300 25.18500
N  0.39200 43.61500 24.36000
C  -0.66300 43.56000 23.60000
C  -0.33000 43.68700 22.12400
C  1.22100 43.93100 22.15100
C  1.53700 43.73600 23.62900
C  -0.78800 42.48200 21.29800
C  1.78300 45.26900 21.66300
C  1.49300 46.55200 22.57700
N  2.38600 43.30700 26.44300
C  3.23600 43.44800 25.39800
C  4.60100 43.25500 25.93900
C  4.44000 42.96100 27.29500
C  3.09500 43.04200 27.55800
C  5.91500 43.19600 25.17600
C  5.15100 42.76600 28.56700
O  6.36100 42.72200 28.84700
C  4.08400 42.70900 29.64100
C  4.13300 41.41700 30.42900
O  3.84800 40.29500 29.97200
O  4.71000 41.65400 31.66000
C  4.55300 40.43800 32.50600
H  -2.70300 41.58500 29.40200
H  -2.67800 43.45000 23.25300
H  3.65200 43.56300 23.29900
H  1.72100 41.57900 31.14000
H  -1.00500 42.71200 31.33700
H  -1.60900 40.53200 31.76100
H  0.14200 40.17700 31.78300
H  -0.72700 39.84800 30.32800
H  0.99200 44.63100 31.18100
H  2.36300 43.86900 31.83400
H  -0.27900 44.48000 32.98100
H  1.24900 44.30700 33.85700
H  -5.88900 42.09400 27.69700
H  -4.77100 42.11600 28.94000
H  -4.99500 40.58500 28.10100
H  -6.50300 41.33800 25.48400
H  -7.11800 42.67300 24.38700
H  -6.69500 43.04700 26.00900
H  -0.73900 44.61400 21.72200
H  1.75900 43.07700 21.73900
H  -1.49500 41.78800 21.75400
H  -0.01200 41.72000 21.23200
H  -1.17400 42.87300 20.35600
H  1.33200 45.40000 20.67900
H  2.86900 45.25700 21.56500
H  1.04400 47.26200 21.88200
H  2.46700 46.90600 22.91300
H  0.93500 46.31400 23.48300
H  6.72200 42.67200 25.68700
H  6.27000 44.22700 25.16300
H  5.82100 42.90300 24.13000
H  4.26800 43.53600 30.32700
H  3.51000 40.39800 32.82100
H  5.20600 40.45700 33.37900
H  4.87400 39.46600 32.13100

