158

Mg 43.30100 41.93000 26.65100
C  42.24900 44.17000 29.01800
C  44.20100 39.72200 29.01200
C  44.08400 39.85800 24.18200
C  42.97900 44.55500 24.22200
N  43.24000 41.96400 28.73200
C  42.62400 42.96000 29.53300
C  42.68900 42.56900 31.06000
C  43.51300 41.23400 31.02500
C  43.66100 40.95900 29.50500
C  44.90300 41.31200 31.67900
C  41.25100 42.37800 31.71200
C  40.97300 43.28100 32.94100
H  40.20100 42.70200 34.08200
N  44.04600 40.03200 26.57000
C  44.38100 39.25500 27.72800
C  44.84000 38.03500 27.31400
C  44.93000 38.04400 25.87800
C  44.31900 39.33300 25.46900
C  45.12400 36.91100 28.20900
C  45.46700 36.93500 24.93500
O  45.46100 37.12900 23.72600
C  45.96700 35.59200 25.33700
N  43.60500 42.21900 24.51000
C  43.82400 41.11100 23.73700
C  43.85800 41.51400 22.26600
C  43.38200 43.01100 22.21200
C  43.34800 43.30500 23.71900
C  45.28900 41.35900 21.67900
C  42.00400 43.23400 21.45300
C  42.16000 43.99400 20.07700
N  42.76300 43.94900 26.58800
C  42.71500 44.86100 25.54800
C  42.22600 46.12100 26.09900
C  42.00200 45.90200 27.40100
C  42.34600 44.57100 27.66900
C  41.99400 47.29600 25.35800
C  41.50200 46.47000 28.59000
O  40.93000 47.51500 28.81800
C  41.68000 45.41800 29.67600
C  42.62100 45.91000 30.79400
O  43.82900 46.11600 30.64600
O  41.98700 46.08700 32.01600
C  42.92900 46.46000 33.16400
H  44.41100 38.99300 29.79800
H  44.46500 39.16900 23.42500
H  42.67200 45.34100 23.52900
H  43.12800 43.42900 31.56500
H  42.88600 40.39200 31.31800
H  45.70500 41.39500 30.94500
H  44.89600 40.31200 32.11300
H  44.97500 42.08200 32.44600
H  40.96700 41.34700 31.91900
H  40.43500 42.69800 31.06400
H  40.55000 44.21600 32.57300
H  41.91200 43.47800 33.45900
H  44.53500 36.02600 27.96800
H  44.82500 37.09700 29.24000
H  46.17900 36.66200 28.09500
H  46.65800 35.17700 24.60300
H  45.19900 34.82400 25.42700
H  46.61000 35.51100 26.21400
H  43.14400 40.95300 21.66300
H  44.18400 43.59800 21.76500
H  45.68200 42.25200 21.19400
H  45.40800 40.51600 20.99900
H  46.05200 41.13700 22.42500
H  41.33600 43.69600 22.18000
H  41.62100 42.23400 21.25300
H  41.25300 44.57200 19.89900
H  42.41600 43.44600 19.17000
H  42.97500 44.69900 20.23800
H  41.22300 47.08700 24.61700
H  42.91200 47.60200 24.85500
H  41.76900 48.09900 26.06100
H  40.72800 45.19200 30.15700
H  42.69800 47.41500 33.63500
H  43.98200 46.52100 32.88700
H  42.75000 45.71300 33.93700
Mg 1.68500 41.63400 25.66100
C  2.59300 42.02600 29.14400
C  -1.52900 40.68100 26.78400
C  1.04600 40.59300 22.54800
C  5.02300 42.27200 24.89600
N  0.71300 41.44700 27.70200
C  1.23800 41.75500 28.95900
C  0.23100 41.51300 30.10800
C  -1.12000 41.09200 29.28300
C  -0.65300 41.05300 27.80200
C  -1.75700 39.72200 29.75000
C  0.03900 42.71900 31.06600
C  0.27600 42.39800 32.56700
H  -0.13100 40.96300 33.02000
N  -0.02500 40.80500 24.84200
C  -1.26300 40.47800 25.39300
C  -2.14800 40.01700 24.36500
C  -1.47000 40.15800 23.16900
C  -0.07100 40.52900 23.48000
C  -3.60100 39.69400 24.65900
C  -2.07200 40.09700 21.73000
O  -1.43300 40.23100 20.72400
C  -3.53400 39.75800 21.50600
N  2.88800 41.38800 24.04300
C  2.35200 40.97800 22.82900
C  3.39100 40.88000 21.66000
C  4.58500 41.63700 22.32700
C  4.18200 41.78000 23.87300
C  3.54900 39.48200 21.15700
C  4.78700 43.06300 21.76400
C  5.40900 43.18000 20.30900
N  3.51900 42.20600 26.76500
C  4.79800 42.40900 26.28600
C  5.61900 42.79200 27.39000
C  4.86100 42.56600 28.54200
C  3.57300 42.26100 28.11900
C  7.11800 42.99600 27.35200
C  4.87400 42.55700 29.98500
O  5.81400 42.76700 30.71300
C  3.34400 42.11300 30.45200
C  3.67600 40.81400 31.25100
O  3.58400 39.68400 30.88900
O  4.13000 41.17800 32.52800
C  4.56900 39.93700 33.31100
H  -2.56500 40.43900 27.03100
H  1.02200 40.25800 21.50900
H  6.00600 42.52400 24.49400
H  0.65000 40.68700 30.68200
H  -1.80000 41.93100 29.43100
H  -1.24300 39.29600 30.61100
H  -1.56700 38.91700 29.04000
H  -2.83700 39.74800 29.89600
H  -0.97800 43.10000 30.96700
H  0.61700 43.56700 30.69700
H  -0.41500 43.10100 33.03300
H  1.29500 42.57100 32.91300
H  -4.24200 40.56500 24.51800
H  -3.75000 39.32600 25.67400
H  -3.94100 38.96400 23.92500
H  -3.86900 39.93200 20.48300
H  -4.09700 40.41700 22.16600
H  -3.68300 38.69300 21.68800
H  3.07800 41.53100 20.84400
H  5.56000 41.14800 22.33500
H  2.78700 39.30100 20.40000
H  3.47200 38.75600 21.96600
H  4.55800 39.27200 20.80200
H  5.30300 43.70500 22.47900
H  3.81300 43.53600 21.64100
H  5.23500 42.28000 19.71800
H  6.46600 43.44300 20.35500
H  4.82600 43.99700 19.88300
H  7.43300 43.48900 26.43200
H  7.58900 42.01800 27.45200
H  7.40300 43.51600 28.26600
H  2.94400 42.78600 31.21100
H  5.54400 40.25000 33.68600
H  4.88400 39.07100 32.73000
H  4.00100 39.71600 34.21500

