158

Mg 16.99700 53.46200 26.48600
C  19.26600 51.78000 28.66000
C  14.96600 54.00300 29.04900
C  15.19600 55.21800 24.37300
C  19.18100 52.52600 23.77500
N  17.14300 52.92100 28.66500
C  18.18400 52.33700 29.32000
C  17.89400 52.38600 30.80300
C  16.35900 52.92800 30.84600
C  16.09200 53.31900 29.45300
C  15.41200 51.85700 31.38400
C  18.93200 53.33800 31.57400
C  19.36700 53.04300 33.02400
H  18.31900 52.60500 33.97300
N  15.29700 54.46200 26.68200
C  14.55400 54.51500 27.80500
C  13.32400 55.10900 27.49200
C  13.29700 55.51400 26.12700
C  14.64800 55.05200 25.65200
C  12.28600 55.32500 28.54200
C  12.21900 56.12900 25.28000
O  12.27400 56.28600 24.07900
C  10.87200 56.51300 25.93500
N  17.16800 53.85800 24.39300
C  16.29700 54.70100 23.81400
C  16.60900 54.87700 22.31000
C  18.06900 54.30400 22.23500
C  18.21200 53.55900 23.57000
C  15.59400 54.22800 21.32300
C  19.22300 55.30500 21.88600
C  19.71100 55.16100 20.46500
N  18.87300 52.36900 26.24500
C  19.56100 52.00600 25.07100
C  20.75200 51.27100 25.48000
C  20.69800 51.21000 26.87800
C  19.51000 51.78400 27.29900
C  21.71600 50.77700 24.47400
C  21.38400 50.66000 28.05100
O  22.42300 50.08400 28.24100
C  20.45200 51.05100 29.26600
C  20.06300 49.83700 30.03400
O  19.32300 48.91500 29.69200
O  20.58900 49.92500 31.31200
C  19.91600 49.09000 32.30700
H  14.40700 54.23300 29.95900
H  14.52800 55.85200 23.78600
H  19.85100 52.30500 22.94100
H  18.03200 51.42200 31.29100
H  16.38100 53.74000 31.57300
H  14.75000 52.29500 32.13200
H  15.93800 50.97500 31.74900
H  14.71300 51.71500 30.56000
H  18.48800 54.32600 31.45800
H  19.82200 53.48300 30.96100
H  19.89400 53.91500 33.41000
H  20.00800 52.17000 32.90200
H  11.40600 54.75100 28.25400
H  12.05800 56.38800 28.62700
H  12.56700 54.94400 29.52300
H  10.52300 55.80300 26.68500
H  10.15700 56.33100 25.13300
H  10.91800 57.56600 26.21200
H  16.64800 55.93500 22.05400
H  17.96700 53.56100 21.44400
H  16.09100 54.30800 20.35600
H  14.85300 55.02500 21.38600
H  15.32500 53.19200 21.52900
H  19.88800 54.97800 22.68500
H  19.01600 56.36800 22.01000
H  19.09400 54.46800 19.89300
H  20.73900 54.80700 20.38700
H  19.66600 56.10800 19.92800
H  21.15100 50.45100 23.60000
H  22.34000 50.00300 24.92100
H  22.39200 51.57700 24.17000
H  20.96000 51.73300 29.94800
H  18.86000 49.24900 32.52500
H  20.31000 49.19900 33.31800
H  19.91900 48.02200 32.09200
Mg -11.08800 38.94500 41.36300
C  -8.74000 36.12100 40.96100
C  -9.04200 40.80000 39.51300
C  -13.63700 41.07800 40.99500
C  -13.36500 36.43500 42.38300
N  -9.17000 38.46500 40.21600
C  -8.40800 37.30800 40.24300
C  -7.10300 37.54400 39.51400
C  -7.15700 39.07100 39.09500
C  -8.53500 39.48900 39.67200
C  -5.96600 39.97600 39.61800
C  -7.05900 36.62600 38.26500
C  -5.72400 35.89100 38.20900
H  -4.95700 36.11900 36.93900
N  -11.19900 40.73700 40.47800
C  -10.22800 41.33900 39.84400
C  -10.61500 42.69700 39.51200
C  -11.98400 42.80600 39.83500
C  -12.35100 41.51400 40.48000
C  -9.73400 43.83200 38.79000
C  -12.87400 43.98600 39.55300
O  -12.40200 45.01700 38.97400
C  -14.31500 44.04400 39.81200
N  -13.21000 38.76900 41.67600
C  -14.02300 39.86000 41.54800
C  -15.50700 39.48800 41.96500
C  -15.36500 37.95200 42.36400
C  -13.91700 37.70400 42.13600
C  -16.14400 40.32100 43.15100
C  -16.30100 37.02700 41.59500
C  -17.06900 36.02600 42.55600
N  -11.14500 36.74700 41.72000
C  -12.10400 35.92700 42.20100
C  -11.57300 34.61900 42.47600
C  -10.33400 34.66600 41.97700
C  -10.05000 35.97500 41.51700
C  -12.37700 33.59200 43.10400
C  -9.13000 33.85800 41.81400
O  -8.96500 32.67600 41.99600
C  -8.07800 34.78700 41.05500
C  -6.72600 34.78500 41.70400
O  -5.83800 33.95100 41.61300
O  -6.55700 36.00900 42.38600
C  -5.25800 36.25900 43.14700
H  -8.28500 41.45700 39.07900
H  -14.54800 41.67300 40.90000
H  -14.04000 35.74700 42.89600
H  -6.17000 37.50400 40.07600
H  -7.20400 39.23000 38.01800
H  -6.41300 40.62000 40.37600
H  -5.56700 40.60700 38.82400
H  -5.10500 39.54800 40.13200
H  -7.34100 37.20400 37.38400
H  -7.87000 35.89800 38.24200
H  -5.92400 34.82700 38.32700
H  -5.05700 36.19300 39.01800
H  -10.16800 43.99300 37.80400
H  -8.71800 43.47500 38.62800
H  -9.65500 44.79700 39.29200
H  -14.31700 43.94200 40.89700
H  -14.83900 43.23000 39.31100
H  -14.73200 44.98600 39.45700
H  -16.20600 39.59300 41.13500
H  -15.53400 37.82300 43.43400
H  -16.51500 41.28600 42.80600
H  -15.54600 40.43600 44.05500
H  -16.90200 39.65600 43.56500
H  -15.79000 36.43300 40.83700
H  -17.05900 37.57700 41.03700
H  -17.00100 35.02500 42.13000
H  -18.01500 36.47600 42.85800
H  -16.55600 35.93200 43.51300
H  -13.04400 33.91300 43.90500
H  -11.60300 33.07200 43.66900
H  -12.78200 32.97100 42.30600
H  -8.06200 34.46900 40.01300
H  -5.24800 35.57700 43.99700
H  -5.04800 37.30200 43.38200
H  -4.51200 36.15600 42.35900

