158

Mg 48.01900 15.69900 28.33500
C  46.12500 15.55700 31.28500
C  50.27400 17.79700 30.00800
C  49.63700 16.18000 25.50300
C  45.24900 14.34300 26.61800
N  48.11600 16.61700 30.32800
C  47.40300 16.21900 31.36500
C  47.96300 16.72900 32.71100
C  49.11500 17.69600 32.31500
C  49.21800 17.28100 30.81000
C  48.79000 19.21400 32.47500
C  48.40100 15.60400 33.59600
C  48.34700 15.76200 35.10400
H  48.39300 17.11400 35.82200
N  49.73900 16.78500 27.84900
C  50.55200 17.58900 28.62100
C  51.69600 18.04900 27.89000
C  51.61900 17.37600 26.66300
C  50.29500 16.74400 26.63800
C  52.75600 18.99000 28.54100
C  52.53300 17.45100 25.46400
O  52.33600 16.82300 24.51800
C  53.78700 18.32100 25.48600
N  47.45100 15.37300 26.35900
C  48.38600 15.51100 25.41100
C  47.88400 15.01800 24.08800
C  46.69400 14.19000 24.52600
C  46.45500 14.59400 25.91900
C  47.49000 16.21900 23.18900
C  46.77700 12.70100 24.33000
C  45.75000 12.01300 23.44400
N  46.03600 15.06500 28.80200
C  45.01500 14.49900 28.04700
C  43.82200 14.31100 28.82700
C  44.25500 14.64300 30.10100
C  45.58500 15.06000 30.05800
C  42.47800 13.83400 28.37800
C  43.80100 14.81000 31.54300
O  42.73500 14.55800 32.00800
C  45.04700 15.24400 32.34900
C  44.56700 16.41600 33.13000
O  44.27200 17.50200 32.67000
O  44.24100 16.07700 34.39700
C  43.31600 16.97300 35.14300
H  51.04600 18.39200 30.50100
H  50.15200 16.10700 24.54300
H  44.36000 14.00000 26.08500
H  47.15200 17.18600 33.27800
H  50.02200 17.53200 32.89700
H  48.94300 19.73900 31.53100
H  49.63300 19.46300 33.12000
H  47.88900 19.52100 33.00600
H  49.45600 15.38000 33.43600
H  47.87000 14.70800 33.27400
H  49.17500 15.18500 35.51600
H  47.44800 15.18400 35.32100
H  53.35600 19.57600 27.84500
H  53.46100 18.25600 28.93100
H  52.35800 19.63300 29.32600
H  54.28800 18.00300 26.40000
H  53.51600 19.37700 25.48600
H  54.49600 18.21400 24.66500
H  48.60200 14.44700 23.49900
H  45.78500 14.53700 24.03400
H  47.68700 17.08700 23.81800
H  46.44200 16.39200 22.94300
H  48.07900 16.22400 22.27200
H  46.61400 12.20900 25.28900
H  47.74000 12.39000 23.92600
H  46.30900 11.66500 22.57500
H  44.95100 12.73200 23.26300
H  45.36000 11.11400 23.92200
H  42.33000 14.30000 27.40400
H  41.85900 14.27100 29.16200
H  42.31500 12.75800 28.32700
H  45.29800 14.41200 33.00700
H  42.45100 17.29600 34.56500
H  43.90500 17.76000 35.61500
H  42.95200 16.40900 36.00200
Mg -10.34200 39.88500 39.53600
C  -9.53900 36.53200 38.69800
C  -7.29000 40.80100 38.52900
C  -11.44500 43.07400 39.50400
C  -13.60000 38.84600 40.31800
N  -8.57800 38.68900 38.82100
C  -8.45200 37.34200 38.53300
C  -7.02000 37.04800 37.96100
C  -6.26600 38.41500 38.31100
C  -7.42600 39.37200 38.57300
C  -5.27300 38.37700 39.55500
C  -7.08500 36.60300 36.43900
C  -7.52800 37.66700 35.45800
H  -8.80000 37.52500 34.67500
N  -9.47700 41.71200 39.05400
C  -8.20900 41.90300 38.63200
C  -7.93700 43.28200 38.45400
C  -9.18800 43.98800 38.69900
C  -10.13300 42.90200 39.16400
C  -6.67400 43.83800 37.90900
C  -9.46200 45.48100 38.38100
O  -8.57700 46.15500 37.80000
C  -10.69700 46.30800 38.67400
N  -12.36200 40.83700 39.76600
C  -12.49000 42.17900 39.77400
C  -13.85800 42.50900 40.24700
C  -14.34400 41.20100 40.96000
C  -13.43500 40.26300 40.25200
C  -14.13300 43.87000 41.12100
C  -15.88900 40.99000 40.89000
C  -16.45200 40.42900 39.67800
N  -11.40400 38.10700 39.53100
C  -12.72800 37.83100 39.79400
C  -13.04900 36.40600 39.62700
C  -11.84400 35.90500 39.19700
C  -10.88500 36.93100 39.14300
C  -14.33100 35.75200 39.93500
C  -11.18400 34.61700 38.78200
O  -11.65600 33.49100 38.59700
C  -9.66300 35.03100 38.57000
C  -8.87000 34.34300 39.59300
O  -9.04600 34.31700 40.79500
O  -7.96100 33.50100 38.92400
C  -6.89100 32.81700 39.70600
H  -6.32300 41.21400 38.23300
H  -11.72700 44.12800 39.55400
H  -14.61000 38.47300 40.50500
H  -6.68100 36.23500 38.60300
H  -5.64900 38.63300 37.44000
H  -5.58200 38.96700 40.41800
H  -4.32300 38.64800 39.09400
H  -5.31600 37.38200 39.99700
H  -7.68000 35.69100 36.49900
H  -6.04800 36.29700 36.30600
H  -6.82900 37.66100 34.62200
H  -7.47500 38.70300 35.79100
H  -6.77200 44.30000 36.92600
H  -5.92900 43.07000 37.70200
H  -6.34300 44.63200 38.57800
H  -10.77900 46.36600 39.76000
H  -11.59900 45.83300 38.28600
H  -10.57200 47.32100 38.29300
H  -14.38200 42.55100 39.29200
H  -14.09600 41.15100 42.02000
H  -13.18800 44.37300 41.32200
H  -14.70200 43.55000 41.99400
H  -14.87000 44.52400 40.65500
H  -16.17700 42.03800 40.96600
H  -16.18500 40.45300 41.79200
H  -17.13500 41.15400 39.23400
H  -17.03300 39.58800 40.05800
H  -15.69600 40.14800 38.94500
H  -14.82500 36.41900 40.64100
H  -14.21500 34.75800 40.36500
H  -14.84500 35.64300 38.98000
H  -9.50800 34.67200 37.55200
H  -7.32500 32.11200 40.41500
H  -6.30100 33.57600 40.22100
H  -6.36100 32.23400 38.95300

