158

Mg 40.99000 9.64800 30.31500
C  42.72400 11.16500 32.88700
C  38.70600 8.42900 32.82500
C  39.12400 8.15300 27.92500
C  43.42200 10.48400 28.01800
N  40.86900 9.75400 32.59400
C  41.73300 10.43500 33.42300
C  41.27800 10.40200 34.91200
C  40.03400 9.41600 34.85900
C  39.81900 9.16600 33.33100
C  40.10600 8.12600 35.66700
C  41.07500 11.79200 35.54400
C  40.05300 12.07400 36.71300
H  40.49800 12.95500 37.91700
N  39.14900 8.47700 30.40700
C  38.45300 8.06300 31.50000
C  37.32800 7.23200 31.04500
C  37.42000 7.21300 29.57700
C  38.55900 8.05800 29.25600
C  36.39200 6.50100 31.99700
C  36.54800 6.56400 28.59100
O  36.77100 6.49600 27.40900
C  35.24900 5.97900 29.13500
N  41.22300 9.33200 28.31800
C  40.29300 8.64100 27.47300
C  40.66400 8.87300 25.97600
C  41.96500 9.68300 26.05000
C  42.24100 9.83500 27.57300
C  40.81800 7.51400 25.18300
C  41.99600 11.05600 25.31600
C  41.14900 12.20400 26.03900
N  42.65500 10.72300 30.32800
C  43.60400 10.92800 29.35600
C  44.67600 11.61300 29.89200
C  44.35300 11.81600 31.29500
C  43.10000 11.22300 31.49600
C  45.76900 12.16000 29.07100
C  44.81500 12.39600 32.60300
O  45.86600 12.94900 32.89600
C  43.76400 11.91900 33.70200
C  44.58200 11.37600 34.90300
O  44.75500 10.20500 35.06200
O  45.03500 12.31000 35.78600
C  45.80700 11.78700 36.97000
H  37.95100 8.23100 33.58900
H  38.67400 7.64600 27.06900
H  44.19100 10.78000 27.30100
H  41.97200 9.78500 35.48400
H  39.17400 10.04300 35.09400
H  39.10700 7.82200 35.97900
H  40.75300 8.31100 36.52400
H  40.56100 7.41900 34.97200
H  40.72000 12.40300 34.71300
H  42.02900 12.16200 35.92000
H  39.69000 11.07600 36.95900
H  39.23600 12.63600 36.26000
H  36.47600 6.95000 32.98700
H  36.61000 5.44800 32.17400
H  35.31800 6.52800 31.81500
H  34.56000 6.70200 29.57200
H  35.68300 5.29000 29.86000
H  34.81600 5.42300 28.30400
H  39.79900 9.40900 25.58700
H  42.84800 9.26400 25.56900
H  40.00700 7.50600 24.45500
H  40.62000 6.69400 25.87500
H  41.78300 7.40200 24.68900
H  41.74600 10.90500 24.26600
H  43.05000 11.32900 25.26300
H  40.66600 11.88100 26.96100
H  40.34800 12.62700 25.43100
H  41.74700 12.99100 26.49700
H  46.38700 12.84700 29.64900
H  45.39900 12.74700 28.23100
H  46.37700 11.33500 28.69900
H  43.16600 12.78100 33.99700
H  45.08800 11.31300 37.63800
H  46.32500 12.56600 37.52800
H  46.48500 10.97900 36.69600
Mg -5.91300 25.62100 25.65600
C  -4.15500 26.66300 28.51800
C  -7.92300 23.70700 27.66400
C  -7.28300 24.09600 22.84900
C  -3.75100 27.32300 23.62500
N  -5.98800 25.19300 27.86300
C  -5.19800 25.79900 28.79900
C  -5.75500 25.30400 30.16800
C  -6.74400 24.15400 29.85900
C  -6.92600 24.35400 28.37900
C  -6.24000 22.71400 30.10100
C  -6.30900 26.52800 30.99600
C  -5.58100 26.79600 32.38600
H  -4.81700 25.56600 32.96500
N  -7.44500 24.20600 25.29500
C  -8.22600 23.64800 26.30200
C  -9.15700 22.72900 25.74500
C  -9.04200 22.80100 24.32200
C  -7.91200 23.76200 24.07100
C  -10.20000 21.95800 26.58000
C  -9.82400 22.11700 23.27400
O  -9.63900 22.25400 22.05100
C  -10.85700 21.12200 23.64400
N  -5.71400 25.84700 23.56400
C  -6.26800 25.01900 22.56600
C  -5.63400 25.18000 21.23000
C  -4.72400 26.38700 21.40600
C  -4.75100 26.62600 22.97000
C  -4.99600 23.86200 20.61900
C  -5.06200 27.65300 20.53700
C  -4.26700 27.66800 19.17000
N  -4.25400 26.71200 25.94000
C  -3.45400 27.36700 25.01900
C  -2.45100 28.23100 25.71100
C  -2.73500 27.89500 27.08400
C  -3.83200 26.96000 27.18700
C  -1.46100 29.15200 25.10400
C  -2.33500 28.28000 28.46900
O  -1.60100 29.15800 28.81500
C  -3.14800 27.31600 29.48500
C  -2.12500 26.37900 29.95800
O  -1.99500 25.15600 29.58900
O  -1.42200 26.99400 30.98400
C  -0.65500 26.07300 31.79600
H  -8.45700 23.01900 28.32300
H  -7.56500 23.55000 21.94600
H  -3.09500 27.79400 22.89000
H  -4.79900 24.93300 30.53900
H  -7.68200 24.32400 30.38800
H  -5.25600 22.84300 30.55100
H  -6.10900 22.22100 29.13800
H  -6.98000 22.19200 30.70700
H  -7.32100 26.24000 31.28200
H  -6.32200 27.41000 30.35700
H  -6.35200 27.00000 33.12900
H  -4.99200 27.71200 32.37800
H  -11.15000 22.28000 26.15400
H  -10.21100 22.13400 27.65600
H  -9.93800 20.90400 26.48400
H  -10.36300 20.42100 24.31800
H  -10.97200 20.56700 22.71300
H  -11.77500 21.64800 23.90500
H  -6.47100 25.51400 20.61700
H  -3.67700 26.12800 21.24600
H  -3.94300 23.94400 20.35000
H  -5.66200 23.50200 19.83500
H  -5.00500 23.22700 21.50500
H  -4.76200 28.51500 21.13200
H  -6.12600 27.72500 20.31300
H  -4.96200 27.92600 18.37200
H  -3.81400 26.69400 18.98700
H  -3.39500 28.30200 19.33000
H  -1.26400 28.85900 24.07300
H  -0.46800 29.01700 25.53400
H  -1.83500 30.17300 25.03500
H  -3.50100 27.88300 30.34600
H  -1.39200 25.71000 32.51300
H  -0.01800 26.76900 32.34300
H  -0.11000 25.29400 31.26300

