158

Mg -10.62900 39.58200 41.79600
C  -9.48700 36.39000 41.26800
C  -7.62800 40.90200 40.50200
C  -12.05700 42.67100 41.55100
C  -13.91000 38.26000 42.28800
N  -8.72400 38.75200 41.14300
C  -8.50700 37.35400 40.96100
C  -7.19900 37.17000 40.24100
C  -6.51900 38.63100 40.19200
C  -7.62800 39.46600 40.65700
C  -5.27800 38.81500 41.09100
C  -7.45400 36.56100 38.80900
C  -6.91300 35.09600 38.54900
H  -6.65800 34.69000 37.12200
N  -9.87300 41.54400 41.23900
C  -8.63100 41.86200 40.83000
C  -8.52100 43.25300 40.66100
C  -9.72500 43.80500 41.09700
C  -10.62900 42.67100 41.25000
C  -7.24700 43.98900 40.26100
C  -10.08600 45.28600 41.15100
O  -9.32000 46.18100 40.67600
C  -11.28700 45.60500 42.02200
N  -12.71000 40.34800 41.81300
C  -12.95800 41.65000 41.92600
C  -14.48200 41.94200 41.95600
C  -15.05800 40.51800 42.10800
C  -13.82200 39.62000 42.05200
C  -14.93900 43.03000 43.03000
C  -16.08800 40.10600 41.00200
C  -17.34900 39.32800 41.45600
N  -11.53400 37.71500 41.98000
C  -12.85600 37.35900 42.19400
C  -12.87500 35.88300 42.26100
C  -11.59500 35.46500 41.83900
C  -10.81800 36.60700 41.67000
C  -14.06800 35.12700 42.66800
C  -10.79700 34.25300 41.62300
O  -11.08300 33.09100 41.87100
C  -9.42300 34.86900 41.09700
C  -8.23300 34.42700 41.92400
O  -7.69200 34.97100 42.91600
O  -7.84200 33.20500 41.39300
C  -6.50600 32.74000 41.76000
H  -6.72100 41.19500 39.96800
H  -12.54900 43.63500 41.40800
H  -14.84500 37.70300 42.37400
H  -6.54800 36.54700 40.85500
H  -6.12700 38.84300 39.19700
H  -5.44200 39.47600 41.94200
H  -4.48200 39.17000 40.43500
H  -4.95400 37.89400 41.57500
H  -7.12800 37.12500 37.93500
H  -8.54000 36.54500 38.71800
H  -7.64000 34.37300 38.91900
H  -6.03400 34.91400 39.16700
H  -7.29700 44.32500 39.22500
H  -6.42200 43.28300 40.35800
H  -7.06900 44.86000 40.89100
H  -11.35200 44.84200 42.79900
H  -12.23600 45.56800 41.48800
H  -11.23600 46.64000 42.35900
H  -14.58000 42.32000 40.93800
H  -15.46800 40.31000 43.09600
H  -14.88600 44.01900 42.57400
H  -14.20300 42.98900 43.83200
H  -15.98000 42.84600 43.29700
H  -15.73800 39.39600 40.25300
H  -16.29000 40.90900 40.29400
H  -17.19600 38.26400 41.27200
H  -18.25000 39.60500 40.91000
H  -17.50000 39.36400 42.53500
H  -13.72800 34.11200 42.87600
H  -14.74000 35.28300 41.82400
H  -14.53300 35.53500 43.56500
H  -9.31700 34.54300 40.06200
H  -6.67400 32.33300 42.75700
H  -5.78600 33.55800 41.74400
H  -6.17600 31.96300 41.07000
Mg -11.90400 16.58300 42.86600
C  -8.48000 17.07000 42.90800
C  -12.40400 19.71100 41.95700
C  -15.22300 15.88200 42.69700
C  -11.24900 13.07600 43.26400
N  -10.58900 18.12800 42.47800
C  -9.23800 18.20800 42.65400
C  -8.70300 19.49400 42.08200
C  -9.96500 20.43500 41.97000
C  -11.08400 19.43200 42.23100
C  -9.92000 21.57800 42.97600
C  -7.99500 19.45400 40.65600
C  -6.75200 20.28700 40.40700
H  -5.53300 19.74800 39.71500
N  -13.57700 17.59600 42.24100
C  -13.54200 18.88900 41.90000
C  -14.90300 19.37200 41.65000
C  -15.78800 18.29800 41.95500
C  -14.86000 17.15800 42.31200
C  -15.26200 20.87700 41.31800
C  -17.32000 18.34500 41.93900
O  -17.83300 19.42500 41.77200
C  -18.17600 17.16600 42.16400
N  -13.11100 14.69200 42.60100
C  -14.47800 14.73400 42.81200
C  -14.91200 13.40400 43.33100
C  -13.67600 12.53800 43.42400
C  -12.64200 13.48400 43.11400
C  -15.87700 13.46800 44.58200
C  -13.51700 11.42200 42.32600
C  -13.02200 10.08300 42.84300
N  -10.21800 15.31800 43.11400
C  -10.10300 13.89600 43.18200
C  -8.74400 13.50100 43.36800
C  -8.00300 14.74700 43.26100
C  -8.97700 15.72400 43.07500
C  -8.23400 12.03800 43.44400
C  -6.74100 15.37900 43.21600
O  -5.60900 14.87700 43.29200
C  -7.01700 16.93800 43.06000
C  -6.45500 17.65800 44.27500
O  -6.98100 17.87400 45.33200
O  -5.18600 18.10100 44.02200
C  -4.46400 18.57800 45.22900
H  -12.55200 20.78600 41.83100
H  -16.28300 15.62100 42.72600
H  -11.10100 12.05100 43.61000
H  -7.95700 19.86500 42.78500
H  -10.25700 20.82200 40.99400
H  -8.90600 21.77000 43.32500
H  -10.39500 21.16900 43.86800
H  -10.45800 22.45800 42.62400
H  -8.69800 19.84200 39.91900
H  -7.74000 18.41100 40.46400
H  -6.40800 20.45900 41.42600
H  -7.10500 21.26100 40.06700
H  -15.46900 21.16100 40.28600
H  -14.56100 21.55200 41.80900
H  -16.13700 21.19400 41.88500
H  -19.21200 17.18400 41.82400
H  -18.18100 16.99000 43.23900
H  -17.77100 16.27400 41.68500
H  -15.42600 13.01600 42.45100
H  -13.57500 12.23200 44.46500
H  -15.88600 14.39000 45.16300
H  -15.75800 12.69800 45.34400
H  -16.89400 13.37300 44.20200
H  -12.77000 11.64900 41.56500
H  -14.42800 11.24800 41.75300
H  -13.77600 9.44000 42.38800
H  -13.30000 10.12700 43.89700
H  -11.99200 9.82100 42.60400
H  -7.33200 12.07600 44.05600
H  -7.88800 11.68300 42.47400
H  -8.92500 11.30000 43.84900
H  -6.33600 17.44200 42.37500
H  -4.82900 19.52800 45.61900
H  -3.39000 18.71800 45.10300
H  -4.53800 17.81800 46.00600

