158

Mg 41.23400 41.16300 26.88000
C  40.27200 43.58400 29.12100
C  42.06300 38.97500 29.36200
C  42.25200 38.75300 24.59100
C  40.71000 43.42900 24.26800
N  41.13700 41.28900 28.94100
C  40.61700 42.34300 29.70200
C  40.66900 41.92700 31.24500
C  41.40100 40.57100 31.30500
C  41.55600 40.25800 29.77200
C  42.65700 40.28800 32.17200
C  39.32000 42.05100 32.01300
C  39.44200 42.66900 33.38900
H  38.65200 42.11900 34.65000
N  41.96800 39.07900 26.95100
C  42.27400 38.45800 28.08900
C  42.66800 37.12000 27.73400
C  42.77600 37.00300 26.32500
C  42.29700 38.27300 25.86900
C  43.14500 36.21800 28.80000
C  43.29300 35.85200 25.48300
O  43.36800 35.91800 24.27700
C  43.75000 34.56400 26.10400
N  41.54100 41.17100 24.76900
C  41.81500 39.98900 24.09000
C  41.78700 40.29700 22.48200
C  41.21300 41.73400 22.46200
C  41.16200 42.16600 23.94600
C  43.17900 40.17700 21.88300
C  39.84900 41.82400 21.68400
C  38.60300 41.39000 22.54100
N  40.69800 43.17700 26.65200
C  40.49300 43.94800 25.54700
C  40.10800 45.30900 25.89200
C  39.97100 45.22000 27.34000
C  40.40700 43.92800 27.74800
C  39.91900 46.47300 24.94400
C  39.59400 45.91000 28.61600
O  39.14200 47.02100 28.85700
C  39.75600 44.87200 29.75500
C  40.78000 45.41200 30.59300
O  41.88200 45.92700 30.27900
O  40.19200 45.50000 31.82500
C  41.01600 46.32700 32.75700
H  42.31100 38.32900 30.20700
H  42.51600 38.13200 23.73200
H  40.23600 44.03500 23.49300
H  41.35700 42.65200 31.68000
H  40.65600 39.84400 31.62900
H  42.64200 40.93100 33.05300
H  43.61800 40.45800 31.68700
H  42.51200 39.32800 32.66700
H  38.94200 41.05100 32.22500
H  38.55600 42.48500 31.36800
H  39.12800 43.71300 33.39000
H  40.48900 42.64200 33.69200
H  43.18800 36.63400 29.80700
H  44.14200 35.85000 28.55900
H  42.41300 35.41100 28.83000
H  43.01400 33.97200 26.65000
H  44.71600 34.75600 26.57200
H  44.17100 34.01000 25.26500
H  41.17900 39.51900 22.02000
H  41.93600 42.40800 22.00100
H  43.38200 40.98900 21.18500
H  43.26700 39.23300 21.34600
H  43.92800 40.06900 22.66900
H  39.81600 41.24000 20.76400
H  39.74100 42.87700 21.42300
H  38.78000 41.19600 23.59900
H  38.20300 40.46200 22.13400
H  37.92100 42.23400 22.43400
H  38.88300 46.62400 24.64300
H  40.50900 46.34200 24.03600
H  40.37900 47.33800 25.42200
H  38.84100 44.71100 30.32500
H  42.08500 46.43700 32.57000
H  40.80200 46.08400 33.79800
H  40.67200 47.36100 32.73200
Mg 26.47800 49.79800 25.95800
C  24.20900 50.93200 28.47100
C  28.60700 48.78100 28.45100
C  28.64900 48.78800 23.65600
C  24.28600 50.96000 23.62800
N  26.46600 50.01800 28.13100
C  25.41700 50.38000 29.02600
C  25.85300 50.26400 30.50900
C  27.23100 49.49600 30.43100
C  27.46500 49.51300 28.93100
C  28.31800 50.12500 31.30100
C  24.72600 49.75400 31.42800
C  25.07800 48.84300 32.63600
H  25.76200 49.62800 33.84100
N  28.40800 48.93900 26.00400
C  29.03400 48.48400 27.12800
C  30.18400 47.71100 26.67700
C  30.25300 47.79300 25.30500
C  29.11400 48.58300 24.93600
C  31.14000 46.98100 27.67300
C  31.24900 47.23200 24.35900
O  31.27400 47.33100 23.16600
C  32.39800 46.45200 24.98900
N  26.50300 50.03400 23.97000
C  27.44400 49.37900 23.20500
C  27.02500 49.26700 21.69200
C  25.49300 49.61500 21.85200
C  25.43300 50.24900 23.20500
C  27.73000 50.34900 20.82100
C  24.56400 48.27000 21.72200
C  23.93200 48.12400 20.28400
N  24.69200 50.88900 26.02900
C  23.93000 51.29000 24.93900
C  22.70800 51.81200 25.41400
C  22.72500 51.73000 26.77800
C  23.96400 51.16000 27.11400
C  21.59400 52.32400 24.59300
C  22.07800 51.91800 28.01800
O  21.04500 52.43500 28.21600
C  23.03600 51.43300 29.17500
C  23.31300 52.56600 30.12400
O  24.28400 53.35100 30.08300
O  22.41500 52.57700 31.14000
C  22.77000 53.42900 32.34000
H  29.30100 48.31500 29.15300
H  29.31900 48.57500 22.82000
H  23.40200 51.23500 23.04900
H  26.13200 51.28600 30.76700
H  27.10500 48.44300 30.68300
H  29.22100 50.23100 30.69900
H  28.63700 49.36000 32.00900
H  28.26800 51.15500 31.65400
H  24.04000 49.20000 30.78800
H  24.17400 50.62300 31.78400
H  25.70300 48.01000 32.31400
H  24.14000 48.36400 32.91600
H  32.19000 47.23900 27.53500
H  30.95000 45.93500 27.43300
H  30.87300 47.07400 28.72600
H  33.12000 46.13800 24.23500
H  31.86400 45.63800 25.48000
H  33.05900 47.03700 25.62900
H  27.27400 48.25400 21.37700
H  25.11000 50.34400 21.13800
H  27.15400 51.11500 20.30100
H  28.18600 49.86600 19.95700
H  28.47900 50.86000 21.42600
H  23.81000 48.28100 22.50900
H  25.24500 47.43000 21.86000
H  24.11100 47.09000 19.99100
H  24.44400 48.69000 19.50600
H  22.87100 48.36100 20.20900
H  21.04200 51.45100 24.24500
H  22.08800 52.78000 23.73500
H  20.95300 53.03400 25.11500
H  22.65900 50.60700 29.77700
H  22.89000 54.49100 32.12700
H  23.77000 53.11000 32.63200
H  22.18800 53.20100 33.23300

