158

Mg 41.41300 7.67300 29.62400
C  42.85200 8.97300 32.52900
C  38.99700 6.19200 31.69000
C  40.09000 6.11200 26.90400
C  44.16500 8.68700 27.74300
N  40.93400 7.64800 31.93300
C  41.72000 8.27800 32.88500
C  41.13500 7.96500 34.30200
C  39.93600 6.98400 33.94800
C  39.97900 6.85100 32.44200
C  39.93900 5.65500 34.72400
C  40.66800 9.24300 35.14000
C  40.80800 9.26200 36.72600
H  40.92100 10.58400 37.29400
N  39.67800 6.54600 29.29800
C  38.83900 6.00500 30.27800
C  37.77600 5.32200 29.59200
C  37.99000 5.43800 28.24800
C  39.29000 6.06200 28.08600
C  36.64100 4.53900 30.37600
C  37.05000 5.09600 27.13200
O  37.42300 4.98200 25.96700
C  35.65400 4.69200 27.44500
N  42.03000 7.44000 27.58000
C  41.26900 6.81000 26.68300
C  41.88600 6.99600 25.26200
C  43.06300 7.97700 25.44500
C  43.06700 8.06700 26.96900
C  42.25200 5.61400 24.62600
C  42.94000 9.39900 24.84900
C  41.76700 10.33300 25.28100
N  43.10800 8.68700 29.97400
C  44.18100 8.98800 29.14300
C  45.12300 9.75000 29.92600
C  44.63800 9.81900 31.21700
C  43.42800 9.07400 31.22300
C  46.44600 10.33400 29.54100
C  44.76700 10.42200 32.50500
O  45.64400 11.15800 32.88600
C  43.61900 9.83300 33.44300
C  44.32100 9.19400 34.51400
O  44.79000 8.06700 34.45000
O  44.19300 9.96000 35.62000
C  44.84200 9.66700 36.87200
H  38.20500 5.71500 32.27200
H  39.62600 5.57300 26.07500
H  44.98400 9.07200 27.13200
H  41.91900 7.47300 34.87700
H  39.04900 7.47200 34.35200
H  40.79100 5.65200 35.40400
H  40.14700 4.90600 33.96000
H  38.97600 5.45800 35.19700
H  39.64600 9.40700 34.80100
H  41.26900 10.03800 34.69800
H  41.68700 8.74100 37.10500
H  39.89900 8.75900 37.05500
H  36.91400 4.38300 31.42000
H  36.27900 3.62700 29.90200
H  35.74600 5.14000 30.53800
H  35.09300 4.63700 26.51300
H  35.15000 5.29900 28.19800
H  35.79700 3.66200 27.77100
H  41.09500 7.47200 24.68200
H  44.02200 7.56600 25.12800
H  42.22900 4.87700 25.42900
H  43.27300 5.64400 24.24400
H  41.67300 5.35700 23.73900
H  42.96900 9.32900 23.76200
H  43.85800 9.93400 25.09400
H  42.15300 11.09900 25.95400
H  41.01500 9.68200 25.72900
H  41.31600 10.77200 24.39100
H  47.03100 9.42100 29.43700
H  46.86000 11.03200 30.27000
H  46.35400 10.77800 28.55000
H  43.02600 10.68400 33.77700
H  45.12200 8.62100 36.75000
H  44.13600 9.61600 37.70100
H  45.70200 10.26200 37.17800
Mg 53.67500 24.31600 45.12600
C  50.65900 25.98200 44.28500
C  52.25000 21.57000 43.69900
C  56.65300 22.76600 45.38800
C  54.95400 27.18400 46.32000
N  51.73000 23.87300 44.01600
C  50.77400 24.76800 43.65500
C  49.71700 24.06300 42.74400
C  49.91600 22.57300 43.20500
C  51.37300 22.66800 43.59500
C  48.91500 22.21900 44.28000
C  50.03500 24.20400 41.22200
C  48.80900 24.48500 40.27900
H  47.97800 23.32800 39.75800
N  54.35600 22.41500 44.63800
C  53.65200 21.46700 43.98500
C  54.42800 20.26300 43.91100
C  55.74100 20.53700 44.42600
C  55.66600 21.94500 44.80200
C  53.89200 18.98300 43.32200
C  56.90900 19.52800 44.52700
O  56.72100 18.34300 44.29400
C  58.25900 20.06900 45.12300
N  55.64500 25.03800 45.41600
C  56.63100 24.16000 45.68500
C  57.83200 24.91400 46.39600
C  57.20200 26.37500 46.57700
C  55.80600 26.15800 46.08600
C  58.48700 24.18400 47.72700
C  57.96500 27.59600 45.92500
C  58.63200 28.53900 46.98400
N  52.93100 26.19800 45.46800
C  53.54700 27.23500 46.10800
C  52.55200 28.30900 46.26600
C  51.43300 27.87800 45.50000
C  51.65400 26.58300 45.04700
C  52.79700 29.61200 46.92200
C  50.01300 28.15600 45.17200
O  49.37500 29.12100 45.51100
C  49.52200 26.92900 44.34700
C  49.20500 27.47500 42.98600
O  50.10800 27.80800 42.17600
O  47.85500 27.51700 42.82000
C  47.41100 28.25800 41.61500
H  51.73300 20.68100 43.33200
H  57.61500 22.32200 45.65000
H  55.32800 28.14600 46.67700
H  48.78600 24.56200 43.01200
H  49.84700 21.90800 42.34400
H  48.14900 21.53400 43.91500
H  48.45000 23.17700 44.51300
H  49.50500 21.75200 45.06800
H  50.48600 23.30200 40.80800
H  50.71500 25.03000 41.00900
H  49.20300 25.10900 39.47600
H  48.14100 25.14500 40.83300
H  53.83600 19.16700 42.24900
H  52.81600 18.83200 43.40700
H  54.43600 18.06700 43.55400
H  58.67900 20.89100 44.54300
H  58.97600 19.25000 45.17800
H  58.07300 20.36200 46.15600
H  58.55700 25.03100 45.59100
H  57.13900 26.45000 47.66300
H  58.91100 24.91400 48.41600
H  59.21400 23.48800 47.30700
H  57.83600 23.51700 48.29200
H  57.31700 28.14000 45.23800
H  58.84400 27.33400 45.33600
H  59.71000 28.49000 46.83300
H  58.42900 28.19400 47.99700
H  58.29500 29.57600 47.01300
H  53.34400 29.51100 47.85800
H  51.86300 30.16800 47.01200
H  53.37800 30.23200 46.23800
H  48.65600 26.53600 44.88000
H  48.17300 28.75600 41.01600
H  46.60100 28.94900 41.85100
H  47.08400 27.44700 40.96400

