158

Mg 6.21900 54.03100 40.87300
C  5.24200 50.69300 40.67500
C  9.28400 53.09600 39.64900
C  6.89400 57.22900 40.16900
C  2.78400 54.82400 41.61300
N  7.15000 52.09600 40.31700
C  6.57500 50.84100 40.36000
C  7.58100 49.76000 39.92800
C  8.92900 50.55900 40.03700
C  8.46300 52.03100 39.97800
C  9.93500 50.12400 41.18400
C  7.41300 49.14400 38.48000
C  6.62300 49.91800 37.43800
H  7.39900 50.67900 36.32200
N  7.91800 55.07600 40.03300
C  9.12200 54.45100 39.68000
C  10.07800 55.42800 39.31200
C  9.39800 56.67100 39.31600
C  7.97900 56.38700 39.78900
C  11.53600 55.10200 38.97100
C  9.95600 57.96400 38.96100
O  11.10600 58.07000 38.61600
C  9.09600 59.27000 38.87800
N  4.88300 55.77000 40.69700
C  5.53300 56.99300 40.55200
C  4.47500 58.11000 40.70400
C  3.18000 57.31800 41.13800
C  3.64700 55.86800 41.17600
C  4.89200 59.08600 41.82900
C  1.84900 57.54100 40.28400
C  0.47000 57.64200 40.92600
N  4.32400 53.00200 41.12100
C  3.06000 53.49200 41.54000
C  2.20100 52.39900 41.79700
C  3.00800 51.28000 41.47900
C  4.27600 51.71000 41.05200
C  0.79200 52.40400 42.19900
C  3.06900 49.81000 41.45500
O  2.20900 48.94300 41.83500
C  4.49800 49.33600 40.94200
C  4.38700 48.48000 39.76000
O  3.79900 48.83300 38.74700
O  5.04600 47.32300 40.06300
C  5.03300 46.25800 39.02100
H  10.25600 52.64900 39.42900
H  7.06900 58.30200 40.27100
H  1.78900 55.16400 41.91100
H  7.54700 48.92500 40.62700
H  9.57500 50.46500 39.16400
H  10.79300 49.56800 40.80500
H  9.44800 49.50500 41.93700
H  10.33600 50.98200 41.72300
H  6.93700 48.16400 38.50800
H  8.32400 49.00600 37.89900
H  6.14400 50.69200 38.03800
H  5.75600 49.38000 37.05500
H  11.71000 54.02600 38.99700
H  12.24700 55.36800 39.75200
H  11.75600 55.41000 37.94900
H  8.13400 58.98100 38.45500
H  9.62300 60.03700 38.31100
H  9.08700 59.77100 39.84600
H  4.54700 58.54000 39.70500
H  2.87900 57.55400 42.15900
H  5.35500 59.94200 41.33700
H  5.63100 58.54600 42.41900
H  4.14900 59.42200 42.55200
H  1.90600 56.65600 39.65100
H  2.03600 58.43800 39.69300
H  -0.02000 58.44400 40.37400
H  0.59600 57.91900 41.97300
H  -0.05500 56.68800 40.89200
H  0.26200 52.15600 41.27900
H  0.47900 53.34200 42.65900
H  0.63100 51.60500 42.92200
H  4.98400 48.86600 41.79700
H  5.92500 45.66800 39.23000
H  5.05900 46.61900 37.99300
H  4.04700 45.79900 39.09700
Mg -5.45400 25.77900 26.42600
C  -4.11600 27.44200 29.12100
C  -7.14600 23.61200 28.59400
C  -6.56900 23.97900 23.76400
C  -3.55600 27.85300 24.19100
N  -5.55100 25.56400 28.61900
C  -5.00600 26.38700 29.51200
C  -5.46000 26.00100 30.97100
C  -6.17400 24.57400 30.68700
C  -6.38700 24.65700 29.17500
C  -5.20900 23.39000 31.07200
C  -6.40700 27.10500 31.52700
C  -6.45000 27.29800 33.04300
H  -5.88800 26.16600 33.92900
N  -6.73000 24.00300 26.17700
C  -7.31300 23.29900 27.17900
C  -8.16600 22.28200 26.63200
C  -8.08900 22.41500 25.22000
C  -7.06100 23.46600 24.97200
C  -9.07300 21.40400 27.48900
C  -8.85200 21.79400 24.16500
O  -8.62600 22.10900 23.03800
C  -9.91300 20.71100 24.49500
N  -4.82900 25.72800 24.31200
C  -5.55500 24.93200 23.41000
C  -5.13800 25.27500 21.91100
C  -4.19100 26.54700 22.04900
C  -4.16900 26.75000 23.59300
C  -4.57900 24.14000 21.01800
C  -4.71100 27.83100 21.19600
C  -5.48100 27.56800 19.91700
N  -4.14000 27.34700 26.58100
C  -3.50800 28.14500 25.54600
C  -2.77400 29.21400 26.19900
C  -2.96300 28.94700 27.62700
C  -3.75300 27.78800 27.77200
C  -1.94300 30.27700 25.65700
C  -2.64100 29.43900 28.94700
O  -1.95200 30.42600 29.32800
C  -3.44100 28.54300 29.97500
C  -2.51300 28.01200 30.97900
O  -1.73500 27.13800 30.72800
O  -2.78200 28.52000 32.23600
C  -2.05500 28.03400 33.38100
H  -7.67900 22.97200 29.30100
H  -6.88900 23.50600 22.83300
H  -3.06800 28.42700 23.40000
H  -4.60700 25.91700 31.64500
H  -7.08800 24.47900 31.27400
H  -5.18100 22.79200 30.16100
H  -5.62500 22.75700 31.85600
H  -4.20400 23.74500 31.29800
H  -7.41300 27.08100 31.10900
H  -6.14100 28.04500 31.04400
H  -7.52800 27.24700 33.19100
H  -6.17700 28.30600 33.35400
H  -8.97500 21.65100 28.54600
H  -9.02400 20.35400 27.20100
H  -10.09900 21.64800 27.21200
H  -9.40700 19.96800 25.11000
H  -10.17100 20.17300 23.58200
H  -10.77900 21.24600 24.88600
H  -6.10600 25.47900 21.45300
H  -3.20100 26.27400 21.68600
H  -3.55600 24.34800 20.70400
H  -5.33100 23.88300 20.27200
H  -4.43600 23.20100 21.55200
H  -3.80200 28.38100 20.95200
H  -5.23800 28.55800 21.81300
H  -6.49900 27.88500 20.14300
H  -5.48700 26.58100 19.45500
H  -5.00700 28.29000 19.25100
H  -1.22000 29.86100 24.95500
H  -1.25200 30.82800 26.29400
H  -2.55200 30.89200 24.99400
H  -4.29700 29.07500 30.38900
H  -2.55200 27.21700 33.90300
H  -1.96200 28.89700 34.03900
H  -1.01800 27.73100 33.23600

