158

Mg 16.60400 -0.73300 27.85800
C  15.55400 1.16100 30.52500
C  18.42100 -2.69500 29.91600
C  18.17600 -2.02900 25.17600
C  14.99100 1.48900 25.68400
N  17.07000 -0.64100 30.02900
C  16.45100 0.16400 30.93100
C  16.88000 -0.22600 32.38500
C  17.68800 -1.57200 32.12100
C  17.80100 -1.60800 30.60900
C  19.07400 -1.63700 32.79900
C  15.80200 -0.26000 33.52500
C  16.19000 -0.95000 34.80600
H  17.36500 -0.40500 35.52600
N  17.92400 -2.19200 27.57300
C  18.42000 -2.98200 28.59900
C  19.10300 -4.14600 28.03500
C  19.13200 -3.93800 26.60800
C  18.37800 -2.74500 26.40900
C  19.73900 -5.15500 28.90000
C  19.87400 -4.67700 25.49700
O  19.78400 -4.47300 24.28500
C  20.95700 -5.73900 25.83700
N  16.71800 -0.23100 25.79800
C  17.40700 -0.95600 24.93300
C  17.31700 -0.43600 23.45400
C  16.00100 0.49400 23.59900
C  15.94400 0.63200 25.11400
C  18.66300 0.21000 23.03300
C  14.76300 -0.14800 23.01300
C  13.97700 -1.13300 23.86900
N  15.30300 0.82700 28.00400
C  14.72100 1.65700 27.03400
C  13.81500 2.63300 27.67100
C  14.13100 2.41000 29.05000
C  15.04500 1.39900 29.16800
C  13.03900 3.61000 26.98300
C  13.91000 2.91500 30.43600
O  13.12600 3.75700 30.79600
C  14.83800 2.15600 31.44000
C  15.71800 3.13200 32.14200
O  16.68500 3.69800 31.75400
O  15.15200 3.37700 33.39600
C  15.64200 4.54700 34.16200
H  19.08200 -3.27500 30.56400
H  18.67100 -2.50600 24.32700
H  14.36200 2.09500 25.02800
H  17.57100 0.59200 32.58400
H  17.13100 -2.43000 32.49600
H  19.27700 -0.77000 33.42800
H  19.83900 -1.57400 32.02400
H  19.10800 -2.56900 33.36400
H  14.84400 -0.63800 33.16800
H  15.69000 0.81300 33.68500
H  16.42500 -2.00700 34.68500
H  15.36400 -0.90600 35.51500
H  19.09300 -5.36900 29.75200
H  20.67200 -4.77800 29.31800
H  19.95400 -6.06800 28.34600
H  21.69700 -5.74000 25.03700
H  20.71900 -6.79800 25.93300
H  21.52800 -5.37100 26.69000
H  17.23400 -1.41400 22.97800
H  16.42700 1.42000 23.21100
H  18.55400 1.29000 23.12500
H  18.96100 0.06400 21.99400
H  19.42400 -0.15600 23.72200
H  15.11600 -0.76300 22.18600
H  14.05900 0.57000 22.59400
H  13.06200 -0.74400 24.31800
H  14.56300 -1.46300 24.72700
H  13.81100 -2.06200 23.32300
H  12.89700 3.36900 25.93000
H  13.49200 4.59000 27.13700
H  12.07300 3.59500 27.48800
H  14.25300 1.51900 32.10300
H  15.87700 5.42200 33.55700
H  16.45500 4.40900 34.87500
H  14.82700 4.75300 34.85600
Mg 41.57600 41.37000 26.53100
C  40.80800 43.81800 28.93000
C  42.98900 39.38700 28.98500
C  42.37600 39.00100 24.23900
C  40.47600 43.48600 24.13400
N  41.84400 41.54100 28.83800
C  41.42300 42.70300 29.59100
C  41.76700 42.38400 31.01600
C  42.65300 41.07100 30.94700
C  42.51600 40.58400 29.48700
C  44.10700 41.40700 31.36500
C  40.45100 42.11600 31.89100
C  40.74300 41.66700 33.38100
H  39.75400 42.22300 34.51100
N  42.48600 39.39400 26.62500
C  42.99200 38.82300 27.69000
C  43.72300 37.65700 27.28100
C  43.26200 37.34000 25.97200
C  42.71700 38.61400 25.55300
C  44.51400 36.76600 28.35800
C  43.20000 36.02200 25.13300
O  42.68200 35.90800 24.06300
C  43.72600 34.75400 25.70300
N  41.46100 41.26800 24.49900
C  41.85400 40.21700 23.71100
C  41.52200 40.37700 22.20000
C  40.83800 41.80800 22.14500
C  40.88000 42.17600 23.72400
C  42.83800 40.06100 21.36900
C  39.40800 41.77800 21.54000
C  38.40800 40.97400 22.44800
N  40.85100 43.23400 26.47400
C  40.51100 44.04600 25.44000
C  40.00300 45.35700 25.88500
C  40.08900 45.25000 27.28000
C  40.60300 43.98500 27.59100
C  39.45500 46.52500 25.02600
C  39.88800 45.99400 28.54900
O  39.43400 47.13100 28.72200
C  40.29200 45.03600 29.64800
C  41.21900 45.73100 30.58500
O  42.37400 46.01400 30.38500
O  40.52400 45.99000 31.78000
C  41.30000 46.70500 32.79300
H  43.63900 38.94300 29.74200
H  42.53400 38.31700 23.40200
H  40.26700 44.13100 23.27900
H  42.34700 43.23500 31.37400
H  42.29600 40.33400 31.66700
H  44.60300 40.44300 31.25100
H  44.15500 41.66900 32.42200
H  44.66900 42.04700 30.68500
H  39.98000 41.33400 31.29500
H  39.83100 43.01200 31.87700
H  41.77800 41.87200 33.65100
H  40.70300 40.58300 33.48000
H  44.75900 37.31800 29.26600
H  45.37000 36.16200 28.05600
H  43.72200 36.08300 28.66400
H  44.78700 34.77700 25.45500
H  43.17100 33.88600 25.34700
H  43.61100 34.69400 26.78500
H  40.81400 39.62100 21.85900
H  41.54100 42.37200 21.53300
H  43.76600 39.87500 21.91000
H  43.07300 40.82900 20.63200
H  42.56500 39.14400 20.84800
H  39.48300 41.15900 20.64600
H  39.02200 42.76300 21.27600
H  37.47300 41.49800 22.64600
H  38.76200 40.58700 23.40300
H  38.08300 40.05300 21.96500
H  38.95600 46.06600 24.17300
H  40.18500 47.20000 24.58000
H  38.77900 46.92400 25.78200
H  39.35100 44.83500 30.15900
H  42.16500 47.28900 32.48000
H  41.67100 45.99600 33.53300
H  40.69100 47.35500 33.42200

