158

Mg 0.83000 8.48100 26.07600
C  1.52200 10.27600 29.10300
C  1.49800 5.56200 27.89200
C  0.59400 6.75000 23.30000
C  1.23700 11.45500 24.36100
N  1.56400 8.04100 28.25200
C  1.44900 8.90200 29.29700
C  1.30000 8.21500 30.61100
C  1.59400 6.72800 30.24200
C  1.58800 6.75800 28.68500
C  2.96400 6.29600 30.80500
C  -0.06700 8.54500 31.28300
C  -0.02800 8.67600 32.81200
H  1.14600 8.02400 33.57600
N  0.94800 6.49100 25.66900
C  1.18800 5.43400 26.54500
C  1.18400 4.21000 25.79900
C  0.69400 4.55000 24.49500
C  0.74800 5.99400 24.42300
C  1.63000 2.89700 26.39500
C  0.23000 3.68700 23.31400
O  -0.00800 4.06000 22.20600
C  0.12600 2.29500 23.50400
N  0.71700 9.02800 24.18600
C  0.64400 8.13900 23.18800
C  0.69400 8.80400 21.75900
C  0.45600 10.31600 22.18400
C  0.91500 10.32100 23.64400
C  2.05900 8.46700 21.07300
C  -1.01300 10.70700 22.06600
C  -1.41000 11.68100 20.92700
N  1.29200 10.45900 26.57300
C  1.32400 11.59200 25.73100
C  1.63800 12.75300 26.55200
C  1.67400 12.28300 27.91700
C  1.45800 10.92000 27.80500
C  1.88500 14.13100 26.08900
C  1.85000 12.73400 29.25900
O  2.07000 13.80900 29.78300
C  1.66000 11.48800 30.12300
C  2.73700 11.26800 31.13300
O  3.85800 10.78800 30.92200
O  2.38300 11.80200 32.41600
C  3.35100 11.75100 33.51900
H  1.62400 4.69700 28.54700
H  0.59200 6.28800 22.31100
H  1.39800 12.32600 23.72200
H  2.10500 8.58900 31.24300
H  0.79000 6.16000 30.70900
H  2.67100 5.38900 31.33400
H  3.31500 6.95400 31.59900
H  3.67600 5.98100 30.04200
H  -0.68300 7.69500 30.99200
H  -0.55800 9.44100 30.90300
H  -0.93100 8.16400 33.14400
H  -0.12100 9.70700 33.15500
H  1.12000 2.02300 25.99000
H  1.48300 2.79300 27.47000
H  2.69600 2.83600 26.17700
H  -0.19600 1.82600 22.57400
H  -0.58700 2.02800 24.28300
H  1.14600 2.00400 23.75600
H  -0.05500 8.38900 21.08600
H  1.01500 10.89600 21.45000
H  2.36600 7.46100 21.36000
H  2.86000 9.15100 21.35400
H  1.87300 8.32700 20.00800
H  -1.33400 11.27100 22.94200
H  -1.69100 9.85600 22.13700
H  -0.53600 11.63100 20.27700
H  -1.63100 12.68300 21.29400
H  -2.29800 11.35700 20.38500
H  2.14300 14.76000 26.94100
H  0.91000 14.50800 25.78400
H  2.49300 14.06200 25.18700
H  0.78600 11.48200 30.77500
H  3.49600 12.70400 34.02700
H  4.33400 11.37100 33.24300
H  2.88500 11.07200 34.23300
Mg 17.43900 52.18600 26.45800
C  19.63800 50.77700 28.76700
C  15.38900 53.05600 28.98100
C  15.42100 53.47700 24.15300
C  19.58800 51.02400 23.90000
N  17.51400 51.93500 28.61800
C  18.56600 51.40500 29.40600
C  18.22300 51.39200 30.87100
C  16.64500 51.78200 30.83300
C  16.50300 52.31600 29.41500
C  15.60200 50.71200 31.23600
C  19.12600 52.42200 31.53500
C  19.14600 52.54100 33.05700
H  18.09500 51.66000 33.84700
N  15.63300 53.23500 26.56000
C  14.96600 53.50100 27.70500
C  13.83300 54.31600 27.40200
C  13.91400 54.57800 26.02300
C  14.97800 53.74200 25.50400
C  12.98700 54.89600 28.52800
C  13.06600 55.42200 25.13700
O  13.37800 55.55300 23.97300
C  11.82500 56.06300 25.59900
N  17.32900 51.88300 24.30000
C  16.46700 52.71300 23.62000
C  16.80700 52.79600 22.11400
C  18.21900 52.14200 22.08100
C  18.38200 51.63600 23.54400
C  15.70500 52.05100 21.27800
C  19.48300 53.11300 21.82800
C  20.55700 52.60700 20.79000
N  19.17000 50.98900 26.31500
C  19.94100 50.68500 25.22300
C  21.05900 49.91400 25.66600
C  20.99900 49.89700 27.01900
C  19.84600 50.62800 27.41100
C  22.19800 49.50700 24.75700
C  21.67600 49.39300 28.23800
O  22.65300 48.76400 28.49500
C  20.87700 50.10900 29.43300
C  20.52000 48.93400 30.33100
O  19.78100 48.00000 30.06100
O  21.11500 49.08400 31.50700
C  20.53700 48.25000 32.58700
H  14.76200 53.39500 29.80800
H  14.98900 54.09900 23.36600
H  20.12100 50.62000 23.03700
H  18.33100 50.46100 31.42800
H  16.44500 52.60700 31.51700
H  14.91700 50.60000 30.39400
H  15.08500 51.08400 32.12000
H  16.09900 49.80600 31.58200
H  18.74600 53.40100 31.24400
H  20.17400 52.34000 31.24700
H  18.98300 53.58900 33.31000
H  20.14200 52.27900 33.41500
H  12.40800 54.08200 28.96400
H  12.22400 55.54400 28.09700
H  13.56800 55.40600 29.29800
H  11.31100 55.26500 26.13500
H  11.17500 56.43200 24.80600
H  12.06100 56.95300 26.18100
H  16.85800 53.83900 21.80000
H  18.16900 51.32600 21.36000
H  16.23900 51.30000 20.69600
H  15.15800 52.72600 20.62000
H  14.91800 51.65000 21.91700
H  19.94800 53.43600 22.76000
H  19.07400 54.06100 21.47700
H  21.45900 52.32100 21.33200
H  20.83800 53.36700 20.06200
H  20.16700 51.69500 20.33800
H  23.13600 49.89900 25.15300
H  22.17500 49.79900 23.70800
H  22.23200 48.41800 24.78600
H  21.53800 50.76200 30.00300
H  19.46800 48.41600 32.71600
H  21.00300 48.45700 33.55100
H  20.71400 47.20500 32.33200

