158

Mg -1.24400 17.61300 26.87300
C  -1.92400 15.35000 29.54200
C  -2.38100 20.08800 29.01300
C  -1.10400 19.74700 24.31000
C  -0.90100 14.97000 24.85600
N  -1.88200 17.70900 29.06400
C  -1.95400 16.68600 30.00800
C  -2.43700 17.22700 31.42000
C  -2.78900 18.75900 31.07000
C  -2.30400 18.84800 29.62800
C  -4.26600 19.08800 31.26500
C  -1.37900 17.01900 32.57000
C  -1.82300 16.32400 33.85100
H  -0.79100 16.15500 34.93700
N  -1.57400 19.64800 26.73900
C  -1.98100 20.50600 27.69100
C  -1.92900 21.81400 27.16800
C  -1.54700 21.70200 25.78200
C  -1.36400 20.29700 25.56500
C  -2.29300 23.13800 27.96700
C  -1.27900 22.83900 24.77300
O  -0.99000 22.69800 23.57900
C  -1.43000 24.29200 25.23200
N  -0.93200 17.47800 24.83400
C  -0.80600 18.40500 23.92100
C  -0.61400 17.91200 22.48400
C  -0.33700 16.37700 22.80600
C  -0.69900 16.26600 24.30900
C  -1.71700 18.29200 21.47100
C  1.13600 15.87000 22.56200
C  1.30400 14.39500 22.45300
N  -1.28700 15.58000 27.14600
C  -1.20300 14.61300 26.17800
C  -1.53400 13.29400 26.68500
C  -1.69400 13.51600 28.09700
C  -1.61500 14.91500 28.29400
C  -1.69400 12.09300 25.96700
C  -2.04300 12.97200 29.36800
O  -2.21500 11.83300 29.69200
C  -2.04000 14.11800 30.37900
C  -0.84500 13.91700 31.27300
O  0.30000 14.24200 30.92400
O  -1.24600 13.48700 32.51700
C  -0.14600 13.26200 33.52100
H  -2.83000 20.92100 29.55800
H  -0.99100 20.42100 23.45800
H  -0.79500 14.19000 24.09900
H  -3.29700 16.57800 31.58200
H  -2.27000 19.41600 31.76800
H  -4.82000 18.24700 31.68200
H  -4.77000 19.34100 30.33200
H  -4.42500 19.92800 31.94100
H  -1.01700 18.01100 32.83800
H  -0.52700 16.39700 32.29400
H  -2.31600 15.36800 33.67400
H  -2.56800 16.99900 34.27200
H  -2.91800 23.73900 27.30700
H  -1.39000 23.71400 28.16500
H  -2.80400 22.88600 28.89600
H  -1.19400 24.91600 24.37100
H  -0.77200 24.54200 26.06400
H  -2.48100 24.54200 25.38100
H  0.32800 18.31000 22.10700
H  -1.05200 15.83700 22.18500
H  -2.28700 19.10200 21.92600
H  -2.31800 17.40200 21.28300
H  -1.32500 18.61700 20.50700
H  1.63100 16.08400 23.51000
H  1.58300 16.50000 21.79400
H  1.95900 14.27700 21.59000
H  0.41300 13.79200 22.27900
H  1.89000 13.97300 23.26900
H  -1.76800 12.36500 24.91400
H  -2.59500 11.54700 26.24600
H  -0.78900 11.50000 26.09600
H  -2.99800 14.14200 30.89900
H  0.51200 12.43100 33.26900
H  -0.56500 12.94500 34.47600
H  0.45900 14.16800 33.57200
Mg 35.58400 48.63900 24.95700
C  35.60900 47.05300 28.03400
C  34.73900 51.53400 26.66900
C  35.08100 50.08900 21.95700
C  36.31800 45.74500 23.35100
N  35.07000 49.16600 27.11400
C  35.22100 48.36700 28.21200
C  34.93800 49.20600 29.48900
C  34.59800 50.64200 29.02400
C  34.72400 50.42600 27.54300
C  33.13000 51.13000 29.33800
C  36.07800 49.12200 30.59500
C  35.65800 48.42400 31.92000
H  34.22000 48.40900 32.34400
N  34.89100 50.58100 24.34600
C  34.69700 51.62000 25.21600
C  34.45600 52.85500 24.36000
C  34.41000 52.42100 23.01300
C  34.79600 50.98900 23.07600
C  34.21800 54.21500 25.00600
C  34.18400 53.24000 21.69300
O  34.09400 52.72400 20.57800
C  33.91000 54.68400 21.79900
N  35.55600 48.04000 22.95200
C  35.42700 48.80400 21.89000
C  35.79300 48.14600 20.55800
C  36.32500 46.77000 21.07900
C  36.03900 46.81800 22.54000
C  34.63200 47.96400 19.53100
C  37.80200 46.45900 20.71200
C  38.96800 47.30300 21.36200
N  35.82300 46.72000 25.52900
C  36.20500 45.60300 24.73800
C  36.61400 44.53800 25.65800
C  36.43200 45.07300 26.92500
C  35.85600 46.37200 26.79500
C  37.08200 43.14700 25.22500
C  36.63100 44.76300 28.33600
O  36.98300 43.69300 28.85100
C  35.99900 45.93100 29.06700
C  34.90000 45.44400 29.82700
O  33.71900 45.73600 29.66800
O  35.26700 44.60000 30.78000
C  34.30300 44.06100 31.68600
H  34.58400 52.49800 27.15800
H  35.12400 50.65400 21.02300
H  36.70200 44.88800 22.79400
H  33.95600 48.83200 29.77700
H  35.25400 51.45500 29.33600
H  32.49500 51.15000 28.45200
H  33.18300 52.15800 29.69600
H  32.62700 50.52200 30.09000
H  36.33100 50.12200 30.94800
H  36.96200 48.61300 30.20900
H  36.26400 48.83500 32.72800
H  35.95500 47.37700 31.87100
H  34.94500 55.00200 24.80500
H  34.29700 54.16500 26.09200
H  33.22400 54.57900 24.74600
H  34.87100 55.15300 22.01000
H  33.10500 54.84100 22.51600
H  33.59400 55.00900 20.80800
H  36.58800 48.68100 20.03800
H  35.96900 45.89800 20.53100
H  33.71800 48.51100 19.76000
H  34.26200 46.94600 19.41700
H  34.92000 48.21800 18.51000
H  38.00600 46.59000 19.64900
H  37.88300 45.38200 20.86400
H  39.67800 47.68400 20.62800
H  39.69600 46.64500 21.83500
H  38.79400 48.20700 21.94500
H  36.42100 42.70900 24.47700
H  36.98200 42.52600 26.11500
H  38.08700 43.22400 24.81100
H  36.83300 46.17800 29.72400
H  33.27400 44.41500 31.63800
H  34.61400 44.14900 32.72700
H  34.24600 42.97500 31.60400

