158

Mg 47.55700 45.86800 42.95600
C  44.29800 45.03200 41.83700
C  48.75900 43.17900 40.95300
C  50.78500 46.83500 43.33100
C  46.41500 48.88800 43.86300
N  46.67100 44.25400 41.48300
C  45.30500 44.16800 41.20900
C  45.00400 42.98700 40.24000
C  46.35600 42.18900 40.42800
C  47.34000 43.19300 41.04100
C  46.24600 40.97000 41.41700
C  44.72200 43.49600 38.81500
C  43.30700 43.06400 38.24400
H  43.26500 41.80700 37.29200
N  49.45100 45.00700 42.35000
C  49.72700 43.95800 41.50400
C  51.16600 43.74900 41.45600
C  51.75400 44.71000 42.26700
C  50.68000 45.60800 42.67600
C  51.80500 42.63400 40.64300
C  53.26300 44.86200 42.52300
O  54.01400 43.99900 42.10000
C  53.86700 45.94900 43.40200
N  48.49000 47.69900 43.32500
C  49.84500 47.80000 43.63200
C  50.11100 49.15200 44.21500
C  48.73700 49.87700 44.23300
C  47.78200 48.74500 43.74300
C  50.77000 49.06900 45.63200
C  48.57300 51.04700 43.18200
C  47.64500 52.14600 43.77500
N  45.71900 46.75100 43.05400
C  45.40500 47.94700 43.66200
C  43.97100 48.09700 43.76200
C  43.47800 46.95200 43.04000
C  44.62500 46.14700 42.64300
C  43.10600 49.16100 44.40200
C  42.31000 46.29400 42.51400
O  41.14000 46.71700 42.53000
C  42.80400 45.02600 41.68400
C  42.10000 43.86400 42.22900
O  41.13100 43.35200 41.68300
O  42.77500 43.33200 43.25300
C  42.35000 41.98700 43.62100
H  49.01300 42.26700 40.40900
H  51.78600 47.12400 43.65900
H  46.07300 49.82900 44.29700
H  44.12700 42.49700 40.66400
H  46.78800 41.87200 39.47900
H  45.47700 40.29700 41.03800
H  46.10600 41.28000 42.45200
H  47.19100 40.44600 41.26900
H  45.46400 43.08000 38.13300
H  44.76000 44.57900 38.69400
H  42.61900 43.82900 37.88500
H  42.84300 42.68700 39.15500
H  52.53200 43.01900 39.92700
H  51.12400 41.95100 40.13600
H  52.20900 41.87000 41.30700
H  53.63800 46.83100 42.80300
H  54.94100 45.76700 43.37500
H  53.47500 45.95900 44.41900
H  50.80900 49.53400 43.47000
H  48.33200 50.15400 45.20600
H  51.81100 48.83900 45.40400
H  50.18400 48.28400 46.10900
H  50.62600 49.97400 46.22200
H  48.01200 50.70300 42.31300
H  49.55400 51.24400 42.75000
H  46.80700 52.21000 43.08100
H  48.13100 53.12100 43.76500
H  47.32900 52.07500 44.81600
H  42.67600 49.75100 43.59200
H  43.80100 49.82600 44.91500
H  42.27800 48.78300 45.00200
H  42.50900 44.92100 40.64000
H  42.47300 41.23000 42.84700
H  41.35700 41.82300 44.03900
H  42.91600 41.54400 44.44000
Mg 26.63200 49.87700 26.58800
C  24.39100 50.93800 29.03500
C  28.84400 49.01200 29.00700
C  28.70400 48.84600 24.19000
C  24.41600 51.00100 24.22500
N  26.54400 50.08300 28.75500
C  25.50300 50.31200 29.58600
C  25.81600 49.87900 31.02400
C  27.32100 49.43400 30.93300
C  27.57900 49.48400 29.41400
C  28.27100 50.37300 31.70900
C  24.78900 48.84500 31.60200
C  23.80500 49.44900 32.61400
H  23.74100 48.77300 34.03900
N  28.51000 49.06300 26.56200
C  29.26200 48.79800 27.70300
C  30.48600 48.17900 27.28500
C  30.51200 48.27800 25.84800
C  29.21200 48.74600 25.47200
C  31.57000 47.69100 28.17600
C  31.64300 48.06700 24.82700
O  31.56800 48.38800 23.62400
C  32.96200 47.59300 25.41200
N  26.68200 50.05200 24.47000
C  27.57000 49.46600 23.66600
C  27.07500 49.41900 22.20900
C  25.60900 49.95600 22.36700
C  25.58200 50.34700 23.77500
C  27.96500 50.27100 21.19800
C  24.53200 48.88500 21.95900
C  24.34400 47.75200 22.94500
N  24.84300 50.74900 26.52100
C  24.08300 51.28100 25.53600
C  22.89900 51.92300 26.03200
C  22.99700 51.84000 27.41900
C  24.15700 51.12700 27.66600
C  21.84700 52.67600 25.27100
C  22.33300 52.23900 28.63000
O  21.34200 52.92900 28.82400
C  23.13800 51.47800 29.78600
C  23.49800 52.56800 30.81000
O  24.47000 53.30400 30.77400
O  22.53200 52.56200 31.73900
C  22.69000 53.66300 32.73700
H  29.42400 48.46600 29.75400
H  29.36900 48.63300 23.35000
H  23.60500 51.16600 23.51200
H  25.81700 50.76500 31.66000
H  27.34900 48.45200 31.40600
H  29.05300 50.79600 31.07900
H  28.85500 49.91100 32.50500
H  27.74800 51.24000 32.11200
H  25.38700 48.11200 32.14400
H  24.23100 48.40700 30.77400
H  22.79900 49.47200 32.19500
H  23.98600 50.50100 32.83400
H  31.80000 46.63700 28.02500
H  31.48000 47.84700 29.25100
H  32.39100 48.37100 27.94900
H  33.38100 48.24000 26.18300
H  33.55800 47.42500 24.51500
H  32.71600 46.65200 25.90400
H  27.03300 48.35200 21.99200
H  25.46900 50.78200 21.67000
H  28.95500 50.48200 21.60200
H  27.50500 51.19900 20.86000
H  28.16600 49.69000 20.29800
H  24.71300 48.68200 20.90400
H  23.59800 49.44300 22.01400
H  25.07300 47.90000 23.74200
H  24.44300 46.84800 22.34400
H  23.35900 47.72400 23.41100
H  20.92600 52.81100 25.83800
H  21.63900 52.09400 24.37300
H  22.29200 53.58600 24.87000
H  22.49100 50.70300 30.19800
H  23.47600 53.27900 33.38800
H  21.79100 53.76100 33.34500
H  22.89100 54.57800 32.17900

