158

Mg 2.95200 -1.58900 45.41200
C  6.34800 -1.14700 44.96900
C  2.34200 0.82100 42.95300
C  -0.42600 -2.40500 45.26000
C  3.58700 -4.60700 47.20100
N  4.14000 -0.52600 44.03000
C  5.56300 -0.50800 44.02600
C  6.09400 0.38200 42.85800
C  4.81600 1.23700 42.53500
C  3.70000 0.52300 43.26100
C  4.94300 2.73900 42.92600
C  6.45000 -0.55100 41.53800
C  7.81000 -0.19400 41.00200
H  8.14200 0.04400 39.52600
N  1.18400 -0.84800 44.42600
C  1.18100 0.18700 43.53800
C  -0.17900 0.51600 43.10900
C  -1.02500 -0.43000 43.78400
C  -0.13400 -1.24500 44.58300
C  -0.52400 1.72400 42.27700
C  -2.55100 -0.58600 43.68600
O  -3.16100 0.11200 42.92100
C  -3.41500 -1.58400 44.44500
N  1.73800 -3.25500 46.20400
C  0.39900 -3.35400 46.01200
C  -0.15800 -4.54700 46.75900
C  1.16200 -5.40500 47.02000
C  2.26000 -4.34600 46.83800
C  -0.93300 -4.21900 48.06900
C  1.20600 -6.64300 45.98900
C  0.52000 -7.91400 46.44700
N  4.62600 -2.58900 46.18000
C  4.72800 -3.76700 46.85600
C  6.09800 -4.03600 47.05100
C  6.78600 -3.00100 46.40700
C  5.86400 -2.16800 45.78200
C  6.66300 -5.22400 47.77800
C  8.07200 -2.51100 46.11600
O  9.15600 -2.89800 46.55600
C  7.90000 -1.23300 45.18200
C  8.58200 -0.02800 45.87800
O  9.52400 -0.03400 46.72800
O  7.89400 1.04200 45.50800
C  8.04300 2.26000 46.35300
H  2.24500 1.53200 42.12900
H  -1.40500 -2.83200 45.03600
H  3.80200 -5.45000 47.86100
H  6.95500 0.93300 43.23400
H  4.61900 1.24300 41.46300
H  5.92900 3.00300 43.30800
H  4.20400 2.99400 43.68500
H  4.81600 3.28400 41.99000
H  5.63900 -0.48700 40.81200
H  6.59000 -1.58300 41.86200
H  8.44300 -1.03000 41.29900
H  8.17500 0.73200 41.44800
H  -0.52800 1.41200 41.23300
H  0.24300 2.47700 42.45900
H  -1.56300 1.98600 42.47700
H  -3.20200 -1.52000 45.51200
H  -3.31500 -2.62200 44.12800
H  -4.46300 -1.29200 44.38900
H  -0.77400 -5.19400 46.13400
H  1.17300 -5.80200 48.03500
H  -1.84500 -4.81500 48.01900
H  -1.15700 -3.18100 47.82000
H  -0.37400 -4.48800 48.96500
H  2.24800 -6.90300 45.80200
H  0.75200 -6.38000 45.03400
H  -0.16100 -8.26300 45.67000
H  0.04800 -7.82400 47.42500
H  1.29700 -8.66300 46.60200
H  7.65800 -5.11200 48.21000
H  6.67700 -6.02100 47.03500
H  5.98800 -5.51400 48.58300
H  8.35300 -1.55600 44.24500
H  8.40200 1.93700 47.33000
H  7.05600 2.67700 46.55700
H  8.78300 2.92900 45.91400
Mg 46.93100 16.98800 28.21700
C  45.02200 16.31500 31.16100
C  49.10600 18.76900 30.09800
C  48.42000 17.95200 25.36100
C  44.30900 15.44300 26.36600
N  47.00900 17.44200 30.40800
C  46.19300 17.02500 31.42600
C  46.77500 17.45300 32.81000
C  48.01400 18.42700 32.42700
C  48.03800 18.25500 30.88800
C  47.77800 19.89100 32.90100
C  47.27600 16.21900 33.64400
C  46.61900 16.00300 35.01800
H  46.33200 17.17900 35.89500
N  48.56800 18.09000 27.80000
C  49.38900 18.66900 28.70600
C  50.57600 19.19300 28.04800
C  50.36000 19.03800 26.63700
C  49.05900 18.33800 26.51600
C  51.82200 19.75900 28.77000
C  51.24600 19.47600 25.50800
O  50.94200 19.24300 24.32300
C  52.42000 20.41200 25.74400
N  46.38500 16.79100 26.14900
C  47.19400 17.33200 25.16300
C  46.59100 17.05600 23.77900
C  45.31100 16.19000 24.11900
C  45.36600 16.04000 25.64300
C  46.36400 18.20700 22.87000
C  45.08600 14.94200 23.29600
C  45.99600 13.64900 23.54700
N  45.02600 15.84800 28.64900
C  44.08500 15.40000 27.75200
C  42.91700 14.95400 28.54400
C  43.30300 15.26300 29.87200
C  44.56200 15.82600 29.85900
C  41.57100 14.44600 28.16400
C  42.80200 15.31000 31.26500
O  41.66100 15.02200 31.73300
C  43.91900 16.00400 32.12800
C  43.36600 17.13600 32.98600
O  43.53600 18.29600 32.71300
O  42.52300 16.67000 33.97000
C  41.70000 17.73400 34.62600
H  49.83200 19.32500 30.69500
H  48.91400 18.21500 24.42300
H  43.43800 15.21900 25.74600
H  45.99100 18.03500 33.29500
H  48.97200 18.00200 32.72600
H  47.01200 20.06000 33.65800
H  47.30700 20.39200 32.05600
H  48.72100 20.41400 33.06100
H  48.35600 16.14600 33.77300
H  47.09200 15.30800 33.07400
H  47.06900 15.19800 35.59900
H  45.59600 15.64800 34.90000
H  52.74500 19.41500 28.30300
H  51.89400 19.50700 29.82800
H  51.73300 20.84300 28.69300
H  52.19300 21.22800 26.43000
H  52.74400 20.77800 24.77000
H  53.23900 19.79600 26.11500
H  47.21500 16.27100 23.35200
H  44.56800 16.92100 23.80000
H  46.01200 18.93000 23.60600
H  45.52400 18.22000 22.17600
H  47.16300 18.56500 22.22100
H  44.94400 15.28800 22.27300
H  44.08800 14.53900 23.46900
H  46.40000 13.24700 22.61800
H  45.41100 12.91500 24.10100
H  46.77700 13.95700 24.24100
H  41.23800 14.89700 27.22900
H  40.90600 14.79900 28.95200
H  41.53100 13.35700 28.13000
H  44.23900 15.19700 32.78700
H  42.33100 18.53500 35.01100
H  41.31100 17.22300 35.50600
H  40.92400 18.11900 33.96400

