158

Mg 9.49300 3.51300 27.96400
C  10.61400 1.99100 31.06800
C  7.83700 5.72700 30.03300
C  7.94500 4.56800 25.25300
C  10.90800 0.82000 26.20700
N  9.18800 3.73100 30.41800
C  9.92700 3.15900 31.43100
C  9.61000 3.80500 32.82700
C  8.61100 4.91900 32.39500
C  8.46300 4.75900 30.83200
C  7.22300 5.03100 33.03500
C  10.91700 4.36300 33.55300
C  11.33500 3.51900 34.77200
H  11.56100 4.48000 35.95400
N  8.15600 4.95600 27.66400
C  7.61500 5.82400 28.58600
C  6.81000 6.81300 27.87100
C  6.79100 6.47200 26.49800
C  7.69400 5.39000 26.41400
C  5.91700 7.74800 28.58300
C  6.11600 7.19100 25.29100
O  6.12000 6.83900 24.15500
C  5.42100 8.47500 25.68700
N  9.41200 2.77400 26.03000
C  8.69100 3.39300 25.07800
C  8.78700 2.57900 23.71400
C  9.78200 1.51700 24.04600
C  10.03000 1.66300 25.56100
C  7.43400 2.14000 23.10300
C  11.05700 1.40100 23.16600
C  10.94700 0.85100 21.73300
N  10.59800 1.81500 28.46700
C  11.17800 0.84500 27.60800
C  11.88500 -0.13200 28.43700
C  11.68500 0.23800 29.81300
C  10.87300 1.40500 29.79800
C  12.59300 -1.42300 27.99700
C  12.01800 -0.04000 31.19800
O  12.72100 -0.89700 31.64600
C  11.33200 1.09500 32.06700
C  10.46400 0.55600 33.13700
O  9.24900 0.40600 33.06500
O  11.23000 0.27100 34.21500
C  10.53000 -0.27400 35.30700
H  7.26300 6.43200 30.63700
H  7.57400 4.92700 24.29000
H  11.40200 0.02400 25.64600
H  8.98900 3.30600 33.57100
H  9.08200 5.90100 32.41900
H  7.12900 4.74200 34.08200
H  6.52000 4.49000 32.40000
H  6.80900 6.02900 32.89300
H  10.87800 5.41500 33.83200
H  11.68100 4.22100 32.78800
H  12.22000 2.92500 34.54700
H  10.54700 2.82200 35.06000
H  4.91200 7.33700 28.48100
H  5.85300 8.76500 28.19400
H  6.02600 7.89100 29.65800
H  4.61500 8.23600 26.38100
H  4.80200 8.76800 24.83900
H  6.09600 9.27600 25.99100
H  9.22200 3.29000 23.01100
H  9.30400 0.53800 24.05300
H  6.78300 1.58300 23.77700
H  7.49900 1.59200 22.16300
H  6.90400 3.07600 22.93200
H  11.77400 0.75700 23.67600
H  11.42800 2.42500 23.13400
H  9.88200 0.84200 21.50200
H  11.31300 -0.17400 21.66800
H  11.58100 1.48300 21.11100
H  12.87600 -1.31200 26.95000
H  12.02500 -2.33100 28.19500
H  13.46700 -1.47400 28.64700
H  12.20300 1.64300 32.42500
H  9.69400 0.39800 35.50000
H  11.22300 -0.14300 36.13700
H  10.26500 -1.31800 35.13500
Mg 26.06200 51.97000 26.39000
C  23.91900 52.93000 28.94200
C  28.33000 51.13500 28.77500
C  28.28800 51.61100 23.86700
C  23.79400 53.48900 24.05800
N  26.02700 51.80500 28.57200
C  25.05700 52.25400 29.38600
C  25.39000 52.03100 30.88000
C  26.93700 51.66300 30.82900
C  27.12400 51.55200 29.31400
C  27.84500 52.76100 31.45400
C  24.45300 50.94900 31.62000
C  23.72500 51.57000 32.86900
H  23.54400 50.54400 34.03100
N  28.07400 51.47600 26.32300
C  28.80600 50.99700 27.44400
C  30.12700 50.58500 26.95200
C  30.14600 50.88000 25.58300
C  28.84100 51.34800 25.18000
C  31.26800 50.05500 27.85000
C  31.33000 50.79600 24.62300
O  31.20900 51.17400 23.41200
C  32.69600 50.47100 25.04400
N  26.05200 52.47300 24.32600
C  27.07100 52.15100 23.50900
C  26.77500 52.54500 22.02900
C  25.25200 52.88100 22.04200
C  25.03300 52.96900 23.54300
C  27.65600 53.71400 21.47100
C  24.42000 51.74200 21.31600
C  23.79700 52.25600 20.02900
N  24.13400 52.75900 26.45900
C  23.42700 53.39400 25.42100
C  22.10900 53.87100 25.97400
C  22.30200 53.66200 27.33800
C  23.54600 53.05600 27.59500
C  20.99300 54.60800 25.20000
C  21.64300 53.79800 28.59700
O  20.49000 54.16000 28.81500
C  22.67000 53.34500 29.67800
C  22.90300 54.48200 30.60800
O  23.80400 55.24000 30.44200
O  21.95800 54.45100 31.58000
C  22.02400 55.54100 32.63000
H  29.09800 50.92600 29.52200
H  28.97200 51.41800 23.03800
H  23.07000 53.69400 23.26700
H  25.18000 53.00600 31.32000
H  27.18800 50.67900 31.22400
H  27.45100 53.77600 31.48500
H  28.82100 52.78000 30.96800
H  28.19900 52.51200 32.45400
H  24.91400 49.99500 31.87200
H  23.68900 50.70700 30.88100
H  22.75100 51.83800 32.46000
H  24.28100 52.45500 33.17600
H  32.20300 50.52200 27.53900
H  31.27000 48.96900 27.75800
H  30.99300 50.37800 28.85400
H  32.70500 49.39400 25.21300
H  33.17200 51.09500 25.80100
H  33.29500 50.63600 24.14900
H  26.91500 51.60300 21.49900
H  25.08100 53.87600 21.63100
H  27.95100 54.42900 22.24000
H  27.01100 54.15900 20.71400
H  28.54600 53.32400 20.97800
H  23.66200 51.26800 21.94100
H  25.05800 50.96300 20.89800
H  24.42800 52.02700 19.17000
H  23.63400 53.33100 20.11000
H  22.73100 52.13600 19.83600
H  20.05800 54.10200 25.43800
H  21.05200 54.53600 24.11400
H  21.07000 55.65800 25.48300
H  22.18200 52.53700 30.22400
H  22.96100 55.58600 33.18600
H  21.27500 55.36300 33.40200
H  21.93500 56.50100 32.12200

