158

Mg 2.39600 -2.19200 44.18500
C  5.91400 -1.55100 43.80000
C  1.71500 0.48300 42.17400
C  -0.66900 -3.45600 43.65600
C  3.33600 -5.32200 45.61000
N  3.74800 -0.83400 43.04900
C  5.11400 -0.65800 43.11400
C  5.48200 0.55500 42.33200
C  4.04700 1.40300 42.10900
C  3.08100 0.25500 42.44200
C  3.85600 2.62400 43.13100
C  6.18500 0.09000 40.99700
C  7.50600 0.83400 40.64600
H  7.46000 1.69100 39.33900
N  0.71500 -1.44100 43.13700
C  0.63700 -0.29300 42.42700
C  -0.67600 -0.13600 41.99600
C  -1.49700 -1.23500 42.41600
C  -0.51600 -2.12600 43.10700
C  -1.12900 1.02200 41.18500
C  -2.89900 -1.50900 42.03700
O  -3.52900 -0.71000 41.37000
C  -3.69300 -2.74800 42.48100
N  1.51500 -4.08700 44.41200
C  0.22700 -4.38700 44.19000
C  -0.22500 -5.82900 44.61800
C  1.13500 -6.43600 45.07300
C  2.03400 -5.21900 45.12600
C  -1.22000 -5.94600 45.84900
C  1.70200 -7.69200 44.23400
C  1.61400 -9.09400 45.01300
N  4.23400 -3.15400 44.86400
C  4.45200 -4.43300 45.44900
C  5.83100 -4.53000 45.86900
C  6.43900 -3.45100 45.27400
C  5.40600 -2.63300 44.62000
C  6.52800 -5.65600 46.64300
C  7.70700 -2.67500 45.07100
O  8.83300 -2.90000 45.51100
C  7.37300 -1.38900 44.11700
C  7.70800 -0.12600 44.86000
O  7.07900 0.16700 45.83100
O  8.69600 0.60500 44.33100
C  9.00700 1.88900 44.94600
H  1.71300 1.49800 41.76900
H  -1.65100 -3.93000 43.59100
H  3.62600 -6.28900 46.02600
H  6.21700 1.08400 42.93900
H  4.01500 1.69700 41.06000
H  2.88400 2.71000 43.61600
H  3.99500 3.56000 42.59000
H  4.55500 2.62200 43.96600
H  5.37100 0.19800 40.28000
H  6.29500 -0.99300 41.04600
H  8.31100 0.10000 40.61300
H  7.76000 1.60100 41.37800
H  -1.66500 0.76100 40.27200
H  -0.24900 1.58300 40.87200
H  -1.64000 1.72600 41.84100
H  -4.74200 -2.64600 42.20600
H  -3.58300 -2.80300 43.56500
H  -3.29100 -3.60200 41.93500
H  -0.58000 -6.42600 43.77800
H  1.11500 -6.85100 46.08000
H  -1.37700 -5.03100 46.42100
H  -0.90100 -6.76500 46.49400
H  -2.20100 -6.30300 45.53500
H  2.73900 -7.63500 43.90300
H  1.16300 -7.84700 43.30000
H  1.01000 -8.92600 45.90500
H  2.56900 -9.43300 45.41500
H  1.16000 -9.86000 44.38500
H  7.61200 -5.54400 46.68500
H  6.38300 -6.62000 46.15600
H  6.33400 -5.72700 47.71300
H  7.94400 -1.31800 43.19200
H  8.10300 2.42500 45.23600
H  9.58300 2.43500 44.19900
H  9.64200 1.72800 45.81700
Mg 26.11500 0.02800 29.21100
C  27.90900 0.02100 32.09600
C  23.21200 -0.06900 31.23600
C  24.19300 -0.31600 26.47100
C  29.01700 -0.27000 27.30100
N  25.61300 -0.13700 31.47000
C  26.57600 0.08000 32.35000
C  25.92900 0.43900 33.72100
C  24.42000 0.24700 33.50500
C  24.35000 -0.06800 31.99200
C  23.90400 -0.82400 34.54500
C  26.24400 1.95200 34.39000
C  27.03800 1.87400 35.72500
H  26.40900 2.41900 37.02000
N  24.00300 -0.13500 28.88900
C  23.04200 -0.10600 29.83200
C  21.73500 -0.03800 29.21600
C  22.01700 -0.10000 27.80900
C  23.44600 -0.14700 27.66100
C  20.38000 0.06600 29.93900
C  20.97600 -0.13300 26.71200
O  21.32000 -0.15100 25.54000
C  19.51200 -0.16800 26.96100
N  26.55200 -0.37600 27.14000
C  25.57500 -0.49600 26.25300
C  26.19600 -0.66700 24.79700
C  27.70000 -0.25800 25.06500
C  27.78000 -0.24400 26.57000
C  25.85800 -2.06600 24.06700
C  28.04300 1.16900 24.45000
C  29.38600 1.22100 23.73500
N  28.10900 -0.04800 29.58400
C  29.18100 -0.17600 28.70100
C  30.41200 -0.19100 29.51100
C  29.94200 -0.18800 30.86100
C  28.53100 -0.06700 30.85000
C  31.80600 -0.55200 28.95100
C  30.41600 -0.17400 32.22100
O  31.54500 -0.26500 32.68800
C  29.15600 0.05200 33.09900
C  29.05900 -0.89800 34.25800
O  28.32300 -1.90100 34.25500
O  29.81300 -0.57500 35.30300
C  29.60900 -1.37300 36.55400
H  22.35600 0.35500 31.76500
H  23.67800 -0.31600 25.50800
H  29.86000 -0.39700 26.61900
H  26.32700 -0.22400 34.48900
H  23.79600 1.13200 33.62600
H  23.88700 -1.78100 34.02400
H  22.89500 -0.52300 34.82500
H  24.53200 -0.92300 35.43000
H  25.32200 2.51700 34.52400
H  26.76600 2.65600 33.74300
H  27.91800 2.48000 35.50800
H  27.37300 0.84600 35.86000
H  19.65800 0.77200 29.53000
H  20.51100 0.49500 30.93300
H  19.98000 -0.94600 30.01600
H  19.18000 -0.94800 27.64700
H  19.10200 -0.39500 25.97700
H  19.11700 0.80500 27.25100
H  25.65500 0.05200 24.18200
H  28.38100 -0.99000 24.63100
H  26.02200 -2.07300 22.98900
H  24.79600 -2.21700 24.26200
H  26.46800 -2.82400 24.55900
H  28.00800 1.95600 25.20400
H  27.24700 1.43700 23.75600
H  29.95000 0.32700 23.99800
H  29.95700 2.13100 23.91900
H  29.25000 1.04100 22.66800
H  31.91100 -0.34800 27.88600
H  32.01100 -1.58400 29.23400
H  32.55700 0.06900 29.43900
H  29.09800 1.03500 33.56700
H  30.51600 -1.19700 37.13300
H  29.34200 -2.42100 36.42100
H  28.74900 -0.90600 37.03400

