158

Mg 0.93700 8.60600 27.20700
C  1.56200 10.73900 29.91900
C  0.46400 6.00600 29.39300
C  0.21800 6.69200 24.51300
C  1.59000 11.20900 25.09100
N  1.17300 8.37800 29.44700
C  1.24500 9.42000 30.32400
C  1.03700 8.92400 31.77500
C  0.90400 7.34300 31.64900
C  0.79600 7.20400 30.12500
C  2.23800 6.48600 32.06700
C  -0.24600 9.52100 32.50500
C  -0.77300 8.93800 33.86800
H  0.17100 8.49400 34.93700
N  0.42500 6.60200 27.01500
C  0.31600 5.70800 28.01200
C  -0.12600 4.40000 27.48600
C  -0.05600 4.54900 26.02600
C  0.20800 6.01200 25.80400
C  -0.44700 3.20600 28.41700
C  -0.23500 3.49100 25.04000
O  -0.13100 3.71200 23.83900
C  -0.58800 2.04200 25.46300
N  0.98400 8.92600 25.08500
C  0.52400 8.03900 24.20600
C  0.60200 8.44400 22.73500
C  0.81200 9.94100 22.96600
C  1.24800 10.05000 24.42000
C  1.66300 7.72300 21.82900
C  -0.38900 10.76900 22.62600
C  -0.06600 12.15400 22.05200
N  1.58000 10.58400 27.39100
C  1.85200 11.54100 26.44800
C  2.10600 12.79700 27.09200
C  2.03900 12.51500 28.46100
C  1.73200 11.18800 28.59200
C  2.53600 14.02100 26.42300
C  2.18300 13.09200 29.79100
O  2.58100 14.22100 30.10900
C  1.74900 11.99800 30.77700
C  2.69900 11.86100 31.94300
O  3.80100 11.38600 31.93200
O  2.09700 12.45800 33.05900
C  2.85500 12.26200 34.35100
H  0.48400 5.11200 30.02000
H  -0.02000 6.11400 23.61800
H  1.65500 12.07700 24.43200
H  1.89300 9.23000 32.37500
H  0.03000 7.01900 32.21300
H  2.07800 5.90100 32.97300
H  3.02200 7.16200 32.40700
H  2.55700 5.75200 31.32600
H  -1.08500 9.30300 31.84500
H  -0.09800 10.59600 32.61700
H  -1.39600 8.08400 33.60000
H  -1.51700 9.59400 34.31900
H  -0.98000 2.40000 27.91200
H  -1.10200 3.67500 29.15200
H  0.55100 2.95100 28.77200
H  -0.58800 1.42900 24.56200
H  -1.59600 2.06300 25.87900
H  0.16300 1.70900 26.17900
H  -0.33700 8.18000 22.24800
H  1.62900 10.34100 22.36500
H  1.31300 7.29000 20.89200
H  2.07100 6.92700 22.45100
H  2.36500 8.50500 21.54100
H  -0.93700 10.95200 23.55100
H  -1.14600 10.38600 21.94100
H  -0.19900 12.25600 20.97500
H  0.92000 12.46400 22.39700
H  -0.72900 12.90400 22.48500
H  1.71100 14.61400 26.02800
H  3.14600 13.67600 25.58800
H  3.10500 14.65100 27.10700
H  0.76000 12.28600 31.13300
H  3.14800 13.16900 34.88000
H  3.81600 11.74900 34.36200
H  2.17100 11.75500 35.03200
Mg 16.69700 52.21900 25.83300
C  18.38500 51.00600 28.59500
C  13.98600 52.85000 27.95300
C  14.88100 53.35300 23.15800
C  19.06000 51.01800 23.73700
N  16.28500 52.06800 28.00400
C  17.16000 51.69500 28.93700
C  16.65200 51.88800 30.36700
C  15.15600 52.13100 30.13100
C  15.11300 52.44700 28.65800
C  14.31800 50.89600 30.60100
C  17.42300 53.02100 31.12400
C  17.29800 52.95600 32.60400
H  16.18400 52.13000 33.31000
N  14.77100 53.06500 25.57300
C  13.75800 53.19100 26.58700
C  12.49800 53.62300 25.96700
C  12.85300 53.93300 24.61300
C  14.21900 53.42100 24.36300
C  11.23900 53.83100 26.79100
C  11.91700 54.49500 23.49900
O  12.38700 54.80600 22.43800
C  10.51800 54.83600 23.83800
N  16.77600 51.93600 23.66500
C  16.05100 52.64800 22.75700
C  16.65000 52.62600 21.37000
C  18.00300 52.05400 21.64000
C  17.99000 51.65900 23.08700
C  15.77900 51.81500 20.36700
C  19.22200 52.95600 21.38400
C  20.29100 52.21300 20.67600
N  18.38300 51.24600 26.10400
C  19.30200 50.82300 25.07900
C  20.35200 50.03500 25.70400
C  20.09800 50.13900 27.10300
C  18.82700 50.83500 27.25100
C  21.40700 49.28600 24.98300
C  20.56800 49.82400 28.42400
O  21.57800 49.17900 28.71600
C  19.49500 50.31200 29.38800
C  18.85200 49.17500 30.10900
O  18.00300 48.40000 29.63300
O  19.16700 49.21100 31.48100
C  18.37700 48.41000 32.50400
H  13.12200 53.09500 28.57400
H  14.51100 53.97500 22.34000
H  19.88200 50.65300 23.11900
H  16.92100 51.00000 30.94000
H  14.76200 53.01400 30.63500
H  14.80600 49.95700 30.86300
H  13.67400 50.57700 29.78100
H  13.66400 51.22100 31.41000
H  17.03000 53.96700 30.75300
H  18.46900 52.96400 30.82400
H  17.08000 53.94800 32.99900
H  18.26300 52.70200 33.04200
H  10.35000 53.30200 26.44600
H  11.21200 54.92000 26.83500
H  11.43900 53.63000 27.84300
H  10.02800 53.92700 24.18500
H  10.07200 55.14200 22.89100
H  10.50900 55.54800 24.66300
H  16.71600 53.67300 21.07100
H  18.04700 51.13500 21.05600
H  15.30200 51.01900 20.93900
H  16.33800 51.37700 19.53900
H  14.97500 52.37300 19.88600
H  19.77900 53.14800 22.30100
H  19.06300 53.89600 20.85500
H  20.60300 52.76800 19.79100
H  20.03800 51.20400 20.35000
H  21.14100 52.22300 21.35900
H  21.11000 48.91100 24.00400
H  21.65600 48.37800 25.53200
H  22.27100 49.94200 24.87500
H  19.98200 51.03100 30.04600
H  18.53300 47.34700 32.32000
H  17.34200 48.61700 32.23200
H  18.78200 48.67500 33.48000

