158

Mg 8.88900 4.32000 27.65200
C  10.11200 2.54300 30.51600
C  6.99900 6.17900 29.86700
C  7.62500 5.88900 25.14400
C  10.44400 2.06400 25.67500
N  8.60100 4.35300 29.88600
C  9.27600 3.58900 30.80400
C  8.93100 3.97100 32.24600
C  7.93700 5.10200 32.03300
C  7.75400 5.16600 30.45400
C  6.47000 4.87100 32.66200
C  10.04800 4.22700 33.30500
C  9.76700 5.30900 34.39800
H  9.97600 4.81200 35.79500
N  7.53100 5.90500 27.53900
C  6.84200 6.56600 28.53200
C  5.96900 7.58700 27.97100
C  6.18900 7.51000 26.57400
C  7.15300 6.39400 26.34500
C  5.03800 8.43500 28.80700
C  5.49300 8.37300 25.53400
O  5.75300 8.19200 24.30900
C  4.58300 9.55600 25.87400
N  8.95700 3.96000 25.65800
C  8.46900 4.84400 24.74400
C  8.78200 4.43600 23.33200
C  9.78600 3.17700 23.53300
C  9.73500 3.02400 25.05600
C  7.59000 4.18500 22.41700
C  11.16700 3.61400 22.97300
C  12.03000 2.45000 22.64600
N  9.96500 2.59000 27.97900
C  10.64300 1.86300 27.07100
C  11.58200 0.92700 27.74700
C  11.38700 1.11200 29.07000
C  10.41400 2.14800 29.18700
C  12.57600 -0.01500 27.23100
C  11.82300 0.72600 30.37600
O  12.54600 -0.18200 30.70300
C  11.00800 1.64900 31.39200
C  10.14400 0.83800 32.36900
O  9.24900 0.07500 32.02600
O  10.58200 1.04700 33.59000
C  9.92900 0.36300 34.61700
H  6.62100 6.91600 30.57900
H  7.21000 6.34400 24.24200
H  10.89100 1.25800 25.08800
H  8.41400 3.02600 32.41200
H  8.18400 6.13400 32.28400
H  6.21000 5.84200 33.08400
H  6.43200 3.90700 33.16900
H  5.81600 4.68200 31.81100
H  10.83400 4.67300 32.69700
H  10.40900 3.35900 33.85800
H  8.74600 5.69100 34.38200
H  10.32100 6.21800 34.16400
H  4.02400 8.22700 28.46400
H  5.07700 9.52000 28.72200
H  5.05500 8.18400 29.86700
H  4.09400 10.00000 25.00700
H  5.03400 10.28400 26.54800
H  3.81300 9.12700 26.51500
H  9.33400 5.28600 22.93200
H  9.31400 2.27500 23.14300
H  7.49900 4.98800 21.68500
H  6.67500 4.21000 23.00900
H  7.65600 3.27700 21.81700
H  11.78700 4.22100 23.63200
H  11.09600 4.21400 22.06600
H  11.46300 1.52400 22.74400
H  12.87200 2.46500 23.33700
H  12.31100 2.49100 21.59400
H  13.01800 0.46100 26.35600
H  12.00200 -0.92200 27.04200
H  13.33900 -0.32900 27.94400
H  11.68400 2.36300 31.86300
H  8.84900 0.48200 34.70200
H  10.22800 0.71400 35.60500
H  10.13800 -0.70400 34.53100
Mg 47.57300 24.34600 28.26300
C  48.48600 26.56900 30.84900
C  46.76200 21.97300 30.66100
C  46.71300 22.18600 25.80900
C  48.44900 26.78900 26.00400
N  47.56800 24.25300 30.48900
C  47.95800 25.29600 31.34900
C  47.63000 24.90300 32.81500
C  47.25300 23.37100 32.65700
C  47.18800 23.17700 31.18100
C  48.28800 22.41400 33.32600
C  46.56700 25.74100 33.52100
C  46.16500 25.42200 34.91900
H  46.47100 26.46000 36.03200
N  46.84500 22.36900 28.22500
C  46.49900 21.55800 29.33600
C  45.93600 20.33300 28.91800
C  45.92200 20.33600 27.48700
C  46.53900 21.62100 27.08400
C  45.41100 19.26600 29.79400
C  45.52700 19.23900 26.53200
O  45.52000 19.41100 25.29900
C  45.12700 17.86100 27.08700
N  47.78100 24.38000 26.16600
C  47.32200 23.41800 25.38000
C  47.38500 23.79200 23.80500
C  47.71000 25.28900 23.98800
C  48.02700 25.55700 25.47700
C  48.39300 23.00100 23.03100
C  46.56200 26.28400 23.50800
C  47.08100 27.59900 22.71100
N  48.26900 26.26600 28.27900
C  48.61200 27.16500 27.30400
C  48.98600 28.46000 27.78400
C  48.81400 28.24000 29.13300
C  48.48100 26.87200 29.42000
C  49.33000 29.69600 27.06400
C  48.97800 29.00200 30.42900
O  49.34400 30.15000 30.65800
C  48.77000 27.89000 31.57400
C  49.90400 27.80400 32.50300
O  51.00000 27.25800 32.32700
O  49.55100 28.43700 33.62900
C  50.37400 28.33400 34.87900
H  46.48800 21.22000 31.40300
H  46.36900 21.63300 24.93200
H  48.63900 27.55700 25.25100
H  48.59100 25.06300 33.30400
H  46.24200 23.23200 33.04000
H  48.68900 21.73300 32.57500
H  47.78500 21.72700 34.00600
H  49.14300 22.81200 33.87300
H  45.63400 25.60100 32.97500
H  46.75700 26.80300 33.37100
H  46.63700 24.49800 35.25200
H  45.11200 25.14900 34.84900
H  45.50200 19.42500 30.86800
H  46.03200 18.38000 29.65800
H  44.39500 19.09700 29.43900
H  44.26700 17.92400 27.75500
H  45.92600 17.46900 27.71600
H  44.84000 17.26200 26.22300
H  46.38200 23.60000 23.42300
H  48.58500 25.46600 23.36300
H  49.36600 23.49200 23.06600
H  48.19600 22.84500 21.97000
H  48.54600 22.02800 23.49900
H  45.96900 26.63400 24.35300
H  45.92500 25.67900 22.86300
H  48.16700 27.55200 22.63400
H  46.72000 28.47200 23.25500
H  46.52100 27.68100 21.77900
H  49.07200 30.51700 27.73300
H  48.71000 29.79500 26.17300
H  50.37500 29.75500 26.76100
H  47.82200 28.15000 32.04600
H  51.10900 29.13800 34.83200
H  50.97500 27.42500 34.85700
H  49.79000 28.41900 35.79500

