158

Mg 35.94700 0.54000 30.51900
C  33.55700 2.23700 32.49600
C  38.09700 0.62800 33.18100
C  38.34700 -0.60800 28.48100
C  33.74300 0.76100 27.71000
N  35.94900 1.59000 32.51600
C  34.83300 2.06400 33.12400
C  35.10300 2.30300 34.61700
C  36.64700 2.11400 34.73200
C  36.93500 1.45500 33.41100
C  37.46500 3.47400 34.96300
C  34.28800 1.18700 35.40200
C  33.97700 1.65800 36.83600
H  34.84100 2.88200 37.33300
N  37.94300 0.10700 30.78000
C  38.61400 0.17600 31.96300
C  39.92600 -0.26500 31.78700
C  40.12500 -0.54100 30.39800
C  38.81200 -0.31700 29.81900
C  40.86700 -0.34300 32.91100
C  41.35700 -0.83100 29.52400
O  41.24000 -1.23900 28.35100
C  42.65100 -0.76300 30.01300
N  36.07700 0.11900 28.39700
C  37.19000 -0.31700 27.77500
C  37.07200 -0.54500 26.26500
C  35.47100 -0.46100 26.13500
C  35.04900 0.25300 27.47800
C  37.74200 0.61600 25.42400
C  34.68900 -1.79300 25.94100
C  33.87400 -1.84300 24.63000
N  34.03700 1.40200 30.13500
C  33.25300 1.36000 28.94400
C  31.93200 1.88700 29.30800
C  32.07200 2.29200 30.68900
C  33.31600 1.91600 31.11400
C  30.70600 1.94100 28.43400
C  31.33700 2.92600 31.73300
O  30.19200 3.34000 31.68300
C  32.24600 2.82100 33.05400
C  32.53100 4.17500 33.65800
O  33.46500 4.95300 33.32200
O  31.67000 4.45900 34.59200
C  31.77900 5.72000 35.37500
H  38.65200 0.57400 34.12000
H  39.09200 -0.83900 27.71600
H  33.00600 0.70700 26.90700
H  34.84500 3.34700 34.79100
H  36.87900 1.48900 35.59400
H  36.86700 4.31400 35.31700
H  37.83700 3.71200 33.96600
H  38.29700 3.37200 35.65900
H  34.94400 0.33300 35.56800
H  33.30200 0.91000 35.02800
H  34.29200 0.85500 37.50300
H  32.92700 1.94200 36.89700
H  40.65900 0.53400 33.52400
H  41.92500 -0.33400 32.65000
H  40.62500 -1.16700 33.58200
H  42.49300 -1.56400 30.73600
H  42.75000 0.06800 30.71100
H  43.55300 -0.92200 29.42200
H  37.37800 -1.54400 25.95500
H  35.16000 0.25700 25.37600
H  37.98400 1.44500 26.08900
H  37.04600 1.07100 24.71900
H  38.69200 0.32400 24.97600
H  34.07500 -1.82000 26.84100
H  35.43400 -2.56900 26.11900
H  34.07900 -0.96300 24.01900
H  32.80600 -1.83200 24.84600
H  34.11300 -2.74100 24.06000
H  31.07400 1.73100 27.43000
H  30.17000 2.88500 28.53100
H  29.93800 1.19200 28.62300
H  31.79400 2.19600 33.82400
H  32.58300 6.28600 34.90600
H  32.04300 5.42200 36.39000
H  30.92500 6.38900 35.47500
Mg 9.02900 48.08200 28.20900
C  6.97200 47.31500 30.92400
C  11.71000 48.29600 30.32900
C  10.91100 48.86500 25.55900
C  6.18200 48.33000 26.22000
N  9.26500 47.89000 30.36600
C  8.33200 47.48500 31.25000
C  8.89300 47.44700 32.72300
C  10.39000 47.96300 32.58600
C  10.46700 48.04800 31.02200
C  10.57200 49.25500 33.41800
C  8.81100 45.95500 33.34000
C  9.85000 45.45200 34.38200
H  9.39300 45.09100 35.83600
N  11.03800 48.45700 27.94100
C  12.01000 48.45300 28.94100
C  13.29900 48.69800 28.36800
C  13.02200 48.84100 26.95600
C  11.61600 48.69100 26.75100
C  14.54300 48.81500 29.24800
C  14.05600 48.89300 25.84000
O  13.79900 48.76300 24.63700
C  15.57200 48.94100 26.13600
N  8.60200 48.69500 26.29300
C  9.54300 48.90900 25.29100
C  8.89400 49.34400 24.02600
C  7.53300 48.74800 24.10400
C  7.42000 48.56200 25.63700
C  8.88400 50.83200 23.62300
C  7.35300 47.42700 23.22700
C  6.26200 47.48500 22.03500
N  6.95000 48.01900 28.49000
C  5.86800 48.08500 27.56900
C  4.63200 47.81300 28.34500
C  5.00600 47.52100 29.63400
C  6.44100 47.63200 29.68300
C  3.23900 47.63000 27.72700
C  4.48800 47.12500 30.93000
O  3.31200 46.91600 31.35500
C  5.71600 46.96800 31.78700
C  5.74100 45.53700 32.29000
O  6.40400 44.60300 31.80300
O  5.12700 45.53100 33.52400
C  5.13800 44.24600 34.25500
H  12.50700 48.29000 31.07500
H  11.51200 49.13200 24.68700
H  5.35900 48.42500 25.50800
H  8.41300 48.12500 33.42900
H  11.06900 47.19600 32.95800
H  10.66000 50.05900 32.68700
H  11.50300 49.28700 33.98500
H  9.80200 49.35800 34.18300
H  8.60300 45.29200 32.50000
H  7.88400 45.82100 33.89700
H  10.54000 46.23800 34.68900
H  10.45400 44.62600 34.00600
H  14.30700 48.87600 30.31000
H  15.08900 49.70900 28.94500
H  15.24000 47.98900 29.10900
H  15.94800 48.94400 25.11300
H  15.86200 48.02300 26.64800
H  15.96700 49.81000 26.66100
H  9.45400 48.97600 23.16700
H  6.84000 49.52300 23.77600
H  8.92600 51.51600 24.47100
H  7.96800 51.09800 23.09600
H  9.74000 51.01100 22.97200
H  7.11100 46.60400 23.89900
H  8.24700 47.11400 22.68800
H  6.82100 47.66900 21.11700
H  5.48400 48.20000 22.30200
H  5.74700 46.52800 21.94800
H  2.61100 48.43800 28.09900
H  2.73600 46.73900 28.10200
H  3.43600 47.57800 26.65600
H  5.52600 47.58200 32.66700
H  4.19300 43.70400 34.20400
H  5.32200 44.49500 35.30000
H  5.92900 43.58700 33.89800

