158

Mg 8.11600 4.22400 27.31900
C  9.52200 2.36600 29.94800
C  6.44500 6.14600 29.51100
C  6.60500 5.43000 24.59900
C  9.82700 1.78500 25.15200
N  7.94800 4.19600 29.49800
C  8.69900 3.43300 30.36200
C  8.46700 3.99900 31.81800
C  7.39900 5.16500 31.65600
C  7.25000 5.18700 30.12300
C  5.97600 5.08300 32.38300
C  9.85200 4.50500 32.38000
C  10.10300 4.01200 33.81200
H  10.65800 5.10900 34.83500
N  6.72100 5.64000 27.11200
C  6.11200 6.36000 28.13800
C  5.43600 7.48700 27.54900
C  5.43900 7.20300 26.14300
C  6.26900 6.02200 25.87100
C  4.51400 8.40500 28.39100
C  4.73400 7.98200 25.08900
O  4.70900 7.69500 23.90000
C  4.07800 9.30800 25.38000
N  8.09700 3.59000 25.19200
C  7.40500 4.32400 24.28000
C  7.73800 3.88400 22.82500
C  8.89100 2.86400 23.00700
C  8.94000 2.73400 24.53800
C  6.54600 3.40800 21.95700
C  10.24400 3.25900 22.37000
C  11.05600 2.21600 21.66900
N  9.47800 2.48700 27.49400
C  10.00300 1.60000 26.56600
C  10.94100 0.68000 27.28700
C  10.76600 0.97300 28.66100
C  9.87700 1.98200 28.64000
C  11.60400 -0.44900 26.60800
C  11.17600 0.63000 30.02300
O  12.11600 -0.04500 30.41200
C  10.32800 1.55600 30.88200
C  9.55100 0.75800 31.90900
O  8.57000 0.01400 31.70800
O  9.95200 1.09700 33.17400
C  9.06000 0.59500 34.24100
H  6.13100 6.90800 30.22700
H  6.09700 5.74900 23.68700
H  10.56600 1.20500 24.59400
H  7.98600 3.20400 32.38800
H  7.71800 6.16000 31.96600
H  5.17900 5.30900 31.67500
H  6.02600 5.92000 33.07900
H  5.93400 4.18200 32.99500
H  9.83300 5.59300 32.45700
H  10.67800 4.28600 31.70300
H  10.87700 3.24700 33.75400
H  9.19300 3.56400 34.21000
H  3.56500 8.51600 27.86700
H  4.87600 9.43300 28.42900
H  4.36300 7.95700 29.37300
H  4.16000 9.95300 24.50500
H  4.65200 9.77200 26.18200
H  3.02000 9.06900 25.48800
H  8.09500 4.72900 22.23600
H  8.60900 1.86600 22.66900
H  5.65000 3.18400 22.53500
H  6.86000 2.53900 21.37900
H  6.24000 4.19100 21.26300
H  10.86400 3.43200 23.25000
H  10.22700 4.23800 21.89100
H  11.28800 2.60300 20.67700
H  10.59400 1.24200 21.50400
H  11.99900 2.12800 22.20900
H  12.33200 0.04900 25.96700
H  10.93800 -1.18700 26.16100
H  12.19100 -0.97900 27.35800
H  11.04500 2.18500 31.41000
H  8.01900 0.76400 33.96300
H  9.23500 1.01000 35.23400
H  9.20100 -0.48300 34.31600
Mg 0.23400 44.10600 26.62400
C  2.51400 43.96500 29.27200
C  -2.22100 43.39400 29.03100
C  -1.88500 43.47000 24.03900
C  2.78200 44.64600 24.33900
N  0.17600 43.90200 28.99000
C  1.22300 43.84700 29.84200
C  0.83600 43.78000 31.28500
C  -0.62500 43.37000 31.13700
C  -0.93800 43.63300 29.60200
C  -0.84400 41.85100 31.50500
C  1.09400 45.08900 32.09700
C  1.39300 44.82500 33.60500
H  0.98300 43.58500 34.35600
N  -1.73600 43.46200 26.55600
C  -2.56000 43.20800 27.62300
C  -3.85900 42.77300 27.17900
C  -3.80000 42.85800 25.68000
C  -2.45800 43.36800 25.35200
C  -5.06500 42.49200 28.12500
C  -4.95000 42.55000 24.67000
O  -4.74800 42.44600 23.47600
C  -6.33700 42.21100 25.15200
N  0.40100 43.93400 24.50400
C  -0.58700 43.65900 23.64700
C  -0.14300 43.80900 22.16200
C  1.32400 44.28100 22.30700
C  1.52400 44.31400 23.82600
C  -0.24500 42.44600 21.44200
C  1.74600 45.47500 21.41800
C  0.73500 46.60500 21.43600
N  2.22600 44.26100 26.75500
C  3.15300 44.48700 25.73200
C  4.47800 44.37600 26.28300
C  4.25700 44.13500 27.68300
C  2.91700 44.05600 27.91900
C  5.81500 44.44000 25.54500
C  4.89200 43.78400 28.85800
O  6.07900 43.58400 29.10500
C  3.83600 43.85100 29.99700
C  4.04200 42.70500 30.95400
O  3.69400 41.55800 30.79600
O  4.81900 43.15100 32.00700
C  4.86900 42.16800 33.10600
H  -2.98700 43.12400 29.76000
H  -2.43300 43.37100 23.09900
H  3.57200 44.72100 23.58900
H  1.36700 42.94900 31.75000
H  -1.37200 44.01600 31.59700
H  0.01000 41.18900 31.65300
H  -1.41300 41.33700 30.73000
H  -1.54800 41.74100 32.33000
H  0.20000 45.70100 31.97800
H  1.95200 45.55700 31.61500
H  1.10600 45.75500 34.09500
H  2.48100 44.79200 33.66300
H  -5.27100 43.50200 28.48000
H  -4.62000 42.08400 29.03200
H  -5.89100 41.89000 27.74600
H  -6.37300 41.29400 25.74000
H  -7.01100 42.18200 24.29600
H  -6.71900 43.03300 25.75800
H  -0.85300 44.53000 21.75800
H  1.88900 43.44600 21.89200
H  -0.36900 41.63800 22.16300
H  0.61000 42.16100 20.82800
H  -1.13600 42.53600 20.82100
H  1.89500 45.03200 20.43300
H  2.76600 45.78000 21.65300
H  0.01200 46.48400 22.24300
H  0.15300 46.60900 20.51400
H  1.27900 47.51300 21.69600
H  6.02200 43.41700 25.22900
H  6.59000 44.69100 26.26900
H  5.79200 45.03400 24.63100
H  3.96900 44.79100 30.53200
H  4.99900 41.13300 32.79000
H  3.98500 42.16600 33.74200
H  5.73800 42.52600 33.65800

