158

Mg 0.25600 7.87900 26.21600
C  1.09300 9.91600 29.05900
C  0.25500 5.16500 28.33700
C  -0.33400 6.10500 23.54400
C  0.45600 10.82800 24.20300
N  0.73400 7.62900 28.51500
C  0.81900 8.60900 29.48100
C  0.75200 7.87500 30.90900
C  0.83200 6.31000 30.48600
C  0.59900 6.34100 29.00600
C  2.21300 5.58200 30.75900
C  -0.55200 8.25100 31.71700
C  -0.40000 9.03800 33.05900
H  0.85800 8.70100 33.86200
N  -0.20800 5.94200 26.02200
C  -0.03500 4.98300 26.96700
C  -0.39100 3.72700 26.35800
C  -0.76300 3.98500 25.03900
C  -0.50700 5.42400 24.79100
C  -0.39800 2.43000 27.09600
C  -1.38300 2.97400 24.00700
O  -1.94000 3.40100 23.01100
C  -1.45900 1.54100 24.22200
N  0.07000 8.46100 24.20000
C  -0.12600 7.46900 23.28200
C  -0.06000 8.04800 21.85600
C  -0.13000 9.57500 22.14100
C  0.16700 9.61800 23.59400
C  1.27100 7.50500 21.25200
C  -1.36200 10.39400 21.88600
C  -1.18100 11.73100 21.06800
N  0.76800 9.81000 26.43400
C  0.71400 10.98500 25.62800
C  1.13300 12.17400 26.30400
C  1.36700 11.69700 27.64200
C  0.99200 10.37100 27.73500
C  1.19900 13.56300 25.76500
C  1.64400 12.27000 28.84600
O  2.00300 13.40500 29.21000
C  1.45700 11.11100 29.83000
C  2.61700 10.95900 30.77200
O  3.62800 10.29800 30.54300
O  2.43600 11.83600 31.86300
C  3.67700 12.11300 32.59000
H  0.25400 4.33000 29.04100
H  -0.61700 5.60800 22.61400
H  0.60800 11.74300 23.62600
H  1.68100 8.13900 31.41500
H  0.07300 5.70700 30.98500
H  2.26400 5.15700 31.76200
H  3.09500 6.21300 30.64500
H  2.33100 4.72300 30.09900
H  -1.03200 7.31200 31.99400
H  -1.29100 8.81800 31.15200
H  -1.23300 8.76600 33.70700
H  -0.33300 10.09300 32.79300
H  -1.36900 1.93400 27.09200
H  0.01700 2.49200 28.10200
H  0.28100 1.85000 26.47200
H  -1.91400 1.10500 23.33300
H  -2.01900 1.43200 25.15100
H  -0.42500 1.19900 24.25200
H  -0.96100 7.78900 21.30100
H  0.69000 10.17100 21.73900
H  2.02900 8.23200 20.96100
H  1.02400 6.95400 20.34400
H  1.80400 6.86100 21.95100
H  -1.85900 10.76300 22.78300
H  -2.05000 9.72000 21.37500
H  -0.22500 12.25100 21.12100
H  -1.90900 12.45900 21.42500
H  -1.55700 11.52900 20.06500
H  0.45300 13.68500 24.98100
H  2.22400 13.71700 25.42600
H  0.86300 14.37200 26.41300
H  0.59500 11.45900 30.39700
H  3.58200 13.01000 33.20100
H  4.47900 12.23100 31.86100
H  4.01800 11.26000 33.17800
Mg 40.72500 9.02400 29.71000
C  42.72900 10.10300 32.33000
C  38.77200 7.35400 31.91100
C  39.25000 7.67200 27.20000
C  43.27300 10.29200 27.49900
N  40.78900 8.76900 31.89100
C  41.60700 9.43800 32.74200
C  41.04200 9.35900 34.11900
C  40.07600 8.15000 34.05200
C  39.84600 8.07300 32.52200
C  40.68300 6.80400 34.60900
C  40.23600 10.71400 34.61600
C  40.12500 10.76100 36.18100
H  41.23900 11.46800 36.96900
N  39.02100 7.76700 29.55200
C  38.31100 7.26100 30.59900
C  37.13600 6.61900 30.06400
C  37.25000 6.73100 28.64300
C  38.53200 7.42300 28.42400
C  36.05200 6.00800 30.92000
C  36.27000 6.29900 27.57000
O  36.42300 6.50700 26.38800
C  34.96800 5.67300 27.99500
N  41.28800 8.77500 27.69800
C  40.41900 8.25100 26.81800
C  40.75900 8.52200 25.33800
C  41.98800 9.46100 25.50500
C  42.24900 9.50500 26.99300
C  40.87100 7.27200 24.50400
C  41.71500 10.83100 24.90700
C  40.87100 11.73300 25.82100
N  42.55900 10.01900 29.82900
C  43.47900 10.40100 28.89500
C  44.59800 11.04400 29.58100
C  44.29100 11.01500 30.94000
C  43.09600 10.33300 31.02400
C  45.80700 11.79800 29.02500
C  44.77100 11.41500 32.22200
O  45.73300 12.04300 32.52900
C  43.73500 10.83400 33.20900
C  44.41800 10.05000 34.21600
O  44.55500 8.81700 34.20700
O  44.91800 10.89100 35.19300
C  45.59900 10.27800 36.26500
H  38.14900 6.83900 32.64600
H  38.82400 7.11200 26.36600
H  43.91600 10.76000 26.75000
H  41.87900 9.22900 34.80500
H  39.19000 8.30100 34.67000
H  41.74900 6.70600 34.39900
H  40.31600 5.91800 34.09200
H  40.51700 6.51600 35.64700
H  39.20800 10.72200 34.25300
H  40.76200 11.55100 34.15800
H  40.18300 9.72000 36.50200
H  39.17700 11.20300 36.48800
H  35.90900 4.95700 30.66800
H  35.05300 6.43900 30.85800
H  36.29200 5.90500 31.97900
H  35.03100 4.68300 28.44600
H  34.25300 5.59800 27.17500
H  34.57700 6.38000 28.72600
H  39.91300 9.02600 24.87000
H  42.92300 9.02100 25.15700
H  40.16800 7.17500 23.67700
H  40.77700 6.40700 25.16100
H  41.85400 7.43700 24.06500
H  41.14600 10.75200 23.98100
H  42.65000 11.34700 24.68600
H  40.66100 11.31100 26.80300
H  39.83700 11.86600 25.50100
H  41.37900 12.67900 26.00800
H  45.62000 12.06600 27.98500
H  46.71000 11.19800 29.13500
H  45.91300 12.67900 29.65900
H  43.27600 11.69600 33.69300
H  46.37400 9.65200 35.82200
H  44.87500 9.90400 36.98900
H  46.14400 10.99500 36.87700

