158

Mg -2.96400 16.50400 26.85700
C  -3.47400 14.65100 29.83100
C  -3.78800 19.26200 28.64700
C  -3.25500 18.10000 23.93500
C  -2.93900 13.45300 25.12100
N  -3.55100 16.87100 29.16100
C  -3.63500 15.99900 30.17400
C  -4.03300 16.66500 31.49200
C  -4.18000 18.14700 31.04300
C  -3.86600 18.10300 29.49500
C  -5.48400 18.88100 31.34400
C  -3.14300 16.53700 32.75500
C  -3.87300 16.33500 34.01700
H  -2.96900 16.22000 35.29100
N  -3.33700 18.42200 26.39800
C  -3.53300 19.42300 27.25400
C  -3.58100 20.68300 26.50400
C  -3.28600 20.40300 25.12100
C  -3.33100 18.88900 25.07600
C  -3.68900 22.05500 27.20900
C  -3.16400 21.34100 23.94100
O  -3.14000 21.03200 22.74300
C  -3.21500 22.82600 24.21700
N  -3.07600 15.82400 24.86500
C  -3.21600 16.73400 23.75500
C  -3.11800 15.98400 22.42700
C  -2.60700 14.61500 22.89100
C  -2.86100 14.58600 24.40400
C  -4.34300 15.91900 21.49900
C  -1.11000 14.32800 22.63200
C  -0.05600 15.26200 23.17700
N  -3.17800 14.49200 27.33300
C  -3.25100 13.40700 26.47400
C  -3.60000 12.16800 27.30900
C  -3.60400 12.62500 28.65500
C  -3.33700 14.01500 28.57600
C  -3.80700 10.77900 26.77000
C  -3.82100 12.23400 30.03500
O  -4.19000 11.20200 30.53600
C  -3.76600 13.54500 30.89200
C  -2.72800 13.48000 31.83700
O  -1.58700 13.73800 31.61000
O  -3.19100 12.88800 33.01500
C  -2.22300 12.65400 34.07200
H  -3.88000 20.16200 29.25800
H  -2.95700 18.62200 23.02400
H  -2.75600 12.59700 24.46900
H  -5.00800 16.29400 31.80700
H  -3.39900 18.76400 31.48700
H  -5.91200 19.43700 30.50900
H  -5.14900 19.67100 32.01600
H  -6.10100 18.06800 31.72400
H  -2.62100 17.47000 32.97000
H  -2.37900 15.77000 32.62700
H  -4.28300 15.34300 33.82700
H  -4.74700 16.94900 34.23600
H  -2.71500 22.53700 27.29000
H  -3.96800 22.06400 28.26300
H  -4.55700 22.60500 26.84600
H  -2.51400 22.99300 25.03500
H  -4.13500 23.30500 24.55000
H  -2.70300 23.41700 23.45700
H  -2.32600 16.44000 21.83300
H  -3.17000 13.79000 22.45300
H  -4.94100 16.80700 21.70500
H  -4.93000 15.00400 21.56900
H  -3.94000 16.10200 20.50300
H  -1.04500 14.31800 21.54400
H  -0.77700 13.29700 22.75400
H  0.15500 16.07600 22.48300
H  0.90400 14.75400 23.07800
H  -0.24000 15.72800 24.14400
H  -2.83400 10.34600 26.53900
H  -4.43900 10.73200 25.88300
H  -4.24100 10.28500 27.63900
H  -4.65600 13.75400 31.48600
H  -1.56700 13.52100 34.14400
H  -1.66100 11.75800 33.80500
H  -2.67100 12.70500 35.06400
Mg 45.17500 5.26800 47.15000
C  43.15700 8.15200 46.51600
C  42.60700 3.27900 46.21000
C  47.39500 2.69400 47.10200
C  47.96800 7.44000 47.07600
N  43.11900 5.72200 46.41600
C  42.46100 6.93900 46.31200
C  41.05600 6.77100 45.81500
C  40.87400 5.20700 45.90700
C  42.28400 4.63300 46.18100
C  39.76100 4.80100 46.91800
C  40.78700 7.59400 44.48100
C  40.20200 6.74700 43.32800
H  39.90900 7.60500 42.08500
N  45.00800 3.23900 46.81400
C  43.82600 2.58600 46.51700
C  44.06000 1.18100 46.65600
C  45.44700 0.96000 46.87300
C  46.04400 2.29600 46.92500
C  42.96600 0.17500 46.27500
C  46.06500 -0.40600 46.86200
O  45.34600 -1.38100 46.79000
C  47.57800 -0.58800 46.91100
N  47.40700 5.12200 47.05400
C  48.04500 3.92500 47.10300
C  49.61800 4.00900 47.09300
C  49.77800 5.55000 46.89900
C  48.29200 6.14000 47.05600
C  50.28400 3.20900 48.25600
C  50.50000 6.10600 45.61300
C  49.97500 5.56400 44.26500
N  45.49100 7.34400 47.07600
C  46.72300 8.10500 47.09000
C  46.41900 9.49300 47.06100
C  45.05200 9.53500 46.92800
C  44.51000 8.27000 46.87700
C  47.41300 10.53600 47.00600
C  43.95400 10.44500 46.72800
O  43.91500 11.69100 46.66800
C  42.69100 9.53300 46.46000
C  41.64900 9.88500 47.48500
O  41.52700 9.31600 48.57300
O  40.90900 10.99700 47.03200
C  39.83700 11.36400 47.97800
H  41.76400 2.65400 45.90800
H  48.18600 1.94100 47.11800
H  48.80000 8.14400 47.14500
H  40.43200 7.19000 46.60500
H  40.55300 4.79400 44.95100
H  39.31700 5.65800 47.42400
H  40.09700 4.10100 47.68400
H  38.99500 4.26600 46.35700
H  41.63800 8.19000 44.15300
H  39.94600 8.23600 44.74500
H  39.31900 6.21600 43.68500
H  41.02500 6.08700 43.05400
H  42.05100 0.61400 46.67300
H  43.06000 -0.75000 46.84300
H  42.91500 -0.14700 45.23500
H  47.80500 -1.65100 46.82600
H  47.95800 -0.23800 47.87100
H  48.11100 -0.11500 46.08600
H  49.83400 3.51000 46.14900
H  50.30900 5.78200 47.82200
H  51.20900 3.71700 48.53100
H  50.55500 2.20500 47.93100
H  49.65200 2.97800 49.11300
H  51.57100 5.91700 45.68800
H  50.50000 7.19500 45.64200
H  48.95600 5.20800 44.41300
H  50.59200 4.69100 44.05500
H  50.07700 6.14600 43.34900
H  48.19200 10.55400 47.76800
H  46.83800 11.46100 47.00000
H  47.93000 10.46000 46.04900
H  42.27100 9.86500 45.51100
H  39.35100 12.21100 47.49500
H  40.15800 11.67300 48.97200
H  39.09900 10.56200 47.96700

