158

Mg 54.33100 23.64600 45.07100
C  51.91200 25.85600 43.95700
C  52.46400 21.00300 44.00200
C  57.19400 21.65600 45.18700
C  56.24900 26.34200 46.03000
N  52.43300 23.48500 44.11400
C  51.62500 24.51700 43.82000
C  50.25400 23.95600 43.26800
C  50.33500 22.44700 43.74300
C  51.83600 22.26700 43.90900
C  49.52900 22.22100 45.07100
C  50.19400 24.13800 41.67300
C  48.93200 24.64000 40.95700
H  48.68100 24.01400 39.51800
N  54.69200 21.60600 44.76900
C  53.81400 20.68200 44.27200
C  54.41000 19.40300 44.29000
C  55.79200 19.54200 44.65100
C  55.97100 21.01800 44.84200
C  53.72500 18.15300 43.76500
C  56.82600 18.38700 44.60300
O  56.46400 17.25500 44.23900
C  58.34900 18.54300 44.88900
N  56.42600 23.95200 45.42100
C  57.34900 23.02600 45.42700
C  58.68700 23.51300 46.11800
C  58.31600 24.99800 46.47900
C  56.90500 25.12300 45.92200
C  59.05900 22.69500 47.39300
C  59.35500 26.09600 46.19100
C  59.99700 26.74900 47.41400
N  54.11700 25.75600 45.20400
C  54.97700 26.72000 45.60700
C  54.30800 28.05100 45.53500
C  53.04000 27.76600 44.91900
C  53.10000 26.37200 44.58700
C  54.86800 29.45900 46.02200
C  51.77200 28.34500 44.41200
O  51.44800 29.53400 44.36200
C  51.04000 27.18700 43.68000
C  51.14100 27.55800 42.22900
O  52.19200 27.52900 41.60400
O  49.90800 27.94000 41.74700
C  49.90400 28.54200 40.41600
H  51.84300 20.12200 43.82600
H  58.15300 21.13700 45.25000
H  56.80400 27.14300 46.52400
H  49.41600 24.49400 43.71200
H  49.93400 21.73600 43.02200
H  50.20600 21.94000 45.87700
H  48.95700 21.32700 44.82600
H  48.82500 23.03900 45.22500
H  50.36300 23.15900 41.22500
H  51.06300 24.71300 41.35300
H  48.84400 25.71500 40.80300
H  48.05100 24.29100 41.49600
H  54.02300 18.20300 42.71800
H  52.63900 18.18000 43.85200
H  54.10800 17.29800 44.32200
H  58.83600 19.08700 44.07900
H  58.79000 17.55500 45.02000
H  58.49900 19.11300 45.80600
H  59.44100 23.47100 45.33100
H  58.24000 25.02800 47.56600
H  58.45900 21.78600 47.44100
H  59.02500 23.31800 48.28700
H  60.10500 22.39600 47.32700
H  58.95900 26.80700 45.46500
H  60.08900 25.52900 45.61900
H  61.03400 26.42500 47.32700
H  59.67000 26.38800 48.38900
H  59.81200 27.82200 47.36300
H  54.33700 29.81500 46.90500
H  54.70600 30.19800 45.23700
H  55.94500 29.45500 46.19200
H  50.03800 26.97500 44.05400
H  50.02800 27.81900 39.61000
H  50.68000 29.30600 40.40300
H  48.93600 29.00800 40.22900
Mg 0.68700 43.45300 25.75000
C  2.92300 43.30000 28.52900
C  -1.93600 43.01000 27.95700
C  -1.33800 43.36300 23.12200
C  3.47700 43.66800 23.71100
N  0.55100 43.19200 28.02300
C  1.60900 43.17700 28.86000
C  1.05800 43.05600 30.27200
C  -0.49100 42.74100 30.07000
C  -0.66200 42.99100 28.62000
C  -0.90600 41.36200 30.65600
C  1.36500 44.35900 31.14700
C  1.89900 44.28600 32.54300
H  1.62400 42.96200 33.26600
N  -1.34800 43.16200 25.59200
C  -2.24700 42.95100 26.58900
C  -3.62800 42.92300 26.08700
C  -3.51100 42.96400 24.64300
C  -2.02600 43.22200 24.36100
C  -4.82400 42.80000 27.01500
C  -4.54500 42.90100 23.56500
O  -4.26600 42.90800 22.38600
C  -5.97100 42.92500 23.92500
N  1.01000 43.42100 23.76200
C  -0.00900 43.54100 22.87900
C  0.53500 43.97400 21.52300
C  2.07600 44.29400 21.77300
C  2.20600 43.74000 23.17500
C  0.27400 43.02800 20.32000
C  2.48500 45.77000 21.67700
C  3.70000 46.10000 20.78500
N  2.75900 43.55800 26.03700
C  3.75800 43.64800 25.08300
C  5.10900 43.69300 25.71300
C  4.79000 43.61000 27.13700
C  3.35700 43.41900 27.25100
C  6.46000 43.72700 24.95400
C  5.41600 43.47700 28.41300
O  6.60000 43.49700 28.74200
C  4.24500 43.38800 29.39500
C  4.44700 42.26700 30.34500
O  4.03800 41.13400 30.32200
O  5.37000 42.72200 31.27000
C  5.79700 41.79600 32.34400
H  -2.72900 42.88700 28.69800
H  -1.93500 43.56500 22.23000
H  4.34000 43.91700 23.08900
H  1.49100 42.15600 30.70800
H  -1.14400 43.50400 30.49400
H  -0.29700 41.05100 31.50500
H  -0.97700 40.62600 29.85500
H  -1.92000 41.48600 31.03600
H  0.46000 44.96500 31.18700
H  2.10400 44.95300 30.61000
H  1.39800 45.09700 33.07300
H  2.90900 44.65600 32.71800
H  -5.76200 42.50200 26.54600
H  -5.10300 43.82600 27.25200
H  -4.64300 42.23500 27.93000
H  -6.57300 43.03200 23.02300
H  -6.23700 43.55900 24.77100
H  -6.17000 41.94000 24.34600
H  -0.00100 44.92200 21.46300
H  2.75000 43.72500 21.13300
H  1.18000 43.05700 19.71400
H  -0.58900 43.39800 19.76600
H  -0.00900 42.04400 20.69200
H  2.58400 46.06200 22.72300
H  1.61700 46.28500 21.26600
H  4.49600 46.25800 21.51300
H  3.45500 47.02100 20.25700
H  3.90200 45.26300 20.11600
H  6.81500 42.69800 25.00900
H  7.22400 44.31800 25.45900
H  6.33600 44.04900 23.92000
H  4.34800 44.34000 29.91400
H  5.36500 42.14000 33.28300
H  6.83600 42.12300 32.32800
H  5.61900 40.77400 32.00900

