158

Mg 30.33700 59.27700 40.17400
C  27.81000 57.35900 38.85100
C  32.63900 56.89300 38.91200
C  32.98300 61.30700 40.70100
C  28.09400 61.90100 40.72000
N  30.18200 57.25700 39.04500
C  29.05300 56.68800 38.64400
C  29.24500 55.40900 37.85100
C  30.80000 55.07200 38.22300
C  31.28200 56.46100 38.68300
C  31.04500 53.97700 39.21900
C  29.18100 55.69200 36.30400
C  28.07200 54.90800 35.54900
H  27.21300 55.71500 34.56400
N  32.53200 59.12300 39.92100
C  33.27500 58.04600 39.51400
C  34.71000 58.30800 39.58600
C  34.83100 59.60400 40.13200
C  33.43700 60.06300 40.29300
C  35.84900 57.23800 39.26300
C  36.13100 60.26400 40.48000
O  37.16200 59.66700 40.27900
C  36.20600 61.57900 41.18400
N  30.51700 61.32500 40.59600
C  31.69500 61.86400 40.99100
C  31.55300 63.34200 41.34800
C  29.99400 63.60400 41.23900
C  29.43600 62.19100 40.81600
C  32.19400 63.75200 42.71000
C  29.53400 64.66300 40.25200
C  30.37600 65.92300 40.30600
N  28.31600 59.55700 40.00200
C  27.52300 60.70600 40.18000
C  26.09700 60.27300 40.03200
C  26.15600 58.98300 39.47900
C  27.54300 58.64900 39.41600
C  24.97300 61.13300 40.49800
C  25.38300 57.85900 39.04000
O  24.15600 57.81000 38.99200
C  26.37000 56.78900 38.49900
C  25.97500 55.55300 39.18900
O  26.58600 55.11900 40.16000
O  24.79300 55.11400 38.66700
C  24.19100 53.90900 39.30000
H  33.37000 56.19700 38.49400
H  33.71700 62.09400 40.88800
H  27.45500 62.74200 40.99400
H  28.59200 54.57500 38.10800
H  31.44900 54.76700 37.40200
H  30.07300 53.65100 39.58900
H  31.62800 54.63300 39.86600
H  31.66300 53.17000 38.82600
H  30.13700 55.32200 35.93400
H  29.05800 56.75800 36.11100
H  27.38100 54.53300 36.30400
H  28.55100 54.13200 34.95200
H  36.40700 57.50100 38.36400
H  35.49300 56.20800 39.29100
H  36.54000 57.30500 40.10300
H  37.15600 61.73300 41.69400
H  35.52800 61.57700 42.03800
H  36.05900 62.38300 40.46200
H  32.10900 63.93400 40.62100
H  29.47200 63.76900 42.18200
H  33.13300 64.28100 42.54700
H  32.62900 62.96200 43.32100
H  31.48600 64.39100 43.24000
H  28.49800 64.93800 40.44700
H  29.75800 64.28300 39.25500
H  30.87700 66.14200 39.36300
H  31.10300 65.85500 41.11500
H  29.83300 66.82900 40.57700
H  24.91100 62.07700 39.95600
H  25.24900 61.27600 41.54300
H  24.08200 60.50600 40.45600
H  26.27800 56.64900 37.42200
H  23.10800 53.98900 39.20600
H  24.55300 53.94900 40.32700
H  24.48300 52.97600 38.81700
Mg 17.09700 53.14900 25.91600
C  19.10100 51.61100 28.34900
C  14.88100 54.11500 28.47900
C  15.09500 54.32200 23.60900
C  19.31900 51.86100 23.55100
N  17.03500 52.83300 28.16300
C  18.06700 52.32100 28.93700
C  17.83200 52.64700 30.40900
C  16.33300 53.18400 30.40800
C  16.05500 53.44500 28.91200
C  15.24400 52.15400 30.98400
C  18.89900 53.50100 31.00700
C  18.82900 53.53500 32.51300
H  17.95300 52.59900 33.32800
N  15.27700 54.12700 25.93300
C  14.47600 54.32400 27.06500
C  13.32600 55.04500 26.60800
C  13.38700 55.14500 25.19400
C  14.63000 54.52800 24.87300
C  12.31900 55.57700 27.57500
C  12.48000 55.87500 24.23100
O  12.69400 55.92300 23.01000
C  11.20600 56.59600 24.75200
N  17.20000 53.11000 23.84800
C  16.19800 53.63100 23.11800
C  16.46900 53.39000 21.58100
C  18.02500 52.96200 21.63000
C  18.20400 52.59700 23.09500
C  15.58000 52.41100 20.86400
C  18.99600 54.11200 21.14700
C  20.33300 53.59600 20.45900
N  18.75000 51.84800 25.88200
C  19.59100 51.46000 24.82600
C  20.76500 50.67200 25.27200
C  20.52700 50.65300 26.64500
C  19.34900 51.40700 26.96800
C  21.82500 50.10000 24.45600
C  21.16900 50.15800 27.89100
O  22.21700 49.51900 28.09500
C  20.23700 50.88300 29.00000
C  19.87700 49.71600 29.82100
O  19.25600 48.76300 29.41700
O  20.28700 49.89400 31.13100
C  19.73200 48.82300 32.02400
H  14.12600 54.31400 29.24200
H  14.39000 54.44600 22.78500
H  20.01900 51.58500 22.76000
H  17.81300 51.70400 30.95400
H  16.31500 54.12700 30.95300
H  14.97300 52.46600 31.99300
H  15.69700 51.17100 31.11500
H  14.33300 52.12300 30.38700
H  18.82500 54.55200 30.72600
H  19.92800 53.33100 30.69000
H  18.75900 54.57200 32.84200
H  19.81500 53.25200 32.88200
H  11.33300 55.28200 27.21600
H  12.51300 56.64600 27.65800
H  12.29700 55.18300 28.59100
H  10.86100 57.39400 24.09400
H  11.40000 57.25200 25.60100
H  10.33200 55.94600 24.74500
H  16.27800 54.34400 21.09000
H  18.42600 52.03900 21.21100
H  15.05300 51.75800 21.56000
H  16.22900 51.82500 20.21300
H  14.83000 52.94100 20.27600
H  19.24100 54.72600 22.01400
H  18.38200 54.71100 20.47600
H  20.14500 53.92500 19.43800
H  20.39400 52.50900 20.52600
H  21.12800 54.15000 20.95900
H  21.57200 50.07000 23.39600
H  21.88900 49.12300 24.93500
H  22.76700 50.64400 24.52600
H  20.84800 51.60500 29.54200
H  19.99100 47.81700 31.69200
H  18.65400 48.85800 32.17900
H  20.22300 48.75900 32.99500

