158

Mg 3.03800 -1.55100 44.33100
C  6.56800 -1.50700 44.09600
C  2.91100 1.16600 42.53400
C  -0.24500 -2.29700 43.66000
C  3.41800 -4.84500 45.55300
N  4.60900 -0.38400 43.30600
C  5.96300 -0.49700 43.34200
C  6.70200 0.53900 42.52400
C  5.48100 1.48800 42.16400
C  4.19600 0.74100 42.77200
C  5.51400 2.99800 42.62700
C  7.58900 -0.04200 41.32200
C  8.91100 0.63600 40.95700
H  8.99200 1.03300 39.47900
N  1.49100 -0.58000 43.31700
C  1.66900 0.56400 42.70500
C  0.41500 1.03100 42.15500
C  -0.53300 -0.01300 42.39800
C  0.18500 -1.02100 43.12900
C  0.24600 2.29600 41.34800
C  -2.02700 -0.04800 41.89100
O  -2.53300 0.91000 41.39600
C  -2.89300 -1.27400 42.07800
N  1.77800 -3.32100 44.57800
C  0.46800 -3.33500 44.25800
C  -0.23300 -4.70300 44.64300
C  1.03200 -5.54000 45.22800
C  2.13500 -4.46200 45.15100
C  -1.45900 -4.54300 45.63900
C  1.31300 -6.92700 44.46200
C  1.00000 -8.20400 45.22300
N  4.61300 -2.87500 44.97900
C  4.60000 -4.15800 45.30800
C  5.92600 -4.68100 45.55400
C  6.70200 -3.57600 45.27000
C  5.91500 -2.55800 44.73000
C  6.26600 -6.05500 46.09700
C  8.08200 -3.13600 45.29900
O  9.01400 -3.73100 45.70300
C  8.07500 -1.78200 44.43800
C  8.57200 -0.77600 45.41500
O  8.35100 -0.71400 46.58800
O  9.31700 0.12300 44.72600
C  9.54600 1.42900 45.30300
H  2.90400 2.09400 41.95800
H  -1.27600 -2.63300 43.52600
H  3.51000 -5.88600 45.86800
H  7.43600 1.01900 43.17000
H  5.29600 1.53600 41.09100
H  5.51700 3.57500 41.70300
H  6.38700 3.36000 43.17000
H  4.59000 3.22800 43.15700
H  6.92500 0.06300 40.46300
H  7.73200 -1.10800 41.49700
H  9.63200 -0.16800 41.10800
H  9.21800 1.51400 41.52600
H  0.59100 3.18200 41.88200
H  -0.80600 2.32200 41.06300
H  0.82900 2.18400 40.43400
H  -3.95500 -1.20400 41.84300
H  -2.85000 -1.48400 43.14700
H  -2.44200 -2.12000 41.56100
H  -0.53900 -5.09100 43.67100
H  0.83400 -5.77100 46.27500
H  -1.55100 -3.52600 46.02100
H  -1.40000 -5.22700 46.48500
H  -2.35800 -4.78700 45.07400
H  2.33500 -7.10400 44.12600
H  0.78700 -7.03400 43.51400
H  0.08900 -8.62700 44.79900
H  0.82600 -7.96300 46.27200
H  1.83500 -8.90300 45.18700
H  6.57900 -6.64300 45.23400
H  5.38800 -6.49200 46.57400
H  7.02000 -5.94000 46.87600
H  8.58100 -1.85600 43.47500
H  9.15800 2.14300 44.57700
H  10.56700 1.71400 45.55600
H  8.91200 1.57700 46.17700
Mg -4.19300 25.91900 25.86500
C  -3.13200 27.25400 28.92900
C  -6.03800 23.61800 27.54700
C  -4.97400 24.32700 22.95800
C  -1.96700 28.06900 24.26900
N  -4.49800 25.44700 27.94300
C  -4.09500 26.21800 29.01900
C  -4.73900 25.71400 30.30400
C  -5.54800 24.44400 29.79200
C  -5.31400 24.47800 28.31000
C  -5.14300 23.13800 30.42400
C  -5.67500 26.74000 31.00100
C  -5.44600 26.71700 32.51100
H  -5.08300 25.47400 33.26200
N  -5.34100 24.32800 25.31400
C  -6.14300 23.58700 26.17200
C  -7.02100 22.64500 25.50400
C  -6.68400 22.73500 24.13000
C  -5.60100 23.80400 24.06100
C  -7.98700 21.81800 26.20500
C  -7.03900 21.89800 22.94800
O  -6.32600 21.91600 21.95100
C  -8.35000 21.11100 23.03000
N  -3.63700 26.21100 23.90400
C  -3.98500 25.40800 22.87200
C  -3.20500 25.84400 21.54800
C  -2.61300 27.18800 21.93000
C  -2.75200 27.16600 23.50800
C  -2.11600 24.76700 21.13400
C  -3.21200 28.36200 21.17000
C  -3.45400 29.70900 21.85000
N  -2.81800 27.44800 26.47700
C  -1.97500 28.17900 25.68200
C  -1.19200 29.06000 26.56100
C  -1.64000 28.74800 27.88200
C  -2.61900 27.73700 27.71300
C  -0.24500 30.19300 26.13900
C  -1.49700 29.05200 29.29500
O  -0.89000 29.90000 29.87100
C  -2.47600 28.06300 30.04500
C  -1.73300 27.21700 30.99600
O  -1.11500 26.19500 30.64500
O  -1.76400 27.71400 32.32100
C  -0.67700 27.19100 33.16200
H  -6.61800 22.86400 28.08400
H  -5.05300 23.82800 21.99000
H  -1.26200 28.73100 23.76200
H  -3.93200 25.48400 30.99900
H  -6.62500 24.49900 29.94900
H  -6.09400 22.60800 30.48500
H  -4.72600 23.31300 31.41600
H  -4.32200 22.72900 29.83500
H  -6.76300 26.68000 30.99500
H  -5.37500 27.75400 30.73600
H  -6.27700 27.25600 32.96600
H  -4.53900 27.27800 32.73500
H  -8.46900 22.29400 27.05900
H  -7.52200 20.86300 26.45000
H  -8.77800 21.78600 25.45500
H  -9.18000 21.78500 23.24300
H  -8.20100 20.29300 23.73500
H  -8.60900 20.72200 22.04500
H  -3.88000 25.99300 20.70500
H  -1.53800 27.13800 21.75400
H  -2.16600 23.92900 21.82800
H  -1.09000 25.13600 21.15600
H  -2.36500 24.40600 20.13600
H  -4.19900 28.07200 20.80900
H  -2.52400 28.57400 20.35200
H  -2.85600 30.46200 21.33700
H  -3.21200 29.78100 22.91100
H  -4.49900 30.00200 21.75200
H  -0.70800 31.10300 25.75700
H  0.34300 29.67600 25.38100
H  0.48000 30.44900 26.91200
H  -3.15900 28.72800 30.57400
H  -0.93400 26.24500 33.63900
H  -0.39800 27.95300 33.88900
H  0.25500 27.10200 32.60400

