158

Mg 54.41400 24.74200 44.32900
C  52.20800 27.38700 43.55700
C  52.15300 22.51700 43.37900
C  56.95000 22.57700 44.34700
C  56.98300 27.26700 44.48800
N  52.51600 25.01600 43.28900
C  51.80900 26.12100 43.10000
C  50.38700 25.74900 42.60200
C  50.28800 24.20200 42.81500
C  51.70700 23.87500 43.04900
C  49.30000 23.86300 43.97800
C  50.22100 26.29800 41.10700
C  50.27500 25.30200 39.96900
H  50.30000 25.89100 38.50900
N  54.52300 22.80900 43.96000
C  53.44300 22.03400 43.71300
C  53.85700 20.71000 43.59700
C  55.25900 20.59700 43.81500
C  55.67600 22.05000 43.97300
C  52.91100 19.62100 43.12400
C  56.08400 19.30500 43.86400
O  55.56300 18.21900 43.58900
C  57.56300 19.20100 44.09300
N  56.79200 24.92500 44.27900
C  57.43300 23.85500 44.56200
C  58.90800 24.06100 44.65600
C  58.98800 25.67100 44.62200
C  57.56200 26.02400 44.43500
C  59.68000 23.40400 45.88300
C  59.90700 26.27600 43.49900
C  61.33900 26.77500 43.92400
N  54.60200 26.87800 44.29500
C  55.66200 27.70300 44.44900
C  55.17000 29.00200 44.69000
C  53.80200 28.96600 44.31600
C  53.52400 27.61800 44.00800
C  55.97800 30.21000 45.07700
C  52.62600 29.79300 44.03500
O  52.61000 31.03300 44.05200
C  51.51900 28.74900 43.66700
C  50.90900 29.26700 42.33300
O  51.46900 29.35600 41.25600
O  49.54000 29.32800 42.56600
C  48.74200 29.76300 41.39200
H  51.34000 21.78900 43.39800
H  57.67100 21.78400 44.55800
H  57.70100 28.00400 44.85600
H  49.56800 26.24600 43.12100
H  50.02100 23.64200 41.91800
H  49.59700 22.89900 44.39200
H  48.32400 23.70800 43.51900
H  49.20400 24.58600 44.78800
H  51.01900 26.92900 40.71600
H  49.29100 26.85800 41.00700
H  49.47700 24.56100 39.91700
H  51.24400 24.80900 40.04500
H  53.05100 19.35500 42.07600
H  51.92800 19.88000 43.51700
H  53.18500 18.71200 43.65800
H  57.87900 18.15900 44.14900
H  57.66300 19.53600 45.12600
H  58.08200 19.88600 43.42300
H  59.40500 23.69700 43.75700
H  59.20400 26.08200 45.60800
H  58.89000 23.04100 46.54100
H  60.31200 24.10600 46.42800
H  60.18200 22.52800 45.47300
H  59.36300 27.08800 43.01500
H  60.07800 25.55700 42.69800
H  61.41700 27.86200 43.91100
H  61.99700 26.50200 43.09900
H  61.47600 26.35200 44.91900
H  56.70200 30.39000 44.28300
H  56.53100 29.93900 45.97700
H  55.44700 31.14800 45.24000
H  50.69300 28.87700 44.36600
H  49.09800 30.74200 41.07100
H  47.65900 29.79400 41.51300
H  49.00400 28.95500 40.70900
Mg 47.75700 15.91700 29.06900
C  45.75800 15.70600 31.93600
C  50.18100 17.36100 31.10800
C  49.48200 16.77900 26.24400
C  45.10800 14.90600 27.11200
N  47.82300 16.78600 31.25500
C  46.99700 16.29700 32.21600
C  47.46200 16.69000 33.64100
C  48.82600 17.46100 33.36000
C  48.98100 17.10100 31.81800
C  48.80000 19.02900 33.54100
C  47.58600 15.49200 34.69400
C  47.28700 15.84600 36.17900
H  47.60500 17.25500 36.76100
N  49.63500 16.85400 28.70500
C  50.50600 17.27100 29.68700
C  51.71200 17.75500 29.08600
C  51.52700 17.57400 27.68600
C  50.12500 17.09500 27.47900
C  52.80000 18.29800 29.80200
C  52.57000 17.78800 26.57500
O  52.29400 17.77700 25.36200
C  54.00900 18.11700 26.89600
N  47.43200 15.77700 27.07200
C  48.26100 16.20600 26.07500
C  47.64500 15.98700 24.63200
C  46.36600 15.20900 24.99600
C  46.28700 15.31600 26.51600
C  47.45300 17.39200 23.91000
C  46.20600 13.79700 24.43000
C  45.22500 13.53600 23.25800
N  45.83400 15.27500 29.45500
C  44.86100 14.84900 28.51400
C  43.70400 14.47700 29.35300
C  44.03100 14.69500 30.69000
C  45.25300 15.31300 30.68100
C  42.37000 14.01200 28.69500
C  43.62000 14.57700 31.94500
O  42.58800 14.15900 32.41100
C  44.70700 15.25600 32.83200
C  44.02300 16.33200 33.65300
O  43.46000 17.35000 33.27200
O  44.01300 15.94100 34.92200
C  43.62200 17.09600 35.79700
H  50.90700 17.79700 31.79900
H  49.97100 17.16800 25.34900
H  44.30300 14.64100 26.42300
H  46.69600 17.39100 33.97300
H  49.64300 16.93200 33.84800
H  47.97100 19.26100 34.20900
H  48.67700 19.68700 32.68100
H  49.69100 19.36300 34.07100
H  48.57100 15.03900 34.59200
H  46.86400 14.74700 34.36100
H  47.87400 15.06800 36.66700
H  46.26100 15.64200 36.48700
H  52.72100 18.19200 30.88400
H  53.04200 19.32100 29.51300
H  53.72000 17.74900 29.60300
H  53.99100 19.04700 27.46400
H  54.42900 18.25800 25.90000
H  54.48500 17.29000 27.42300
H  48.34100 15.37200 24.06200
H  45.51300 15.79300 24.65100
H  47.83800 18.20300 24.52800
H  46.40700 17.56900 23.66100
H  47.95700 17.45000 22.94600
H  45.88100 13.14700 25.24200
H  47.19800 13.52000 24.07300
H  45.79100 12.90100 22.57500
H  45.06400 14.44500 22.67900
H  44.32300 13.06100 23.64500
H  42.37600 12.92200 28.71200
H  42.10600 14.39600 27.71000
H  41.59100 14.34700 29.37900
H  45.10700 14.49300 33.49900
H  44.13500 18.02600 35.55300
H  43.87900 16.76600 36.80300
H  42.54800 17.26800 35.72500

