158

Mg 35.40200 49.47200 26.26900
C  35.80600 47.49100 29.00000
C  34.20600 52.06100 28.15000
C  34.99100 51.28000 23.33900
C  36.36700 46.76800 24.20400
N  34.83300 49.67600 28.36200
C  35.22700 48.79200 29.28600
C  35.12900 49.38000 30.71800
C  34.34500 50.68900 30.46200
C  34.39400 50.82000 28.93000
C  32.86000 50.78500 31.08800
C  36.50700 49.55200 31.43900
C  36.57800 48.82100 32.83400
H  35.56200 49.06100 33.99000
N  34.83000 51.37000 25.85500
C  34.44800 52.33100 26.76400
C  34.29900 53.59400 26.02000
C  34.42500 53.39700 24.64000
C  34.78700 51.93300 24.61300
C  34.05200 54.86700 26.77500
C  34.33700 54.28700 23.45000
O  34.28000 53.88300 22.28900
C  34.06900 55.73100 23.72200
N  35.76700 49.11000 24.08700
C  35.45600 50.00400 23.10400
C  35.56500 49.33600 21.71300
C  36.19200 47.97600 22.05800
C  36.17800 47.91700 23.54800
C  34.26700 49.26000 20.88400
C  37.69100 47.88900 21.46200
C  38.82900 48.30900 22.48500
N  35.96600 47.48700 26.53000
C  36.38800 46.56700 25.56400
C  36.66200 45.33500 26.34600
C  36.49500 45.67300 27.69000
C  36.07900 46.99200 27.71500
C  37.19900 44.06100 25.73700
C  36.55600 45.11500 28.97800
O  36.92100 44.04300 29.41000
C  36.10000 46.29700 29.92900
C  34.88300 45.77800 30.65700
O  33.81300 45.55500 30.24200
O  35.25100 45.50200 31.94200
C  34.14400 45.24400 32.84300
H  33.82300 52.85400 28.79700
H  35.05200 51.80800 22.38600
H  36.31300 45.88100 23.56900
H  34.49200 48.69500 31.27700
H  34.81800 51.52600 30.97500
H  32.19400 51.18300 30.32300
H  32.94000 51.49300 31.91300
H  32.47600 49.86500 31.52600
H  36.88700 50.57100 31.50700
H  37.22700 48.94800 30.88800
H  37.58400 49.00700 33.20900
H  36.58900 47.73200 32.79100
H  33.10200 55.29900 26.46200
H  34.94400 55.48700 26.68900
H  33.82600 54.68900 27.82700
H  33.06700 55.94400 24.09500
H  34.19800 56.22400 22.75900
H  34.83400 56.00800 24.44800
H  36.34700 49.90900 21.21600
H  35.62300 47.13100 21.67000
H  34.10600 48.18800 20.76900
H  34.53400 49.88400 20.03100
H  33.46700 49.71100 21.47200
H  37.68300 48.51900 20.57300
H  37.89300 46.83800 21.25800
H  39.68200 47.69500 22.19600
H  38.66600 48.26000 23.56200
H  39.09100 49.35600 22.33100
H  38.28800 44.03000 25.78300
H  36.90800 43.85900 24.70600
H  36.74200 43.29800 26.36700
H  36.89500 46.38200 30.67100
H  34.38600 45.71600 33.79500
H  33.96700 44.17100 32.91500
H  33.16900 45.63000 32.54400
Mg 16.40600 52.71500 26.52700
C  18.28600 50.80200 28.85200
C  14.19400 53.41100 29.10700
C  14.75000 54.52100 24.31800
C  18.76300 51.60300 24.00300
N  16.14300 51.89500 28.64700
C  17.12300 51.27500 29.42300
C  16.80900 51.42400 30.89100
C  15.37700 51.88800 30.84400
C  15.19400 52.42900 29.47700
C  14.33800 50.75900 31.13700
C  17.78700 52.38300 31.65800
C  18.13800 51.82100 33.05300
H  17.15500 52.30000 34.18100
N  14.65900 53.73300 26.66000
C  13.96500 53.99300 27.81000
C  12.93100 54.96700 27.52600
C  13.06000 55.27500 26.07700
C  14.23300 54.51500 25.62300
C  12.00700 55.39500 28.62200
C  12.19600 56.31200 25.31900
O  12.50200 56.58600 24.17000
C  11.09800 57.02400 25.93100
N  16.63000 52.95500 24.46700
C  15.79700 53.74700 23.73200
C  16.13000 53.89800 22.20900
C  17.54600 53.08700 22.22800
C  17.68800 52.44400 23.65400
C  15.02900 53.21800 21.33300
C  18.74500 53.87100 21.73000
C  19.09600 55.24100 22.29200
N  18.10200 51.49300 26.41000
C  18.90100 51.08200 25.33200
C  19.96900 50.22000 25.78100
C  19.70100 50.11800 27.15100
C  18.52900 50.85200 27.44100
C  21.01100 49.58400 24.96800
C  20.20100 49.45800 28.28700
O  21.13900 48.63900 28.38800
C  19.44100 50.06500 29.48600
C  19.05500 48.98800 30.47100
O  18.12900 48.17600 30.44800
O  19.91300 49.04400 31.53600
C  19.66200 48.12700 32.63900
H  13.53500 53.63400 29.94900
H  14.16900 55.02100 23.54000
H  19.46000 51.30500 23.21700
H  16.71400 50.41500 31.29200
H  15.24300 52.73700 31.51400
H  13.80500 51.13000 32.01200
H  14.77700 49.78000 31.33100
H  13.74300 50.61300 30.23500
H  17.37800 53.37900 31.82600
H  18.69200 52.49800 31.06100
H  19.19400 51.99100 33.26400
H  17.95500 50.74900 32.99100
H  11.86300 56.44400 28.36300
H  12.25200 55.30900 29.68100
H  11.10700 54.83900 28.36000
H  11.50000 57.70900 26.67700
H  10.32600 56.37400 26.34300
H  10.62800 57.77900 25.30100
H  16.35300 54.91800 21.89500
H  17.48700 52.17000 21.64200
H  14.73300 54.00100 20.63500
H  14.09300 52.91200 21.80000
H  15.50800 52.33000 20.92100
H  18.47600 54.03300 20.68600
H  19.59200 53.18500 21.74300
H  18.82400 56.03800 21.60000
H  20.17100 55.40800 22.36200
H  18.73600 55.54700 23.27500
H  21.74300 50.32800 24.65400
H  20.64700 49.10000 24.06200
H  21.61000 48.90100 25.57000
H  20.14200 50.75500 29.95500
H  19.97000 47.13100 32.32100
H  18.62600 48.16900 32.97300
H  20.24900 48.46900 33.49200

