158

Mg -1.91400 17.78400 27.41300
C  -2.18000 15.54900 30.01500
C  -2.39100 20.43400 29.54900
C  -1.81300 19.95100 24.78700
C  -1.51200 15.04800 25.15200
N  -2.26500 17.93900 29.60000
C  -2.36500 16.88500 30.52500
C  -2.79700 17.41400 31.89400
C  -2.72000 18.92300 31.74900
C  -2.41800 19.17200 30.19200
C  -3.85800 19.74700 32.37200
C  -1.98100 16.77900 33.05600
C  -1.83800 17.47800 34.41200
H  -0.78100 16.98000 35.38700
N  -2.01500 19.84900 27.21200
C  -2.19200 20.76100 28.21900
C  -2.23600 22.09400 27.70100
C  -1.94300 22.01300 26.35100
C  -1.87100 20.52600 26.01300
C  -2.28900 23.35700 28.56900
C  -1.70300 23.09200 25.38700
O  -1.48500 22.90700 24.18900
C  -1.78200 24.59000 25.74900
N  -1.87700 17.51200 25.20900
C  -1.83500 18.57500 24.37900
C  -1.74200 18.12900 22.94400
C  -1.36300 16.63800 23.08500
C  -1.64900 16.32400 24.56800
C  -3.14400 18.33900 22.21000
C  0.11800 16.28400 22.56200
C  1.20900 16.90700 23.38700
N  -1.87900 15.74800 27.53000
C  -1.71200 14.77300 26.53000
C  -1.90300 13.50100 27.10700
C  -2.07800 13.75800 28.50200
C  -2.01700 15.14900 28.71100
C  -1.92300 12.14800 26.41900
C  -2.33700 13.06200 29.77100
O  -2.64300 11.88700 30.07800
C  -2.31400 14.23100 30.79200
C  -1.15600 13.98700 31.66100
O  -0.04200 14.40400 31.46500
O  -1.49900 13.20800 32.69500
C  -0.41600 12.66700 33.52500
H  -2.64700 21.19500 30.28900
H  -1.61200 20.61400 23.94300
H  -1.26500 14.23200 24.47000
H  -3.82200 17.04500 31.86800
H  -1.84900 19.22300 32.33200
H  -3.57300 20.77300 32.60200
H  -4.34000 19.22700 33.20000
H  -4.63400 19.79600 31.60700
H  -0.99800 16.45300 32.71700
H  -2.57000 15.87800 33.22700
H  -2.83400 17.49800 34.85400
H  -1.66000 18.55200 34.34900
H  -1.29100 23.79000 28.51000
H  -2.44800 23.19500 29.63500
H  -3.06400 24.02600 28.19500
H  -2.69900 24.85500 26.27600
H  -1.68700 25.21200 24.85900
H  -0.83600 24.71100 26.27600
H  -0.97100 18.67800 22.40300
H  -1.97600 15.91100 22.55200
H  -3.75600 17.46900 22.44900
H  -2.92200 18.45000 21.14900
H  -3.67500 19.14200 22.72200
H  0.42500 16.70300 21.60300
H  0.23800 15.20200 22.60300
H  1.03200 17.49000 24.29200
H  1.81400 17.59400 22.79600
H  1.97400 16.21700 23.74300
H  -1.79700 12.23200 25.33900
H  -2.86900 11.63700 26.59700
H  -1.17900 11.46300 26.82500
H  -3.23600 14.19000 31.37300
H  0.07200 11.77700 33.12700
H  -0.98200 12.28200 34.37300
H  0.37000 13.36500 33.81200
Mg -11.24600 17.30300 42.23000
C  -7.69100 16.29600 42.13000
C  -10.03800 20.31600 40.91100
C  -14.31400 17.80000 40.93300
C  -12.00400 13.80600 42.38300
N  -9.14200 18.13200 41.53400
C  -7.89300 17.58100 41.60900
C  -6.81200 18.43700 40.94300
C  -7.50900 19.89600 41.04200
C  -8.99200 19.47400 41.16900
C  -6.99200 20.90400 42.18700
C  -6.42400 17.98300 39.50900
C  -5.00800 17.37300 39.28900
H  -4.97700 16.22000 38.37000
N  -12.11600 18.98500 41.29500
C  -11.48100 20.13700 40.81700
C  -12.41400 21.00200 40.26500
C  -13.71400 20.34700 40.29600
C  -13.42800 18.96300 40.84900
C  -12.01600 22.46400 39.88400
C  -14.98800 21.01800 39.99900
O  -14.98500 22.13700 39.51200
C  -16.28400 20.33800 40.33600
N  -12.83900 15.98600 41.64200
C  -14.07200 16.44300 41.19700
C  -15.02600 15.33700 40.86400
C  -14.23900 14.07900 41.12100
C  -12.96900 14.61300 41.84300
C  -16.39100 15.29000 41.52900
C  -13.96900 13.28500 39.82700
C  -14.72200 11.89600 39.78600
N  -10.17900 15.49600 42.52200
C  -10.63900 14.19200 42.65100
C  -9.57600 13.35400 43.11500
C  -8.42500 14.09300 42.85300
C  -8.81700 15.37300 42.46800
C  -9.63200 11.91000 43.61200
C  -6.95500 14.02600 42.81100
O  -6.28000 13.01500 42.92100
C  -6.47600 15.43100 42.27700
C  -5.38900 15.91100 43.16100
O  -5.34600 17.03900 43.69700
O  -4.45700 14.92700 43.30300
C  -3.53400 15.15900 44.43700
H  -9.75600 21.31900 40.58500
H  -15.33400 17.88200 40.55300
H  -12.12400 12.72100 42.35700
H  -5.93300 18.45600 41.58700
H  -7.32000 20.38100 40.08400
H  -6.90600 21.78800 41.55500
H  -5.99900 20.70800 42.59100
H  -7.67600 21.01300 43.02800
H  -6.48000 18.85500 38.85900
H  -7.15200 17.26100 39.13900
H  -4.79400 16.91800 40.25600
H  -4.29400 18.16900 39.07900
H  -11.56400 22.35700 38.89800
H  -11.29300 22.59200 40.68900
H  -12.70500 23.30500 39.80000
H  -16.16100 19.80100 41.27700
H  -16.51200 19.70700 39.47800
H  -16.94000 21.17800 40.56500
H  -15.25000 15.36800 39.79800
H  -14.68300 13.41700 41.86500
H  -16.95900 14.69600 40.81300
H  -16.80700 16.28600 41.67700
H  -16.48100 14.68300 42.43000
H  -12.89700 13.26500 39.63400
H  -14.33500 13.85300 38.97200
H  -15.24600 11.83800 38.83200
H  -15.45700 11.76000 40.58000
H  -13.98300 11.10300 39.67000
H  -8.76400 11.31600 43.32800
H  -10.52500 11.37500 43.28900
H  -9.60200 11.98900 44.69900
H  -6.10900 15.10900 41.30200
H  -2.89600 14.27600 44.47000
H  -4.17800 15.32300 45.30100
H  -2.95200 16.04500 44.18400

