158

Mg 35.29800 1.60700 29.19900
C  33.25200 2.64300 31.78200
C  37.94800 2.11400 31.27700
C  37.25900 0.82600 26.64500
C  32.56300 1.85800 27.08200
N  35.50700 2.20100 31.28900
C  34.55300 2.45500 32.19600
C  35.02900 2.44500 33.64500
C  36.49700 2.38200 33.41200
C  36.71100 2.29900 31.90500
C  37.32600 3.61100 33.99900
C  34.44000 1.36000 34.53500
C  34.02200 1.78300 35.96100
H  34.75500 2.95900 36.61200
N  37.35100 1.39200 29.03900
C  38.22900 1.76000 29.94500
C  39.57400 1.61800 29.41900
C  39.42400 1.09700 28.03700
C  37.98100 1.04700 27.85100
C  40.78400 1.89500 30.31300
C  40.48200 0.71800 27.03800
O  40.12300 0.43000 25.90900
C  41.89300 0.69500 27.43100
N  34.87800 1.28800 27.25200
C  35.81800 0.92000 26.35700
C  35.27300 0.56900 24.96700
C  33.74000 0.77300 25.15700
C  33.76700 1.39900 26.53000
C  35.80900 1.42400 23.81600
C  32.92600 -0.53400 24.95800
C  33.08000 -1.24400 23.51700
N  33.32600 2.13100 29.31100
C  32.35500 2.25000 28.40100
C  31.11200 2.78300 28.93900
C  31.43300 2.93000 30.26300
C  32.78000 2.50200 30.43900
C  29.83300 2.96500 28.25400
C  30.87300 3.30800 31.58000
O  29.78900 3.64200 31.92300
C  32.02000 3.00000 32.58900
C  32.19100 4.27500 33.38200
O  32.76900 5.33100 33.01500
O  31.50000 4.19800 34.55700
C  31.31100 5.48600 35.18800
H  38.83000 2.20500 31.91300
H  37.82500 0.53600 25.75700
H  31.79300 1.98100 26.31700
H  34.89600 3.46100 34.01700
H  36.96300 1.49600 33.84400
H  36.69200 4.28300 34.57800
H  37.75000 4.27900 33.24900
H  38.14700 3.31100 34.65000
H  35.04600 0.46200 34.65700
H  33.46500 1.04400 34.16400
H  34.13700 0.97000 36.67900
H  32.96400 2.04400 35.93300
H  41.78000 1.64100 29.95000
H  40.71100 1.38400 31.27300
H  40.77500 2.98000 30.41600
H  42.29500 1.69200 27.61100
H  42.43700 0.43200 26.52300
H  42.08800 0.06300 28.29700
H  35.49000 -0.46100 24.68500
H  33.37900 1.57300 24.51100
H  35.06200 1.94000 23.21300
H  36.43800 0.77700 23.20500
H  36.48500 2.18300 24.20800
H  31.87100 -0.27500 25.04600
H  33.36300 -1.21600 25.68800
H  32.34200 -1.03700 22.74100
H  33.13400 -2.28700 23.82900
H  34.07400 -1.07500 23.10400
H  29.04700 3.06800 29.00200
H  29.70700 2.15600 27.53400
H  29.83500 3.83400 27.59500
H  31.67600 2.17300 33.20900
H  32.30200 5.91900 35.32500
H  30.87800 5.34400 36.17800
H  30.71100 6.21400 34.64200
Mg 40.46400 8.76100 29.02400
C  42.39900 10.04300 31.71400
C  38.63000 6.97300 31.24700
C  38.84600 7.45800 26.42100
C  42.88600 10.07800 26.88000
N  40.48300 8.62000 31.17300
C  41.29400 9.25800 32.05400
C  40.84900 9.03200 33.52800
C  39.81200 7.87800 33.35900
C  39.57300 7.85000 31.80500
C  40.16900 6.48900 34.05800
C  40.33100 10.30700 34.25800
C  39.80600 10.07300 35.68000
H  40.67700 10.50200 36.88500
N  38.93600 7.41300 28.88500
C  38.22200 6.79000 29.89800
C  37.14500 6.05800 29.30700
C  37.19600 6.19400 27.85300
C  38.29200 7.07900 27.68800
C  36.17100 5.31300 30.16900
C  36.22300 5.63600 26.70400
O  36.34600 5.93400 25.52300
C  35.27200 4.68000 27.10400
N  40.83800 8.78600 26.98700
C  40.01800 8.18900 26.08500
C  40.49100 8.28500 24.60100
C  41.79600 9.11900 24.79800
C  41.85500 9.39200 26.29700
C  40.78700 6.90700 23.91000
C  41.95500 10.34600 23.93100
C  41.23200 11.63000 24.33800
N  42.24900 9.82800 29.21000
C  43.07800 10.37600 28.26600
C  44.23000 10.97300 28.83100
C  43.95400 10.95600 30.17400
C  42.75600 10.22400 30.34900
C  45.41900 11.42200 28.02600
C  44.44900 11.38000 31.46500
O  45.40800 12.10600 31.79200
C  43.40500 10.90600 32.52600
C  44.12100 10.12600 33.53900
O  44.47100 8.94000 33.47700
O  44.35200 10.89700 34.64300
C  44.94500 10.13300 35.76000
H  37.96900 6.46000 31.94900
H  38.31000 7.00500 25.58400
H  43.67100 10.35000 26.17200
H  41.75800 8.76800 34.06800
H  38.84600 8.15800 33.78000
H  39.52500 6.54700 34.93500
H  41.22200 6.52900 34.33700
H  40.00400 5.64700 33.38500
H  39.49800 10.77000 33.72900
H  41.17600 10.99100 34.34400
H  39.69500 8.99800 35.81800
H  38.82000 10.52200 35.80000
H  35.13800 5.49300 29.87200
H  36.22800 5.63700 31.20800
H  36.28300 4.24900 29.95600
H  34.43400 5.14500 27.62400
H  35.75100 3.83700 27.60100
H  34.88300 4.32200 26.15100
H  39.71600 8.86400 24.09800
H  42.65400 8.47900 24.59100
H  40.55000 6.71700 22.86300
H  40.12900 6.11800 24.27200
H  41.82700 6.60200 24.03100
H  41.37600 10.11600 23.03700
H  43.01400 10.54300 23.76000
H  40.50500 11.98100 23.60600
H  41.83700 12.48200 24.64700
H  40.65100 11.38300 25.22700
H  45.21600 12.31900 27.44200
H  45.76500 10.61400 27.38200
H  46.33300 11.61600 28.58900
H  43.05900 11.78800 33.06600
H  45.75700 9.43200 35.56500
H  44.13100 9.47600 36.06600
H  45.20100 10.71400 36.64600

