158

Mg 47.09400 24.43500 28.39700
C  47.75400 26.73600 31.01600
C  45.90500 22.20500 30.71800
C  47.07200 22.25900 25.87900
C  48.68000 26.85600 26.17800
N  46.77600 24.53100 30.70000
C  47.12000 25.53500 31.52500
C  46.70300 25.18200 32.96300
C  46.19500 23.69000 32.83400
C  46.27400 23.41100 31.34300
C  46.97500 22.74500 33.82800
C  45.71300 26.24200 33.61500
C  46.15100 26.72000 35.08700
H  45.05500 26.76600 36.18400
N  46.52500 22.54700 28.30800
C  46.06100 21.80800 29.38500
C  45.78500 20.47000 28.82600
C  46.15800 20.42700 27.40400
C  46.57200 21.78900 27.09300
C  45.04700 19.34300 29.53600
C  46.01500 19.23000 26.45200
O  46.36000 19.40000 25.30700
C  45.30500 17.91800 26.78100
N  47.91700 24.48800 26.31100
C  47.72100 23.43900 25.50200
C  48.40400 23.70400 24.16800
C  48.44400 25.28000 24.13300
C  48.33200 25.59200 25.59800
C  49.70200 22.88000 23.97100
C  47.16400 25.92100 23.37900
C  46.77800 27.40100 23.41400
N  47.96900 26.33800 28.51500
C  48.49700 27.17600 27.55800
C  48.84600 28.42400 28.18600
C  48.69300 28.19900 29.51500
C  48.04800 26.96100 29.66900
C  49.50300 29.59900 27.49600
C  48.91300 28.87300 30.78300
O  49.42700 29.90500 31.17400
C  48.28000 27.87200 31.79900
C  49.36600 27.37600 32.72600
O  50.26100 26.57800 32.46500
O  49.10800 27.74400 33.99900
C  50.07500 27.19400 35.00400
H  45.51400 21.52200 31.47600
H  47.13500 21.55500 25.04700
H  49.07400 27.68000 25.58000
H  47.66200 25.29400 33.46900
H  45.14300 23.70500 33.12000
H  46.25400 22.18700 34.42500
H  47.62200 23.23700 34.55400
H  47.58400 22.01300 33.29700
H  44.73700 25.79500 33.80300
H  45.63200 27.17600 33.05900
H  46.64000 27.69100 35.01900
H  46.89600 26.04900 35.51600
H  45.65800 18.45500 29.37600
H  43.96200 19.31100 29.44100
H  45.15600 19.65100 30.57600
H  46.04000 17.38200 27.38200
H  45.09300 17.44400 25.82300
H  44.41300 18.11100 27.37700
H  47.66200 23.36200 23.44700
H  49.41200 25.56000 23.71600
H  49.59200 22.23800 23.09700
H  50.06900 22.35200 24.85200
H  50.59100 23.47800 23.77000
H  46.31900 25.38700 23.81300
H  47.08600 25.62500 22.33300
H  45.82000 27.47700 23.92800
H  46.71700 27.75300 22.38400
H  47.51700 28.00500 23.93900
H  48.98600 29.62800 26.53700
H  50.59200 29.55100 27.48500
H  49.06300 30.42100 28.06200
H  47.46900 28.38000 32.32200
H  50.04700 26.11700 35.16800
H  49.89100 27.64200 35.98100
H  51.11200 27.44700 34.77900
Mg 47.47800 34.29700 28.31100
C  45.77400 32.40900 30.76300
C  47.34000 36.99300 30.64700
C  48.28200 36.31600 25.97100
C  46.94000 31.66800 26.04700
N  46.60300 34.64700 30.45300
C  46.09600 33.66000 31.29700
C  46.04900 34.21400 32.76900
C  45.94200 35.77300 32.49600
C  46.67500 35.84000 31.09200
C  44.64000 36.47500 32.60800
C  47.35800 33.78800 33.43500
C  47.19700 33.33600 34.93600
H  46.29100 34.30300 35.84900
N  47.93600 36.29900 28.30300
C  47.83100 37.25500 29.33300
C  48.56500 38.46600 28.90000
C  49.02700 38.18100 27.57400
C  48.37600 36.93300 27.17700
C  48.82000 39.55500 29.86900
C  49.92000 39.05100 26.61700
O  50.11400 38.78900 25.44400
C  50.45500 40.35100 27.10200
N  47.51400 33.99100 26.25300
C  47.82700 35.03500 25.47100
C  47.95900 34.67800 23.98500
C  47.66200 33.17200 24.07200
C  47.39100 32.86700 25.51400
C  47.06800 35.47700 22.93900
C  48.70500 32.18100 23.52300
C  48.59100 31.52400 22.14200
N  46.65000 32.33400 28.41800
C  46.48000 31.41800 27.36800
C  45.85000 30.23000 27.88600
C  45.45100 30.54000 29.20800
C  46.04500 31.84500 29.48300
C  45.52000 28.97100 27.11400
C  44.78000 30.10200 30.40900
O  44.06800 29.21600 30.64600
C  44.80500 31.36800 31.36100
C  44.87800 31.05100 32.79400
O  45.67300 30.33600 33.35100
O  43.81500 31.72200 33.39700
C  43.67400 31.79700 34.83300
H  47.34900 37.80900 31.37300
H  48.77100 36.76600 25.10400
H  46.82300 30.88400 25.29600
H  45.22200 33.79200 33.33900
H  46.53200 36.28700 33.25400
H  44.00900 35.79300 33.17800
H  44.25700 36.62200 31.59800
H  44.83900 37.35700 33.21600
H  48.21400 34.46100 33.38400
H  47.73200 32.88800 32.94800
H  48.17400 33.35400 35.41900
H  46.90900 32.28600 34.98300
H  49.89900 39.69200 29.81200
H  48.70300 39.38500 30.93900
H  48.29500 40.43400 29.49400
H  51.05000 40.05800 27.96700
H  49.68800 41.08600 27.34500
H  51.15300 40.65400 26.32200
H  48.94400 34.84100 23.54700
H  46.68900 32.88900 23.67200
H  46.28300 34.82300 22.55900
H  47.65000 35.81100 22.08000
H  46.54900 36.27400 23.47300
H  48.90500 31.33500 24.18200
H  49.63900 32.70800 23.72100
H  47.75000 31.96300 21.60500
H  48.58700 30.45100 22.33600
H  49.42400 31.70200 21.46300
H  46.20500 28.74700 26.29600
H  44.49600 29.07600 26.75500
H  45.65300 28.18700 27.86000
H  43.80600 31.80300 31.31500
H  42.93200 31.05300 35.12300
H  43.23000 32.78000 34.98300
H  44.51000 31.72200 35.52900

