158

Mg 48.98800 45.98200 44.28100
C  45.85800 46.32800 42.60200
C  49.36000 42.98800 42.40700
C  52.40900 46.30300 44.56700
C  48.68500 49.31100 45.36700
N  47.75600 44.93000 42.65800
C  46.53100 45.13600 42.26100
C  45.89300 44.00500 41.39700
C  46.98600 42.91000 41.55600
C  48.14200 43.58700 42.20000
C  46.48500 41.63900 42.52100
C  45.49900 44.56900 40.01800
C  44.02000 44.41900 39.40700
H  43.88300 43.44800 38.16500
N  50.55900 44.76000 43.62200
C  50.54600 43.57100 42.95900
C  51.79500 42.92200 43.03800
C  52.69100 43.80800 43.75600
C  51.89800 45.05300 43.99900
C  52.04700 41.48900 42.47200
C  54.09500 43.37300 44.19900
O  54.60200 42.30900 43.78400
C  54.85600 44.15200 45.18800
N  50.36400 47.54600 44.84800
C  51.73000 47.48800 44.84700
C  52.41200 48.82300 45.38100
C  51.19900 49.74500 45.73400
C  50.00200 48.87100 45.28600
C  53.28800 48.58600 46.57800
C  51.20600 51.11600 45.03700
C  52.27100 52.08000 45.45800
N  47.43300 47.43300 44.29800
C  47.53900 48.76400 44.73000
C  46.16000 49.36000 44.61400
C  45.48000 48.38800 43.80800
C  46.36700 47.29000 43.57300
C  45.66100 50.73100 44.90700
C  44.23800 48.13900 43.13900
O  43.28000 48.78200 42.95200
C  44.37700 46.74400 42.30200
C  43.47300 45.77400 42.97200
O  43.70100 45.06000 43.96400
O  42.26400 45.85500 42.26700
C  41.22900 44.91200 42.73300
H  49.45300 41.98100 41.99400
H  53.48800 46.36600 44.72400
H  48.49600 50.31700 45.74700
H  44.96300 43.56000 41.75100
H  47.19200 42.48000 40.57600
H  45.47500 41.79700 42.90000
H  46.96500 41.61400 43.49900
H  46.52000 40.67200 42.02000
H  46.06600 44.08200 39.22400
H  45.94400 45.55300 39.86900
H  43.67200 45.43400 39.21700
H  43.46200 43.96500 40.22600
H  53.08400 41.43100 42.14300
H  51.40600 41.36400 41.59900
H  51.78400 40.76000 43.23900
H  54.25800 44.55200 46.00700
H  55.29200 44.97400 44.62100
H  55.58100 43.44700 45.59500
H  53.02900 49.16000 44.54900
H  51.13700 49.78200 46.82200
H  53.11800 47.60500 47.02200
H  53.17400 49.30900 47.38600
H  54.33600 48.65800 46.28600
H  50.27100 51.67000 45.12200
H  51.25900 50.89400 43.97100
H  51.75900 53.02600 45.63600
H  52.99100 52.32500 44.67700
H  52.75900 51.72600 46.36500
H  45.85100 51.10200 45.91400
H  44.62300 50.78400 44.57700
H  46.12700 51.40200 44.18500
H  44.31600 46.90600 41.22500
H  40.32600 45.52000 42.79700
H  41.49700 44.33200 43.61600
H  41.01300 44.12500 42.01100
Mg -5.34800 25.75800 26.12600
C  -4.33100 27.05200 29.17300
C  -6.96500 23.26700 27.59400
C  -5.90900 24.49200 23.07400
C  -2.87600 27.90500 24.64200
N  -5.37800 25.15800 28.07200
C  -5.10800 25.91900 29.19500
C  -5.68200 25.29800 30.45100
C  -6.17500 23.88200 29.92500
C  -6.15200 24.08400 28.37700
C  -5.33600 22.60400 30.34500
C  -6.85900 26.24200 31.16100
C  -6.62000 26.68500 32.57500
H  -6.15700 25.60900 33.64300
N  -6.34500 24.13000 25.43700
C  -7.13200 23.30400 26.22300
C  -7.94900 22.53600 25.37500
C  -7.60200 22.78000 24.06400
C  -6.53000 23.83300 24.12700
C  -8.99100 21.65100 25.94000
C  -8.12300 22.20100 22.84200
O  -7.60900 22.54500 21.76600
C  -9.25900 21.23500 22.86600
N  -4.52400 26.20700 24.17100
C  -5.01000 25.54400 23.05300
C  -4.04200 25.88300 21.85600
C  -3.40600 27.19400 22.31000
C  -3.58300 27.07400 23.79600
C  -3.06900 24.74600 21.60600
C  -4.10500 28.47100 21.74200
C  -4.34800 28.63200 20.25800
N  -3.93900 27.23700 26.70000
C  -2.99100 28.00300 26.01200
C  -2.29200 28.87100 26.92200
C  -2.80700 28.53900 28.14800
C  -3.74400 27.52600 27.94600
C  -1.33600 29.99200 26.61200
C  -2.80300 28.98100 29.59000
O  -2.10800 29.86000 30.15500
C  -3.80600 27.96300 30.33600
C  -3.04700 27.28300 31.51400
O  -2.44400 26.22400 31.37600
O  -3.08700 28.09700 32.61500
C  -2.37200 27.60500 33.87100
H  -7.55100 22.56000 28.18500
H  -6.15800 24.02000 22.12100
H  -2.18500 28.53400 24.07700
H  -4.93600 25.24600 31.24500
H  -7.19700 23.67200 30.24200
H  -4.54900 23.02600 30.96900
H  -4.84900 22.00000 29.58000
H  -5.90500 21.93500 30.99000
H  -7.82800 25.74200 31.14500
H  -6.82300 27.08300 30.46800
H  -7.58800 27.01100 32.95600
H  -5.86800 27.47000 32.49900
H  -9.94300 22.00400 25.54200
H  -9.07100 21.77700 27.02000
H  -8.77500 20.61900 25.66300
H  -8.82500 20.28700 23.18400
H  -9.71600 20.97900 21.91000
H  -9.97300 21.68200 23.55800
H  -4.67300 25.99700 20.97500
H  -2.33000 27.11300 22.15700
H  -2.14900 25.06900 21.11900
H  -3.57700 24.12200 20.87100
H  -2.86900 24.03200 22.40500
H  -3.42100 29.29000 21.96000
H  -5.07300 28.67100 22.20000
H  -5.33700 29.02300 20.02000
H  -4.03900 27.73000 19.73000
H  -3.69600 29.46700 20.00000
H  -1.64200 30.85300 27.20700
H  -1.37200 30.35700 25.58500
H  -0.28200 29.74700 26.74500
H  -4.56300 28.60500 30.78700
H  -2.99000 27.27100 34.70500
H  -1.81200 28.48500 34.18700
H  -1.69400 26.79700 33.59800

