158

Mg 25.19100 1.18700 29.87600
C  27.31000 1.05100 32.64400
C  22.41100 1.04300 31.89600
C  23.08200 0.99200 27.17300
C  27.82800 0.45600 27.83400
N  24.96400 1.21800 32.05900
C  25.93700 1.15600 33.00200
C  25.26000 1.25600 34.36200
C  23.71000 1.00200 34.09000
C  23.68100 1.07400 32.57200
C  23.15600 -0.25900 34.68200
C  25.67400 2.51000 35.15800
C  26.11400 2.22700 36.60500
H  25.49500 3.17000 37.68600
N  23.03700 1.18900 29.55100
C  22.09400 1.12100 30.53600
C  20.75200 1.09300 29.97000
C  20.93300 1.09100 28.56200
C  22.40400 1.05500 28.35900
C  19.46800 1.09400 30.83300
C  19.86600 1.03000 27.54900
O  20.07800 0.87100 26.35300
C  18.38900 0.74600 27.94400
N  25.38400 0.68700 27.86500
C  24.41100 0.85900 26.92600
C  24.95600 1.01000 25.49300
C  26.54300 0.94800 25.79300
C  26.60200 0.71000 27.24800
C  24.40200 -0.04500 24.58600
C  27.27400 2.24400 25.39400
C  26.93400 3.50100 26.15200
N  27.10400 0.72100 30.14500
C  28.03000 0.42400 29.20800
C  29.30800 0.24100 29.81100
C  29.09600 0.50900 31.23800
C  27.74700 0.84100 31.36400
C  30.60500 -0.24800 28.98600
C  29.71600 0.61400 32.53100
O  30.90900 0.38900 32.80800
C  28.62800 1.05500 33.49500
C  28.65000 0.03300 34.49100
O  28.30400 -1.12700 34.37600
O  29.09900 0.51700 35.72000
C  29.04300 -0.41800 36.86100
H  21.65700 0.89200 32.67200
H  22.43600 1.05700 26.29500
H  28.72500 0.55900 27.22000
H  25.74800 0.38300 34.79400
H  23.04500 1.80000 34.42400
H  22.99800 -1.00000 33.89800
H  22.29700 0.01100 35.29700
H  23.81000 -0.81100 35.35700
H  24.90700 3.28300 35.10400
H  26.47700 3.03100 34.63500
H  27.20000 2.31000 36.62900
H  26.03900 1.15100 36.75700
H  19.77900 0.81000 31.83800
H  18.67900 0.41800 30.50200
H  18.99200 2.07200 30.75600
H  18.53000 -0.08700 28.63200
H  17.87400 0.38900 27.05200
H  17.93700 1.64200 28.37100
H  24.68000 2.03200 25.23400
H  26.91500 0.03400 25.32900
H  23.31900 -0.12200 24.67600
H  24.74600 -1.04400 24.85400
H  24.64800 0.09800 23.53300
H  26.91800 2.43700 24.38200
H  28.36000 2.18200 25.32800
H  25.93300 3.43600 26.57900
H  26.88500 4.36500 25.49000
H  27.65400 3.53100 26.97000
H  31.25900 0.61300 28.84300
H  30.34300 -0.65200 28.00800
H  31.15600 -0.99200 29.56200
H  28.82100 1.98300 34.03400
H  29.91500 -0.17800 37.47000
H  28.94300 -1.48500 36.66300
H  28.17200 -0.19200 37.47600
Mg 46.88400 25.79400 28.38500
C  47.68100 28.03700 30.90800
C  45.71500 23.57800 30.83900
C  46.45400 23.51600 26.02300
C  48.60600 27.90200 26.19200
N  46.69300 25.87800 30.58900
C  47.04000 26.90300 31.40200
C  46.74700 26.62900 32.89000
C  46.19600 25.17400 32.81600
C  46.19600 24.82200 31.29300
C  47.05000 24.16100 33.67100
C  45.82700 27.66800 33.61400
C  46.43100 28.48500 34.87900
H  45.42900 28.79700 36.02500
N  45.86300 23.99200 28.34800
C  45.46100 23.24100 29.45200
C  44.71200 22.13900 28.94300
C  44.99100 22.03700 27.53000
C  45.88100 23.18000 27.27200
C  43.99500 21.20200 29.86700
C  44.72300 20.95400 26.50800
O  45.21500 20.89600 25.37400
C  43.86200 19.79400 27.03700
N  47.50000 25.65600 26.42400
C  47.16400 24.63300 25.60900
C  47.40400 24.95900 24.13500
C  48.25200 26.29800 24.22700
C  48.15600 26.63100 25.70600
C  48.11900 23.75000 23.40300
C  47.64800 27.37600 23.33200
C  48.56300 28.25400 22.47700
N  47.97400 27.57700 28.47100
C  48.47400 28.38700 27.43600
C  48.86800 29.67600 28.00400
C  48.70300 29.50100 29.33900
C  48.05500 28.25700 29.58100
C  49.50300 30.80400 27.35200
C  48.86900 30.14400 30.59600
O  49.33200 31.19900 30.85900
C  48.20600 29.17000 31.63100
C  49.25100 28.76100 32.51400
O  49.99000 27.79700 32.37500
O  49.33600 29.68600 33.57100
C  50.30300 29.37800 34.58700
H  45.42300 22.95200 31.68500
H  46.11800 22.89700 25.18900
H  49.00900 28.62400 25.47900
H  47.73600 26.74300 33.33300
H  45.14600 25.19100 33.11000
H  46.40600 23.50000 34.25100
H  47.63600 24.78200 34.34900
H  47.70200 23.52000 33.07900
H  45.00500 27.14800 34.10700
H  45.36500 28.26400 32.82600
H  46.74100 29.43200 34.43800
H  47.30900 27.95000 35.24200
H  42.91600 21.29200 29.74400
H  44.29900 21.43900 30.88600
H  44.30200 20.16800 29.71000
H  44.46500 19.07700 27.59400
H  43.50100 19.20100 26.19600
H  42.95600 20.14400 27.53100
H  46.43200 25.18700 23.69700
H  49.29800 26.22000 23.93000
H  47.40400 23.11300 22.88200
H  48.69000 23.18600 24.14000
H  48.86100 24.16400 22.72000
H  47.14600 28.10400 23.97100
H  47.00800 26.89800 22.59100
H  49.57800 27.85600 22.48700
H  48.48400 29.28400 22.82400
H  48.20300 28.13700 21.45500
H  49.20300 31.01200 26.32500
H  50.49700 30.35700 27.34400
H  49.47300 31.65800 28.02900
H  47.43500 29.76500 32.12100
H  50.72700 30.23300 35.11300
H  51.16800 28.95900 34.07300
H  49.96000 28.58700 35.25500

