158

Mg -12.35700 38.19200 43.64000
C  -10.34100 35.66200 42.05800
C  -10.33400 40.50400 42.18700
C  -14.58200 40.43100 44.54100
C  -14.70700 35.56900 44.28000
N  -10.56100 38.05200 42.24000
C  -9.82200 36.96700 41.74400
C  -8.57000 37.36400 41.09700
C  -8.52300 38.92100 41.31000
C  -9.85200 39.19300 41.98300
C  -7.27900 39.47500 42.03600
C  -8.41600 36.94000 39.58000
C  -6.89500 36.78000 39.13900
H  -6.38800 35.64400 38.22300
N  -12.48900 40.19600 43.36300
C  -11.55200 40.93700 42.80700
C  -11.88400 42.35500 42.91500
C  -13.06800 42.38800 43.65600
C  -13.43200 40.97400 43.90100
C  -11.05000 43.49100 42.34600
C  -13.85700 43.63800 43.98800
O  -13.36500 44.75900 43.80800
C  -15.28300 43.43400 44.32100
N  -14.34400 38.04100 44.36800
C  -15.05900 39.14000 44.69500
C  -16.31900 38.77000 45.53000
C  -16.48700 37.23900 45.20000
C  -15.10800 36.95500 44.59400
C  -16.16700 38.98000 47.10000
C  -17.55500 36.81300 44.21600
C  -18.94400 36.90300 44.75800
N  -12.51200 36.02300 43.37300
C  -13.49900 35.13600 43.67800
C  -13.12900 33.83800 43.36800
C  -11.85100 33.91600 42.68700
C  -11.56300 35.36500 42.72200
C  -13.81200 32.57900 43.69500
C  -10.84000 33.20200 42.03000
O  -10.57300 32.05000 41.92200
C  -9.79100 34.33600 41.60100
C  -8.47700 33.97800 42.34900
O  -8.32100 33.93400 43.55600
O  -7.58800 33.57700 41.41300
C  -6.35200 32.97500 41.94900
H  -9.60600 41.16500 41.71300
H  -15.25400 41.18600 44.95300
H  -15.45500 34.82600 44.56300
H  -7.76800 36.94200 41.70200
H  -8.63900 39.60200 40.46600
H  -7.52400 39.86300 43.02500
H  -6.86200 40.30300 41.46300
H  -6.59500 38.66400 42.28600
H  -8.86300 37.75300 39.00700
H  -8.87800 35.96700 39.41300
H  -6.20200 36.66000 39.97200
H  -6.62300 37.70200 38.62500
H  -10.91400 44.24700 43.11900
H  -11.59500 43.91800 41.50500
H  -10.06100 43.30000 41.92900
H  -15.83800 42.65300 43.80100
H  -15.72300 44.38000 44.00700
H  -15.42700 43.43300 45.40100
H  -17.21200 39.27400 45.16000
H  -16.51600 36.70100 46.14700
H  -17.06800 39.42200 47.52500
H  -15.45000 39.80100 47.11200
H  -15.69100 38.19400 47.68700
H  -17.41700 35.75600 43.99000
H  -17.50700 37.40700 43.30300
H  -19.42700 35.98200 45.08600
H  -19.50800 37.52700 44.06500
H  -19.00100 37.41200 45.72100
H  -14.01600 32.56000 44.76600
H  -13.08600 31.77300 43.59100
H  -14.76200 32.31600 43.23100
H  -9.51900 34.25600 40.54800
H  -6.43100 31.88900 41.99800
H  -6.02300 33.42400 42.88600
H  -5.64600 33.28000 41.17700
Mg -1.73400 34.42700 27.72100
C  -3.29700 32.39300 30.07400
C  -0.26400 36.16100 30.40700
C  -0.53700 36.56900 25.50400
C  -3.66500 32.82500 25.20600
N  -1.89800 34.40000 30.01900
C  -2.55100 33.39100 30.73500
C  -2.36600 33.62800 32.26100
C  -1.55000 34.92500 32.29400
C  -1.10200 35.11800 30.84500
C  -2.39500 36.24600 32.74600
C  -1.65200 32.38800 32.88800
C  -2.36200 31.75700 34.08900
H  -1.71900 31.64500 35.47100
N  -0.46000 36.04500 27.92200
C  0.15500 36.51900 29.07500
C  1.04000 37.61400 28.69700
C  0.91300 37.77400 27.29700
C  -0.06600 36.75600 26.81800
C  1.91400 38.41000 29.72900
C  1.64500 38.82300 26.41600
O  1.46400 38.99900 25.24500
C  2.72400 39.67900 27.14700
N  -2.13400 34.66600 25.67200
C  -1.49200 35.65200 25.01300
C  -2.18900 35.83900 23.59300
C  -2.87200 34.39100 23.35800
C  -2.90700 33.91800 24.83000
C  -3.32400 36.96800 23.58300
C  -2.02500 33.44200 22.52700
C  -2.66000 33.09000 21.18200
N  -3.16900 32.87600 27.63900
C  -3.78600 32.33300 26.50200
C  -4.58300 31.18900 26.93000
C  -4.43000 31.20900 28.34700
C  -3.55000 32.27100 28.71400
C  -5.27600 30.26200 26.07800
C  -4.85100 30.47000 29.55500
O  -5.58500 29.50900 29.67000
C  -4.16900 31.26500 30.74200
C  -5.07600 31.65600 31.83500
O  -5.75800 32.68000 31.91400
O  -5.09400 30.56600 32.72200
C  -5.88900 30.77300 33.83100
H  0.12900 36.83600 31.17000
H  -0.12300 37.34000 24.85000
H  -4.36000 32.35300 24.51000
H  -3.39400 33.76500 32.59400
H  -0.65100 34.83600 32.90400
H  -3.43000 36.14400 33.07200
H  -2.45600 36.99200 31.95400
H  -1.94000 36.78400 33.57800
H  -0.67800 32.72000 33.24800
H  -1.33700 31.63100 32.16900
H  -2.49000 30.69700 33.86700
H  -3.32400 32.25100 34.22200
H  2.98300 38.24100 29.59900
H  1.58300 38.12800 30.72900
H  1.71000 39.47300 29.85700
H  3.20800 40.40100 26.49000
H  3.60000 39.05500 27.32800
H  2.45900 40.28400 28.01400
H  -1.51600 36.17500 22.80500
H  -3.81100 34.66500 22.87700
H  -4.35800 36.63100 23.51400
H  -3.14800 37.64800 22.75000
H  -3.27400 37.63300 24.44500
H  -1.89900 32.52000 23.09500
H  -1.07700 33.87100 22.20300
H  -1.91100 33.14300 20.39200
H  -3.53200 33.67700 20.89700
H  -2.92800 32.03300 21.19300
H  -6.31100 30.60100 26.02400
H  -5.50200 29.28300 26.49900
H  -4.92800 30.19500 25.04700
H  -3.50600 30.59500 31.29000
H  -6.91500 31.04200 33.57700
H  -5.49600 31.58100 34.44800
H  -5.82700 29.84900 34.40500

