158

Mg 44.38500 42.51500 26.06500
C  43.03800 44.54400 28.63800
C  45.92400 40.71600 28.46900
C  45.59700 40.62100 23.53100
C  43.03300 44.83900 23.68000
N  44.35400 42.62900 28.31900
C  43.72500 43.47300 29.11600
C  43.85300 43.02600 30.59000
C  45.04900 42.05700 30.52800
C  45.13500 41.77400 28.98700
C  46.36400 42.43000 31.17500
C  42.60900 42.55200 31.47900
C  42.69600 41.86900 32.87000
H  41.83800 42.44600 33.96900
N  45.51700 40.87200 25.98300
C  46.09500 40.31100 27.09600
C  46.93200 39.16100 26.72500
C  46.73100 39.02900 25.31900
C  45.95300 40.21500 24.87400
C  47.85300 38.40300 27.71100
C  47.29100 37.99700 24.42500
O  47.05200 38.02800 23.20200
C  48.20600 36.90000 24.92800
N  44.22200 42.65800 23.89500
C  44.82200 41.77300 23.06100
C  44.74500 42.15700 21.57000
C  43.68700 43.26800 21.64000
C  43.59500 43.65900 23.19000
C  46.10700 42.30700 20.86500
C  42.22500 43.00600 20.98300
C  41.35800 42.07400 21.90500
N  43.28500 44.33200 26.07500
C  42.89700 45.17400 25.07200
C  42.17600 46.28500 25.64400
C  42.09900 45.94900 26.98100
C  42.87100 44.83500 27.23400
C  41.46200 47.50500 24.99700
C  41.54500 46.39800 28.28700
O  40.82100 47.41700 28.51000
C  42.11800 45.51300 29.42900
C  42.81200 46.32400 30.43300
O  43.87200 46.95500 30.28500
O  42.21400 46.22800 31.66800
C  42.83800 46.85000 32.88500
H  46.50000 40.14600 29.20100
H  45.92100 40.02400 22.67500
H  42.46900 45.44000 22.96500
H  44.23100 43.91800 31.08900
H  44.85200 41.06800 30.94300
H  46.56500 41.73400 31.98900
H  46.26500 43.42800 31.60200
H  47.18500 42.46200 30.45800
H  42.16300 41.79500 30.83400
H  41.97200 43.42100 31.64400
H  43.73800 41.92400 33.18600
H  42.45700 40.82200 32.68300
H  48.61200 39.04700 28.15500
H  48.43700 37.70400 27.11400
H  47.34800 37.81900 28.48000
H  48.38800 36.15900 24.15000
H  47.65200 36.41200 25.73000
H  49.18700 37.26600 25.23200
H  44.30200 41.23200 21.20100
H  44.02200 44.18500 21.15500
H  46.98500 42.56900 21.45600
H  46.06300 43.02700 20.04800
H  46.39300 41.32500 20.49000
H  42.40800 42.53100 20.01900
H  41.72600 43.97200 20.90000
H  40.99200 42.67600 22.73700
H  41.92900 41.22800 22.28800
H  40.49400 41.58500 21.45500
H  41.49300 48.23200 25.80800
H  40.45100 47.20100 24.72700
H  42.08500 47.80900 24.15500
H  41.23900 45.05200 29.87900
H  43.62500 47.55900 32.63100
H  43.12400 45.98700 33.48700
H  42.04400 47.37300 33.41800
Mg 6.76200 52.82100 40.98700
C  6.05100 49.31900 41.03300
C  9.79900 52.24600 39.58600
C  7.14200 56.06200 40.53200
C  3.46900 53.32000 42.10000
N  7.70100 50.98500 40.31500
C  7.28500 49.66100 40.50400
C  8.41800 48.68900 39.91300
C  9.62200 49.60600 39.75800
C  9.03700 51.06100 39.91300
C  10.79700 49.46500 40.82000
C  7.99600 47.97300 38.63600
C  7.16200 48.73600 37.58400
H  7.83000 49.35600 36.32200
N  8.29500 53.97400 40.21300
C  9.48800 53.56600 39.72200
C  10.39800 54.67500 39.45600
C  9.70700 55.87200 39.73400
C  8.28100 55.38700 40.13500
C  11.85500 54.48600 39.01300
C  10.23700 57.24200 39.50500
O  11.40700 57.50600 39.06100
C  9.34200 58.46400 39.76700
N  5.45100 54.33600 40.97700
C  5.88400 55.65400 40.83400
C  4.85800 56.68100 41.24500
C  3.68500 55.77200 41.73000
C  4.20900 54.34300 41.50400
C  5.27300 57.75100 42.29300
C  2.39000 56.10900 40.99800
C  1.07600 55.69300 41.68600
N  5.03600 51.64600 41.45500
C  3.84700 52.01000 42.10000
C  3.12300 50.85900 42.63600
C  3.94700 49.77600 42.16200
C  5.04500 50.36500 41.43100
C  1.79400 50.85100 43.38600
C  4.08700 48.32600 42.15000
O  3.28800 47.48900 42.54600
C  5.42900 48.01700 41.47600
C  5.06400 47.18400 40.31000
O  4.59100 47.53700 39.19700
O  5.44500 45.91200 40.57100
C  5.32800 44.98000 39.41500
H  10.78100 51.92300 39.23300
H  7.27200 57.13700 40.39200
H  2.51200 53.42900 42.61500
H  8.58800 48.02700 40.76200
H  10.18600 49.54400 38.82800
H  10.92100 50.34800 41.44600
H  11.75100 49.22500 40.35100
H  10.60100 48.70700 41.57900
H  7.58900 46.99200 38.88200
H  8.98000 47.79000 38.20400
H  6.56800 49.54700 38.00600
H  6.55400 47.91700 37.20000
H  12.05700 55.06900 38.11400
H  12.21500 53.47400 38.82800
H  12.36600 54.86200 39.89900
H  9.84800 59.39000 39.49500
H  9.03900 58.38200 40.81100
H  8.51700 58.28600 39.07700
H  4.54400 57.33400 40.43000
H  3.55800 55.82500 42.81100
H  6.30200 57.61800 42.62700
H  4.66100 57.77800 43.19400
H  5.25700 58.70400 41.76400
H  2.27100 55.77200 39.96900
H  2.23600 57.16500 40.77900
H  1.13200 55.63900 42.77300
H  0.89900 54.69700 41.28000
H  0.28700 56.42100 41.49800
H  1.02200 50.63000 42.64900
H  1.69600 51.84600 43.81900
H  1.92500 50.19700 44.24800
H  6.10200 47.54300 42.19000
H  6.14800 45.03800 38.70000
H  4.43100 45.13400 38.81600
H  5.29300 43.97500 39.83400

