158

Mg 49.78800 45.81600 42.80600
C  46.35600 45.89100 42.45100
C  49.73800 42.29800 42.15700
C  53.14400 45.87200 42.16500
C  49.77000 49.38400 42.90400
N  48.20900 44.32000 42.27100
C  46.87500 44.60800 42.17000
C  46.06700 43.34400 41.84200
C  47.14400 42.26100 41.96400
C  48.49100 42.96600 42.09900
C  46.85500 41.14400 42.97800
C  45.34900 43.36000 40.51200
C  46.18900 43.81900 39.26400
H  45.99700 43.04400 37.98200
N  51.24300 44.28500 42.46200
C  51.02000 42.89200 42.30700
C  52.28000 42.25200 42.38800
C  53.30600 43.22100 42.21700
C  52.59300 44.54800 42.23200
C  52.30800 40.74200 42.36500
C  54.80000 42.88200 41.90200
O  55.14400 41.71600 41.86500
C  55.77500 43.98400 41.85000
N  51.20500 47.41900 42.41800
C  52.49400 47.15500 42.29000
C  53.40600 48.43000 42.27500
C  52.31400 49.52200 42.42100
C  51.00900 48.73400 42.59900
C  54.54300 48.38400 43.30700
C  52.17000 50.50600 41.20000
C  52.05000 52.02500 41.36200
N  48.34800 47.30900 42.79100
C  48.51900 48.71100 42.94900
C  47.14400 49.25200 43.13000
C  46.30800 48.17700 42.83000
C  47.06300 47.07500 42.70100
C  46.70900 50.61100 43.58200
C  44.92300 47.76800 42.53100
O  43.91200 48.45700 42.52600
C  44.97100 46.27300 42.17900
C  43.99800 45.56400 43.00100
O  42.98100 45.04500 42.57500
O  44.33000 45.51100 44.32600
C  43.32000 44.82000 45.20300
H  49.70700 41.21000 42.06000
H  54.22200 45.85400 41.99200
H  49.67100 50.47100 42.94400
H  45.32300 43.20200 42.62600
H  47.12200 41.78300 40.98500
H  47.66400 41.12700 43.70800
H  46.89800 40.19700 42.44000
H  45.97400 41.32800 43.59300
H  44.50100 44.04000 40.59600
H  44.93200 42.36800 40.33900
H  47.25200 43.86700 39.49900
H  45.90900 44.84700 39.03500
H  53.28700 40.31300 42.58200
H  52.06700 40.26300 41.41600
H  51.59900 40.27200 43.04600
H  55.59100 44.57900 42.74500
H  55.57800 44.51900 40.92100
H  56.76500 43.52900 41.88500
H  53.78200 48.35900 41.25500
H  52.43800 50.10300 43.33400
H  54.62700 49.26700 43.94200
H  55.50900 48.01800 42.96100
H  54.22300 47.55000 43.93100
H  51.27500 50.23700 40.63900
H  53.03200 50.32700 40.55700
H  52.91300 52.59400 41.01500
H  52.02600 52.30200 42.41600
H  51.10000 52.33500 40.92600
H  46.50600 51.17800 42.67300
H  47.46200 51.07700 44.21800
H  45.71600 50.56900 44.02900
H  44.83700 46.20800 41.09900
H  43.27700 45.12900 46.24800
H  43.76900 43.82700 45.16600
H  42.29200 44.80500 44.84200
Mg 6.58700 52.10500 40.69200
C  6.08900 48.52700 40.08200
C  9.81300 51.56700 39.97400
C  6.80800 55.35800 40.28000
C  3.13700 52.27500 41.36000
N  7.81200 50.25200 40.19400
C  7.44000 48.99900 39.83600
C  8.61100 48.12700 39.54000
C  9.84400 48.98500 40.02700
C  9.13700 50.39300 40.12500
C  10.58100 48.64800 41.40400
C  8.60500 47.56500 38.11600
C  8.64900 48.61700 36.91300
H  7.60600 48.41000 35.82700
N  8.12900 53.32600 40.16700
C  9.40200 52.92500 39.93100
C  10.24100 54.12000 39.62400
C  9.36300 55.23500 39.59200
C  8.03400 54.69600 40.08700
C  11.79300 53.98500 39.41900
C  9.78500 56.66400 39.20300
O  10.88800 56.91300 38.80500
C  8.88200 57.81400 39.38600
N  5.12000 53.60100 40.69800
C  5.50900 54.93600 40.66800
C  4.37700 55.86000 40.89000
C  3.22900 54.83200 41.24900
C  3.87900 53.45900 41.12900
C  4.65100 56.92400 42.02900
C  2.05400 55.00300 40.20100
C  0.64400 55.28500 40.81400
N  5.00700 50.73700 40.85000
C  3.64800 50.99500 41.17200
C  2.98000 49.75900 41.34600
C  3.89200 48.79800 40.92200
C  5.11000 49.40200 40.66800
C  1.57900 49.58300 41.97500
C  3.94800 47.43700 40.59700
O  3.12500 46.56500 40.54800
C  5.40900 47.14800 40.14200
C  5.22600 46.46400 38.86500
O  4.97700 46.99600 37.78000
O  5.50500 45.13200 39.05700
C  5.67500 44.25400 37.89500
H  10.89800 51.45600 39.91400
H  6.89600 56.44600 40.24600
H  2.08900 52.41100 41.63700
H  8.46000 47.24900 40.16900
H  10.45600 49.05300 39.12800
H  11.62400 48.39700 41.21000
H  10.13900 47.70800 41.73500
H  10.41400 49.53400 42.01600
H  7.91800 46.73200 37.97400
H  9.55400 47.03100 38.07200
H  9.63400 48.51900 36.45600
H  8.60700 49.55200 37.47000
H  12.37800 54.76900 39.90000
H  12.03800 54.03000 38.35800
H  12.26800 53.09400 39.83000
H  8.55400 57.75400 40.42400
H  8.17300 57.80000 38.55900
H  9.38800 58.75000 39.15200
H  4.22500 56.50900 40.02700
H  2.86700 54.96300 42.26800
H  5.71600 56.80700 42.23200
H  3.99300 56.77600 42.88500
H  4.43500 57.94000 41.69900
H  2.11000 54.12600 39.55600
H  2.28100 55.85100 39.55400
H  0.25800 54.33400 41.18100
H  -0.03900 55.69600 40.07100
H  0.65500 55.93700 41.68800
H  1.25800 50.44200 42.56500
H  1.50800 48.67200 42.56900
H  0.88200 49.32800 41.17800
H  5.90900 46.47000 40.83300
H  6.37100 43.42800 38.04500
H  5.82700 44.74900 36.93600
H  4.73100 43.74500 37.69500

