158

Mg 1.61000 -0.95100 44.32000
C  4.99900 -0.46000 43.52600
C  0.85400 1.72800 42.45900
C  -1.48500 -2.13100 44.24600
C  2.64500 -3.89400 46.04900
N  2.75900 0.42500 43.07900
C  4.09400 0.36900 42.87200
C  4.58300 1.55400 41.99400
C  3.25700 2.35900 41.74200
C  2.22100 1.51300 42.58600
C  3.25300 3.94800 42.00900
C  5.35400 1.24400 40.69500
C  6.50700 2.29600 40.39400
H  6.38000 3.15600 39.16400
N  -0.09000 -0.21000 43.55300
C  -0.22400 0.95600 42.81500
C  -1.61200 1.25000 42.57500
C  -2.34200 0.16100 43.16600
C  -1.28700 -0.82100 43.69700
C  -2.04900 2.53500 41.97700
C  -3.82700 0.05800 43.30400
O  -4.55600 0.94000 42.87100
C  -4.44700 -0.96600 44.19500
N  0.72000 -2.82000 44.97100
C  -0.58400 -3.02600 44.78400
C  -0.92700 -4.47400 45.26100
C  0.21400 -4.73800 46.22200
C  1.28100 -3.81400 45.72800
C  -2.39400 -4.66900 45.96700
C  0.61700 -6.27300 46.42000
C  0.73200 -6.63100 47.94800
N  3.40400 -1.98400 44.79600
C  3.65600 -3.19100 45.46100
C  5.08400 -3.26300 45.62900
C  5.68500 -2.19000 44.96200
C  4.59600 -1.48600 44.43100
C  5.73800 -4.36200 46.41200
C  6.94200 -1.54800 44.53000
O  8.11200 -1.82700 44.76300
C  6.50500 -0.46400 43.53900
C  7.02600 0.72400 44.08800
O  6.60400 1.36700 45.03400
O  8.16400 1.13500 43.31000
C  8.52700 2.57600 43.70800
H  0.60700 2.60900 41.86300
H  -2.53800 -2.40700 44.33700
H  2.89100 -4.72400 46.71600
H  5.14200 2.26400 42.60300
H  2.89500 2.08800 40.75100
H  2.67600 4.55800 41.31400
H  4.27300 4.31600 42.12000
H  2.72800 4.05000 42.95800
H  4.80800 1.20300 39.75200
H  5.82200 0.27800 40.88000
H  7.39000 1.66400 40.29800
H  6.55700 3.09300 41.13600
H  -3.10100 2.62700 41.70800
H  -1.57300 2.83800 41.04400
H  -1.80200 3.25800 42.75300
H  -5.47100 -0.68400 44.43900
H  -3.87900 -0.99800 45.12500
H  -4.44100 -1.90200 43.63600
H  -0.90300 -5.12800 44.38900
H  -0.13900 -4.32100 47.16500
H  -3.20000 -4.35200 45.30400
H  -2.38400 -4.24500 46.97200
H  -2.69900 -5.70300 46.12600
H  1.58500 -6.61400 46.05300
H  -0.13500 -6.87500 45.91100
H  -0.16600 -7.13500 48.30500
H  0.99700 -5.71600 48.47700
H  1.61800 -7.26200 48.01000
H  6.76300 -4.65200 46.18400
H  5.16400 -5.26100 46.18800
H  5.63300 -4.11800 47.46900
H  6.97300 -0.52100 42.55500
H  9.09500 3.08800 42.93100
H  9.08300 2.46000 44.63800
H  7.71000 3.29200 43.80200
Mg 41.75900 9.11100 29.63600
C  43.77600 10.17400 32.27600
C  39.50200 7.83100 32.01000
C  39.98700 7.74200 27.06800
C  44.30900 9.91000 27.41900
N  41.75200 8.76600 31.94000
C  42.51600 9.61600 32.73800
C  41.98000 9.65600 34.21400
C  40.84200 8.52500 34.16000
C  40.62800 8.37900 32.66100
C  41.22500 7.24900 34.95900
C  41.67400 11.18100 34.67800
C  40.92400 11.33300 35.99600
H  41.61700 11.91400 37.23200
N  39.92100 8.05600 29.52800
C  39.16700 7.57000 30.62200
C  38.09900 6.78700 30.08500
C  38.08600 7.01600 28.64200
C  39.36300 7.68500 28.34300
C  37.18200 5.91800 30.97500
C  37.03500 6.72600 27.71100
O  37.12500 6.83200 26.48400
C  35.69100 6.27600 28.16500
N  42.18800 8.76300 27.61700
C  41.28000 8.15800 26.78500
C  41.78900 8.02200 25.28900
C  43.15200 8.77900 25.34400
C  43.23800 9.15800 26.88500
C  41.90100 6.46900 24.83800
C  43.31200 9.98900 24.37800
C  42.54400 11.30700 24.52600
N  43.65500 9.89400 29.77400
C  44.51200 10.25200 28.74500
C  45.67400 10.87200 29.35100
C  45.39000 10.90900 30.74500
C  44.14400 10.26200 30.96900
C  46.95400 11.26800 28.67000
C  45.86800 11.44500 32.04600
O  46.85200 12.11600 32.37300
C  44.78500 10.97800 33.07900
C  45.33900 10.22200 34.21000
O  45.91600 9.15600 34.19400
O  45.28600 10.97200 35.35600
C  46.01600 10.50500 36.49000
H  38.64300 7.60200 32.64400
H  39.38700 7.24400 26.30300
H  45.11100 10.19400 26.73400
H  42.70500 9.21900 34.90000
H  39.92200 9.00200 34.49700
H  42.08100 7.43800 35.60800
H  41.57800 6.38900 34.39000
H  40.39400 6.87000 35.55300
H  41.05300 11.52600 33.85200
H  42.53000 11.85300 34.72200
H  40.50600 10.36300 36.26700
H  40.04300 11.92900 35.75700
H  37.75300 5.45700 31.78100
H  36.77300 5.12100 30.35500
H  36.31400 6.35900 31.46600
H  35.39700 6.79800 29.07500
H  35.78600 5.22800 28.45200
H  34.98900 6.44000 27.34700
H  41.11600 8.49800 24.57700
H  43.95800 8.08600 25.10100
H  42.93800 6.17000 24.68800
H  41.20400 6.35100 24.00800
H  41.57200 5.74200 25.58200
H  42.88000 9.54600 23.48000
H  44.34500 10.32100 24.28100
H  41.92300 11.31200 25.42200
H  41.87100 11.44800 23.68000
H  43.21700 12.15900 24.62000
H  47.75200 10.74000 29.19200
H  47.19600 12.32100 28.81400
H  47.10900 10.87600 27.66400
H  44.33900 11.87500 33.50800
H  46.97200 10.04600 36.23800
H  45.40100 9.84100 37.09600
H  46.07000 11.44200 37.04400

