158

Mg 40.66400 9.01600 29.18000
C  42.46100 10.28500 31.86300
C  38.53300 7.64700 31.52000
C  39.05100 7.71500 26.67000
C  43.34800 9.95200 27.13200
N  40.47900 9.13000 31.40500
C  41.34000 9.70600 32.28300
C  40.80200 9.60200 33.70900
C  39.77400 8.45700 33.59500
C  39.56000 8.41500 32.04400
C  40.04700 7.04100 34.14200
C  40.13400 10.91800 34.33600
C  40.34200 11.01100 35.86400
H  40.77800 12.27200 36.49300
N  39.04400 7.78000 29.12200
C  38.27000 7.36800 30.17900
C  37.15300 6.57000 29.68200
C  37.21400 6.65100 28.24700
C  38.44800 7.40800 27.94900
C  36.15600 5.92800 30.64900
C  36.22400 6.08000 27.11000
O  36.42800 6.11000 25.92900
C  34.95300 5.42300 27.53200
N  41.32400 8.63800 27.19600
C  40.33600 8.25100 26.30800
C  40.74900 8.50000 24.84800
C  42.11900 9.16700 25.02100
C  42.31200 9.23700 26.51700
C  40.62700 7.18100 24.02300
C  42.26600 10.47200 24.24200
C  41.70300 11.71400 24.87500
N  42.46100 10.11900 29.36800
C  43.52200 10.30600 28.41400
C  44.52900 11.10300 29.12500
C  44.15500 11.08800 30.47600
C  42.89300 10.51300 30.51800
C  45.76300 11.67900 28.50200
C  44.60700 11.57800 31.69800
O  45.54100 12.23700 32.07200
C  43.48900 11.02500 32.65000
C  44.10200 10.03600 33.59600
O  44.66300 8.95900 33.33500
O  43.96900 10.57300 34.90700
C  44.57200 9.80500 35.92200
H  37.75400 7.29400 32.19800
H  38.39100 7.61200 25.80600
H  44.02100 10.28300 26.33800
H  41.58200 9.21600 34.36600
H  38.85600 8.71400 34.12400
H  40.80900 7.18700 34.90700
H  40.27900 6.28400 33.39300
H  39.22200 6.77900 34.80500
H  39.06300 10.96500 34.14400
H  40.56500 11.78700 33.83800
H  41.09200 10.30700 36.22600
H  39.41700 10.63900 36.30400
H  36.49500 5.70600 31.66100
H  36.04200 4.91100 30.27500
H  35.18700 6.42600 30.69100
H  35.09200 4.67100 28.30800
H  34.39900 5.04200 26.67300
H  34.40400 6.26000 27.96300
H  40.07100 9.17500 24.32600
H  42.80500 8.42600 24.61100
H  41.60100 6.76600 23.76500
H  40.12600 7.37700 23.07500
H  40.08500 6.44900 24.62000
H  41.73800 10.44900 23.28900
H  43.33500 10.60300 24.07800
H  41.37200 11.55900 25.90200
H  40.95000 12.10600 24.19100
H  42.49000 12.46000 24.98900
H  45.41200 12.29100 27.67100
H  46.43400 10.89100 28.15900
H  46.30300 12.21400 29.28300
H  43.06700 11.87300 33.18900
H  45.56600 9.40300 35.72400
H  43.92500 8.99500 36.25900
H  44.67600 10.52500 36.73400
Mg 53.91300 24.21800 44.10500
C  51.16500 26.45200 43.27500
C  51.98500 21.84800 42.50000
C  56.41200 22.25400 44.50700
C  55.79300 26.99900 44.81600
N  51.94500 24.26100 42.74100
C  50.98800 25.23800 42.66100
C  49.75100 24.67200 41.89200
C  49.88500 23.11800 42.20900
C  51.35300 23.07300 42.46200
C  49.02800 22.58600 43.38100
C  49.69800 24.97700 40.34800
C  50.97700 25.30400 39.56400
H  50.76800 25.66900 38.07900
N  54.15000 22.27100 43.62900
C  53.23700 21.43500 43.07300
C  53.80800 20.06000 43.16300
C  55.03600 20.20000 43.89400
C  55.27300 21.61100 44.01600
C  53.09700 18.78500 42.54500
C  55.88000 19.01000 44.45000
O  55.44600 17.89000 44.29300
C  57.17300 19.25800 45.30100
N  55.80600 24.56600 44.52300
C  56.76900 23.58900 44.65800
C  58.15400 24.08700 44.90400
C  57.86800 25.62400 45.05400
C  56.39800 25.76800 44.74800
C  58.96300 23.42500 46.03600
C  58.86200 26.62000 44.43600
C  58.51300 27.05700 42.96400
N  53.62500 26.38100 44.08600
C  54.46200 27.27300 44.57100
C  53.75400 28.57600 44.67900
C  52.46500 28.31300 44.11800
C  52.42200 26.94000 43.85600
C  54.19700 29.91300 45.23000
C  51.17400 28.88500 43.78300
O  50.75700 30.00200 44.03000
C  50.28000 27.67900 43.26000
C  49.91000 28.01700 41.87900
O  50.70700 28.34400 41.03500
O  48.58900 28.24500 41.86000
C  48.16400 29.16200 40.76000
H  51.40800 21.04200 42.04300
H  57.20100 21.56800 44.82200
H  56.33100 27.87900 45.17300
H  48.88100 25.12500 42.36700
H  49.70000 22.52600 41.31200
H  48.35300 23.36500 43.73400
H  49.69100 22.26200 44.18400
H  48.53300 21.65500 43.10600
H  49.04200 25.84700 40.29200
H  49.33200 24.26600 39.60700
H  51.67200 24.47800 39.71500
H  51.52900 26.08000 40.09500
H  52.18200 18.85700 41.95700
H  52.77100 18.17100 43.38500
H  53.87200 18.25500 41.99100
H  57.62700 18.31400 45.60300
H  56.99400 19.86300 46.19000
H  58.02000 19.61400 44.71400
H  58.63800 23.99100 43.93200
H  57.84000 26.04600 46.05900
H  58.49100 22.56100 46.50400
H  58.98500 24.16200 46.83900
H  59.94800 23.19300 45.63300
H  59.84000 26.13800 44.44500
H  59.05600 27.54200 44.98400
H  57.85600 27.90600 42.77400
H  58.20100 26.18400 42.39200
H  59.48300 27.24800 42.50700
H  55.28300 29.93600 45.32000
H  53.80000 29.97300 46.24300
H  53.89400 30.78800 44.65500
H  49.41300 27.48200 43.89100
H  48.86800 29.99100 40.67900
H  47.25500 29.67700 41.07200
H  48.00400 28.77300 39.75500

