158

Mg 36.28500 49.45800 26.11400
C  36.88200 47.33800 28.99300
C  34.80900 51.63600 28.27000
C  35.18900 51.10100 23.43700
C  37.33000 46.69900 24.23400
N  35.73300 49.40100 28.36400
C  36.23200 48.55700 29.38300
C  36.09700 49.18500 30.81300
C  35.09900 50.31700 30.43100
C  35.33500 50.53500 28.89600
C  33.62100 50.15000 30.76100
C  37.49100 49.62700 31.42900
C  37.62500 49.21200 32.84200
H  36.58300 49.81300 33.86900
N  35.07700 51.13300 25.80400
C  34.65000 51.95800 26.86600
C  34.05900 53.13800 26.28400
C  34.14000 52.95600 24.87800
C  34.78300 51.68200 24.66300
C  33.44300 54.20400 27.11200
C  33.81800 53.92200 23.82800
O  33.89500 53.70000 22.63200
C  33.46500 55.31700 24.18700
N  36.23900 48.97200 24.09600
C  35.82100 49.82900 23.10700
C  36.03300 49.19000 21.74000
C  36.67500 47.72500 22.03500
C  36.75900 47.81200 23.56100
C  34.66600 49.15800 20.92900
C  38.03700 47.46000 21.37000
C  39.18500 48.42400 21.74100
N  37.11600 47.53400 26.49700
C  37.53200 46.49300 25.60600
C  38.08100 45.39700 26.30400
C  37.83700 45.66600 27.64600
C  37.22800 46.96400 27.70900
C  38.81200 44.13700 25.75500
C  37.95100 45.15300 29.01400
O  38.45100 44.12400 29.42700
C  37.36400 46.28500 29.97000
C  36.29900 45.71200 30.76400
O  35.31900 45.12600 30.29600
O  36.50200 45.77100 32.13700
C  35.42400 45.24200 32.93400
H  34.54200 52.43100 28.97000
H  34.96100 51.74900 22.58900
H  37.69800 45.90100 23.58500
H  35.67300 48.35400 31.37600
H  35.42200 51.24800 30.89800
H  33.08700 51.07200 30.53400
H  33.37300 49.86600 31.78300
H  33.29500 49.35600 30.08900
H  37.70700 50.69200 31.34600
H  38.20500 49.20800 30.71900
H  38.65800 49.31900 33.17200
H  37.45500 48.13700 32.90500
H  34.00300 55.13600 27.03700
H  33.26200 53.92800 28.15000
H  32.42800 54.25200 26.71800
H  33.34900 55.89100 23.26800
H  34.26900 55.64700 24.84500
H  32.45400 55.31900 24.59500
H  36.78000 49.80800 21.24300
H  36.06400 46.86700 21.75400
H  34.47400 48.14200 20.58400
H  34.78200 49.94700 20.18600
H  33.79700 49.39200 21.54500
H  38.03100 47.65400 20.29700
H  38.39700 46.44500 21.53700
H  39.55800 48.85000 20.80900
H  40.08100 47.94900 22.13900
H  38.99800 49.09500 22.57900
H  38.94600 44.24100 24.67800
H  38.12300 43.32500 25.98800
H  39.76800 44.04600 26.27100
H  38.16800 46.68800 30.58700
H  35.31400 44.17300 32.75400
H  34.48200 45.67600 32.59800
H  35.58500 45.43400 33.99500
Mg 9.43500 48.09400 26.98600
C  7.48500 47.79000 29.92700
C  11.98800 49.45100 28.81500
C  11.23800 48.36100 24.15200
C  6.69300 46.86900 25.11900
N  9.61800 48.72300 29.14000
C  8.79200 48.24200 30.11000
C  9.59000 48.37900 31.42600
C  10.75900 49.35400 31.05800
C  10.86600 49.10100 29.58600
C  10.54400 50.83700 31.44900
C  10.01700 46.99300 31.99400
C  9.66000 46.77500 33.50500
H  10.52800 47.53200 34.60600
N  11.34800 48.78100 26.49000
C  12.27100 49.24800 27.41400
C  13.53100 49.42800 26.75300
C  13.31100 49.01700 25.39200
C  11.92100 48.76200 25.26800
C  14.80500 49.84100 27.61700
C  14.32100 48.83200 24.29800
O  14.03100 48.74200 23.09200
C  15.79600 48.83500 24.61100
N  8.98000 47.75300 24.96700
C  9.89700 47.93200 23.97200
C  9.43700 47.43400 22.58500
C  8.02800 46.72800 22.98000
C  7.90300 47.08100 24.47500
C  9.36200 48.51400 21.48500
C  7.86100 45.19100 22.85300
C  8.97000 44.34600 23.50800
N  7.41300 47.60600 27.38900
C  6.46600 47.11000 26.48600
C  5.22800 46.93300 27.26400
C  5.56200 47.16700 28.57600
C  6.91800 47.51800 28.67000
C  3.92400 46.48800 26.71400
C  5.08800 47.19700 29.95300
O  3.97400 47.10900 30.48000
C  6.31100 47.39800 30.85400
C  6.55900 46.02300 31.42700
O  7.17900 45.12700 30.90400
O  6.02800 45.93400 32.68600
C  6.21000 44.74000 33.48900
H  12.81500 49.71100 29.47800
H  11.79300 48.35500 23.21200
H  5.79800 46.72500 24.51000
H  9.02200 48.79200 32.26000
H  11.70500 49.03900 31.50000
H  9.73700 51.13200 30.77900
H  11.44700 51.34900 31.11700
H  10.39800 50.97800 32.52000
H  11.05400 46.73100 31.78500
H  9.38600 46.21200 31.56900
H  9.98600 45.74300 33.63100
H  8.59900 46.73900 33.75200
H  15.42300 48.97000 27.83800
H  14.53600 50.32100 28.55800
H  15.41600 50.56500 27.07800
H  16.08000 48.27000 25.49900
H  16.00400 49.90400 24.64700
H  16.34200 48.38600 23.78100
H  10.07900 46.63800 22.20800
H  7.19600 47.26900 22.53000
H  9.90700 49.43100 21.71000
H  8.33300 48.80600 21.27700
H  9.73900 48.04300 20.57600
H  7.52000 44.84000 21.87900
H  6.94000 44.98600 23.39700
H  8.48900 43.61300 24.15500
H  9.73000 44.91500 24.04500
H  9.43900 43.89500 22.63400
H  4.14600 45.72400 25.96900
H  3.46400 47.27900 26.12100
H  3.23400 46.04200 27.43000
H  6.11900 48.04200 31.71200
H  5.26800 44.44600 33.95100
H  6.93300 44.84400 34.29800
H  6.39200 43.74100 33.09200

