158

Mg 44.41100 5.03800 47.25700
C  42.10900 7.93000 46.90000
C  41.52500 3.01800 46.76000
C  46.37600 2.47500 46.98400
C  46.95700 7.19100 46.55400
N  42.06600 5.45500 47.00100
C  41.45100 6.65200 46.86100
C  39.95400 6.40700 46.61900
C  39.76200 4.85900 46.92300
C  41.24500 4.42100 46.88200
C  38.86900 4.47200 48.17000
C  39.53200 6.78500 45.20300
C  38.42300 7.80300 45.09400
H  37.60700 7.78700 43.81400
N  43.99500 3.02100 47.18800
C  42.81800 2.35300 46.90600
C  43.12400 0.97700 46.71700
C  44.52800 0.71400 46.77300
C  45.00300 2.07600 47.09300
C  42.04200 -0.13100 46.59100
C  45.27200 -0.63500 46.58600
O  44.73200 -1.64300 46.23700
C  46.82000 -0.82600 46.58900
N  46.42400 4.87300 46.75400
C  47.06300 3.69100 46.81300
C  48.56700 3.89800 47.00000
C  48.75500 5.37700 46.49200
C  47.29500 5.89400 46.64100
C  49.05500 3.59200 48.46800
C  49.34900 5.64000 45.01700
C  50.82500 5.99700 44.98100
N  44.57900 7.13200 47.03100
C  45.72200 7.85300 46.75600
C  45.39700 9.32500 46.74800
C  44.04800 9.38500 46.89900
C  43.54100 8.04700 46.93600
C  46.36100 10.42900 46.61500
C  42.85300 10.27600 46.99200
O  42.84100 11.52900 46.95700
C  41.62600 9.38500 46.95900
C  40.70500 9.58500 48.12300
O  40.59300 8.84900 49.11600
O  39.97700 10.66600 47.86300
C  38.88200 10.99500 48.70900
H  40.69900 2.31300 46.64900
H  47.15100 1.70800 46.93400
H  47.84600 7.80200 46.38100
H  39.37000 6.98900 47.33300
H  39.27400 4.21700 46.18900
H  39.54000 4.54200 49.02600
H  38.54400 3.43500 48.09400
H  38.04900 5.18200 48.28900
H  39.19800 5.93000 44.61400
H  40.46600 7.11500 44.74900
H  38.76700 8.79000 45.40300
H  37.77100 7.43300 45.88500
H  41.95900 -0.78400 47.45900
H  42.31700 -0.77400 45.75500
H  40.99300 0.13800 46.46300
H  47.02600 -1.82700 46.21000
H  47.32900 -0.53100 47.50700
H  47.22900 -0.22100 45.77900
H  49.06000 3.15100 46.37900
H  49.33800 5.93400 47.22500
H  48.12700 3.47900 49.03000
H  49.59800 4.46800 48.82100
H  49.69200 2.71200 48.37800
H  48.66500 6.40900 44.65800
H  49.30600 4.75700 44.37900
H  51.07500 6.54000 44.07000
H  51.31500 5.02500 44.92400
H  51.14900 6.48400 45.90200
H  47.35100 10.15400 46.97900
H  45.95700 11.31100 47.11200
H  46.48700 10.82900 45.60900
H  41.08600 9.66200 46.05300
H  38.99600 12.03700 49.00700
H  38.55000 10.46900 49.60400
H  37.91800 11.00300 48.20000
Mg 35.80900 49.31800 24.75400
C  36.06100 47.38100 27.65100
C  34.74000 51.86200 26.81500
C  34.88700 51.02200 21.94300
C  36.76900 46.55800 22.90500
N  35.31200 49.52000 26.91600
C  35.50900 48.63400 27.92700
C  35.23300 49.23600 29.24300
C  34.66100 50.64400 28.96300
C  34.90000 50.68400 27.46000
C  33.11900 50.82100 29.34700
C  36.63000 49.41000 30.03200
C  36.54300 49.46100 31.58700
H  35.13800 49.45400 32.27200
N  34.98400 51.16300 24.38700
C  34.69500 52.10900 25.41100
C  34.24700 53.37000 24.78100
C  34.24900 53.09800 23.31900
C  34.69600 51.71400 23.16900
C  33.78600 54.53900 25.48300
C  33.90900 54.08100 22.20500
O  33.73200 53.79300 21.02800
C  33.68600 55.55200 22.62900
N  36.02400 48.91400 22.70300
C  35.61800 49.78800 21.75800
C  35.89900 49.29800 20.33000
C  36.36000 47.80700 20.59900
C  36.47200 47.74200 22.13900
C  34.62900 49.30900 19.42400
C  37.75200 47.37700 19.92900
C  39.06000 47.85500 20.52700
N  36.37400 47.41400 25.14200
C  36.90000 46.42900 24.31000
C  37.35100 45.27400 25.06000
C  37.01900 45.58800 26.37200
C  36.43000 46.89800 26.38400
C  37.93600 44.09400 24.48300
C  37.08700 45.07900 27.67500
O  37.51800 43.96700 28.08900
C  36.47500 46.22500 28.56500
C  35.32700 45.64800 29.29600
O  34.15500 45.59200 28.93800
O  35.80600 45.30300 30.56900
C  34.81500 45.09900 31.62500
H  34.76000 52.67400 27.54500
H  34.68000 51.61100 21.04700
H  37.15100 45.72300 22.31400
H  34.55700 48.61700 29.83200
H  35.18100 51.43300 29.50600
H  32.61300 49.95100 29.76600
H  32.52400 50.95900 28.44500
H  33.04300 51.71500 29.96500
H  37.12400 50.27200 29.58400
H  37.13700 48.47300 29.80000
H  37.02100 50.40500 31.85100
H  37.15700 48.65300 31.98500
H  33.73700 54.46600 26.57000
H  32.79500 54.82700 25.13500
H  34.42900 55.39500 25.27800
H  33.66200 56.03000 21.64900
H  34.51100 55.98900 23.19200
H  32.68700 55.51300 23.06100
H  36.64700 50.01700 19.99700
H  35.61100 47.10700 20.22900
H  33.73000 48.95200 19.92600
H  34.83500 48.70000 18.54400
H  34.42100 50.32800 19.09600
H  37.66200 47.64000 18.87500
H  37.70200 46.28900 19.97800
H  39.55000 48.37400 19.70400
H  39.60300 46.97200 20.86600
H  38.96300 48.57600 21.33800
H  37.10700 43.38800 24.51200
H  38.67900 43.73500 25.19500
H  38.22800 44.07600 23.43300
H  37.34300 46.43200 29.19200
H  34.77400 44.03100 31.83800
H  33.80900 45.39100 31.32200
H  35.07400 45.64800 32.53000

