158

Mg 47.83500 34.57900 27.44200
C  46.38100 33.09100 30.24800
C  47.94700 37.56100 29.11400
C  49.13100 36.10500 24.60300
C  47.59800 31.62700 25.66000
N  47.15000 35.16400 29.44600
C  46.73700 34.40900 30.48100
C  46.86100 35.16300 31.75200
C  46.93000 36.68100 31.30500
C  47.35000 36.48200 29.81300
C  45.58300 37.44000 31.69400
C  48.13300 34.63100 32.48700
C  48.69400 35.49600 33.60000
H  47.62800 36.00100 34.53200
N  48.46100 36.51600 26.97800
C  48.53000 37.58200 27.80500
C  49.12600 38.73600 27.28300
C  49.74500 38.32600 26.05200
C  49.09300 36.93900 25.77900
C  49.16700 40.11600 27.95400
C  50.55400 39.13400 25.05900
O  50.77900 38.75600 23.89800
C  50.96800 40.57800 25.40000
N  48.25400 33.97100 25.36400
C  48.85900 34.73700 24.43400
C  49.14700 33.96700 23.13700
C  48.73400 32.49800 23.52800
C  48.13100 32.68100 24.93500
C  48.54400 34.71800 21.86400
C  49.81800 31.35300 23.32100
C  51.19200 31.53900 24.05200
N  47.06300 32.76200 27.76500
C  47.12800 31.59300 27.00900
C  46.63100 30.46800 27.78800
C  46.29500 31.02100 28.98400
C  46.59100 32.40400 29.01400
C  46.44900 29.06000 27.28900
C  45.81800 30.68500 30.29900
O  45.54000 29.58100 30.74200
C  45.59700 32.05200 31.11400
C  45.82400 31.79900 32.54600
O  46.87600 31.60400 33.10100
O  44.62200 31.66400 33.12700
C  44.65500 31.46500 34.55700
H  48.02000 38.43100 29.77100
H  49.62200 36.62600 23.77800
H  47.56100 30.62200 25.23400
H  45.95400 34.87100 32.28000
H  47.72500 37.24200 31.79400
H  44.87500 37.55300 30.87300
H  45.77500 38.43900 32.08700
H  45.13800 36.97700 32.57500
H  48.98900 34.41000 31.85000
H  47.73300 33.77400 33.03000
H  49.23700 36.34300 33.18100
H  49.17500 34.81300 34.30100
H  49.25700 40.95000 27.25800
H  50.04600 40.06100 28.59700
H  48.37300 40.30200 28.67700
H  51.39300 40.56200 26.40400
H  50.19100 41.34200 25.39900
H  51.72200 40.85400 24.66300
H  50.23200 34.06400 23.10900
H  47.88800 32.25300 22.88600
H  49.39300 35.26700 21.45700
H  47.62000 35.21100 22.16400
H  48.21200 33.99100 21.12400
H  50.08200 31.27800 22.26600
H  49.32400 30.41600 23.57900
H  51.21500 30.55100 24.51200
H  51.16200 32.31700 24.81400
H  52.03400 31.59600 23.36200
H  47.13300 28.89700 26.45700
H  45.47400 28.84200 26.85300
H  46.54500 28.36700 28.12500
H  44.53500 32.29600 31.07900
H  44.99200 32.31800 35.14500
H  45.17100 30.56300 34.88600
H  43.62100 31.34400 34.88100
Mg -2.64700 34.95400 26.95000
C  -4.08700 32.94400 29.36700
C  -1.12900 36.83300 29.43800
C  -1.20900 36.89200 24.57900
C  -4.27900 33.16800 24.51500
N  -2.69300 34.86600 29.15400
C  -3.27400 33.93100 29.96100
C  -2.84600 34.21100 31.47200
C  -2.00200 35.47600 31.42200
C  -1.98100 35.78300 29.94700
C  -2.52500 36.65200 32.28800
C  -2.10200 32.91400 32.14400
C  -2.96000 32.25000 33.25900
H  -2.33600 32.10500 34.64300
N  -1.41600 36.70600 27.00200
C  -0.87400 37.31600 28.12000
C  0.01200 38.38700 27.71900
C  -0.07100 38.46400 26.30200
C  -0.93100 37.32800 25.88300
C  0.75700 39.20500 28.71400
C  0.47500 39.51400 25.32700
O  0.06500 39.54700 24.17300
C  1.36000 40.51900 25.81200
N  -2.81400 35.07900 24.90600
C  -2.10700 35.95200 24.13500
C  -2.40000 35.72500 22.62200
C  -3.45000 34.56400 22.67600
C  -3.53600 34.20900 24.09700
C  -2.94800 36.86100 21.76400
C  -3.30000 33.49600 21.64800
C  -2.17500 32.47100 21.97900
N  -3.87000 33.40300 26.92400
C  -4.53100 32.85600 25.86600
C  -5.30200 31.70900 26.33500
C  -5.16200 31.73200 27.70800
C  -4.28200 32.79100 28.01500
C  -6.00000 30.66100 25.52800
C  -5.51800 31.10100 28.97400
O  -6.21800 30.13600 29.24900
C  -4.91600 31.96300 30.12900
C  -5.96900 32.51800 31.01300
O  -6.78600 33.43100 30.80300
O  -5.94300 31.83600 32.22500
C  -6.72600 32.42300 33.28800
H  -0.78600 37.51800 30.21600
H  -0.65000 37.47000 23.84000
H  -4.91500 32.63900 23.80100
H  -3.81300 34.31200 31.96500
H  -1.00000 35.19700 31.74600
H  -2.87000 37.50100 31.69900
H  -1.73500 36.96600 32.97000
H  -3.41400 36.47800 32.89400
H  -1.20200 33.20100 32.68900
H  -2.05400 32.17800 31.34200
H  -3.12300 31.20200 33.00800
H  -3.88300 32.79400 33.45900
H  1.78700 39.43300 28.44300
H  0.79100 38.72200 29.69100
H  0.12300 40.09200 28.71600
H  0.80800 41.20500 26.45400
H  1.76600 41.21300 25.07700
H  2.14800 39.99400 26.35300
H  -1.45900 35.44200 22.15100
H  -4.42100 35.01000 22.46300
H  -2.35500 37.76400 21.61300
H  -3.90800 37.10900 22.21600
H  -3.21000 36.51000 20.76600
H  -3.25200 33.90800 20.64000
H  -4.19400 32.88100 21.54900
H  -2.57400 31.49400 21.70700
H  -1.97300 32.35500 23.04400
H  -1.23400 32.66000 21.46400
H  -5.75400 30.69500 24.46700
H  -7.05900 30.91500 25.47800
H  -5.83300 29.68600 25.98600
H  -4.23300 31.39300 30.75900
H  -7.76900 32.54700 32.99700
H  -6.31500 33.40400 33.52400
H  -6.71100 31.77700 34.16600

