158

Mg 34.57500 2.97400 29.70400
C  32.52100 4.09100 32.27800
C  37.28200 3.37200 31.79800
C  36.49200 2.62500 26.95500
C  31.70700 3.31000 27.49900
N  34.90400 3.76600 31.78300
C  33.89900 4.05400 32.69000
C  34.40600 4.04100 34.13000
C  35.95400 4.00400 33.86800
C  36.07500 3.60300 32.40200
C  36.70600 5.31100 34.26000
C  33.88400 2.77800 34.91800
C  33.53200 3.04500 36.46600
H  34.16800 4.30600 37.14300
N  36.58900 2.76300 29.47700
C  37.51000 3.01800 30.45100
C  38.86400 2.90500 29.90800
C  38.67100 2.72800 28.48400
C  37.17100 2.66300 28.23500
C  40.15700 3.15800 30.76200
C  39.63200 2.62600 27.30100
O  39.35700 2.41300 26.10800
C  41.13300 2.73400 27.63200
N  34.08900 2.87400 27.49900
C  35.12500 2.88100 26.58400
C  34.59800 2.94800 25.17700
C  33.03800 2.83900 25.36100
C  32.89100 2.99900 26.83100
C  35.12700 4.24100 24.45500
C  32.39700 1.52000 24.89500
C  32.36200 0.26500 25.78200
N  32.57300 3.44000 29.76600
C  31.47700 3.47000 28.87500
C  30.31500 3.99000 29.52600
C  30.62500 4.07700 30.90900
C  32.00600 3.85100 30.94500
C  28.95200 4.12700 28.98000
C  30.08200 4.38600 32.19500
O  28.96400 4.73900 32.47600
C  31.35500 4.40300 33.15400
C  31.46100 5.77300 33.76000
O  32.09000 6.70000 33.31700
O  30.76000 5.83000 34.86700
C  30.86900 7.10100 35.66300
H  38.15200 3.47000 32.45100
H  37.06300 2.64000 26.02500
H  30.81000 3.57400 26.93500
H  34.17700 5.03200 34.52200
H  36.40600 3.24800 34.51000
H  37.51600 4.89800 34.86200
H  36.15500 5.95900 34.94200
H  37.00200 5.85600 33.36300
H  34.61600 1.97900 34.79700
H  33.00400 2.47100 34.35200
H  33.88500 2.16700 37.00600
H  32.45800 3.03400 36.65100
H  40.17200 4.24100 30.88300
H  41.07100 2.69300 30.39400
H  39.87800 2.64900 31.68500
H  41.22800 3.68400 28.15700
H  41.60000 2.68500 26.64800
H  41.57400 1.99000 28.29500
H  34.85500 2.11300 24.52500
H  32.58500 3.76400 25.00500
H  34.65900 5.15900 24.81000
H  35.10700 4.17100 23.36700
H  36.17900 4.33600 24.72200
H  32.76300 1.18800 23.92300
H  31.33700 1.70800 24.72600
H  33.21300 0.22600 26.46200
H  32.33700 -0.64400 25.18100
H  31.47600 0.27200 26.41700
H  28.20700 3.93400 29.75300
H  28.84600 3.38600 28.18800
H  28.70700 5.09900 28.55300
H  31.11600 3.59500 33.84500
H  31.86100 7.26800 36.08200
H  30.26700 7.02400 36.56900
H  30.46800 7.94200 35.09600
Mg -2.14700 34.42900 25.97600
C  -3.44300 32.87800 28.77900
C  -0.23300 36.39400 27.90500
C  -1.30000 36.04900 23.11300
C  -4.30000 32.39000 23.96400
N  -2.14400 34.88400 28.15900
C  -2.65400 34.03700 29.14100
C  -2.07300 34.29700 30.46100
C  -1.19000 35.53400 30.24800
C  -1.17000 35.61900 28.66800
C  -1.62900 36.81400 31.01800
C  -1.34600 33.06700 31.13100
C  -1.95000 32.46200 32.38000
H  -1.15500 32.55900 33.64800
N  -0.85500 35.93700 25.60000
C  -0.05100 36.52300 26.50600
C  1.01300 37.28500 25.83800
C  0.68000 37.19100 24.41900
C  -0.58900 36.48300 24.34700
C  2.17400 37.86800 26.60400
C  1.47100 37.73100 23.24200
O  1.06800 37.65900 22.08200
C  2.82300 38.32100 23.54800
N  -2.75600 34.27500 23.78500
C  -2.40800 35.21700 22.84400
C  -2.83400 34.83000 21.40000
C  -3.64100 33.54400 21.72200
C  -3.57400 33.35800 23.27300
C  -3.58900 35.91700 20.56500
C  -3.15500 32.28000 21.01800
C  -2.04000 31.41200 21.63800
N  -3.64400 33.01000 26.22500
C  -4.29200 32.19100 25.32800
C  -4.96300 31.18200 25.98700
C  -4.76500 31.47300 27.34600
C  -3.83300 32.49700 27.44900
C  -5.74100 30.16800 25.38000
C  -5.06200 31.03000 28.64700
O  -5.81300 30.12600 28.98600
C  -4.29600 31.93700 29.67000
C  -5.18000 32.56900 30.59700
O  -5.81500 33.60900 30.33100
O  -5.21100 31.92900 31.81500
C  -5.95400 32.44200 32.91100
H  0.47500 36.85100 28.59900
H  -1.03100 36.62300 22.22400
H  -4.75100 31.58700 23.37900
H  -2.95300 34.51200 31.06700
H  -0.15400 35.38700 30.55100
H  -1.88100 37.59400 30.30000
H  -0.78100 37.24400 31.55200
H  -2.30700 36.64300 31.85400
H  -0.36600 33.42900 31.44100
H  -1.18400 32.37100 30.30800
H  -2.14100 31.42200 32.11200
H  -2.85400 33.02400 32.61300
H  3.15200 37.81200 26.12600
H  2.13500 37.34400 27.55900
H  1.94200 38.91500 26.80100
H  2.67500 39.16900 24.21700
H  3.28000 38.62000 22.60400
H  3.40700 37.50200 23.96600
H  -1.91000 34.60800 20.86600
H  -4.68200 33.74800 21.47200
H  -3.61400 36.86300 21.10600
H  -4.64100 35.63400 20.52900
H  -3.12100 35.96900 19.58300
H  -2.84500 32.48500 19.99300
H  -4.02400 31.64200 20.85400
H  -1.53500 31.69100 22.56200
H  -1.30600 31.34600 20.83400
H  -2.45600 30.41700 21.79500
H  -5.44700 29.70200 24.43900
H  -6.81100 30.35400 25.46400
H  -5.56000 29.34300 26.07000
H  -3.65200 31.32700 30.30400
H  -5.76900 33.48800 33.15600
H  -5.63700 31.83200 33.75600
H  -7.02400 32.26100 32.80600

