158

Mg 49.84700 35.71900 26.12600
C  47.88700 34.41500 28.78400
C  49.88700 38.71100 27.96400
C  51.21300 37.17000 23.53300
C  48.79300 33.03900 24.15600
N  49.26800 36.39900 28.24400
C  48.63800 35.60200 29.15200
C  48.52700 36.34500 30.51800
C  48.81300 37.82200 30.14600
C  49.31100 37.63600 28.71100
C  47.55800 38.72300 30.24900
C  49.48400 35.66900 31.45500
C  49.11800 35.45900 33.01400
H  47.89400 36.27700 33.55100
N  50.54200 37.67900 25.84500
C  50.47700 38.75300 26.70300
C  51.11300 39.87600 26.09100
C  51.69300 39.45500 24.83700
C  51.18800 38.04500 24.69900
C  51.16500 41.26400 26.87300
C  52.56200 40.21700 23.92500
O  53.01700 39.81700 22.85900
C  53.02400 41.55900 24.31400
N  49.88200 35.21000 24.13000
C  50.57600 35.93700 23.23500
C  50.65900 35.24500 21.84000
C  50.00500 33.84300 22.13200
C  49.47200 34.05100 23.55200
C  50.03100 36.07800 20.77200
C  51.07400 32.65500 22.07100
C  50.92700 31.60000 21.04800
N  48.70000 34.04600 26.37400
C  48.38200 33.01400 25.53400
C  47.52400 32.02600 26.17100
C  47.31500 32.52500 27.46200
C  48.03700 33.75600 27.57100
C  46.84800 30.83900 25.54100
C  46.56800 32.28700 28.63000
O  45.94200 31.30400 28.93700
C  46.82400 33.58200 29.49800
C  47.37400 33.07600 30.70800
O  48.33300 32.39400 30.88800
O  46.32300 33.25900 31.65800
C  46.30600 32.50900 32.84100
H  49.88800 39.65200 28.51900
H  51.84900 37.71100 22.82900
H  48.45500 32.25500 23.47400
H  47.56400 36.22000 31.01300
H  49.51100 38.34100 30.80300
H  47.16500 38.99400 29.26900
H  47.76200 39.62400 30.82700
H  46.71800 38.21100 30.71700
H  50.39200 36.27200 31.48000
H  49.68800 34.71900 30.96200
H  49.91900 35.77400 33.68200
H  48.94800 34.40100 33.21200
H  52.15600 41.70600 26.97600
H  50.90200 41.09400 27.91700
H  50.49400 41.92100 26.32000
H  52.23100 42.27700 24.52500
H  53.49100 41.96400 23.41600
H  53.83100 41.67800 25.03600
H  51.67700 35.07500 21.49000
H  49.22000 33.64900 21.40100
H  50.18500 37.14300 20.94300
H  48.95200 36.01100 20.91300
H  50.32300 35.72000 19.78500
H  51.11800 32.19500 23.05700
H  52.07900 33.07200 22.01500
H  51.29000 30.62500 21.37300
H  51.70100 31.85400 20.32400
H  49.88100 31.56400 20.74100
H  45.75800 30.80400 25.52800
H  47.19400 29.92900 26.03200
H  47.05700 30.87000 24.47200
H  45.98000 34.23500 29.71800
H  45.77600 31.57200 32.66900
H  45.78000 33.00100 33.65900
H  47.29200 32.18300 33.17300
Mg 26.86900 50.76800 26.75600
C  24.89400 51.77400 29.57300
C  29.15100 49.69400 28.81000
C  28.94400 50.60400 24.03600
C  24.66800 52.64600 24.79900
N  26.97700 50.83400 28.97800
C  26.09500 51.15400 29.93800
C  26.56400 50.70800 31.33300
C  27.91900 50.00900 30.98100
C  28.01500 50.07700 29.42800
C  29.09700 50.67500 31.68400
C  25.58200 49.67900 32.02500
C  24.83100 50.18200 33.31000
H  24.82200 49.38200 34.58800
N  28.72500 50.10400 26.45700
C  29.51500 49.63900 27.43900
C  30.73400 49.07400 26.85600
C  30.73400 49.41000 25.44800
C  29.45700 50.11000 25.23400
C  31.80300 48.30200 27.60700
C  31.75000 48.98800 24.33400
O  31.60700 49.37200 23.14200
C  32.89500 48.02100 24.69100
N  26.66900 51.29500 24.62500
C  27.66900 51.09200 23.72900
C  27.19000 51.47900 22.28400
C  25.71400 52.09700 22.50200
C  25.68000 52.10300 24.08000
C  28.23900 52.39700 21.55900
C  24.57000 51.22200 22.00600
C  23.33500 51.93400 21.19000
N  25.12700 51.76700 27.04500
C  24.41100 52.49800 26.15900
C  23.26900 53.10700 26.75100
C  23.38200 52.85200 28.11600
C  24.55700 52.05100 28.24900
C  22.27500 54.05100 26.08000
C  22.94900 53.18100 29.46600
O  22.10900 53.95100 29.91200
C  23.80500 52.31200 30.44600
C  24.19900 53.36700 31.46400
O  25.22000 53.94700 31.45300
O  23.22200 53.45700 32.49100
C  23.42100 54.50500 33.57500
H  29.85200 49.14300 29.44000
H  29.56700 50.44700 23.15300
H  23.90900 53.10800 24.16500
H  26.65000 51.67400 31.83200
H  27.92100 48.93000 31.13600
H  29.64200 49.91900 32.24900
H  28.61700 51.30700 32.43100
H  29.76800 51.25000 31.04600
H  26.11700 48.77000 32.30200
H  24.81500 49.49700 31.27300
H  23.80200 50.37400 33.00500
H  25.24800 51.08000 33.76800
H  31.66800 48.16300 28.67900
H  32.73300 48.87100 27.60200
H  31.91000 47.30500 27.18000
H  33.47500 48.47900 25.49200
H  33.48900 47.79700 23.80500
H  32.61700 47.00500 24.97100
H  27.19400 50.54500 21.72300
H  25.54200 53.13100 22.20400
H  29.00900 52.70000 22.26800
H  27.69100 53.24900 21.15600
H  28.68800 51.91800 20.68900
H  24.17500 50.55700 22.77300
H  24.94400 50.55900 21.22500
H  22.44700 51.30300 21.21000
H  23.69800 51.93500 20.16200
H  23.09700 52.95100 21.50200
H  22.66900 55.06100 25.96500
H  21.38200 54.14100 26.69900
H  22.14900 53.58900 25.10100
H  23.19000 51.54900 30.92300
H  24.04400 54.00400 34.31600
H  22.45500 54.84400 33.94900
H  24.00100 55.32800 33.15700

