158

Mg -1.68100 17.43500 27.02700
C  -2.17900 15.23900 29.72700
C  -2.30300 19.98300 29.23100
C  -2.05100 19.47600 24.28900
C  -1.94100 14.69700 24.92700
N  -2.37900 17.57100 29.23300
C  -2.27800 16.58900 30.15600
C  -2.38200 17.05900 31.59500
C  -2.42600 18.61100 31.39100
C  -2.51900 18.74900 29.87300
C  -3.59400 19.40500 32.04200
C  -1.25400 16.52000 32.55400
C  -1.14700 17.35100 33.82400
H  -0.94900 16.62700 35.25200
N  -1.90300 19.41700 26.83100
C  -2.17400 20.26000 27.86200
C  -2.04900 21.66500 27.34600
C  -1.77300 21.54300 25.92900
C  -1.97800 20.12100 25.62200
C  -2.02200 22.90600 28.21600
C  -1.48800 22.58100 24.86100
O  -1.42900 22.32400 23.67300
C  -1.17700 23.90300 25.37100
N  -2.03900 17.18200 24.90100
C  -2.10700 18.13400 23.94700
C  -2.27900 17.58900 22.56400
C  -1.97200 16.08000 22.75600
C  -1.96800 15.91900 24.30700
C  -3.54600 17.82600 21.76800
C  -0.60100 15.63800 22.14200
C  0.66400 16.07300 22.96600
N  -1.80800 15.33900 27.19600
C  -1.93500 14.39600 26.25500
C  -2.14000 13.07700 26.92500
C  -2.22000 13.32600 28.25800
C  -2.09600 14.77300 28.38600
C  -2.43600 11.87400 26.23900
C  -2.34000 12.71100 29.54900
O  -2.35600 11.54100 29.93600
C  -2.22000 13.90300 30.58600
C  -0.93900 13.63500 31.31800
O  0.20200 13.94800 30.92000
O  -1.14900 12.92600 32.51900
C  0.05500 12.60200 33.33500
H  -2.32100 20.79800 29.95800
H  -1.93400 20.15700 23.44300
H  -2.01800 13.83400 24.26200
H  -3.31600 16.80500 32.09700
H  -1.54500 19.09700 31.81100
H  -4.09000 18.84400 32.83400
H  -4.29300 19.78500 31.29800
H  -3.23100 20.27600 32.58700
H  -0.30400 16.27900 32.07700
H  -1.57100 15.54800 32.93300
H  -1.96100 18.05300 34.00400
H  -0.17900 17.84300 33.73300
H  -2.68300 23.63100 27.74300
H  -1.00700 23.27600 28.36200
H  -2.52600 22.71700 29.16400
H  -0.47800 23.84400 26.20600
H  -2.16500 24.30600 25.59100
H  -0.75200 24.43700 24.52100
H  -1.44900 17.95100 21.95800
H  -2.68500 15.32300 22.42900
H  -4.10000 16.89600 21.89400
H  -3.29700 18.04200 20.72900
H  -4.15300 18.65000 22.14200
H  -0.58800 16.07300 21.14300
H  -0.59400 14.54800 22.12200
H  0.45400 16.55000 23.92300
H  1.09200 16.79900 22.27400
H  1.31100 15.20600 23.09500
H  -1.63000 11.47500 25.62300
H  -3.25500 11.95300 25.52400
H  -2.64800 11.18600 27.05700
H  -3.07500 13.78100 31.25100
H  -0.36900 11.94000 34.09000
H  0.47200 13.43700 33.89900
H  0.79200 12.19700 32.64200
Mg -10.82500 39.06900 40.97400
C  -9.62400 35.94800 40.03200
C  -7.99000 40.44600 39.56600
C  -12.25700 42.07400 41.26600
C  -13.87700 37.60600 41.66600
N  -9.03800 38.25900 39.82700
C  -8.67800 36.97300 39.77600
C  -7.34000 36.71600 39.07000
C  -6.72700 38.15100 39.21300
C  -7.97400 39.04400 39.51100
C  -5.80600 38.38200 40.42700
C  -7.39100 36.14600 37.66400
C  -6.20800 35.25300 37.25700
H  -5.57800 35.51300 35.92200
N  -10.15700 41.02000 40.50000
C  -8.98400 41.35800 39.96100
C  -8.89500 42.79700 39.91300
C  -10.11500 43.40900 40.42400
C  -10.91200 42.13600 40.76200
C  -7.66000 43.47700 39.37100
C  -10.37700 44.86800 40.56000
O  -9.59400 45.71000 40.24100
C  -11.72500 45.30700 40.99500
N  -12.81300 39.78500 41.32400
C  -13.11900 41.06900 41.56300
C  -14.52400 41.26200 42.15400
C  -15.13600 39.84100 42.10500
C  -13.88800 39.02300 41.62300
C  -14.57400 41.90000 43.52700
C  -16.36900 39.75400 41.20000
C  -17.32200 38.57900 41.47400
N  -11.67400 37.12500 40.87000
C  -12.89100 36.62400 41.26500
C  -12.85800 35.20300 41.23600
C  -11.53600 34.87400 40.77800
C  -10.89900 36.07800 40.54300
C  -13.92600 34.29000 41.58300
C  -10.65400 33.80300 40.52500
O  -10.72400 32.58500 40.65200
C  -9.42100 34.44100 40.02200
C  -8.23900 33.97700 40.73100
O  -7.41100 33.18800 40.32000
O  -8.14000 34.56500 41.98600
C  -6.89300 34.28000 42.84500
H  -7.12300 40.90700 39.08700
H  -12.67700 43.02800 41.59100
H  -14.85100 37.25800 42.01600
H  -6.76300 36.06700 39.72800
H  -6.13700 38.49500 38.36400
H  -5.18500 39.27800 40.39600
H  -5.18300 37.48800 40.46400
H  -6.34800 38.51600 41.36300
H  -7.45000 37.00200 36.99200
H  -8.27200 35.57600 37.37000
H  -6.57000 34.22600 37.22100
H  -5.49600 35.29900 38.08100
H  -7.69700 44.56500 39.31700
H  -7.41000 43.13900 38.36500
H  -6.82700 43.18400 40.01100
H  -12.51600 44.96100 40.33100
H  -11.73000 46.39200 40.89100
H  -11.98700 45.04600 42.02000
H  -15.16000 41.78300 41.43900
H  -15.43200 39.56700 43.11700
H  -15.55200 42.38200 43.51800
H  -13.87000 42.68300 43.81200
H  -14.56800 41.21200 44.37200
H  -16.01600 39.61100 40.17900
H  -16.93500 40.68400 41.25200
H  -18.26600 38.99900 41.82100
H  -16.90700 37.90100 42.22000
H  -17.56500 38.07800 40.53700
H  -14.64200 34.40500 40.77000
H  -14.53500 34.75200 42.36000
H  -13.58000 33.26300 41.70200
H  -9.30500 34.09600 38.99500
H  -5.99300 34.74900 42.44700
H  -6.62000 33.22600 42.89800
H  -6.97300 34.61500 43.87900

