158

Mg 7.30700 3.15300 27.66500
C  8.56500 1.99700 30.74500
C  5.18300 5.14900 29.42300
C  5.98900 4.12600 24.77500
C  8.95300 0.51300 26.02900
N  7.05100 3.55700 29.89700
C  7.68900 3.03100 30.97700
C  7.23300 3.70500 32.32400
C  5.99200 4.49200 31.84900
C  6.08500 4.49900 30.26800
C  4.60100 3.86900 32.35300
C  8.35300 4.57600 33.06100
C  8.67300 4.12100 34.48600
H  9.69200 4.89700 35.34500
N  5.75000 4.40900 27.16200
C  5.00500 5.17100 27.99700
C  4.07700 5.90700 27.26600
C  4.32200 5.73700 25.84100
C  5.41100 4.77100 25.86300
C  2.95900 6.52000 28.01000
C  3.65200 6.35300 24.66300
O  4.02400 6.02800 23.50600
C  2.61000 7.38000 24.91900
N  7.41400 2.43700 25.69200
C  7.03200 3.22700 24.66100
C  7.42900 2.63100 23.30600
C  8.30600 1.37100 23.71900
C  8.26500 1.43100 25.25700
C  6.27500 2.28100 22.30400
C  9.68600 1.30900 23.11700
C  10.06400 0.04700 22.32600
N  8.57500 1.59700 28.17300
C  9.16400 0.61000 27.39000
C  10.04800 -0.13500 28.23400
C  9.86200 0.38800 29.51000
C  8.94100 1.39700 29.48200
C  10.97400 -1.30900 27.83200
C  10.32600 0.28700 30.89600
O  11.13300 -0.50000 31.36100
C  9.58600 1.37100 31.70700
C  9.02300 0.60300 32.82800
O  7.89800 0.08700 32.99500
O  10.00900 0.68100 33.87300
C  9.45500 0.42500 35.23000
H  4.51700 5.79600 29.99800
H  5.89000 4.61700 23.80500
H  9.51400 -0.25100 25.48700
H  6.98600 2.85800 32.96500
H  6.00900 5.55100 32.10600
H  3.97400 3.51100 31.53600
H  4.01500 4.57300 32.94500
H  4.86800 3.07600 33.05100
H  8.17600 5.64700 32.96200
H  9.27500 4.40500 32.50500
H  9.10300 3.13000 34.33700
H  7.79100 3.90300 35.08800
H  3.31200 7.52800 28.23000
H  2.80000 6.08900 28.99900
H  2.04100 6.42600 27.43000
H  1.69600 6.93600 25.31400
H  2.37000 7.88800 23.98600
H  3.05700 8.08500 25.62000
H  8.11500 3.36600 22.88500
H  7.75000 0.47200 23.45300
H  5.45700 2.36900 23.01900
H  6.25300 1.25200 21.94600
H  6.15300 2.98500 21.48100
H  10.38800 1.29700 23.95000
H  9.99800 2.11800 22.45700
H  9.25600 -0.66400 22.15500
H  10.97600 -0.32500 22.79400
H  10.55300 0.14100 21.35600
H  10.42900 -2.25200 27.88900
H  11.84800 -1.21700 28.47700
H  11.16400 -1.15800 26.76900
H  10.27500 2.12000 32.09700
H  8.71100 1.19000 35.45200
H  10.25000 0.38200 35.97600
H  8.94500 -0.52100 35.41000
Mg 49.18200 46.96900 44.11400
C  46.15600 46.99500 42.28200
C  49.97600 44.10700 42.58300
C  52.34500 47.72500 44.99900
C  48.23000 50.28300 45.11400
N  48.06800 45.68700 42.79800
C  46.86600 45.83000 42.16600
C  46.40100 44.49200 41.44900
C  47.58200 43.55600 41.78700
C  48.59700 44.43400 42.51400
C  47.11100 42.34200 42.64300
C  46.31200 44.67700 39.91100
C  45.02300 44.12200 39.34800
H  45.27900 43.22500 38.09900
N  50.93000 45.99300 43.91700
C  51.05000 44.82100 43.17800
C  52.49600 44.50100 43.16000
C  53.18100 45.44200 43.91900
C  52.18700 46.42500 44.38900
C  53.09800 43.42300 42.18200
C  54.71800 45.33500 44.27800
O  55.46100 44.46400 43.81300
C  55.38800 46.34800 45.26700
N  50.12900 48.76800 44.97800
C  51.41200 48.72900 45.30900
C  51.68800 49.94100 46.15700
C  50.43900 50.88500 46.10500
C  49.50800 49.98300 45.37200
C  52.16000 49.59600 47.62300
C  50.71300 52.31600 45.39400
C  51.61500 53.28700 46.16800
N  47.55200 48.37200 43.86600
C  47.35700 49.57700 44.36000
C  46.06100 50.11300 43.91800
C  45.55600 49.14800 43.09300
C  46.48700 48.06900 43.10800
C  45.48900 51.43600 44.34900
C  44.41000 48.76600 42.24200
O  43.41100 49.43500 42.02800
C  44.72600 47.39100 41.63000
C  43.58900 46.42300 41.78800
O  43.39300 45.65000 42.71400
O  42.61400 46.51800 40.73700
C  41.53200 45.51100 40.87400
H  50.34600 43.21900 42.06600
H  53.41400 47.90500 45.13100
H  47.93400 51.27700 45.45400
H  45.43400 44.20000 41.85900
H  48.13400 43.13200 40.94900
H  47.54300 42.31000 43.64300
H  47.50800 41.47700 42.11200
H  46.04000 42.33000 42.84300
H  47.08700 44.09800 39.40900
H  46.48100 45.72100 39.65100
H  44.35600 44.91900 39.01800
H  44.47700 43.54100 40.09000
H  53.90900 42.85100 42.63100
H  53.55400 43.93600 41.33500
H  52.38100 42.62500 41.99100
H  55.56300 47.31700 44.79800
H  56.33900 45.95800 45.62900
H  54.71000 46.40200 46.11800
H  52.46100 50.52300 45.65600
H  50.08100 51.16300 47.09700
H  52.45600 48.62400 48.01600
H  51.26600 49.90500 48.16500
H  52.78300 50.43800 47.92600
H  49.77600 52.81600 45.15000
H  51.12600 52.06100 44.41800
H  51.11500 54.23900 46.34700
H  52.51000 53.61100 45.63700
H  51.83000 52.88700 47.15900
H  45.74700 51.76500 45.35500
H  44.40400 51.38400 44.26200
H  45.86200 52.25800 43.73800
H  44.91000 47.56300 40.57000
H  40.87200 45.78700 41.69600
H  41.90600 44.53300 41.17800
H  40.97800 45.32700 39.95300

