158

Mg 1.29500 41.87900 25.73500
C  3.05200 42.06300 28.71100
C  -1.27100 40.58700 27.47600
C  -0.29000 41.44900 22.72400
C  4.19700 42.48300 23.91200
N  0.86400 41.67200 27.83200
C  1.71500 41.84600 28.89300
C  1.14000 41.65100 30.24800
C  -0.26300 41.02800 29.89400
C  -0.27500 41.03200 28.30500
C  -0.59000 39.57000 30.44000
C  1.10800 43.07600 30.92100
C  1.53100 43.16000 32.40100
H  1.29200 41.90200 33.34700
N  -0.53900 41.14700 25.18300
C  -1.50700 40.65100 26.01300
C  -2.72000 40.18300 25.24600
C  -2.35200 40.36500 23.87000
C  -1.00500 41.01700 23.87100
C  -4.12300 39.79500 25.79300
C  -3.05900 40.01800 22.57500
O  -2.70300 40.33000 21.41400
C  -4.36500 39.22300 22.62900
N  1.83200 42.02500 23.60200
C  0.97900 41.93600 22.64800
C  1.69900 42.01800 21.26400
C  3.11200 42.62200 21.63100
C  3.03400 42.31300 23.16500
C  1.83200 40.65500 20.46700
C  3.16200 44.20300 21.39400
C  4.03200 44.75500 20.20900
N  3.22500 42.09500 26.09300
C  4.34800 42.36800 25.30400
C  5.49000 42.54300 26.16500
C  4.97700 42.37700 27.44100
C  3.62000 42.12100 27.40200
C  6.86300 43.06300 25.73600
C  5.41100 42.51700 28.79900
O  6.58600 42.62600 29.18900
C  4.23700 42.33100 29.69100
C  4.69100 41.22200 30.62200
O  4.50800 40.03200 30.43800
O  5.22800 41.71700 31.73300
C  5.50100 40.79800 32.81800
H  -2.06700 40.02700 27.97200
H  -0.59500 41.28000 21.68900
H  5.07000 42.72000 23.30000
H  1.74700 40.86100 30.69000
H  -1.08800 41.65000 30.24100
H  0.33100 38.98700 30.43300
H  -1.30000 39.02800 29.81600
H  -0.97400 39.61400 31.45900
H  0.08000 43.43100 30.84400
H  1.67400 43.76600 30.29600
H  0.93600 44.00200 32.75400
H  2.60000 43.36000 32.46600
H  -4.48400 38.85700 25.37300
H  -4.66000 40.67200 25.43100
H  -4.31200 39.68400 26.86100
H  -5.16900 39.66300 23.21900
H  -3.95300 38.24700 22.88700
H  -4.88500 39.04800 21.68700
H  1.15100 42.78400 20.71400
H  3.93200 42.11300 21.12500
H  1.47900 39.80100 21.04400
H  2.89800 40.47800 20.32500
H  1.29600 40.74800 19.52200
H  3.51100 44.71500 22.29200
H  2.14100 44.57000 21.28500
H  3.42800 45.35400 19.52700
H  4.51100 43.95900 19.63900
H  4.79300 45.41800 20.62000
H  7.48300 42.22900 25.40600
H  7.34000 43.68200 26.49600
H  6.62300 43.74900 24.92400
H  4.10200 43.22200 30.30400
H  6.43800 40.24400 32.76000
H  4.72000 40.10500 33.13000
H  5.56100 41.51300 33.63900
Mg -5.68600 24.26200 25.54900
C  -4.23000 26.03800 28.18700
C  -7.54600 22.47300 27.83700
C  -6.79700 22.39000 22.97200
C  -3.85400 26.24900 23.28600
N  -5.78100 24.26900 27.70300
C  -5.15700 25.08800 28.59900
C  -5.64400 24.79900 30.12900
C  -6.20500 23.31000 29.94600
C  -6.56100 23.35300 28.40000
C  -5.25900 22.14100 30.33000
C  -6.71300 25.83700 30.58500
C  -6.58400 26.41500 31.95300
H  -5.92800 25.50400 32.98600
N  -7.05400 22.66300 25.43000
C  -7.78600 22.08200 26.48500
C  -8.63800 21.02200 25.96500
C  -8.54800 21.11500 24.52900
C  -7.45300 22.05900 24.25100
C  -9.44800 20.24800 26.87600
C  -9.32200 20.42800 23.39100
O  -9.14700 20.64400 22.20400
C  -10.46400 19.43300 23.72900
N  -5.42300 24.33900 23.49200
C  -5.99700 23.39700 22.66000
C  -5.55200 23.68300 21.14100
C  -5.10800 25.09300 21.29700
C  -4.70800 25.22100 22.75700
C  -4.43500 22.71000 20.68000
C  -6.07600 26.23700 20.92300
C  -5.50000 27.16400 19.87100
N  -4.30000 25.87200 25.64100
C  -3.67900 26.56900 24.66800
C  -2.70100 27.47300 25.31300
C  -2.91300 27.33700 26.65800
C  -3.88500 26.31400 26.85400
C  -1.68900 28.25300 24.53000
C  -2.53700 27.90900 28.00900
O  -1.90400 28.86600 28.37200
C  -3.42400 27.01500 29.06500
C  -2.46900 26.32900 29.95900
O  -1.88700 25.27400 29.69200
O  -2.30500 27.08300 31.13300
C  -1.36900 26.56100 32.16300
H  -8.10500 21.91900 28.59400
H  -7.08500 21.85400 22.06500
H  -3.25600 26.82400 22.57600
H  -4.82800 24.75200 30.85000
H  -7.18200 23.13300 30.39600
H  -4.30000 22.48900 30.71500
H  -5.04200 21.61800 29.39900
H  -5.82300 21.52300 31.02900
H  -7.74200 25.49700 30.47300
H  -6.60900 26.69300 29.91800
H  -7.63700 26.50200 32.22200
H  -6.02000 27.34700 31.90400
H  -9.11700 19.23300 27.09700
H  -10.49600 20.16900 26.59000
H  -9.46300 20.70100 27.86700
H  -11.28300 20.01500 24.15000
H  -9.95700 18.72100 24.38000
H  -10.81300 18.92900 22.82800
H  -6.47800 23.56400 20.58000
H  -4.19700 25.30400 20.73600
H  -4.88900 22.33600 19.76200
H  -4.21400 21.94900 21.42800
H  -3.48200 23.18100 20.43700
H  -6.35500 26.81800 21.80200
H  -7.02600 25.78200 20.64300
H  -4.70900 27.75600 20.33300
H  -6.25000 27.88600 19.54900
H  -5.07400 26.76900 18.94900
H  -0.93400 27.62800 24.05300
H  -1.20000 28.88600 25.27100
H  -2.12000 28.92800 23.79000
H  -4.00800 27.61000 29.76700
H  -1.78000 26.81700 33.13900
H  -0.40900 27.05700 32.02100
H  -1.19300 25.49800 31.99700

