158

Mg 2.08400 -2.00200 44.93300
C  5.30900 -1.22300 44.10200
C  0.96200 0.47900 42.72900
C  -1.00800 -3.22700 45.08700
C  3.38300 -5.17100 46.06000
N  3.02800 -0.62200 43.51100
C  4.36900 -0.43500 43.41200
C  4.77500 0.74700 42.56600
C  3.42400 1.40200 42.16800
C  2.38500 0.45100 42.85700
C  3.25700 2.84700 42.57800
C  5.70400 0.35800 41.27700
C  6.97700 1.15200 41.13200
H  7.54400 1.22500 39.65100
N  0.24700 -1.38300 44.16700
C  0.02300 -0.36800 43.30900
C  -1.34400 -0.20300 43.11600
C  -2.06400 -1.22100 43.82900
C  -0.94000 -1.97800 44.39600
C  -1.84300 0.82600 42.18200
C  -3.54600 -1.56100 43.87500
O  -4.27600 -0.89400 43.21800
C  -4.19300 -2.68400 44.69600
N  1.32100 -3.96600 45.26900
C  0.00600 -4.11400 45.45400
C  -0.34100 -5.50000 46.13700
C  1.03900 -6.13000 46.28700
C  2.04300 -5.00800 45.86700
C  -1.25400 -5.33900 47.36500
C  1.20200 -7.48100 45.54000
C  1.58000 -8.73900 46.25100
N  3.98200 -2.98000 45.38000
C  4.36700 -4.22400 45.84400
C  5.79700 -4.32400 45.90000
C  6.14400 -3.06700 45.35200
C  5.05800 -2.34700 45.00000
C  6.63400 -5.46600 46.49100
C  7.34700 -2.26000 44.98300
O  8.51900 -2.55600 45.23100
C  6.82700 -1.01600 44.22500
C  7.32500 0.22600 44.95200
O  6.97600 0.64000 46.04200
O  8.23900 0.87400 44.14800
C  8.59800 2.15600 44.63100
H  0.70200 1.39000 42.18400
H  -1.97500 -3.71300 45.23100
H  3.63300 -6.13600 46.50400
H  5.37700 1.33600 43.25900
H  3.32000 1.41800 41.08300
H  2.72500 2.92400 43.52600
H  2.78000 3.36700 41.74700
H  4.20700 3.37500 42.65700
H  5.25900 0.32100 40.28200
H  6.13800 -0.62600 41.45300
H  7.70600 0.66200 41.77800
H  6.77500 2.09400 41.64100
H  -1.80800 0.41600 41.17200
H  -1.28700 1.76000 42.25600
H  -2.87200 1.11400 42.39600
H  -3.80800 -3.64300 44.34800
H  -5.27600 -2.73800 44.58900
H  -3.93300 -2.55000 45.74500
H  -0.87500 -6.18800 45.48300
H  1.32600 -6.23400 47.33400
H  -0.64400 -5.70800 48.18900
H  -2.21200 -5.85700 47.31300
H  -1.39400 -4.28000 47.58200
H  2.12300 -7.39300 44.96400
H  0.43600 -7.52200 44.76600
H  1.84800 -8.65200 47.30400
H  2.48200 -9.16000 45.80800
H  0.88400 -9.54100 46.00300
H  7.52100 -5.29400 45.88200
H  6.20800 -6.42600 46.20000
H  6.69100 -5.36800 47.57500
H  7.22300 -1.04400 43.21000
H  9.17300 2.68600 43.87100
H  9.19000 2.07300 45.54200
H  7.67400 2.67700 44.87900
Mg -5.83100 25.29400 26.14600
C  -4.36400 26.65100 28.99000
C  -7.53900 23.14500 28.20200
C  -6.92800 23.82300 23.41900
C  -3.56500 27.24000 24.22300
N  -5.89800 24.94900 28.33100
C  -5.30900 25.67400 29.31700
C  -5.68400 25.19200 30.69800
C  -6.43900 23.83700 30.42400
C  -6.65600 23.95800 28.87100
C  -5.58000 22.55200 30.79700
C  -6.45200 26.31300 31.43700
C  -6.17000 26.67400 32.91100
H  -5.35500 25.57000 33.81600
N  -7.19500 23.80200 25.81200
C  -7.83300 23.08100 26.76100
C  -8.80600 22.19000 26.14800
C  -8.55700 22.33000 24.76400
C  -7.52000 23.35500 24.60400
C  -9.90400 21.45600 27.02800
C  -9.18600 21.49000 23.64800
O  -8.96500 21.73900 22.45000
C  -9.99100 20.27400 23.99500
N  -5.29300 25.51400 24.06100
C  -5.91900 24.75600 23.13500
C  -5.29500 24.97800 21.70700
C  -4.26000 26.11800 21.97600
C  -4.36600 26.32400 23.51000
C  -4.76000 23.71800 20.89800
C  -4.45600 27.39100 21.20400
C  -3.32900 27.76600 20.16700
N  -4.19000 26.47800 26.46800
C  -3.42000 27.26600 25.58500
C  -2.60000 28.17800 26.33800
C  -2.91900 27.96700 27.70400
C  -3.87700 26.88700 27.69200
C  -1.62700 29.08800 25.83400
C  -2.65200 28.43000 29.04000
O  -1.87100 29.30400 29.46500
C  -3.53000 27.52200 29.96000
C  -2.60900 26.58500 30.67100
O  -2.24400 25.52500 30.27400
O  -2.48800 27.01200 31.96900
C  -1.53000 26.10000 32.69800
H  -8.04700 22.42600 28.84800
H  -7.25900 23.38800 22.47300
H  -2.90800 27.94800 23.71200
H  -4.79700 24.93800 31.27800
H  -7.41800 23.73000 30.89200
H  -6.22700 22.09500 31.54600
H  -4.56700 22.79200 31.11900
H  -5.58300 21.94900 29.88900
H  -7.52900 26.15600 31.38000
H  -6.30500 27.19300 30.81200
H  -7.13500 26.77100 33.41000
H  -5.69800 27.64600 33.05200
H  -9.67700 20.39300 27.10900
H  -10.89700 21.54800 26.58700
H  -10.04500 21.78500 28.05800
H  -9.59100 19.70000 24.83100
H  -10.03600 19.64300 23.10800
H  -11.03800 20.54400 24.13900
H  -6.04700 25.49000 21.10600
H  -3.32400 25.57200 21.85700
H  -5.41600 23.60100 20.03600
H  -4.84000 22.79200 21.46700
H  -3.77100 23.67700 20.44100
H  -4.42500 28.22400 21.90600
H  -5.37100 27.32600 20.61600
H  -2.54500 27.00800 20.17400
H  -2.91400 28.71300 20.51100
H  -3.67200 28.02600 19.16500
H  -1.53800 29.84900 26.60900
H  -1.95500 29.44400 24.85700
H  -0.75200 28.47700 25.60900
H  -4.33500 28.01700 30.50400
H  -0.68100 25.99600 32.02200
H  -1.89500 25.07900 32.79900
H  -1.22400 26.54800 33.64300

