158

Mg 1.93800 -0.97500 43.87800
C  5.34400 -0.10600 43.03400
C  0.86600 1.41600 41.92900
C  -1.13600 -2.57200 44.00700
C  3.39300 -4.04000 45.17600
N  3.05300 0.43900 42.56200
C  4.38500 0.70500 42.41100
C  4.57500 1.92900 41.56700
C  3.17800 2.49400 41.37900
C  2.29300 1.39400 42.06900
C  2.87600 3.99600 41.70400
C  5.28300 1.60200 40.23000
C  6.69000 2.23500 39.96900
H  6.81200 2.96900 38.62400
N  0.08200 -0.48700 43.19900
C  -0.14000 0.55800 42.41800
C  -1.54500 0.68800 42.35900
C  -2.15500 -0.48200 42.89200
C  -1.06100 -1.24600 43.39300
C  -2.13400 1.83500 41.68800
C  -3.64900 -0.74700 42.98900
O  -4.37500 0.11900 42.53500
C  -4.26000 -1.92000 43.67100
N  1.26700 -3.09900 44.48100
C  -0.04800 -3.42100 44.53700
C  -0.22900 -4.86700 45.18200
C  1.25300 -5.14500 45.77500
C  2.01000 -4.04300 45.08100
C  -1.37200 -4.93000 46.27300
C  1.85100 -6.60500 45.62600
C  2.31700 -7.34800 46.86400
N  3.97700 -1.82200 44.24400
C  4.32200 -3.07900 44.79200
C  5.79600 -3.02900 45.07700
C  6.28500 -1.87800 44.34600
C  5.10700 -1.20700 43.84300
C  6.56700 -4.11500 45.72300
C  7.43100 -1.12700 43.88500
O  8.66200 -1.28400 44.11500
C  6.87600 0.08100 43.06900
C  7.45000 1.28500 43.73400
O  7.01900 1.85800 44.78600
O  8.47200 1.85900 42.96600
C  8.84100 3.24300 43.16000
H  0.54900 2.28500 41.34800
H  -2.11600 -3.01400 44.19400
H  3.68100 -4.89400 45.79300
H  5.05800 2.75500 42.08700
H  2.79500 2.37300 40.36600
H  2.18400 4.21600 42.51700
H  2.50900 4.43600 40.77600
H  3.74900 4.54900 42.04900
H  4.62900 1.96500 39.43700
H  5.34500 0.51400 40.22300
H  7.36500 1.38000 40.00100
H  6.85900 2.91900 40.80100
H  -1.41000 2.65000 41.67200
H  -2.91900 2.26500 42.31000
H  -2.31800 1.71300 40.62100
H  -3.66800 -1.99300 44.58300
H  -4.07200 -2.75800 43.00000
H  -5.33300 -1.74200 43.74400
H  -0.55600 -5.67400 44.52700
H  1.38100 -4.80500 46.80200
H  -0.93800 -5.32800 47.19000
H  -2.08900 -5.69400 45.97500
H  -1.86900 -3.96200 46.34100
H  2.60800 -6.63900 44.84300
H  1.06900 -7.24000 45.20800
H  2.45200 -6.61700 47.66100
H  3.25000 -7.87200 46.65600
H  1.64700 -8.08600 47.30600
H  6.22100 -4.18200 46.75500
H  7.63700 -3.93900 45.61300
H  6.37000 -5.00900 45.13300
H  7.32700 0.00200 42.08000
H  7.99200 3.79700 42.76000
H  9.73700 3.40800 42.56200
H  9.18000 3.51200 44.16000
Mg 25.61700 0.79300 29.60200
C  27.64200 0.71500 32.49800
C  22.98100 1.44900 31.75900
C  23.72500 1.10800 26.92600
C  28.32500 -0.13500 27.75800
N  25.37500 0.91300 31.96500
C  26.34500 0.98900 32.92400
C  25.75700 1.43100 34.30600
C  24.19600 1.24000 34.07200
C  24.18900 1.25800 32.47300
C  23.60500 -0.02900 34.52800
C  26.23600 2.76800 34.80400
C  26.96300 2.82400 36.15400
H  26.50700 3.79400 37.15100
N  23.59300 1.20700 29.36500
C  22.69400 1.44500 30.33200
C  21.42500 1.67100 29.73000
C  21.54400 1.42500 28.37000
C  22.97500 1.28000 28.13800
C  20.17300 1.87100 30.62600
C  20.47500 1.36800 27.18400
O  20.86500 1.46400 26.02800
C  18.99400 1.21200 27.49800
N  25.89600 0.32500 27.64800
C  25.00200 0.74800 26.67100
C  25.65000 0.71500 25.28300
C  27.16100 0.24300 25.55100
C  27.16200 0.23000 27.08200
C  24.89800 -0.08900 24.13000
C  28.18600 1.27800 25.03800
C  28.30100 1.51300 23.56600
N  27.56600 0.22200 29.95100
C  28.54300 -0.18400 29.13200
C  29.76300 -0.47700 29.87700
C  29.50700 -0.01100 31.12800
C  28.11000 0.32400 31.16800
C  31.06500 -0.84100 29.26400
C  30.08600 0.32200 32.44000
O  31.21800 0.09500 32.85900
C  28.93700 0.80000 33.31900
C  28.80000 -0.05900 34.45500
O  28.41900 -1.19200 34.37800
O  29.37400 0.43900 35.53600
C  29.56000 -0.38700 36.74400
H  22.07200 1.67500 32.32000
H  23.19900 1.18400 25.97300
H  29.11600 -0.49700 27.09800
H  26.08300 0.63600 34.97800
H  23.54900 2.07900 34.32700
H  23.18800 0.22200 35.50300
H  24.40000 -0.77400 34.48900
H  22.89600 -0.55500 33.88800
H  25.45200 3.52500 34.80000
H  26.96700 3.05800 34.04800
H  28.03200 2.91000 35.96100
H  26.72400 1.83000 36.53400
H  19.91900 0.93600 31.12600
H  19.37300 2.13000 29.93200
H  20.39400 2.66700 31.33800
H  18.66300 0.75500 26.56500
H  18.48400 2.16200 27.66100
H  18.90600 0.50300 28.32100
H  25.73400 1.77400 25.03800
H  27.47500 -0.78000 25.34600
H  24.44700 0.59800 23.41400
H  24.04400 -0.59300 24.58400
H  25.44100 -0.87600 23.60700
H  29.20500 1.03500 25.34200
H  27.88500 2.21500 25.50600
H  27.61500 0.86900 23.01600
H  29.27600 1.26900 23.14500
H  28.17800 2.56800 23.32500
H  31.56900 0.10200 29.05400
H  30.85100 -1.34800 28.32300
H  31.64700 -1.58200 29.81200
H  29.21500 1.79200 33.67600
H  29.81800 -1.44000 36.62900
H  28.73400 -0.30300 37.45000
H  30.43700 0.03400 37.23700

