158

Mg 15.89000 51.08800 25.43900
C  17.62200 49.96300 28.33000
C  13.24300 52.05600 27.57000
C  14.30400 52.12700 22.79100
C  18.65500 50.18400 23.63500
N  15.57500 50.99400 27.74900
C  16.48400 50.61300 28.70700
C  15.95000 50.94700 30.05400
C  14.38400 51.23500 29.76400
C  14.42900 51.49100 28.26600
C  13.47900 49.99300 30.10200
C  16.67300 52.32700 30.54100
C  16.93400 52.49700 32.07000
H  16.14300 51.49800 32.91000
N  14.03600 52.04000 25.23300
C  13.07300 52.28400 26.23700
C  11.86400 52.85600 25.49600
C  12.14400 52.84800 24.10100
C  13.57400 52.32800 24.02400
C  10.59000 53.10500 26.30600
C  11.29000 53.34000 22.94700
O  11.78800 53.44400 21.84300
C  9.91500 53.71600 23.23200
N  16.33200 50.94600 23.54500
C  15.51700 51.47900 22.60800
C  16.21800 51.57100 21.17600
C  17.65800 51.07400 21.57700
C  17.58100 50.80300 22.99300
C  15.49400 50.68600 20.15900
C  18.77600 52.05900 21.13300
C  19.07000 52.12600 19.55000
N  17.70300 50.14300 25.81500
C  18.72100 49.82900 24.94500
C  19.81900 49.22300 25.66500
C  19.47600 49.26700 27.05500
C  18.10200 49.70700 27.05000
C  21.10100 48.54800 25.08000
C  19.82200 48.80300 28.41200
O  20.79600 48.27100 28.82800
C  18.65200 49.35500 29.26800
C  18.07300 48.36300 30.28400
O  17.02800 47.73300 30.13000
O  18.86600 48.37800 31.35100
C  18.46700 47.49700 32.49000
H  12.50600 52.31900 28.33100
H  13.68700 52.28800 21.90400
H  19.58200 50.09500 23.06600
H  15.93700 50.17900 30.82800
H  13.92000 52.04000 30.33500
H  13.07900 50.12700 31.10700
H  14.02400 49.05000 30.15600
H  12.67400 49.83000 29.38500
H  15.98900 53.12200 30.24400
H  17.58300 52.41700 29.94700
H  16.51500 53.47100 32.32300
H  17.98900 52.29500 32.25500
H  9.74900 52.61700 25.81300
H  10.36900 54.16600 26.42300
H  10.68300 52.72900 27.32500
H  9.28800 52.83800 23.38300
H  9.43900 53.98100 22.28800
H  9.75000 54.51800 23.95200
H  16.24600 52.62900 20.91400
H  17.98200 50.15200 21.09500
H  16.17600 49.89500 19.84700
H  15.30200 51.34900 19.31600
H  14.53000 50.24000 20.40600
H  19.75300 51.87200 21.57900
H  18.45400 53.08000 21.33800
H  20.15600 52.18500 19.47500
H  18.56000 53.01400 19.17500
H  18.76400 51.22000 19.02600
H  21.73500 49.32200 24.64600
H  20.71700 47.91900 24.27700
H  21.55700 47.91600 25.84200
H  19.05100 50.24400 29.75700
H  19.19400 46.75100 32.81000
H  17.70100 46.75100 32.27700
H  18.14800 48.11800 33.32700
Mg -8.86600 18.51800 42.39900
C  -5.34000 18.23500 42.10800
C  -8.43600 21.92800 41.76900
C  -12.00900 18.68300 42.02200
C  -8.94600 14.92700 42.25000
N  -7.04800 19.89900 42.03200
C  -5.76400 19.54800 41.95800
C  -4.87200 20.77300 41.73600
C  -5.81200 21.99200 41.81100
C  -7.15600 21.26300 41.96500
C  -5.54000 23.06300 42.94300
C  -4.09400 20.76800 40.39800
C  -4.87800 20.56800 39.09400
H  -4.26000 19.81200 37.92800
N  -10.05700 20.12600 42.12500
C  -9.76100 21.39500 41.78400
C  -10.99000 22.17000 41.41700
C  -12.02800 21.23600 41.62700
C  -11.39100 19.91400 41.91800
C  -10.96800 23.63000 41.06200
C  -13.42100 21.60500 41.44700
O  -13.73700 22.76600 41.25700
C  -14.66500 20.70000 41.44500
N  -10.19600 16.89600 41.85600
C  -11.52700 17.34400 42.01700
C  -12.55700 16.12700 41.83000
C  -11.52200 14.92200 41.76500
C  -10.13700 15.62600 41.88300
C  -13.68300 16.06700 43.02600
C  -11.56300 14.02400 40.50200
C  -11.86400 12.49500 40.76800
N  -7.49000 16.83100 42.29700
C  -7.66800 15.48500 42.36600
C  -6.33500 14.84800 42.51200
C  -5.35400 15.87900 42.29600
C  -6.17500 17.07000 42.23900
C  -6.09900 13.38800 42.70500
C  -3.95600 16.17900 42.23800
O  -2.93900 15.48500 42.32000
C  -3.88000 17.69300 42.07000
C  -3.14100 18.28900 43.28300
O  -2.12300 18.97900 43.22500
O  -3.74800 18.12300 44.51000
C  -3.16800 18.76600 45.68500
H  -8.32000 22.99300 41.55400
H  -13.08700 18.81500 41.91000
H  -9.05700 13.84300 42.31200
H  -4.18400 20.70200 42.57900
H  -5.77000 22.52400 40.86000
H  -6.45200 23.26700 43.50400
H  -5.10700 23.95300 42.48700
H  -4.75000 22.77800 43.63800
H  -3.28800 20.04600 40.53600
H  -3.56600 21.70300 40.21300
H  -4.97200 21.59600 38.74300
H  -5.88800 20.19300 39.26100
H  -10.94900 23.80400 39.98600
H  -10.00600 24.06900 41.32900
H  -11.80100 24.16000 41.52300
H  -14.63900 20.13100 42.37400
H  -14.76400 20.04000 40.58300
H  -15.47600 21.41700 41.31200
H  -12.97000 16.36200 40.84900
H  -11.55300 14.30800 42.66500
H  -13.40300 16.65300 43.90100
H  -13.77400 15.00000 43.23000
H  -14.66600 16.29000 42.61000
H  -10.65600 14.02600 39.89900
H  -12.23800 14.54300 39.82100
H  -12.17100 12.32100 41.79900
H  -10.97200 11.91300 40.53700
H  -12.59700 12.05100 40.09400
H  -6.99400 12.82600 42.43500
H  -5.89900 13.35700 43.77600
H  -5.16900 13.10800 42.21200
H  -3.39100 18.01900 41.15200
H  -3.77600 19.50200 46.21100
H  -2.18800 19.23500 45.58500
H  -3.21600 17.87800 46.31500

