158

Mg 7.87400 2.20200 27.87100
C  9.72700 0.83800 30.60200
C  6.11700 4.14300 30.05500
C  6.23300 3.44400 25.14300
C  9.40300 -0.31800 25.78900
N  7.94600 2.44400 30.04500
C  8.85000 1.94400 30.91300
C  8.70900 2.54400 32.28200
C  7.34400 3.32900 32.18800
C  7.04800 3.25700 30.62800
C  6.17700 2.68500 33.01800
C  9.89400 3.42400 32.68500
C  10.34500 3.05400 34.14300
H  10.35500 4.25200 35.09100
N  6.37000 3.66400 27.65200
C  5.80200 4.37100 28.67200
C  4.99900 5.42100 28.13100
C  4.88300 5.07100 26.75800
C  5.87500 4.04400 26.42500
C  4.18800 6.36000 28.98200
C  3.91000 5.67900 25.69100
O  3.90400 5.39800 24.51200
C  2.95800 6.71900 26.17400
N  7.75300 1.57600 25.76500
C  7.07800 2.42800 24.84000
C  7.37800 1.84100 23.48000
C  8.53000 0.81000 23.64600
C  8.54800 0.67600 25.16900
C  6.06400 1.28600 22.77300
C  9.93200 1.26700 23.23100
C  10.83400 0.18200 22.60700
N  9.20300 0.54300 28.07400
C  9.79100 -0.35800 27.17300
C  10.60400 -1.29000 27.90800
C  10.78200 -0.83400 29.23900
C  9.83200 0.25800 29.29900
C  11.22800 -2.40700 27.32000
C  11.42600 -0.92100 30.52100
O  12.39600 -1.65000 30.77900
C  10.81200 0.13500 31.47400
C  10.30000 -0.51200 32.63900
O  9.19800 -1.03900 32.58400
O  10.97100 -0.13200 33.73300
C  10.44700 -0.54800 35.08000
H  5.52500 4.71000 30.77800
H  5.82900 3.96700 24.27400
H  9.94500 -0.99000 25.11900
H  8.57100 1.84200 33.10400
H  7.47000 4.33400 32.59200
H  6.61500 1.90300 33.63900
H  5.49000 2.13600 32.37400
H  5.67200 3.43900 33.62100
H  9.76000 4.50200 32.59900
H  10.71200 3.17900 32.00700
H  11.38700 2.78800 33.96800
H  9.79700 2.26100 34.65200
H  3.15000 6.06400 29.13400
H  4.21800 7.39800 28.64900
H  4.59600 6.34700 29.99200
H  2.32700 6.97200 25.32200
H  3.55200 7.61000 26.37700
H  2.44600 6.34000 27.05800
H  7.72100 2.71800 22.93000
H  8.31900 -0.20300 23.30200
H  6.00900 0.20700 22.91600
H  5.97700 1.56900 21.72400
H  5.13400 1.62400 23.23100
H  10.40900 1.79500 24.05700
H  9.80500 1.98500 22.42100
H  11.34100 0.59900 21.73700
H  10.29700 -0.72000 22.31100
H  11.62600 -0.10500 23.29800
H  11.90100 -2.93000 27.99900
H  11.89400 -2.00200 26.55800
H  10.43000 -3.01800 26.89600
H  11.63100 0.83400 31.64100
H  11.25700 -0.95300 35.68800
H  9.74800 -1.38100 35.15800
H  10.00200 0.24200 35.68400
Mg 26.84100 50.22100 27.02000
C  24.87300 51.29800 29.63700
C  29.20500 49.07000 29.12100
C  28.74000 49.37300 24.24800
C  24.38300 51.51000 24.77600
N  26.97500 50.21800 29.12600
C  25.97200 50.56800 30.07500
C  26.28700 50.07400 31.50200
C  27.79600 49.57400 31.31100
C  28.01700 49.62300 29.75900
C  28.84000 50.42100 32.04500
C  25.22000 49.06900 32.09300
C  24.64300 49.36200 33.52600
H  25.59800 49.96800 34.64100
N  28.75700 49.51400 26.73400
C  29.60800 49.04800 27.70600
C  30.80200 48.45600 27.13800
C  30.75400 48.80100 25.74900
C  29.38100 49.25500 25.50900
C  31.87700 47.74900 27.96200
C  31.81000 48.62300 24.63900
O  31.56100 48.87600 23.45800
C  33.20800 48.17700 24.95100
N  26.58600 50.39200 24.85200
C  27.43000 49.87100 23.99600
C  26.78800 49.82600 22.54600
C  25.54900 50.73700 22.67900
C  25.46100 50.82700 24.18500
C  27.77300 50.36700 21.45600
C  24.28400 50.31300 21.94800
C  23.52200 49.12500 22.53600
N  25.03900 51.22300 27.17500
C  24.17800 51.65700 26.13600
C  23.06000 52.33600 26.76400
C  23.33100 52.26500 28.14200
C  24.51000 51.55200 28.31300
C  21.95900 53.05900 26.12000
C  22.76900 52.57700 29.45200
O  21.74300 53.17400 29.76400
C  23.82900 51.98500 30.55400
C  24.20700 52.93300 31.65000
O  25.08200 53.80900 31.52700
O  23.40600 52.71800 32.76700
C  23.54800 53.84400 33.67200
H  29.95900 48.71200 29.82500
H  29.20900 49.00600 23.33200
H  23.67800 51.91600 24.04800
H  26.34700 50.95200 32.14500
H  28.00300 48.60000 31.75600
H  28.87100 50.21600 33.11500
H  28.61100 51.47300 31.87700
H  29.84600 50.17800 31.70400
H  25.52200 48.02700 31.98800
H  24.33400 49.15200 31.46400
H  24.40200 48.36200 33.88600
H  23.69000 49.87700 33.40900
H  31.49300 47.35700 28.90400
H  32.54900 48.53900 28.29800
H  32.28700 46.87800 27.45200
H  33.26900 47.10900 24.73900
H  33.49500 48.36300 25.98600
H  33.88000 48.56500 24.18500
H  26.60100 48.77300 22.33300
H  25.86800 51.75100 22.44000
H  28.73800 50.61800 21.89500
H  27.49600 51.28300 20.93200
H  28.03300 49.57300 20.75600
H  24.75600 49.96700 21.02800
H  23.61200 51.11100 21.63000
H  23.68800 48.25800 21.89700
H  22.44500 49.29200 22.50000
H  23.86700 48.84600 23.53200
H  20.99800 52.62900 26.40400
H  21.85100 53.06700 25.03500
H  21.96500 54.09400 26.46100
H  23.22500 51.23200 31.06100
H  23.33100 54.68000 33.00800
H  24.54000 54.04300 34.07900
H  22.81800 53.79200 34.48000

