158

Mg 6.33100 54.20700 40.86300
C  5.77200 50.59600 41.07100
C  9.59100 53.33400 39.95100
C  6.64400 57.25500 39.77500
C  3.06300 54.57600 41.77800
N  7.40500 52.24800 40.35500
C  7.00000 50.96800 40.40400
C  8.07800 49.95600 40.10300
C  9.41900 50.81400 40.37100
C  8.81200 52.25500 40.27000
C  10.23300 50.53100 41.66600
C  8.03300 49.25000 38.66000
C  7.17600 49.97500 37.60900
H  6.57800 49.19200 36.45900
N  7.96400 55.23900 40.01700
C  9.23300 54.72600 39.80300
C  10.01100 55.81500 39.46700
C  9.21400 56.92500 39.33400
C  7.85400 56.49500 39.64600
C  11.50300 55.73300 39.11400
C  9.76400 58.23900 38.88100
O  10.94000 58.52800 38.62400
C  8.83000 59.33600 38.75400
N  4.93900 55.68900 40.50100
C  5.33100 56.91300 40.19200
C  4.12600 57.90500 40.37500
C  2.93000 56.95200 40.78900
C  3.64600 55.64800 41.07200
C  4.32500 59.07400 41.35100
C  1.85100 56.79900 39.69400
C  0.54800 57.45900 39.87100
N  4.72700 53.00300 41.56600
C  3.51000 53.28500 41.99400
C  2.93300 52.08800 42.60000
C  3.69800 51.00600 42.15900
C  4.81400 51.61600 41.50400
C  1.62600 52.14700 43.34000
C  3.79200 49.57100 42.06400
O  3.05300 48.67400 42.47100
C  5.24000 49.22500 41.42000
C  4.92400 48.18700 40.44000
O  4.45000 48.46300 39.32100
O  5.30200 46.87600 40.77400
C  5.03400 45.78600 39.92000
H  10.64100 53.19800 39.68000
H  6.63600 58.30400 39.47300
H  2.07500 54.85300 42.15000
H  7.98600 49.14600 40.82600
H  10.15400 50.67700 39.57800
H  10.38100 51.52100 42.09700
H  11.15800 50.10500 41.27600
H  9.74300 49.94100 42.44000
H  7.75500 48.21000 38.83400
H  9.03600 49.05700 38.28000
H  7.77800 50.79900 37.22500
H  6.34800 50.54200 38.03400
H  11.44400 55.84100 38.03100
H  11.98700 54.76000 39.19300
H  12.02900 56.49800 39.68500
H  8.54200 59.65200 39.75600
H  8.00400 58.93300 38.16600
H  9.24300 60.16300 38.17500
H  3.87600 58.29600 39.38800
H  2.37100 57.22500 41.68400
H  5.38200 59.27900 41.52300
H  3.68900 58.86000 42.21000
H  3.94000 59.95100 40.83100
H  1.76000 55.75000 39.41200
H  2.26400 57.32200 38.83200
H  -0.24800 56.96600 39.31300
H  0.56400 58.41400 39.34700
H  0.24400 57.61600 40.90600
H  0.99800 51.25600 43.36700
H  1.04500 53.00300 43.00000
H  1.89900 52.42300 44.35900
H  5.88500 48.81800 42.19900
H  4.16600 45.22400 40.26600
H  5.85200 45.06700 39.97800
H  4.94100 46.07400 38.87300
Mg -1.52200 34.68800 27.35000
C  -3.28600 32.77200 29.99800
C  -0.29000 36.63600 29.80000
C  -0.84800 36.68400 24.97500
C  -3.41100 32.63600 25.07800
N  -1.84300 34.71100 29.68600
C  -2.49000 33.86100 30.49000
C  -2.18000 34.19000 32.00200
C  -1.24500 35.43000 31.89200
C  -1.10000 35.64600 30.36400
C  -1.68200 36.67800 32.65800
C  -1.45100 33.07200 32.77000
C  -2.21900 32.18400 33.72700
H  -1.69200 32.08700 35.21000
N  -0.57700 36.33200 27.39900
C  -0.08300 37.03200 28.49000
C  0.58900 38.22100 27.98300
C  0.46600 38.25500 26.57100
C  -0.35600 37.07300 26.26500
C  1.54200 39.06400 28.84400
C  1.04400 39.20900 25.59600
O  0.95800 39.09500 24.36600
C  1.57700 40.43700 26.04100
N  -2.14100 34.65300 25.26200
C  -1.62400 35.63000 24.51200
C  -1.96700 35.37300 23.00100
C  -2.48600 33.91700 23.06600
C  -2.69800 33.70200 24.54200
C  -3.01500 36.38300 22.44800
C  -1.53900 32.80600 22.41800
C  -0.34800 32.33300 23.36000
N  -2.99200 32.99200 27.46600
C  -3.59500 32.39200 26.44400
C  -4.30600 31.23500 26.91400
C  -4.31200 31.31700 28.37700
C  -3.44800 32.44100 28.62900
C  -4.97500 30.20400 25.95600
C  -4.79900 30.78500 29.64900
O  -5.47100 29.78000 29.89500
C  -4.11500 31.71800 30.72100
C  -5.14100 32.29100 31.59500
O  -5.88800 33.20900 31.29200
O  -5.21600 31.62600 32.77700
C  -6.25900 31.92400 33.71300
H  0.32600 37.11700 30.56400
H  -0.66200 37.40500 24.17600
H  -3.72500 31.96400 24.27700
H  -3.10800 34.55400 32.44300
H  -0.23700 35.24400 32.26300
H  -2.65300 36.96200 32.25100
H  -0.80900 37.33000 32.68800
H  -1.98100 36.37600 33.66200
H  -0.56900 33.41300 33.31300
H  -1.25900 32.40500 31.93000
H  -2.14300 31.21000 33.24200
H  -3.22800 32.57500 33.85700
H  2.37800 39.50100 28.29800
H  1.95600 38.58500 29.73200
H  1.08300 40.01700 29.10900
H  1.05800 40.85800 26.90100
H  1.71100 41.11800 25.20000
H  2.57100 40.08600 26.31800
H  -0.98200 35.35600 22.53500
H  -3.40000 33.74500 22.49800
H  -2.49700 36.84200 21.60500
H  -3.37200 37.07200 23.21300
H  -3.88200 35.85400 22.05100
H  -0.98200 33.11900 21.53500
H  -1.97800 31.85900 22.10300
H  -0.32700 32.87700 24.30500
H  0.62900 32.30400 22.87600
H  -0.45600 31.34500 23.80700
H  -4.31300 29.51400 25.43300
H  -5.41500 30.67900 25.07900
H  -5.68500 29.58600 26.50500
H  -3.57000 30.99500 31.32800
H  -6.86400 32.78300 33.42200
H  -5.80100 32.19600 34.66400
H  -6.83900 31.03600 33.96400

