158

Mg 24.11600 -6.82400 46.22700
C  26.60800 -4.72900 45.10900
C  21.91800 -5.13700 43.90800
C  21.98800 -9.40800 46.23400
C  26.61200 -8.72100 47.84900
N  24.26500 -5.22800 44.69300
C  25.43300 -4.53800 44.44100
C  25.20600 -3.28700 43.54800
C  23.61300 -3.28800 43.42700
C  23.19800 -4.58700 44.07400
C  22.88100 -2.06400 44.11600
C  26.00800 -3.52700 42.16000
C  27.08800 -2.46900 41.80700
H  27.00700 -1.74800 40.50200
N  22.20300 -7.20600 45.18100
C  21.49500 -6.33100 44.40000
C  20.14700 -6.82100 44.13600
C  20.18100 -8.16100 44.69800
C  21.53100 -8.31800 45.41000
C  19.01900 -6.01500 43.41800
C  19.08500 -9.22400 44.44800
O  18.05400 -8.89900 43.86900
C  19.19300 -10.60000 44.99700
N  24.39300 -8.94600 46.66400
C  23.26500 -9.66600 46.76400
C  23.51900 -10.88700 47.64400
C  25.00800 -10.82000 48.04300
C  25.45900 -9.43300 47.46200
C  22.47700 -10.92900 48.80700
C  25.90900 -11.95500 47.49200
C  26.20500 -13.15300 48.35600
N  26.11600 -6.62100 46.64100
C  27.03100 -7.49600 47.29800
C  28.33500 -6.77600 47.26100
C  28.17700 -5.68200 46.43400
C  26.83100 -5.63500 46.07400
C  29.57200 -7.16400 48.03200
C  28.86600 -4.58500 45.85900
O  30.04700 -4.33600 45.96100
C  27.83700 -3.88800 44.96500
C  27.73000 -2.45800 45.43000
O  26.86600 -1.94500 46.15000
O  28.85300 -1.73000 45.00800
C  29.03600 -0.35400 45.35500
H  21.15500 -4.58100 43.36000
H  21.32900 -10.24800 46.46100
H  27.27500 -9.39100 48.40000
H  25.44100 -2.30300 43.95600
H  23.39700 -3.24700 42.35900
H  22.32400 -1.47300 43.38800
H  23.63100 -1.45500 44.62100
H  22.15800 -2.39900 44.86000
H  25.29300 -3.66300 41.34900
H  26.53500 -4.48100 42.16400
H  28.12600 -2.80200 41.81000
H  26.97300 -1.67100 42.54100
H  18.04500 -6.37500 43.75000
H  19.20000 -6.11200 42.34800
H  19.13800 -4.96100 43.66700
H  20.19200 -10.94700 44.73300
H  18.51400 -11.31500 44.53200
H  19.02000 -10.76000 46.06100
H  23.42200 -11.73000 46.96000
H  25.07500 -10.86900 49.13000
H  22.92900 -10.66900 49.76400
H  22.11600 -11.95300 48.71200
H  21.69700 -10.17600 48.69000
H  26.86400 -11.48700 47.25500
H  25.37700 -12.27800 46.59700
H  26.06300 -14.05500 47.76100
H  25.61000 -13.19600 49.26800
H  27.22500 -13.14500 48.73800
H  29.27300 -7.85300 48.82100
H  30.06100 -6.27800 48.43700
H  30.29800 -7.59600 47.34300
H  28.21700 -3.84800 43.94400
H  30.11000 -0.18800 45.26400
H  28.81800 -0.21200 46.41300
H  28.39600 0.31000 44.77400
Mg 26.04900 51.04800 26.64600
C  23.76000 51.92200 29.25300
C  28.33300 50.23500 29.02900
C  28.35700 51.00000 24.15300
C  23.66800 52.32900 24.25800
N  26.05200 51.28500 28.88000
C  25.04800 51.58200 29.74300
C  25.45100 51.42600 31.16900
C  26.96100 51.10100 31.12300
C  27.16300 50.82900 29.56300
C  28.02100 52.14000 31.66600
C  24.62400 50.22700 31.92600
C  23.88400 50.64100 33.14900
H  24.71200 51.11800 34.31300
N  28.09200 50.51000 26.58600
C  28.83700 50.13300 27.70800
C  30.10600 49.76200 27.30500
C  30.24300 50.18100 25.88700
C  28.90700 50.64900 25.48600
C  31.18200 49.25700 28.30500
C  31.44400 50.22900 25.04900
O  31.35000 50.67700 23.96400
C  32.66800 49.88700 25.60200
N  25.96900 51.60400 24.55300
C  27.05700 51.40200 23.73300
C  26.78600 51.78500 22.23800
C  25.26900 52.11200 22.26300
C  24.93800 51.94600 23.79100
C  27.79900 52.91400 21.78200
C  24.35400 51.36200 21.31800
C  23.96500 52.03300 19.94600
N  24.07300 51.85100 26.64900
C  23.20300 52.28200 25.61600
C  21.94600 52.76400 26.24200
C  22.12800 52.52600 27.60600
C  23.43500 52.03100 27.82400
C  20.74300 53.23800 25.46500
C  21.42100 52.66800 28.92500
O  20.27100 53.02200 29.21300
C  22.58100 52.53600 30.03100
C  22.78300 53.83300 30.75200
O  23.07900 54.88200 30.20400
O  22.60600 53.66800 32.09900
C  22.61900 54.86400 32.96400
H  28.90700 49.79500 29.84700
H  29.02600 51.07300 23.29200
H  22.94600 52.68500 23.52000
H  25.29100 52.39100 31.65000
H  27.26700 50.16600 31.59100
H  28.45800 51.62200 32.52000
H  27.54500 52.99400 32.14800
H  28.84100 52.40900 31.00000
H  25.25400 49.35000 32.07400
H  24.05900 49.83900 31.07900
H  23.18600 49.83900 33.39100
H  23.36500 51.55400 32.85900
H  30.67800 48.79000 29.15100
H  31.79900 50.08100 28.66300
H  31.70800 48.41000 27.86400
H  33.51000 50.23700 25.00600
H  32.63000 48.80400 25.72300
H  32.79800 50.46400 26.51700
H  26.92100 50.89200 21.62800
H  25.16000 53.10400 21.82400
H  28.45800 52.53600 21.00000
H  28.39400 53.13500 22.66800
H  27.27600 53.77200 21.35900
H  23.38100 51.17600 21.77200
H  24.65700 50.34300 21.07800
H  23.83600 51.26300 19.18500
H  24.77700 52.67100 19.59700
H  23.09100 52.67800 20.03300
H  20.90200 54.28000 25.18400
H  19.82000 53.19100 26.04200
H  20.66800 52.65900 24.54500
H  22.18200 51.92600 30.84200
H  21.60500 55.01300 33.33400
H  23.00500 55.77100 32.49800
H  23.19000 54.75200 33.88600

