158

Mg 25.10900 1.25200 30.27300
C  27.56000 1.19700 32.65800
C  22.64900 1.63200 32.71200
C  22.73400 1.25200 27.84800
C  27.54200 1.04300 27.86500
N  25.08700 1.47200 32.45200
C  26.27800 1.52900 33.17900
C  25.98900 1.91700 34.59600
C  24.33500 2.15000 34.56900
C  23.98700 1.74700 33.21600
C  23.65900 1.34700 35.67200
C  26.82700 2.98600 35.33600
C  26.12600 3.53400 36.56000
H  26.00700 2.74600 37.86800
N  22.99200 1.24700 30.29500
C  22.15200 1.45300 31.37500
C  20.74900 1.44100 30.88700
C  20.74600 1.23300 29.47700
C  22.20300 1.21900 29.12400
C  19.63100 1.40200 31.88000
C  19.61700 1.07800 28.52300
O  19.74300 0.77900 27.29500
C  18.25500 1.27400 29.02700
N  25.13600 1.12300 28.18700
C  24.03300 1.17400 27.40700
C  24.42900 1.60600 25.97000
C  25.93600 1.29400 25.93300
C  26.24600 1.23900 27.42700
C  23.63000 1.00600 24.80300
C  26.84300 2.37900 25.16200
C  26.96000 3.77900 25.80700
N  27.17200 0.96000 30.22400
C  28.05900 0.87700 29.17400
C  29.32700 0.58200 29.65500
C  29.19200 0.84400 31.02200
C  27.84500 0.95000 31.29200
C  30.51600 0.29400 28.77800
C  29.97400 0.99900 32.20000
O  31.17000 1.06900 32.32900
C  28.94700 1.29300 33.34600
C  29.07900 0.24300 34.31600
O  28.86500 -0.96400 34.15000
O  29.42800 0.88500 35.53800
C  29.27200 0.11900 36.77000
H  21.94300 1.87000 33.51000
H  22.01600 1.58900 27.09700
H  28.25100 1.16600 27.04300
H  26.18000 1.03800 35.21100
H  24.11600 3.21800 34.57100
H  23.30300 2.12100 36.35200
H  24.39700 0.65900 36.08300
H  22.83000 0.74400 35.30100
H  27.03000 3.73600 34.57100
H  27.73000 2.43200 35.59200
H  25.14400 3.99200 36.43500
H  26.63300 4.44900 36.86600
H  19.06500 2.33200 31.94400
H  19.88000 1.11100 32.90000
H  19.02400 0.53900 31.60700
H  17.99100 0.35700 29.55500
H  17.55800 1.45800 28.21000
H  18.12900 2.05300 29.77900
H  24.18500 2.66600 25.91100
H  26.04200 0.32800 25.43900
H  24.35900 0.71600 24.04600
H  22.92600 1.64000 24.26400
H  23.15000 0.08000 25.11900
H  26.18800 2.57000 24.31300
H  27.75700 1.85400 24.88200
H  26.24800 3.87500 26.62700
H  26.75700 4.59700 25.11600
H  27.91800 3.91600 26.30700
H  31.14100 -0.57100 29.00100
H  31.23800 1.10200 28.88900
H  30.16300 0.28600 27.74700
H  29.21900 2.22100 33.84800
H  28.85500 -0.85100 36.49800
H  28.75300 0.66100 37.56100
H  30.26600 -0.09800 37.16000
Mg 42.04100 41.97800 27.42100
C  40.80600 44.04600 30.09300
C  43.00800 39.76200 29.90400
C  43.39000 40.14500 25.01100
C  41.24100 44.49700 25.18500
N  41.95600 41.96100 29.76900
C  41.36700 42.89700 30.59100
C  41.57000 42.55000 32.06100
C  42.40100 41.22900 31.97000
C  42.45100 40.90100 30.46600
C  43.77700 41.32200 32.69200
C  40.24800 42.41000 32.90300
C  40.16700 43.15000 34.24700
H  39.65800 42.24100 35.36200
N  42.97400 40.14800 27.45700
C  43.28300 39.41600 28.58100
C  43.97700 38.24800 28.12500
C  43.86200 38.18900 26.72800
C  43.44500 39.58400 26.34600
C  44.54300 37.25900 29.13200
C  44.07100 37.01600 25.85600
O  43.97000 37.08400 24.63600
C  44.49200 35.57700 26.28600
N  42.29200 42.29500 25.38900
C  42.86900 41.31800 24.60300
C  42.80500 41.75300 23.16200
C  41.87600 42.97800 23.12500
C  41.76300 43.30900 24.64600
C  44.18100 41.97200 22.47600
C  40.47100 42.76400 22.46400
C  39.43400 41.83000 23.05300
N  41.28900 43.94200 27.57700
C  41.01100 44.82700 26.55200
C  40.48800 46.04000 27.11700
C  40.33900 45.74000 28.48800
C  40.85600 44.45900 28.73300
C  39.98200 47.21300 26.45600
C  39.93400 46.32400 29.72400
O  39.49300 47.47000 29.99300
C  40.34300 45.27300 30.83100
C  41.39100 45.91100 31.60900
O  42.54200 46.03400 31.31000
O  40.88700 46.18300 32.88800
C  41.86100 46.90600 33.83600
H  43.46000 39.20100 30.72400
H  43.65500 39.46000 24.20300
H  41.04800 45.26400 24.43300
H  42.18900 43.37300 32.41900
H  41.87300 40.45700 32.52900
H  44.61100 41.18100 32.00500
H  43.79800 40.58500 33.49500
H  43.77100 42.32700 33.11400
H  39.98700 41.35600 32.99000
H  39.41700 42.82000 32.32800
H  39.71800 44.14200 34.20800
H  41.25300 43.22400 34.31600
H  45.08200 37.82400 29.89200
H  45.22500 36.51300 28.72500
H  43.68300 36.73300 29.54700
H  43.80500 35.36800 27.10600
H  45.54300 35.59800 26.57500
H  44.44200 34.93600 25.40500
H  42.37300 40.93700 22.58200
H  42.32800 43.90700 22.78000
H  44.93400 41.77500 23.23900
H  44.42700 42.95700 22.08000
H  44.31000 41.16700 21.75300
H  40.72500 42.32400 21.49900
H  39.87400 43.67300 22.38700
H  38.98100 41.16200 22.32000
H  38.60900 42.42400 23.44700
H  39.86600 41.25500 23.87200
H  38.92100 47.18900 26.20800
H  40.58900 47.56600 25.62300
H  40.22300 48.09400 27.05000
H  39.51000 45.03100 31.49200
H  41.31200 47.77600 34.19800
H  42.79100 47.18800 33.34100
H  42.09100 46.23500 34.66300

