158

Mg 2.39500 -1.09200 45.00600
C  5.65000 -0.25300 43.86800
C  1.18100 1.73700 43.58400
C  -0.73800 -2.43800 45.16600
C  3.65400 -4.26000 45.95200
N  3.35400 0.45800 43.67600
C  4.70300 0.71400 43.50800
C  4.86700 2.12500 42.76000
C  3.49300 2.81900 43.01900
C  2.57800 1.65300 43.46400
C  3.45100 4.02500 43.95900
C  5.25100 1.77000 41.23100
C  6.64000 2.35300 40.88700
H  6.72600 3.34900 39.73200
N  0.47100 -0.44100 44.50000
C  0.19500 0.69800 43.97600
C  -1.21300 0.84600 43.74000
C  -1.90100 -0.33700 44.11900
C  -0.67800 -1.18300 44.57300
C  -1.87800 2.02300 43.12700
C  -3.37100 -0.63700 44.04600
O  -4.07400 0.19500 43.56700
C  -3.90200 -1.89100 44.60400
N  1.52700 -3.15600 45.61200
C  0.19100 -3.38500 45.69100
C  -0.03500 -4.91400 45.81500
C  1.42200 -5.48800 46.20600
C  2.28500 -4.27000 45.88700
C  -1.08500 -5.24800 46.89600
C  1.76400 -6.78200 45.39300
C  2.62700 -7.77400 46.21100
N  4.23700 -2.03800 44.96800
C  4.55900 -3.27300 45.45800
C  5.98500 -3.43600 45.39700
C  6.49200 -2.23000 44.77700
C  5.35100 -1.45200 44.52500
C  6.74500 -4.62100 45.80700
C  7.73900 -1.48900 44.35300
O  8.88800 -1.81400 44.36800
C  7.16000 -0.21600 43.72200
C  7.77400 0.94700 44.39700
O  8.72500 1.53300 43.95400
O  7.02900 1.31900 45.55800
C  7.52900 2.51100 46.29900
H  0.80900 2.70100 43.23100
H  -1.69500 -2.88300 45.44500
H  4.08400 -5.10400 46.49400
H  5.65200 2.55600 43.38100
H  3.15300 3.13000 42.03100
H  4.22800 3.91300 44.71400
H  2.44000 3.97400 44.36400
H  3.48400 4.99700 43.46600
H  4.48600 2.21000 40.59000
H  5.20900 0.69900 41.03200
H  7.30600 1.52800 40.63500
H  7.07700 2.88600 41.73100
H  -2.72400 2.29700 43.75700
H  -2.18800 1.63100 42.15800
H  -1.16400 2.84400 43.05600
H  -4.98900 -1.87400 44.52600
H  -3.50400 -1.89900 45.61900
H  -3.53500 -2.82200 44.17200
H  -0.34900 -5.17300 44.80400
H  1.39900 -5.69700 47.27500
H  -1.94900 -5.66000 46.37500
H  -1.43300 -4.33300 47.37600
H  -0.83700 -5.93900 47.70100
H  2.31000 -6.60700 44.46600
H  0.82800 -7.29400 45.17200
H  1.97900 -8.53700 46.64200
H  3.09200 -7.30500 47.07800
H  3.40000 -8.30200 45.65300
H  6.50100 -4.95200 46.81600
H  7.82700 -4.48900 45.79800
H  6.51000 -5.36200 45.04300
H  7.38600 -0.19900 42.65600
H  6.54600 2.96900 46.18700
H  8.29900 3.13500 45.84400
H  7.73000 2.35100 47.35900
Mg 50.73400 45.12700 42.62700
C  47.61800 46.28000 41.34800
C  50.10200 42.15200 40.90100
C  53.94000 44.33000 43.18500
C  51.41400 48.51600 43.52900
N  49.12400 44.38500 41.10400
C  47.92100 44.95600 40.96800
C  46.98600 44.05200 40.11300
C  47.73200 42.66500 40.14500
C  49.03600 43.10000 40.73300
C  46.91600 41.53500 40.85300
C  46.71700 44.66200 38.73300
C  45.21400 44.93900 38.46600
H  44.65300 43.89500 37.40400
N  51.88300 43.47700 42.18700
C  51.45400 42.33100 41.42200
C  52.58100 41.42900 41.31300
C  53.63900 41.99100 42.04400
C  53.20000 43.28400 42.56500
C  52.55700 40.13000 40.58200
C  54.96500 41.25600 42.29700
O  55.20200 40.27000 41.60400
C  55.95300 41.65100 43.36700
N  52.38700 46.25500 43.38300
C  53.59100 45.68600 43.42700
C  54.62400 46.71800 43.92000
C  53.77200 48.00300 44.24300
C  52.44600 47.56700 43.63000
C  55.61700 46.33900 45.01100
C  54.41300 49.38400 43.76500
C  55.38600 50.09500 44.71300
N  49.69500 46.94900 42.63900
C  50.11400 48.18700 43.11100
C  49.00200 49.16000 42.91600
C  48.04400 48.42100 42.23600
C  48.44800 47.09500 42.16800
C  48.97500 50.66400 43.27700
C  46.69400 48.54500 41.61300
O  45.89600 49.54200 41.34000
C  46.31300 47.12100 41.02200
C  45.09400 46.59200 41.72100
O  45.01200 45.90000 42.72700
O  44.00200 46.82600 40.94400
C  42.67500 46.38600 41.33600
H  50.03300 41.14600 40.48000
H  54.98700 44.02500 43.24200
H  51.55100 49.53400 43.90000
H  46.09800 43.87700 40.72200
H  47.86400 42.33100 39.11600
H  46.55600 40.85600 40.08000
H  46.09700 41.93400 41.45200
H  47.52700 40.92900 41.52200
H  47.07900 44.08000 37.88500
H  47.29600 45.57600 38.60800
H  45.14500 45.94600 38.05400
H  44.52500 44.82000 39.30200
H  53.27100 39.94500 39.77900
H  51.56300 39.98900 40.15900
H  52.65900 39.30200 41.28300
H  55.39600 42.02900 44.22400
H  56.60900 42.42400 42.96700
H  56.54100 40.74900 43.53900
H  55.30100 46.95300 43.09800
H  53.61400 48.06300 45.32000
H  55.55000 46.72800 46.02700
H  56.60300 46.45400 44.56000
H  55.49700 45.27400 45.20600
H  53.65900 50.08000 43.39900
H  54.90200 49.37000 42.79100
H  55.86600 49.45300 45.45100
H  54.92700 50.84700 45.35500
H  56.00900 50.66900 44.02800
H  48.13300 50.99400 43.88500
H  48.83900 51.13200 42.30200
H  49.90600 51.09000 43.65400
H  46.22900 47.12300 39.93500
H  42.30700 47.02200 42.14100
H  42.72500 45.38800 41.77100
H  41.97800 46.32100 40.50000

