158

Mg 6.47600 57.00700 41.62800
C  6.03400 53.36500 41.83800
C  9.58600 56.22300 40.28100
C  6.83400 60.14800 40.98000
C  3.28000 57.18300 42.80000
N  7.60400 54.95100 40.97600
C  7.22000 53.66300 41.11100
C  8.32300 52.68600 40.65700
C  9.59700 53.62200 40.52700
C  8.93800 55.04800 40.64000
C  10.77100 53.46300 41.61200
C  7.82500 52.02900 39.27900
C  8.04300 50.51600 39.04300
H  7.70700 49.89900 37.64500
N  7.96000 58.00100 40.65100
C  9.18500 57.59100 40.25700
C  9.92100 58.73200 39.60100
C  9.10100 59.92400 39.70600
C  7.89100 59.42100 40.48400
C  11.30100 58.56400 39.11000
C  9.36900 61.29200 39.16600
O  10.31500 61.49200 38.39400
C  8.47700 62.48600 39.48600
N  5.19000 58.43500 41.61000
C  5.63200 59.73900 41.58900
C  4.59500 60.69500 42.22500
C  3.36700 59.75900 42.64800
C  3.95600 58.34200 42.34000
C  5.35300 61.56400 43.30900
C  1.99500 60.05700 41.89900
C  1.79900 61.47600 41.18900
N  5.01000 55.60000 42.36100
C  3.72400 55.88200 42.79100
C  3.12700 54.70500 43.34900
C  3.99100 53.67800 43.00300
C  5.13500 54.29700 42.38200
C  1.84400 54.65700 44.12900
C  4.14000 52.23500 43.05200
O  3.41200 51.36200 43.47900
C  5.44500 51.92500 42.14800
C  5.01300 51.09500 40.99500
O  4.23400 51.48200 40.12100
O  5.43900 49.79300 41.16100
C  4.88100 48.81300 40.22000
H  10.64200 56.16400 40.01000
H  6.75900 61.22500 40.81500
H  2.35600 57.25000 43.37800
H  8.46700 51.88900 41.38700
H  10.04500 53.61200 39.53300
H  10.67200 52.59400 42.26300
H  10.87600 54.37700 42.19700
H  11.75500 53.43200 41.14300
H  8.48400 52.45100 38.52000
H  6.80700 52.38900 39.12900
H  7.50400 50.03800 39.86000
H  9.08700 50.23900 39.18800
H  11.97100 58.04000 39.79100
H  11.62900 59.58300 38.90300
H  11.40700 58.09200 38.13300
H  8.35100 62.46900 40.56800
H  7.53600 62.55800 38.94100
H  8.98600 63.41200 39.22000
H  4.25400 61.42800 41.49400
H  3.24200 59.85200 43.72600
H  6.41100 61.30700 43.26500
H  5.02400 61.26400 44.30400
H  5.17500 62.62800 43.14800
H  1.17100 59.92200 42.60000
H  1.93400 59.28600 41.13100
H  2.43700 61.69500 40.33300
H  1.80000 62.33300 41.86200
H  0.77400 61.30900 40.85800
H  1.18000 55.50800 43.97200
H  2.12900 54.68000 45.18000
H  1.35600 53.69100 43.99400
H  6.22700 51.36900 42.66400
H  4.04000 49.10900 39.59300
H  4.60500 48.00900 40.90100
H  5.60500 48.46900 39.48100
Mg -4.97700 24.27600 25.90900
C  -3.44400 26.18000 28.48000
C  -6.21600 22.19800 28.42300
C  -6.65100 22.73600 23.60900
C  -3.71200 26.57800 23.64000
N  -4.91600 24.30700 28.12300
C  -4.25100 25.15700 28.91200
C  -4.65700 24.90600 30.36800
C  -5.06400 23.45200 30.38800
C  -5.41400 23.29200 28.87100
C  -4.11600 22.41800 30.92800
C  -5.67800 25.98700 30.87900
C  -5.48400 26.41200 32.29100
H  -4.92000 25.40600 33.31600
N  -6.33900 22.67200 26.07000
C  -6.58300 21.87900 27.11100
C  -7.44600 20.77500 26.67000
C  -7.59800 20.88500 25.22700
C  -6.86300 22.11100 24.91600
C  -7.97800 19.66900 27.66100
C  -8.20900 19.90600 24.20500
O  -8.30900 20.17800 23.02800
C  -8.41600 18.49700 24.77100
N  -5.19700 24.60900 23.90600
C  -6.05400 23.90300 23.15300
C  -6.16900 24.43000 21.72900
C  -5.15400 25.55400 21.70700
C  -4.69900 25.63800 23.16400
C  -5.87300 23.33200 20.64500
C  -5.65300 26.94500 21.19100
C  -4.81400 27.74800 20.23500
N  -3.75600 25.92800 25.91700
C  -3.25200 26.78800 24.94000
C  -2.55300 27.87600 25.49800
C  -2.52100 27.56000 26.86500
C  -3.32300 26.40100 27.10800
C  -1.82200 28.95800 24.85800
C  -2.00500 28.06700 28.10400
O  -1.28000 29.01800 28.44200
C  -2.66400 27.27700 29.18200
C  -1.64500 26.83000 30.21800
O  -0.54700 26.36400 29.95500
O  -2.07000 27.09200 31.49100
C  -1.09900 26.88500 32.57600
H  -6.68200 21.56300 29.18000
H  -7.12900 22.22200 22.77200
H  -3.28800 27.27200 22.91200
H  -3.78400 24.90500 31.02100
H  -5.94600 23.46200 31.02800
H  -3.39400 22.03700 30.20600
H  -4.78400 21.60100 31.20300
H  -3.59300 22.77100 31.81600
H  -6.68500 25.57700 30.80200
H  -5.60700 26.88100 30.25900
H  -6.37900 26.82800 32.75400
H  -4.81100 27.26600 32.21200
H  -8.98000 19.27800 27.48500
H  -8.11800 20.11500 28.64600
H  -7.33900 18.79800 27.80500
H  -7.45800 18.22900 25.21700
H  -8.43700 17.78200 23.94800
H  -9.32200 18.36600 25.36300
H  -7.12800 24.91100 21.53600
H  -4.28000 25.36700 21.08300
H  -5.26800 23.73700 19.83400
H  -6.80400 22.85100 20.34600
H  -5.47100 22.44500 21.13400
H  -6.00700 27.50900 22.05400
H  -6.53400 26.80400 20.56400
H  -4.83600 28.79700 20.53000
H  -5.25200 27.72500 19.23700
H  -3.72700 27.66900 20.18900
H  -0.75600 28.73300 24.88700
H  -1.94000 29.85200 25.47100
H  -2.09700 29.25800 23.84700
H  -3.38100 27.97000 29.62300
H  -0.75700 25.85900 32.71200
H  -1.70700 27.23000 33.41200
H  -0.27700 27.59300 32.67800

