158

Mg 25.98300 0.86800 29.61100
C  27.98500 0.70200 32.42500
C  23.24500 1.15900 31.65400
C  24.17600 0.93500 26.76800
C  28.79700 0.09000 27.62200
N  25.67500 1.01900 31.84500
C  26.64500 1.03100 32.78200
C  26.15700 1.54300 34.10700
C  24.62000 1.27500 33.97700
C  24.44400 1.26100 32.40300
C  24.01800 0.02000 34.70800
C  26.54400 3.01900 34.50300
C  27.29500 3.11000 35.88000
H  26.59500 3.80100 37.02900
N  23.99900 0.90400 29.27800
C  23.00800 1.03300 30.26900
C  21.76000 1.13200 29.64100
C  22.02900 1.19400 28.23600
C  23.46600 0.98300 28.01300
C  20.40600 1.21000 30.43300
C  20.96300 1.21300 27.10300
O  21.25600 1.04700 25.90500
C  19.54400 1.67400 27.52900
N  26.49900 0.84300 27.39100
C  25.55300 0.74100 26.50200
C  26.15000 0.49300 25.09600
C  27.66000 0.32800 25.38000
C  27.68900 0.46700 26.86900
C  25.42400 -0.65400 24.39400
C  28.73500 1.27100 24.66200
C  29.52700 0.62800 23.49100
N  27.96400 0.42600 29.89900
C  28.96100 0.11300 29.03600
C  30.21600 -0.23500 29.80800
C  29.89300 0.16900 31.08800
C  28.50900 0.39100 31.16000
C  31.60900 -0.59500 29.28700
C  30.42600 0.33400 32.48100
O  31.53800 0.29600 32.93000
C  29.16800 0.71500 33.39500
C  29.01800 -0.21400 34.54000
O  28.68300 -1.38400 34.45500
O  29.36100 0.46300 35.67000
C  29.19700 -0.36700 36.84700
H  22.37700 1.15100 32.31700
H  23.57400 0.87800 25.85900
H  29.63700 -0.03600 26.93600
H  26.54000 0.88600 34.88700
H  23.92400 2.09200 34.16800
H  24.02100 -0.83600 34.03300
H  22.98300 0.07800 35.04700
H  24.66100 -0.04000 35.58600
H  25.69400 3.70000 34.54700
H  27.20800 3.39000 33.72300
H  28.22900 3.65000 35.72400
H  27.62000 2.10300 36.14500
H  19.97000 0.41500 29.82800
H  19.89900 2.17100 30.35800
H  20.48100 0.86200 31.46300
H  19.11200 0.79400 28.00600
H  18.99000 1.87400 26.61200
H  19.72800 2.57000 28.12200
H  26.00900 1.46700 24.62700
H  27.94300 -0.68400 25.09000
H  24.89700 -1.25200 25.13800
H  26.13500 -1.29600 23.87500
H  24.67600 -0.22300 23.72800
H  29.49100 1.51800 25.40700
H  28.24800 2.19100 24.33800
H  29.61400 1.33000 22.66200
H  29.01400 -0.28400 23.18500
H  30.55200 0.38500 23.77000
H  32.27600 -0.07700 29.97600
H  31.80600 -0.37500 28.23800
H  31.72400 -1.67400 29.38900
H  29.28000 1.70100 33.84700
H  28.15100 -0.28200 37.14100
H  29.83500 -0.04300 37.67000
H  29.48600 -1.41600 36.78000
Mg 47.74700 35.04200 27.12800
C  46.15100 33.26800 29.81600
C  48.08600 37.68500 29.19900
C  48.80200 36.76800 24.52600
C  47.42200 32.11900 25.18600
N  47.37900 35.28800 29.31000
C  46.78300 34.44700 30.21900
C  46.97100 35.00500 31.64700
C  47.28500 36.51300 31.30200
C  47.63800 36.49700 29.81700
C  46.15900 37.47500 31.71400
C  48.18100 34.24300 32.30600
C  48.66300 34.75000 33.71700
H  47.83700 35.70500 34.50700
N  48.35500 36.93300 26.90000
C  48.43500 37.87000 27.85000
C  48.86400 39.10600 27.29500
C  49.12100 38.89500 25.86200
C  48.83700 37.42600 25.71600
C  49.10500 40.30200 28.07300
C  49.70000 39.86800 24.80000
O  50.06600 39.47400 23.68800
C  49.98600 41.31200 25.13900
N  48.17800 34.48700 25.16500
C  48.45700 35.45000 24.24800
C  48.51100 34.82800 22.81700
C  48.48100 33.33000 23.17100
C  47.96700 33.32700 24.62100
C  47.47400 35.28500 21.80200
C  49.72100 32.46100 22.86800
C  49.83400 32.08400 21.38900
N  46.87700 33.17000 27.36300
C  46.82100 32.06500 26.46300
C  46.14300 30.94000 27.12300
C  45.81100 31.47000 28.34600
C  46.28800 32.78400 28.51300
C  45.86700 29.56600 26.63400
C  44.99300 31.12000 29.51900
O  44.31900 30.08800 29.68800
C  45.16200 32.31900 30.52400
C  45.42000 31.81100 31.92900
O  46.37000 31.23500 32.36100
O  44.36600 32.36000 32.67400
C  44.43000 32.18900 34.09900
H  48.26500 38.51300 29.88800
H  48.99900 37.44200 23.68900
H  47.45200 31.28200 24.48400
H  46.05300 34.81200 32.20200
H  48.19500 36.78300 31.83700
H  45.56200 36.82200 32.35200
H  45.53600 37.91000 30.93300
H  46.65200 38.18500 32.37700
H  49.07400 34.27100 31.68100
H  47.91600 33.19400 32.43600
H  49.62700 35.25800 33.72400
H  48.75500 33.87000 34.35300
H  49.70400 41.06900 27.58400
H  49.52000 39.95400 29.02000
H  48.12000 40.70500 28.30900
H  50.33600 41.92100 24.30600
H  50.77100 41.40700 25.89000
H  49.06800 41.65300 25.61800
H  49.51000 35.04100 22.43800
H  47.70800 32.92700 22.51600
H  47.67200 36.35600 21.74200
H  46.45900 35.07200 22.13600
H  47.78100 34.75300 20.90200
H  49.70500 31.59000 23.52400
H  50.64500 33.00700 23.05900
H  49.05200 32.63700 20.86900
H  49.63700 31.01700 21.29300
H  50.84000 32.30800 21.03300
H  45.86900 28.81600 27.42600
H  46.70700 29.27800 26.00200
H  44.98100 29.55200 25.99900
H  44.27500 32.93600 30.66800
H  43.85200 33.02700 34.48900
H  45.46100 32.28800 34.44000
H  44.05900 31.21500 34.41700

