158

Mg 7.93200 3.06000 27.95800
C  9.25900 1.65800 30.89600
C  6.35400 5.32100 29.81000
C  6.29800 4.15300 25.17100
C  9.44500 0.55300 26.12400
N  7.71700 3.22900 30.14500
C  8.47400 2.77300 31.17500
C  8.39500 3.55700 32.43000
C  7.24000 4.51200 32.06600
C  7.12000 4.39200 30.54000
C  5.83600 4.25200 32.82000
C  9.76500 4.26700 32.62300
C  10.53100 3.96500 33.94100
H  10.13500 4.88800 35.10300
N  6.50800 4.51000 27.55400
C  5.99700 5.34900 28.48800
C  5.16800 6.36200 27.79800
C  5.11700 5.97700 26.44400
C  6.03200 4.83600 26.35900
C  4.64600 7.60200 28.47500
C  4.43300 6.67800 25.33300
O  4.38500 6.21400 24.22500
C  3.77100 8.07400 25.61400
N  7.87600 2.41900 25.97300
C  7.20000 3.06600 24.96100
C  7.40100 2.48500 23.59500
C  8.42700 1.29500 23.94100
C  8.59800 1.44200 25.48900
C  6.13900 2.13400 22.81800
C  9.76200 1.38500 23.24700
C  10.18400 0.09400 22.58700
N  9.23900 1.48000 28.39600
C  9.74200 0.51700 27.51600
C  10.56600 -0.41700 28.30100
C  10.42900 0.04600 29.61200
C  9.55500 1.11700 29.65400
C  11.31500 -1.58900 27.94200
C  10.88500 -0.16200 30.98900
O  11.68100 -0.92200 31.45500
C  10.03900 0.82600 31.85500
C  9.20300 0.04000 32.87200
O  8.35400 -0.78400 32.55300
O  9.54700 0.28100 34.24200
C  9.04600 -0.52500 35.35900
H  5.99400 6.19900 30.35000
H  5.77600 4.47300 24.26700
H  9.95800 -0.25500 25.59800
H  8.07900 2.83400 33.18200
H  7.52800 5.51300 32.38500
H  5.05900 4.02200 32.09100
H  5.54700 5.14300 33.37700
H  5.93600 3.32900 33.39200
H  9.63900 5.34100 32.76000
H  10.48100 4.14700 31.80900
H  11.60300 4.06100 33.76900
H  10.31400 2.92400 34.18000
H  5.00600 8.51600 28.00300
H  4.93700 7.64800 29.52400
H  3.56100 7.71300 28.45600
H  3.01500 7.89700 26.37900
H  3.22000 8.39900 24.73200
H  4.62400 8.70000 25.87800
H  7.87600 3.23800 22.96700
H  7.90900 0.38100 23.65000
H  5.23100 2.32700 23.39000
H  6.10600 1.10300 22.46600
H  6.15600 2.68500 21.87800
H  10.49700 1.81900 23.92700
H  9.64100 2.11600 22.44800
H  9.38900 -0.58200 22.27000
H  10.85300 -0.49100 23.21700
H  10.67800 0.27200 21.63200
H  11.11200 -1.77500 26.88700
H  10.90800 -2.30500 28.65600
H  12.36800 -1.42700 28.17300
H  10.85900 1.33400 32.36300
H  9.82600 -0.86900 36.03900
H  8.45700 -1.38100 35.02900
H  8.32900 0.01700 35.97500
Mg -1.24000 34.28000 26.40400
C  -2.86600 32.54600 28.96800
C  0.35800 36.16200 28.77400
C  -0.08400 35.98900 23.88700
C  -3.17300 32.40000 24.16600
N  -1.41400 34.39400 28.70500
C  -2.06000 33.55400 29.57700
C  -1.77700 33.90000 31.03900
C  -0.92700 35.19200 30.90800
C  -0.62500 35.27900 29.33000
C  -1.58800 36.46100 31.51500
C  -0.97400 32.80100 31.82400
C  -1.47700 32.69900 33.33100
H  -0.40700 32.68200 34.43900
N  0.03400 35.74000 26.35500
C  0.62000 36.41100 27.39400
C  1.66100 37.27000 26.82400
C  1.61800 37.15200 25.40200
C  0.45400 36.27600 25.16500
C  2.53100 38.13100 27.71500
C  2.50800 37.73200 24.24400
O  2.37200 37.52500 23.08600
C  3.67200 38.53100 24.64300
N  -1.71700 34.26000 24.33700
C  -1.04200 35.05600 23.51000
C  -1.55000 34.90700 22.12900
C  -2.10100 33.42500 22.15900
C  -2.35100 33.36600 23.60000
C  -2.65300 36.01600 21.65700
C  -1.02000 32.33000 21.77700
C  -0.81600 32.22600 20.19300
N  -2.73000 32.82600 26.51700
C  -3.39200 32.12400 25.50600
C  -4.32800 31.22700 26.09600
C  -4.09500 31.21700 27.47000
C  -3.15600 32.34600 27.65300
C  -5.34200 30.37000 25.47600
C  -4.45800 30.73200 28.76500
O  -5.11100 29.78800 29.19100
C  -3.73200 31.62400 29.82500
C  -4.67800 32.27200 30.72500
O  -5.47000 33.18500 30.45100
O  -4.50400 31.71200 31.97000
C  -5.11700 32.50600 32.97500
H  0.91800 36.70900 29.53500
H  0.27400 36.52000 23.00200
H  -3.70200 31.81600 23.41000
H  -2.75400 34.04700 31.50100
H  0.09600 35.16100 31.28300
H  -2.55000 36.07700 31.85400
H  -1.85000 37.26500 30.82700
H  -1.01400 36.88500 32.33900
H  0.07100 33.08700 31.70600
H  -1.11200 31.79900 31.41700
H  -2.02900 31.78100 33.53100
H  -2.09800 33.57700 33.50800
H  2.38400 37.92500 28.77500
H  2.24800 39.16000 27.49600
H  3.54800 37.87800 27.41400
H  4.48900 37.87500 24.94400
H  3.43000 39.35800 25.31100
H  3.83300 39.02800 23.68600
H  -0.79200 34.80600 21.35200
H  -3.05600 33.55500 21.65100
H  -3.04100 36.44200 22.58200
H  -3.46100 35.54900 21.09400
H  -2.08900 36.76300 21.09800
H  -1.43000 31.36800 22.08400
H  -0.13800 32.67400 22.31600
H  -0.83100 31.22200 19.77000
H  0.11300 32.69800 19.87200
H  -1.55600 32.85600 19.69900
H  -5.21700 29.29000 25.55800
H  -5.55800 30.69300 24.45700
H  -6.31600 30.64000 25.88500
H  -3.14400 30.96400 30.46300
H  -4.75400 33.53400 32.97500
H  -5.07800 32.04100 33.96000
H  -6.19900 32.39200 32.90000

