158

Mg 17.32900 -1.20200 27.54800
C  16.21000 0.87400 30.04800
C  19.75100 -2.39000 29.72200
C  18.62000 -2.91700 25.00800
C  15.23500 0.56400 25.32000
N  18.00200 -0.74800 29.58700
C  17.21100 0.05000 30.47400
C  17.70000 -0.07000 31.96600
C  18.96200 -0.93900 31.83300
C  18.88300 -1.42600 30.29200
C  20.29800 -0.33300 32.23100
C  16.63100 -0.85100 32.85200
C  16.52000 -0.48300 34.35100
H  17.75300 0.06200 35.09200
N  18.81600 -2.66000 27.49100
C  19.76400 -2.95300 28.44000
C  20.52000 -4.09200 27.99700
C  20.31600 -4.10200 26.55800
C  19.16800 -3.18800 26.32900
C  21.59600 -4.86400 28.90100
C  21.06300 -4.94200 25.46700
O  20.80000 -4.84400 24.29000
C  22.10200 -5.97000 25.95600
N  16.97400 -1.20900 25.41100
C  17.63600 -1.99000 24.54000
C  17.31500 -1.68500 23.12200
C  16.13100 -0.66800 23.23900
C  16.08100 -0.41100 24.76500
C  18.52600 -1.07000 22.39600
C  14.82000 -1.09300 22.56100
C  13.79200 -1.84200 23.46000
N  15.94900 0.37900 27.58200
C  15.13100 0.99100 26.65800
C  14.31500 2.00000 27.27400
C  14.69000 1.91200 28.60800
C  15.63600 0.94400 28.75500
C  13.34100 2.91800 26.60200
C  14.39400 2.49600 29.86700
O  13.71200 3.50700 30.11600
C  15.39700 1.85500 30.91900
C  16.26000 2.90400 31.52400
O  17.40800 3.13200 31.38700
O  15.52800 3.53500 32.46900
C  16.20300 4.54300 33.32400
H  20.58400 -2.62100 30.39000
H  19.07400 -3.33200 24.10600
H  14.51000 0.95200 24.60100
H  17.88700 0.94300 32.32300
H  18.95100 -1.94200 32.26000
H  20.43800 -0.61900 33.27300
H  20.34200 0.75600 32.26200
H  21.11000 -0.71600 31.61200
H  16.85400 -1.91600 32.78600
H  15.67500 -0.73400 32.34300
H  16.18700 -1.33100 34.94900
H  15.67700 0.20500 34.40200
H  22.63200 -4.92800 28.57000
H  21.18400 -5.86700 29.01500
H  21.43900 -4.52000 29.92300
H  21.82600 -6.37900 26.92800
H  23.05100 -5.44000 26.02400
H  22.17300 -6.86500 25.33700
H  16.94700 -2.56400 22.59200
H  16.27700 0.30800 22.77700
H  19.26600 -0.73100 23.12200
H  18.24400 -0.21100 21.78800
H  19.04500 -1.82700 21.80900
H  15.15900 -1.70700 21.72700
H  14.42800 -0.16000 22.15700
H  12.77500 -1.45000 23.46000
H  14.12600 -1.96500 24.49100
H  13.69500 -2.90600 23.24500
H  13.02600 2.54400 25.62800
H  13.79300 3.89800 26.44900
H  12.53900 3.03800 27.33000
H  14.82900 1.31600 31.67800
H  16.70000 5.29500 32.71000
H  16.90400 3.99600 33.95500
H  15.45800 4.98800 33.98400
Mg 0.74900 43.30200 26.09300
C  2.87100 43.35100 28.87700
C  -1.85900 42.57000 28.36300
C  -1.03800 42.43900 23.45900
C  3.70200 43.84100 24.03300
N  0.53600 43.23200 28.39500
C  1.54600 43.38000 29.28200
C  1.02600 43.47100 30.67700
C  -0.52700 42.96800 30.46500
C  -0.67900 42.94800 28.97000
C  -0.72900 41.58600 31.04500
C  1.08200 44.87700 31.36200
C  1.13700 44.81100 32.86100
H  0.82600 43.52200 33.63000
N  -1.21600 42.71500 25.95000
C  -2.07200 42.41100 26.93800
C  -3.30000 41.92000 26.36500
C  -3.15700 41.92200 24.89300
C  -1.74600 42.33700 24.75000
C  -4.55500 41.63100 27.14000
C  -4.13700 41.47600 23.83500
O  -3.87500 41.46800 22.63600
C  -5.55400 41.03600 24.18100
N  1.34400 43.00800 23.99500
C  0.29800 42.71100 23.07300
C  0.84000 42.84400 21.68300
C  2.27700 43.50300 21.86700
C  2.51000 43.42100 23.38100
C  0.84500 41.44600 20.87000
C  2.34500 44.98500 21.31700
C  2.17200 46.11400 22.23700
N  2.92100 43.57700 26.32400
C  3.98100 43.74200 25.39700
C  5.25000 43.67600 26.09700
C  4.85300 43.61000 27.50400
C  3.38800 43.42200 27.53900
C  6.61400 43.80500 25.54200
C  5.32400 43.56000 28.92600
O  6.41400 43.61400 29.38900
C  4.11100 43.43800 29.82500
C  4.18600 42.23300 30.63300
O  3.93800 41.10200 30.26400
O  4.72900 42.48100 31.88300
C  4.84700 41.47900 32.91600
H  -2.71600 42.29100 28.97900
H  -1.69900 42.09000 22.66300
H  4.62600 44.02900 23.48200
H  1.63200 42.69800 31.14900
H  -1.24200 43.66700 30.89900
H  -0.94800 40.90800 30.22000
H  -1.51600 41.53000 31.79700
H  0.16700 41.05600 31.37000
H  0.19100 45.46000 31.12800
H  1.99600 45.39500 31.07000
H  0.46800 45.58700 33.23300
H  2.13600 45.09800 33.18700
H  -4.66800 40.55300 27.25700
H  -5.36000 42.14100 26.61200
H  -4.69200 42.16400 28.08200
H  -5.41600 40.26800 24.94300
H  -5.98200 40.37300 23.42900
H  -6.19800 41.85900 24.49000
H  0.10600 43.40600 21.10600
H  2.90100 42.78900 21.33100
H  1.82900 41.19900 20.47200
H  0.24100 41.65900 19.98700
H  0.58500 40.59800 21.50300
H  1.60600 45.05600 20.51900
H  3.26300 45.02600 20.73100
H  1.69600 45.73900 23.14300
H  1.46400 46.88700 21.93600
H  3.14000 46.54900 22.48500
H  7.04300 44.80600 25.58400
H  6.53800 43.50400 24.49700
H  7.28700 43.04400 25.93600
H  4.10500 44.28000 30.51700
H  5.83500 41.57200 33.36600
H  4.62500 40.47100 32.56800
H  4.12500 41.79000 33.67200

