158

Mg 47.43200 25.92200 28.51000
C  48.18500 28.12000 31.16700
C  46.61900 23.61000 30.89400
C  46.57900 23.84500 26.03800
C  48.87400 28.16700 26.20400
N  47.38700 25.88000 30.80700
C  47.66500 26.96100 31.69600
C  47.38400 26.64600 33.19600
C  46.90800 25.17100 33.03300
C  46.96900 24.80600 31.50700
C  47.69400 24.10300 33.90200
C  46.44900 27.65300 34.01200
C  46.98900 28.36700 35.22500
H  45.89100 28.67700 36.15300
N  46.76100 23.93600 28.44700
C  46.44200 23.14900 29.53900
C  45.90700 21.93600 29.04800
C  45.80300 22.01900 27.62600
C  46.32700 23.31400 27.28500
C  45.55700 20.73300 29.87300
C  45.24200 21.06500 26.58000
O  45.10100 21.36000 25.35600
C  44.88000 19.70600 26.99500
N  47.91500 25.89700 26.47600
C  47.35400 24.95100 25.63900
C  47.69200 25.25900 24.17200
C  48.40500 26.62600 24.17100
C  48.49800 26.91900 25.74600
C  48.45700 24.20600 23.41800
C  47.65400 27.71500 23.39600
C  48.50800 28.95700 22.90200
N  48.37400 27.68100 28.63800
C  48.84300 28.51000 27.64200
C  49.41400 29.71300 28.26500
C  49.20700 29.56700 29.57000
C  48.48000 28.32300 29.78400
C  50.13400 30.79000 27.47100
C  49.42800 30.25500 30.82500
O  49.95000 31.28100 31.18100
C  48.83600 29.27900 31.92000
C  49.96000 28.84200 32.90700
O  50.69500 27.85000 32.85200
O  50.00300 29.73100 33.95400
C  51.05400 29.33500 34.87900
H  46.22500 22.91600 31.63900
H  46.22500 23.22800 25.20900
H  49.20800 28.96700 25.54000
H  48.36700 26.55300 33.65700
H  45.85600 25.23600 33.31000
H  48.39400 24.67300 34.51300
H  48.16000 23.34900 33.26800
H  46.98300 23.52200 34.48900
H  45.45200 27.23500 34.15200
H  46.30700 28.49700 33.33700
H  47.35300 29.38600 35.09100
H  47.82600 27.77000 35.58700
H  44.50800 20.50900 29.67500
H  45.74800 20.80400 30.94400
H  46.11400 19.91700 29.41400
H  45.56800 19.16200 27.64300
H  44.88700 19.11700 26.07800
H  43.88100 19.75700 27.42800
H  46.72000 25.36500 23.69100
H  49.43300 26.54800 23.81900
H  48.41900 24.51800 22.37400
H  48.15300 23.18700 23.65400
H  49.46600 24.38900 23.78900
H  46.84100 28.19500 23.94000
H  47.26900 27.29800 22.46500
H  49.51600 28.57400 23.06300
H  48.11500 29.78900 23.48600
H  48.19000 29.25800 21.90400
H  51.20700 30.71400 27.64400
H  49.91000 31.82600 27.72700
H  49.97300 30.60200 26.40900
H  48.08100 29.85800 32.45100
H  51.35500 30.14800 35.54000
H  52.04100 29.17500 34.44600
H  50.74700 28.51800 35.53200
Mg -12.60500 16.91600 42.24000
C  -9.48400 15.73600 41.51000
C  -11.54900 20.09500 41.17100
C  -15.84700 18.11300 42.36700
C  -13.79500 13.79800 42.44500
N  -10.73300 17.80300 41.51700
C  -9.55900 17.12200 41.22900
C  -8.40600 18.03100 40.94300
C  -9.05300 19.51100 41.05900
C  -10.55400 19.16500 41.23300
C  -8.48400 20.42700 42.20500
C  -7.58900 17.85500 39.65400
C  -6.19400 17.27600 39.60700
H  -5.23400 17.79600 38.53500
N  -13.52900 18.97200 41.96400
C  -12.90700 20.00800 41.42200
C  -13.92000 21.01800 41.23600
C  -15.15900 20.53800 41.75100
C  -14.89500 19.13900 42.02600
C  -13.55400 22.42200 40.88900
C  -16.39700 21.34900 41.93300
O  -16.36300 22.48000 41.50100
C  -17.72500 20.87800 42.65300
N  -14.54800 16.12100 42.54800
C  -15.70100 16.75900 42.63500
C  -16.86600 15.81800 42.76200
C  -16.21300 14.41000 42.73500
C  -14.75800 14.77500 42.59400
C  -17.66800 16.08400 44.04700
C  -16.79900 13.46300 41.72700
C  -18.10700 12.69000 42.06100
N  -11.79300 15.08900 42.23300
C  -12.41400 13.91400 42.35200
C  -11.43400 12.84300 42.32500
C  -10.22400 13.50300 42.00800
C  -10.49200 14.90200 41.98500
C  -11.68300 11.38500 42.53800
C  -8.82000 13.32500 41.67700
O  -8.20800 12.27600 41.50200
C  -8.25000 14.77900 41.57000
C  -7.33800 15.24500 42.68800
O  -7.61800 15.67600 43.80400
O  -6.05500 15.11900 42.22000
C  -4.88800 15.41200 43.14800
H  -11.12500 21.07700 40.94800
H  -16.87800 18.46400 42.27900
H  -14.04700 12.74500 42.58800
H  -7.64600 17.93400 41.71900
H  -8.96000 20.15400 40.18400
H  -7.90000 21.26400 41.82200
H  -7.70700 19.87500 42.73400
H  -9.10900 20.71500 43.05100
H  -7.46200 18.86000 39.25000
H  -8.14600 17.23200 38.95400
H  -6.25200 16.20000 39.44500
H  -5.72500 17.39800 40.58400
H  -14.26600 22.75700 40.13600
H  -12.57900 22.38600 40.40300
H  -13.38800 23.04300 41.77000
H  -18.26600 20.21600 41.97600
H  -18.38500 21.68000 42.98300
H  -17.37000 20.30800 43.51200
H  -17.40800 16.00800 41.83500
H  -16.38700 13.91300 43.68900
H  -18.03800 15.16000 44.49200
H  -18.49500 16.76700 43.85700
H  -16.99800 16.49000 44.80500
H  -15.98800 12.77100 41.49600
H  -16.95300 14.12200 40.87300
H  -18.05200 11.64200 41.76600
H  -19.06300 13.02400 41.65700
H  -18.23900 12.70100 43.14300
H  -12.35800 11.13400 41.72000
H  -12.09100 11.23000 43.53700
H  -10.82000 10.75200 42.32900
H  -7.62900 14.81200 40.67400
H  -3.93100 15.08100 42.74500
H  -5.09000 14.85000 44.06000
H  -4.90500 16.42700 43.54500

