158

Mg 8.65200 3.54900 27.77900
C  9.81300 1.98500 30.84300
C  6.66000 5.56000 29.73900
C  7.27100 4.61600 24.95100
C  10.24100 0.83200 26.05700
N  8.12800 3.59000 29.96300
C  8.81700 2.95700 31.03700
C  8.29100 3.61100 32.38000
C  7.18500 4.56900 31.95600
C  7.33600 4.58200 30.44500
C  5.72300 4.15600 32.45700
C  9.43600 4.27500 33.10800
C  9.42800 4.02400 34.67600
H  10.79600 3.94300 35.38400
N  7.30500 5.04800 27.42100
C  6.60100 5.81500 28.31400
C  5.81700 6.82800 27.58200
C  6.07400 6.56700 26.18000
C  6.92300 5.35100 26.11300
C  4.92000 7.92900 28.17100
C  5.58900 7.36300 24.98500
O  5.80500 7.02600 23.80500
C  4.73900 8.52900 25.13700
N  8.82300 2.91100 25.79500
C  7.99900 3.42800 24.81700
C  8.22400 2.69200 23.40300
C  9.35400 1.66400 23.75800
C  9.50900 1.79300 25.33600
C  6.82100 2.19500 22.94800
C  10.80800 1.87800 23.22700
C  11.56400 0.58100 22.86500
N  9.79700 1.76000 28.30700
C  10.45200 0.85500 27.44600
C  11.25600 -0.05300 28.24100
C  11.15800 0.46000 29.56200
C  10.12100 1.43500 29.55300
C  12.06700 -1.19500 27.80200
C  11.61500 0.30500 30.96700
O  12.52300 -0.30400 31.45900
C  10.74800 1.31400 31.82700
C  10.18400 0.50100 32.93100
O  9.62200 -0.55600 32.81900
O  10.42300 1.06800 34.13300
C  10.03400 0.40400 35.36300
H  6.14600 6.31800 30.33400
H  6.83700 4.96100 24.01000
H  10.71000 0.03000 25.48300
H  8.00100 2.74900 32.98000
H  7.39700 5.61400 32.18300
H  5.37700 4.98900 33.06900
H  5.69200 3.30300 33.13500
H  5.09800 3.89800 31.60200
H  9.32100 5.35600 33.02100
H  10.42600 4.08200 32.69500
H  8.72000 3.22300 34.88800
H  8.85000 4.78400 35.20200
H  5.10100 8.00200 29.24300
H  3.89900 7.58300 28.00600
H  5.17000 8.86800 27.67600
H  5.44600 9.20600 25.61700
H  3.85700 8.32800 25.74500
H  4.45400 8.92700 24.16400
H  8.61100 3.34800 22.62300
H  8.95400 0.70700 23.42300
H  6.05300 2.69200 23.54000
H  6.74600 1.11100 23.03600
H  6.66900 2.52700 21.92100
H  11.34100 2.58400 23.86400
H  10.79900 2.44000 22.29400
H  11.63900 0.38500 21.79500
H  11.20500 -0.37600 23.24400
H  12.59900 0.75800 23.15600
H  12.14100 -1.25100 26.71600
H  11.61600 -2.11900 28.16400
H  13.06100 -1.01000 28.20900
H  11.42500 2.03100 32.29200
H  10.79500 -0.35400 35.55300
H  9.05500 -0.07300 35.34000
H  9.97600 1.03900 36.24800
Mg -5.00500 24.63500 27.39700
C  -3.47400 26.49500 29.79300
C  -6.12200 22.36200 29.65100
C  -6.29300 22.78700 24.86700
C  -3.47300 26.82400 24.84500
N  -4.80600 24.47100 29.41100
C  -4.25700 25.39900 30.22100
C  -4.65800 25.15200 31.64100
C  -4.97800 23.61500 31.64100
C  -5.31900 23.43000 30.12000
C  -3.94600 22.58100 32.09200
C  -5.68400 26.15500 32.14800
C  -6.21200 26.03900 33.59300
H  -5.70000 24.97000 34.51300
N  -6.14000 22.86100 27.29300
C  -6.40300 22.05100 28.31500
C  -7.32400 20.97000 27.83300
C  -7.48900 21.13100 26.44500
C  -6.59800 22.25200 26.14000
C  -7.98000 20.01500 28.80800
C  -8.27900 20.32200 25.45100
O  -8.35800 20.62200 24.27800
C  -9.13200 19.24700 25.90600
N  -4.94100 24.83900 25.14400
C  -5.59300 23.93200 24.40900
C  -5.66500 24.35100 22.90300
C  -4.78500 25.69900 22.95600
C  -4.36000 25.77600 24.38000
C  -5.03700 23.29000 22.02500
C  -5.59100 27.01100 22.49200
C  -4.79400 27.87900 21.52700
N  -3.63900 26.26900 27.31300
C  -3.22200 27.05700 26.25700
C  -2.40600 28.13100 26.82800
C  -2.48400 27.95700 28.25600
C  -3.24600 26.85700 28.43000
C  -1.65000 29.05600 26.04100
C  -2.00900 28.48600 29.50900
O  -1.29000 29.44900 29.74300
C  -2.74600 27.59000 30.59100
C  -1.76400 27.04800 31.55400
O  -1.06300 26.16300 31.20600
O  -1.88000 27.59100 32.76700
C  -1.00100 27.02600 33.84200
H  -6.48800 21.80100 30.51300
H  -6.67700 22.26600 23.98800
H  -3.14400 27.48100 24.03700
H  -3.82100 25.26300 32.33000
H  -5.92500 23.46600 32.15800
H  -3.12800 23.16000 32.52100
H  -3.54100 21.96800 31.28700
H  -4.38500 21.93600 32.85400
H  -6.52900 26.21500 31.46100
H  -5.33500 27.18800 32.14200
H  -7.29700 25.95900 33.65800
H  -5.98600 27.02100 34.00900
H  -7.37700 19.15800 29.10800
H  -8.90500 19.71500 28.31500
H  -8.23300 20.47600 29.76300
H  -9.91500 19.55800 26.59900
H  -8.49300 18.56100 26.46100
H  -9.52700 18.72300 25.03600
H  -6.68400 24.43900 22.52500
H  -3.95300 25.52900 22.27200
H  -4.73700 22.45700 22.66100
H  -4.18300 23.61100 21.43000
H  -5.74600 22.85300 21.32100
H  -5.88200 27.63300 23.33800
H  -6.46100 26.68100 21.92300
H  -5.52000 27.96900 20.71900
H  -3.92600 27.40400 21.07100
H  -4.43700 28.80400 21.98000
H  -2.18200 29.45000 25.17500
H  -0.80900 28.57000 25.54500
H  -1.31600 29.88100 26.67100
H  -3.43600 28.20700 31.16700
H  -0.31000 27.81300 34.14600
H  -0.51200 26.12100 33.48000
H  -1.58700 26.66500 34.68700

