158

Mg 17.08700 52.42700 26.47100
C  18.93600 50.81200 28.78800
C  14.86400 53.32600 28.87600
C  15.21700 53.96100 24.06500
C  19.26200 51.28500 24.01000
N  16.98400 52.15900 28.62000
C  17.84000 51.48500 29.37600
C  17.39200 51.42400 30.92600
C  15.86700 51.85400 30.74900
C  15.92300 52.61600 29.33000
C  14.83500 50.77800 30.87400
C  18.36000 52.37500 31.66300
C  18.39300 52.32600 33.20100
H  17.28300 51.52900 33.93400
N  15.21100 53.34700 26.45600
C  14.51600 53.70000 27.60900
C  13.42700 54.50600 27.30600
C  13.49200 54.66000 25.85400
C  14.68300 54.03600 25.39700
C  12.26100 54.84300 28.29400
C  12.46500 55.30400 24.83200
O  12.66100 55.51400 23.66700
C  11.12600 55.89000 25.31800
N  17.13100 52.45400 24.30700
C  16.27300 53.21900 23.53000
C  16.61100 53.10800 22.06700
C  17.87700 52.20000 22.06600
C  18.14800 52.00900 23.59400
C  15.46300 52.64300 21.20900
C  19.02600 52.70200 21.20500
C  19.67800 53.96500 21.80100
N  18.80200 51.31200 26.33600
C  19.56500 50.86200 25.27500
C  20.63900 50.05800 25.74200
C  20.38600 49.93000 27.09500
C  19.30400 50.82000 27.41200
C  21.71800 49.34700 24.93700
C  20.84300 49.33600 28.30600
O  21.71600 48.51900 28.47700
C  20.00700 49.95600 29.46700
C  19.46200 48.86300 30.38500
O  18.65500 48.01100 30.03700
O  19.93800 49.05700 31.61500
C  19.41800 48.06900 32.53800
H  14.10300 53.59000 29.61300
H  14.72000 54.61700 23.34700
H  19.95300 50.97100 23.22500
H  17.48300 50.38900 31.25500
H  15.72300 52.46900 31.63800
H  14.38300 50.80700 31.86600
H  15.38100 49.88000 30.58700
H  14.04800 50.92700 30.13500
H  18.08200 53.41800 31.51400
H  19.38000 52.26800 31.29500
H  18.43600 53.26000 33.76200
H  19.41800 52.06900 33.46600
H  11.57100 54.05400 28.59400
H  11.52800 55.56800 27.94100
H  12.74200 55.27400 29.17200
H  10.69500 55.09000 25.92100
H  10.56400 56.24800 24.45500
H  11.31400 56.69000 26.03300
H  16.78200 54.13200 21.73300
H  17.68000 51.20600 21.66600
H  15.64300 51.76800 20.58500
H  15.23600 53.32400 20.38900
H  14.55800 52.45900 21.78900
H  18.53300 53.04400 20.29500
H  19.71400 51.90200 20.93000
H  19.67900 54.80000 21.09900
H  20.71800 53.65500 21.90600
H  19.28600 54.24300 22.77900
H  21.37100 49.16100 23.92100
H  21.94800 48.42100 25.46500
H  22.62000 49.95900 24.91200
H  20.64800 50.65600 30.00300
H  19.57200 48.48500 33.53400
H  19.92400 47.10500 32.47900
H  18.33500 48.08400 32.41300
Mg 1.78300 41.83700 24.51600
C  2.94400 42.06800 27.99600
C  -1.04100 40.66900 25.74500
C  1.13900 41.13200 21.39900
C  4.93600 42.95800 23.70700
N  1.08400 41.46100 26.64200
C  1.63900 41.65500 27.86300
C  0.69900 41.32200 28.98800
C  -0.51600 40.70700 28.31500
C  -0.15100 40.90800 26.76100
C  -0.82000 39.25600 28.72900
C  0.46700 42.50800 29.93000
C  0.30700 42.31000 31.44700
H  -0.28000 41.05200 31.90600
N  0.26700 41.04200 23.67000
C  -0.85900 40.64000 24.28000
C  -1.87900 40.32800 23.34100
C  -1.21900 40.23900 22.09700
C  0.11100 40.87700 22.32400
C  -3.24900 39.86600 23.63400
C  -1.82600 39.76200 20.82400
O  -1.19500 39.73500 19.71300
C  -3.21000 39.27700 20.80200
N  2.89900 41.85100 22.80700
C  2.44600 41.51600 21.63300
C  3.43200 41.69800 20.52400
C  4.59600 42.45800 21.27000
C  4.11500 42.42300 22.68600
C  3.75800 40.39700 19.80600
C  4.83200 43.90800 20.73300
C  3.72600 45.01100 20.90200
N  3.57400 42.41500 25.62200
C  4.75200 42.98100 25.08700
C  5.68000 43.22000 26.09200
C  5.06000 42.76800 27.26600
C  3.75700 42.42200 26.91300
C  7.03100 43.83800 25.99700
C  5.26500 42.55500 28.70900
O  6.20000 42.64200 29.47000
C  3.84200 42.17700 29.21500
C  4.00900 40.82900 29.89100
O  4.77200 39.89400 29.52000
O  3.30200 40.84500 31.07200
C  3.52600 39.68800 31.92100
H  -1.97100 40.28100 26.16700
H  0.80700 41.01300 20.36500
H  5.89100 43.20000 23.23700
H  1.19200 40.53800 29.56200
H  -1.48700 41.17500 28.47700
H  -0.15400 38.92200 29.52400
H  -0.53100 38.68500 27.84700
H  -1.86600 39.25000 29.03800
H  -0.47400 42.96400 29.62300
H  1.14700 43.35600 29.84800
H  -0.31900 43.12400 31.81300
H  1.26100 42.45800 31.95200
H  -3.57500 40.12800 24.64000
H  -3.29000 38.77900 23.55100
H  -4.00000 40.42400 23.07600
H  -3.48500 38.64900 19.95400
H  -3.94800 40.06500 20.65300
H  -3.25600 38.50700 21.57300
H  2.97600 42.32400 19.75700
H  5.50100 41.89700 21.03900
H  3.39300 39.50200 20.30900
H  4.76100 39.99100 19.68000
H  3.58000 40.50500 18.73600
H  5.10200 43.71400 19.69500
H  5.74200 44.26900 21.21400
H  2.73400 44.75200 21.27200
H  3.60200 45.37600 19.88200
H  4.26600 45.69400 21.55700
H  7.61800 43.00000 25.62200
H  7.34200 44.08500 27.01200
H  7.10300 44.66400 25.29000
H  3.58200 42.90200 29.98600
H  3.15600 39.82100 32.93800
H  4.59200 39.50200 32.05400
H  3.10100 38.76800 31.51900

