158

Mg 35.07400 2.44700 29.16600
C  32.69000 3.44600 31.58200
C  37.56600 2.71900 31.61300
C  37.35800 1.91400 26.77000
C  32.47600 2.36300 26.70100
N  35.08400 2.99500 31.25300
C  34.04200 3.26800 32.01200
C  34.42700 3.29500 33.53100
C  35.99500 3.49800 33.49200
C  36.26300 3.09200 32.01500
C  36.47700 4.92800 33.81600
C  33.96400 2.02600 34.34200
C  34.20600 1.85100 35.84400
H  34.70500 3.03300 36.72100
N  37.20900 2.24500 29.21300
C  37.98000 2.38000 30.32700
C  39.35300 2.21000 29.89200
C  39.31500 1.90800 28.50800
C  37.93400 1.97800 28.10500
C  40.59800 2.48300 30.72800
C  40.45300 1.46500 27.48500
O  40.31800 1.38000 26.25900
C  41.81900 1.24900 27.94400
N  34.95900 2.39800 27.01100
C  36.08800 2.17100 26.23500
C  35.76100 2.02700 24.73500
C  34.18500 2.11900 24.70100
C  33.83100 2.27700 26.25800
C  36.56500 3.00700 23.74700
C  33.63900 0.76300 24.06500
C  33.21400 -0.34000 25.08300
N  32.95800 2.83700 29.03800
C  32.06200 2.78100 27.99300
C  30.78800 3.18900 28.49100
C  30.96000 3.42400 29.88000
C  32.29000 3.21400 30.20600
C  29.66600 3.40300 27.61200
C  30.27700 3.83900 31.09300
O  29.14300 4.22400 31.28200
C  31.36600 3.71600 32.24200
C  31.43100 4.97000 33.02900
O  31.74600 6.07300 32.54500
O  31.20900 4.78600 34.36600
C  31.52100 5.94700 35.22000
H  38.37500 2.84000 32.33600
H  38.04700 1.75500 25.93900
H  31.75800 2.23000 25.88900
H  33.92300 4.13900 34.00300
H  36.63200 2.86400 34.10800
H  37.38300 5.22600 33.28900
H  36.81200 4.85200 34.85000
H  35.63100 5.61600 33.82200
H  34.39900 1.15500 33.85200
H  32.89800 1.82100 34.24800
H  34.87800 0.99500 35.90700
H  33.34200 1.52300 36.42300
H  40.41800 3.36600 31.34000
H  41.38200 2.71400 30.00700
H  40.80500 1.62500 31.36700
H  42.17400 2.27100 27.81100
H  42.34500 0.50500 27.34700
H  41.87400 0.89700 28.97400
H  36.12200 1.00700 24.60500
H  33.82900 2.98000 24.13600
H  37.24300 2.32500 23.23500
H  37.15900 3.72500 24.31100
H  35.93900 3.58000 23.06200
H  34.26500 0.24900 23.33600
H  32.79900 1.13100 23.47600
H  33.86500 -0.39700 25.95600
H  33.45900 -1.33300 24.70500
H  32.16600 -0.45700 25.35700
H  28.82800 2.70700 27.56200
H  29.97000 3.73800 26.62000
H  29.29300 4.33200 28.04400
H  31.15100 2.89900 32.93000
H  30.67900 5.96300 35.91300
H  31.58700 6.96000 34.82300
H  32.38400 5.70100 35.83800
Mg -9.39300 40.12600 39.79700
C  -8.53900 36.76900 39.23500
C  -6.20600 41.01400 39.06300
C  -10.52300 43.19600 38.95600
C  -12.70100 39.11800 40.17400
N  -7.63100 39.04800 39.26700
C  -7.42300 37.69400 39.20800
C  -5.98200 37.31200 38.90400
C  -5.19000 38.61100 39.09100
C  -6.37800 39.64800 39.17400
C  -4.13700 38.65500 40.19300
C  -5.77400 36.54600 37.59400
C  -6.35000 37.24500 36.35600
H  -7.10400 36.40000 35.35800
N  -8.46400 41.87800 39.28000
C  -7.16500 42.01700 38.98800
C  -6.92400 43.35600 38.59000
C  -8.15400 44.03400 38.50700
C  -9.14100 43.05100 38.86600
C  -5.57200 44.01300 38.43700
C  -8.45300 45.52200 38.13200
O  -7.46700 46.19800 37.94500
C  -9.80900 46.16700 38.02900
N  -11.27500 40.98500 39.60500
C  -11.47300 42.28900 39.29800
C  -12.98100 42.61800 39.30200
C  -13.62700 41.44700 40.04100
C  -12.51800 40.43000 39.91700
C  -13.45900 44.08100 39.72100
C  -15.05600 41.09700 39.43600
C  -16.00700 40.31200 40.30400
N  -10.50800 38.37000 39.83100
C  -11.82500 38.09300 39.96400
C  -12.01300 36.64000 39.89500
C  -10.77300 36.07700 39.59000
C  -9.86000 37.19000 39.60700
C  -13.32700 35.88300 40.11700
C  -10.04100 34.82000 39.36700
O  -10.44300 33.67100 39.30000
C  -8.59600 35.26200 39.02800
C  -7.61800 34.45300 39.88100
O  -7.27600 34.75200 41.00800
O  -7.05000 33.44800 39.21000
C  -5.86000 32.89000 39.87100
H  -5.20900 41.43900 38.93000
H  -10.92400 44.20900 38.89300
H  -13.71800 38.76200 40.35100
H  -5.81900 36.57200 39.68700
H  -4.68000 38.93300 38.18300
H  -4.15300 39.60300 40.73000
H  -3.13700 38.53600 39.77600
H  -4.40900 37.90700 40.93800
H  -6.01000 35.49200 37.73600
H  -4.70300 36.56600 37.39700
H  -5.51900 37.69400 35.81100
H  -6.98300 38.09300 36.61800
H  -5.57500 44.47100 37.44800
H  -4.78300 43.26100 38.44800
H  -5.45000 44.75400 39.22700
H  -10.27600 46.40200 38.98500
H  -10.56800 45.61100 37.48000
H  -9.55200 47.09400 37.51600
H  -13.34100 42.62300 38.27300
H  -13.79400 41.53200 41.11500
H  -12.71000 44.86800 39.81100
H  -14.07900 44.12100 40.61700
H  -14.07400 44.49000 38.91900
H  -14.79900 40.44000 38.60600
H  -15.58900 41.95700 39.03000
H  -16.72600 41.00900 40.73600
H  -15.50400 39.91300 41.18500
H  -16.42800 39.52900 39.67400
H  -13.89800 35.85100 39.18900
H  -13.90400 36.19900 40.98500
H  -13.04300 34.85600 40.34800
H  -8.53700 34.97500 37.97800
H  -5.21500 33.74700 40.06300
H  -5.36700 32.15600 39.23400
H  -6.20900 32.37400 40.76500

