158

Mg 26.48600 49.50400 26.30400
C  24.63900 50.80000 28.83600
C  28.93900 48.54500 28.57800
C  28.50600 48.45800 23.71800
C  24.40100 50.96300 23.98400
N  26.66900 49.62700 28.48400
C  25.78000 50.20400 29.36000
C  26.22000 49.97600 30.86800
C  27.70000 49.38100 30.66200
C  27.76600 49.18300 29.10200
C  28.92600 50.27700 31.24200
C  25.26000 48.98500 31.65700
C  24.86200 49.51500 33.03400
H  24.85700 48.47000 34.18400
N  28.52200 48.73500 26.19700
C  29.32200 48.41900 27.20000
C  30.50900 47.79400 26.70500
C  30.42200 47.75700 25.27700
C  29.12900 48.36800 25.00100
C  31.61100 47.32300 27.56300
C  31.33000 47.15300 24.24000
O  31.11300 47.19200 23.04800
C  32.61900 46.43500 24.69100
N  26.52800 49.74800 24.17000
C  27.34000 49.02200 23.31100
C  26.96100 49.24200 21.80100
C  25.55600 49.95400 21.89200
C  25.49700 50.28700 23.44300
C  28.12300 49.89800 20.93100
C  24.36600 49.07700 21.28400
C  23.26700 49.81000 20.40900
N  24.74400 50.50000 26.29100
C  24.04600 51.04800 25.30700
C  22.89200 51.73000 25.77100
C  23.04100 51.61800 27.18600
C  24.17100 50.85900 27.47100
C  21.97400 52.59900 24.96300
C  22.49000 52.01000 28.46900
O  21.54400 52.71000 28.72600
C  23.47600 51.43900 29.62700
C  23.87100 52.57400 30.47100
O  24.52300 53.52000 30.13300
O  23.33400 52.43300 31.72100
C  23.82100 53.49000 32.65900
H  29.59600 48.12000 29.33900
H  29.07800 48.29200 22.80200
H  23.60500 51.36300 23.35300
H  26.04700 50.94200 31.34300
H  27.86200 48.40900 31.12800
H  29.59100 50.78100 30.54200
H  29.41100 49.58500 31.93100
H  28.57700 51.10600 31.85800
H  25.84400 48.06600 31.70300
H  24.37700 48.77500 31.05300
H  23.85600 49.86300 32.79700
H  25.52100 50.34500 33.28900
H  31.78100 46.24700 27.60000
H  31.48600 47.64800 28.59600
H  32.62000 47.60400 27.26100
H  33.15700 46.07800 23.81300
H  32.38200 45.57000 25.31000
H  33.26800 47.17200 25.16400
H  26.88300 48.24200 21.37600
H  25.45200 50.98900 21.56500
H  28.99400 50.18600 21.52000
H  27.79000 50.79400 20.40700
H  28.56400 49.20600 20.21300
H  23.79800 48.65400 22.11200
H  24.73100 48.28600 20.62900
H  22.49300 49.93500 21.16600
H  22.98700 49.13100 19.60400
H  23.67900 50.75100 20.04300
H  22.56000 53.08300 24.18300
H  21.57000 53.45800 25.49800
H  21.23200 51.90900 24.56200
H  23.01200 50.66400 30.23800
H  23.94200 53.05900 33.65300
H  23.08700 54.29200 32.74900
H  24.77900 53.97600 32.47600
Mg 16.72700 51.45300 26.10300
C  18.63600 50.06700 28.71800
C  14.33400 52.58100 28.42300
C  14.99900 52.63600 23.59200
C  19.19700 50.15700 23.89100
N  16.40800 51.10000 28.30700
C  17.47300 50.75900 29.09200
C  17.12600 51.24500 30.56400
C  15.52700 51.41200 30.41000
C  15.39500 51.77200 28.97200
C  14.75900 50.13300 30.83800
C  17.95900 52.44600 31.05500
C  17.38600 53.03100 32.37500
H  16.55300 52.11900 33.30600
N  14.91500 52.46700 25.98400
C  14.10000 52.82400 27.04600
C  13.03000 53.62400 26.47100
C  13.13600 53.56500 25.09800
C  14.37900 52.89500 24.79600
C  11.99200 54.36400 27.28800
C  12.27100 54.31100 23.98500
O  12.67300 54.26100 22.86200
C  11.00800 55.15500 24.38000
N  17.11500 51.39900 24.03000
C  16.23100 52.01400 23.18900
C  16.66900 51.94400 21.67900
C  18.03500 51.27300 21.80700
C  18.19100 50.92100 23.30000
C  15.71400 51.25600 20.65500
C  19.27300 52.13400 21.21400
C  19.65700 53.45000 21.93900
N  18.51900 50.20700 26.18500
C  19.34700 49.75000 25.21700
C  20.38000 48.95100 25.85400
C  20.19600 49.13200 27.15200
C  18.98000 49.87600 27.37500
C  21.57400 48.37900 25.20300
C  20.81200 48.90500 28.49700
O  21.83800 48.36400 28.88700
C  19.78000 49.49300 29.58000
C  19.43200 48.41100 30.47500
O  19.30200 47.20300 30.17200
O  19.20600 48.91700 31.74700
C  18.66200 47.93700 32.67000
H  13.52300 52.87100 29.09500
H  14.58200 52.87800 22.61200
H  19.87000 49.77100 23.12300
H  17.35900 50.36900 31.16900
H  15.03300 52.17900 31.00600
H  14.07900 50.34500 31.66400
H  15.30400 49.24400 31.15400
H  14.05900 49.79300 30.07500
H  17.88900 53.23500 30.30600
H  18.99800 52.11400 31.06600
H  16.77500 53.92900 32.28500
H  18.23600 53.25700 33.01900
H  11.80200 55.40900 27.04300
H  12.49700 54.47200 28.24800
H  11.08300 53.78300 27.44200
H  11.19300 56.02600 25.00800
H  10.35800 54.50600 24.96700
H  10.57700 55.47500 23.43200
H  16.81200 52.96800 21.33400
H  18.06700 50.39200 21.16400
H  14.94700 51.96900 20.35300
H  15.21700 50.44300 21.18600
H  16.29300 50.96800 19.77700
H  18.93400 52.46300 20.23200
H  20.07500 51.39700 21.16600
H  18.77900 53.49200 22.58400
H  19.77100 54.32100 21.29400
H  20.53900 53.26100 22.55000
H  22.49600 48.61600 25.73400
H  21.66600 48.65500 24.15200
H  21.65100 47.29300 25.17500
H  20.31100 50.29400 30.09500
H  18.93400 48.45700 33.58800
H  19.25000 47.01900 32.67600
H  17.59400 47.76900 32.53000

