158

Mg 56.08900 24.03900 43.93100
C  53.57300 26.19400 42.67700
C  54.46300 21.36800 42.78400
C  59.01600 22.17800 44.33200
C  57.89900 26.87200 44.82300
N  54.28700 23.84700 42.75500
C  53.37400 24.84900 42.28800
C  52.38100 24.18300 41.35000
C  52.36000 22.74500 41.96100
C  53.79000 22.60800 42.60200
C  51.30200 22.44800 43.06100
C  52.77500 24.18400 39.82300
C  51.81600 25.03900 38.88000
H  51.42400 24.47100 37.55800
N  56.63700 22.00500 43.66800
C  55.77900 21.09400 43.27800
C  56.42900 19.77200 43.35100
C  57.76700 19.97600 43.70200
C  57.86100 21.46200 43.90600
C  55.65300 18.56000 42.89200
C  58.80900 18.83900 43.85100
O  58.55600 17.67200 43.53400
C  60.22600 19.17300 44.40800
N  58.11700 24.43200 44.67600
C  59.10900 23.47100 44.73800
C  60.45300 24.11200 45.07300
C  60.08700 25.64300 45.22400
C  58.57800 25.66500 44.95500
C  61.08000 23.44100 46.31100
C  60.84500 26.53200 44.22600
C  62.25900 26.83100 44.74900
N  55.77600 26.10000 43.95800
C  56.56500 27.12800 44.48200
C  55.81700 28.36000 44.35500
C  54.67500 27.98300 43.69800
C  54.65000 26.62800 43.51600
C  56.19500 29.71900 44.72800
C  53.50000 28.61600 43.07600
O  53.18000 29.77300 43.01400
C  52.83100 27.47800 42.28800
C  52.77900 27.80700 40.96200
O  53.74600 27.74700 40.21400
O  51.51500 28.19200 40.59500
C  51.48700 28.69600 39.19200
H  53.82500 20.52700 42.50400
H  59.90500 21.57200 44.51900
H  58.51500 27.72300 45.12100
H  51.48500 24.79900 41.42900
H  52.36700 21.91800 41.25100
H  51.51100 22.99700 43.97900
H  51.34700 21.38100 43.28200
H  50.29800 22.68800 42.71300
H  52.67200 23.16600 39.44700
H  53.81200 24.45500 39.62500
H  52.38500 25.96000 38.74900
H  50.93700 25.14500 39.51600
H  55.69000 18.60500 41.80400
H  54.61000 18.71000 43.17100
H  55.89600 17.66500 43.46600
H  60.79300 19.79000 43.71000
H  60.73600 18.24100 44.65100
H  60.06400 19.79000 45.29200
H  61.15700 23.91600 44.26500
H  60.20200 26.01800 46.24100
H  60.30500 22.91500 46.87000
H  61.43800 24.21500 46.98900
H  61.94700 22.84000 46.03600
H  60.40700 27.52900 44.18300
H  61.00400 26.04700 43.26200
H  62.54900 27.87500 44.85800
H  63.02100 26.43300 44.07900
H  62.36300 26.20600 45.63700
H  55.39100 30.36000 44.36600
H  57.14200 30.02900 44.28600
H  56.36200 29.74400 45.80500
H  51.85400 27.43700 42.77100
H  50.62700 28.29100 38.65700
H  52.33500 28.42500 38.56200
H  51.51400 29.78500 39.15600
Mg 26.53600 49.66900 27.06000
C  24.49100 51.12500 29.60300
C  28.38100 48.11300 29.39600
C  28.51800 48.70800 24.52300
C  24.57300 51.43000 24.71700
N  26.28000 49.57800 29.21100
C  25.41800 50.24700 30.09400
C  25.67100 49.77400 31.54700
C  27.11900 49.06100 31.42200
C  27.22400 48.80400 29.88000
C  28.37500 49.75300 32.06400
C  24.49700 48.93100 32.17500
C  23.95800 49.38400 33.51500
H  24.17200 48.54000 34.74500
N  28.20500 48.56300 26.93200
C  28.89900 48.00700 28.05400
C  30.08800 47.34300 27.58500
C  30.19900 47.55900 26.18500
C  28.94300 48.29500 25.78200
C  30.99900 46.64700 28.43200
C  31.26600 47.21200 25.20100
O  31.21700 47.50700 24.02500
C  32.41600 46.35200 25.52800
N  26.50100 49.97500 24.94800
C  27.34900 49.35900 24.09500
C  27.06800 49.63100 22.57800
C  25.61300 50.18700 22.70000
C  25.51400 50.53600 24.22400
C  27.97800 50.75900 21.97600
C  24.45200 49.24700 22.21400
C  23.41600 49.78300 21.25100
N  24.87000 51.02100 27.11000
C  24.23600 51.67100 26.09000
C  23.19100 52.62400 26.70700
C  23.25400 52.36500 27.99600
C  24.28700 51.45000 28.24700
C  22.26800 53.54800 25.94300
C  22.61300 52.67200 29.24700
O  21.65100 53.36600 29.50100
C  23.41000 51.90100 30.38900
C  23.83100 52.96400 31.26400
O  24.84200 53.70200 31.15100
O  22.98100 52.93000 32.35100
C  23.26100 53.91100 33.40500
H  28.97200 47.67400 30.20300
H  29.16000 48.42100 23.68700
H  23.88000 51.84800 23.98400
H  25.90700 50.71500 32.04400
H  26.91000 48.08300 31.85500
H  28.90000 50.51400 31.48600
H  29.09500 48.99800 32.37800
H  28.12000 50.40500 32.89900
H  24.71100 47.86900 32.29600
H  23.66600 48.96000 31.47000
H  22.92800 49.73000 33.43000
H  24.42200 50.31600 33.84000
H  31.91700 47.23200 28.48800
H  31.11800 45.70400 27.89800
H  30.51700 46.47500 29.39400
H  32.02200 45.34000 25.62600
H  32.89200 46.67100 26.45500
H  33.08500 46.41900 24.67100
H  26.95600 48.66900 22.07900
H  25.54600 51.13800 22.17300
H  28.96300 50.64500 22.42800
H  27.58000 51.72200 22.29600
H  28.04500 50.56800 20.90600
H  24.13900 48.79400 23.15500
H  25.01100 48.49200 21.66200
H  23.56900 50.84900 21.08600
H  22.38100 49.65600 21.56900
H  23.44900 49.28400 20.28200
H  21.52800 52.98300 25.37600
H  22.90700 54.09500 25.25000
H  21.83700 54.24900 26.65800
H  22.74900 51.20900 30.91200
H  22.39600 53.88900 34.06700
H  23.24500 54.92000 32.99300
H  24.21300 53.78100 33.92000

