158

Mg 47.30800 44.16800 42.37800
C  43.81000 43.77700 41.86800
C  47.58800 40.72800 42.07000
C  50.69000 44.45100 41.95600
C  46.85400 47.51100 42.36100
N  45.81700 42.39700 41.90300
C  44.47900 42.52700 41.86400
C  43.83600 41.12100 41.81800
C  45.01700 40.23200 42.38100
C  46.22400 41.13100 42.06200
C  44.93800 39.74500 43.84100
C  43.28200 40.74400 40.42900
C  43.95700 39.74300 39.46000
H  43.76500 39.90500 37.95300
N  48.89700 42.80700 41.94700
C  48.77100 41.43900 41.91500
C  50.10600 40.87800 41.82600
C  51.04300 41.93100 41.69800
C  50.19700 43.11700 41.80800
C  50.34800 39.45400 41.58900
C  52.54400 41.78200 41.51400
O  53.02600 40.66100 41.43500
C  53.46800 42.91800 41.67100
N  48.56400 45.72400 42.11200
C  49.92300 45.60800 42.06800
C  50.60700 47.04100 42.17900
C  49.31000 48.02800 42.25700
C  48.21500 47.05800 42.22500
C  51.66700 47.26000 43.36100
C  49.11600 48.96400 40.99100
C  49.05400 50.47800 41.27300
N  45.70100 45.45200 42.29300
C  45.65100 46.82100 42.30900
C  44.29500 47.26200 42.23700
C  43.52100 46.10000 42.12100
C  44.42800 45.02600 42.11500
C  43.73200 48.62600 42.25900
C  42.18600 45.53100 41.98400
O  41.08500 46.03700 42.00500
C  42.32900 44.00400 41.88800
C  41.65400 43.43100 43.16100
O  40.57800 42.88900 43.13000
O  42.31400 43.71500 44.33400
C  41.68100 43.62200 45.60300
H  47.74100 39.66000 42.23700
H  51.73800 44.73500 41.83700
H  46.71800 48.58200 42.53000
H  43.00700 41.09000 42.52600
H  45.07400 39.31500 41.79400
H  44.04200 40.12000 44.33700
H  45.74600 40.27100 44.35000
H  45.01200 38.65800 43.82500
H  43.22900 41.59300 39.74800
H  42.28500 40.47000 40.77400
H  43.67500 38.71900 39.70600
H  45.04500 39.73900 39.53400
H  50.90800 39.44400 40.65400
H  49.43100 38.88600 41.43000
H  50.97800 38.99800 42.35300
H  53.31400 43.67600 40.90200
H  54.42400 42.44300 41.45300
H  53.31500 43.28100 42.68700
H  51.16000 47.30000 41.27600
H  49.27300 48.59600 43.18600
H  51.45300 48.17400 43.91500
H  52.68100 47.38600 42.97900
H  51.71300 46.33400 43.93400
H  48.27500 48.77700 40.32400
H  49.98200 48.82200 40.34500
H  48.04200 50.85200 41.12200
H  49.60800 51.07900 40.55300
H  49.42800 50.67700 42.27800
H  42.98500 48.79700 41.48400
H  44.43600 49.36900 41.88400
H  43.27300 48.73500 43.24200
H  41.84300 43.51200 41.04500
H  41.68700 42.53800 45.71100
H  40.70000 44.09600 45.57200
H  42.36500 43.89100 46.40800
Mg 42.30700 41.13000 26.53100
C  41.86900 43.64200 28.96700
C  42.85300 38.86700 29.05800
C  43.48100 38.87200 24.28300
C  42.21300 43.51000 24.01800
N  42.39100 41.29000 28.79600
C  42.03600 42.33900 29.53200
C  42.01000 42.07800 31.05900
C  42.44400 40.53100 31.04300
C  42.46100 40.15000 29.56000
C  43.65900 40.07600 31.82700
C  40.61500 42.46600 31.71700
C  40.04500 41.58000 32.79200
H  39.42100 42.21000 34.00100
N  42.93900 39.04300 26.68200
C  43.17600 38.35100 27.81000
C  43.65200 36.98100 27.46700
C  43.86000 36.98000 26.05400
C  43.46100 38.30200 25.60800
C  43.89400 35.86100 28.48100
C  44.36300 35.92700 25.17600
O  44.56900 36.13700 23.97200
C  44.79000 34.63600 25.85500
N  42.67500 41.10600 24.47100
C  43.18900 40.14200 23.74500
C  43.39600 40.49200 22.20800
C  43.05300 41.97800 22.25100
C  42.58200 42.22900 23.69900
C  44.78900 40.19800 21.51600
C  41.85900 42.24800 21.27100
C  40.59300 41.49800 21.56700
N  42.09100 43.15100 26.45400
C  42.06100 44.00300 25.32900
C  41.89800 45.32500 25.82000
C  41.82200 45.20000 27.20600
C  41.96000 43.88500 27.55200
C  41.56800 46.57600 25.03400
C  41.48600 45.99900 28.40100
O  41.16800 47.24400 28.55800
C  41.56700 44.97900 29.59100
C  42.69000 45.27700 30.50900
O  43.81900 45.02200 30.26200
O  42.30100 45.86700 31.65400
C  43.25900 45.90300 32.71800
H  42.95100 38.14400 29.87000
H  43.91600 38.24000 23.50600
H  42.20500 44.26500 23.22800
H  42.72600 42.74500 31.53900
H  41.63100 39.97000 31.50400
H  44.26500 39.42700 31.19400
H  43.47300 39.48500 32.72400
H  44.22300 40.94500 32.16600
H  39.93200 42.42800 30.86800
H  40.69700 43.44800 32.18200
H  40.77000 40.89400 33.23000
H  39.28100 40.95700 32.32700
H  43.41700 36.13000 29.42400
H  44.94100 35.64600 28.69500
H  43.29800 35.02100 28.12500
H  43.89400 34.11500 26.19100
H  45.43400 34.71700 26.73100
H  45.23400 33.92500 25.15800
H  42.67500 39.94300 21.60300
H  43.93300 42.55400 21.96500
H  44.95800 40.81700 20.63500
H  44.89400 39.13500 21.30100
H  45.57100 40.30100 22.26900
H  42.08200 41.94500 20.24900
H  41.63000 43.31400 21.29500
H  39.81500 42.24900 21.70400
H  40.61500 40.74100 22.35100
H  40.24600 40.89200 20.73000
H  40.59300 46.93900 25.35800
H  41.44600 46.32600 23.98000
H  42.37600 47.30800 25.04700
H  40.66500 45.03700 30.20000
H  43.69200 46.90300 32.68800
H  44.07900 45.18600 32.75900
H  42.75400 45.67400 33.65700

