158

Mg -2.10800 17.58600 26.94000
C  -2.48300 15.29900 29.55600
C  -2.89100 20.19200 28.94000
C  -2.22000 19.50400 24.19200
C  -2.11200 14.65300 24.74800
N  -2.60100 17.72000 28.95300
C  -2.51600 16.65500 29.89200
C  -2.79100 17.04600 31.30300
C  -3.24200 18.49400 31.04700
C  -2.97600 18.89600 29.50700
C  -4.62000 19.01100 31.58300
C  -1.71900 16.66400 32.37300
C  -1.46300 17.56000 33.61900
H  -1.35500 16.86600 35.01400
N  -2.35300 19.67500 26.60600
C  -2.56500 20.55000 27.60900
C  -2.38000 21.87900 27.02700
C  -2.25300 21.74100 25.59800
C  -2.31200 20.29100 25.39400
C  -2.57400 23.12500 27.91500
C  -2.12700 22.78600 24.44400
O  -2.14200 22.47300 23.25800
C  -1.97200 24.21000 24.76900
N  -2.44200 17.15600 24.78500
C  -2.28900 18.16500 23.92900
C  -2.21300 17.69000 22.50800
C  -2.32100 16.16300 22.65100
C  -2.20200 15.98200 24.16800
C  -3.24700 18.31800 21.46900
C  -1.24600 15.30100 21.84400
C  0.22800 15.46900 22.17900
N  -2.18200 15.40000 27.03700
C  -2.15700 14.35800 26.07100
C  -2.36500 13.07400 26.72400
C  -2.40000 13.36600 28.13400
C  -2.30400 14.76300 28.24700
C  -2.43500 11.77600 26.09300
C  -2.52600 12.83800 29.47100
O  -2.55000 11.66400 29.81400
C  -2.63700 14.02500 30.46600
C  -1.47700 13.77800 31.29500
O  -0.30600 14.16900 31.15700
O  -1.94200 12.99900 32.28800
C  -0.91800 12.73900 33.32700
H  -3.01100 20.94100 29.72600
H  -2.02000 20.13000 23.31900
H  -2.05500 13.76600 24.11400
H  -3.71800 16.58300 31.64200
H  -2.47400 19.12100 31.50000
H  -5.26500 19.26800 30.74200
H  -4.54100 19.95400 32.12400
H  -5.03300 18.34200 32.33800
H  -0.77800 16.56800 31.83100
H  -1.89900 15.69600 32.84100
H  -2.31300 18.24200 33.61600
H  -0.51600 18.07600 33.46700
H  -3.18100 22.82100 28.76800
H  -3.16300 23.81000 27.30500
H  -1.74000 23.74500 28.24500
H  -1.13500 24.46600 25.41900
H  -2.82600 24.47700 25.39200
H  -1.81400 24.83100 23.88800
H  -1.20700 17.80900 22.10500
H  -3.29600 15.75800 22.38100
H  -3.90000 17.51500 21.12900
H  -2.66300 18.53200 20.57400
H  -3.79800 19.21400 21.75500
H  -1.46900 15.52700 20.80100
H  -1.50900 14.26400 22.05100
H  0.51800 16.09100 21.33200
H  0.83600 14.57900 22.01700
H  0.45000 15.95200 23.13000
H  -3.50900 11.65600 25.95500
H  -2.07900 11.09100 26.86200
H  -1.78900 11.85900 25.21900
H  -3.58800 14.00800 30.99800
H  0.03900 13.19700 33.08000
H  -0.78800 11.66200 33.43500
H  -1.32000 13.23900 34.20800
Mg 45.31700 4.55000 47.24600
C  43.63100 7.56700 46.43600
C  42.45200 2.92400 46.10900
C  47.03900 1.71000 47.36900
C  48.22500 6.38600 47.65600
N  43.28900 5.19400 46.23600
C  42.80900 6.45100 46.14400
C  41.34100 6.52500 45.68400
C  40.98100 5.02200 45.68400
C  42.33400 4.33100 46.00400
C  39.85400 4.65000 46.69600
C  41.11800 7.05400 44.24600
C  40.08300 8.16200 44.10100
H  39.37900 8.03100 42.73600
N  44.77200 2.56000 46.95500
C  43.56500 2.08400 46.43400
C  43.61400 0.63000 46.32600
C  44.96600 0.28600 46.73900
C  45.66800 1.50400 47.01500
C  42.50700 -0.23800 45.90300
C  45.51300 -1.13800 46.76700
O  44.75600 -2.03400 46.28000
C  46.83500 -1.61900 47.30700
N  47.37400 4.12800 47.42200
C  47.81900 2.91700 47.42500
C  49.37700 2.88000 47.73000
C  49.76600 4.34600 47.63000
C  48.33500 5.01800 47.60700
C  49.75200 2.11500 48.97000
C  50.51300 4.76100 46.39000
C  51.80000 5.43800 46.73900
N  45.90900 6.63300 47.16500
C  47.08200 7.22400 47.42100
C  46.91500 8.67600 47.32400
C  45.54000 8.82100 46.95000
C  44.98900 7.56100 46.83700
C  47.95400 9.69500 47.43300
C  44.46600 9.79800 46.64600
O  44.50000 11.00300 46.57000
C  43.18600 8.97700 46.46400
C  42.12900 9.09800 47.46500
O  41.74000 8.36000 48.35700
O  41.50300 10.37200 47.37900
C  40.18500 10.48200 47.97800
H  41.53500 2.36200 45.92400
H  47.56400 0.75500 47.30800
H  49.13700 6.93900 47.88900
H  40.65000 6.96700 46.40200
H  40.58700 4.74300 44.70700
H  40.26800 4.00200 47.46800
H  39.04300 4.08900 46.23100
H  39.30300 5.51700 47.05900
H  40.90400 6.30300 43.48600
H  42.02800 7.55700 43.91900
H  40.60300 9.11700 44.16800
H  39.26300 8.00300 44.80200
H  42.61200 -0.36700 44.82600
H  41.53700 0.20200 46.13200
H  42.52300 -1.16500 46.47600
H  46.76700 -2.69400 47.47500
H  46.94500 -1.05700 48.23400
H  47.66700 -1.56100 46.60600
H  49.86900 2.30200 46.94800
H  50.23900 4.68200 48.55300
H  48.84600 1.99400 49.56200
H  50.51000 2.64700 49.54600
H  50.15100 1.11200 48.81400
H  49.89500 5.48000 45.85300
H  50.71100 3.84300 45.83600
H  52.53400 4.81300 47.24900
H  51.47800 6.35500 47.23300
H  52.33700 5.91000 45.91600
H  48.39900 9.81800 48.42000
H  47.49900 10.63400 47.11600
H  48.66100 9.40000 46.65700
H  42.66600 9.17700 45.52600
H  39.48100 11.12300 47.44900
H  40.40300 10.99600 48.91400
H  39.71100 9.52200 48.18400

