158

Mg 23.08600 -6.06000 44.89800
C  25.48800 -4.08500 43.41800
C  20.73900 -4.42500 42.93600
C  20.73900 -8.67400 45.36200
C  25.41300 -8.00200 46.35700
N  23.08000 -4.52800 43.42900
C  24.25000 -3.78300 43.09400
C  23.93900 -2.59800 42.20200
C  22.40000 -2.60800 42.25300
C  22.03000 -3.91900 42.89700
C  21.63800 -1.39900 42.85800
C  24.48100 -2.88400 40.74900
C  25.07500 -1.69300 39.98800
H  26.19900 -2.06000 39.01500
N  21.03100 -6.46400 44.32100
C  20.25200 -5.58300 43.62300
C  18.89300 -6.13400 43.42400
C  18.86000 -7.38700 44.14500
C  20.26100 -7.54400 44.64400
C  17.81400 -5.50700 42.49900
C  17.68600 -8.36800 44.17900
O  16.53600 -7.96400 43.92000
C  17.71500 -9.84600 44.55500
N  23.04200 -8.11200 45.70800
C  21.99500 -8.88300 45.89400
C  22.38700 -10.18900 46.61400
C  23.77800 -9.83700 47.12300
C  24.10100 -8.60300 46.39100
C  21.35100 -10.67500 47.66300
C  24.84600 -10.93400 46.96000
C  25.88600 -11.05300 48.07500
N  25.04000 -6.15900 44.86800
C  25.94500 -6.91700 45.68600
C  27.29300 -6.34800 45.59800
C  27.15100 -5.26700 44.72200
C  25.76300 -5.20000 44.25300
C  28.53800 -6.90600 46.15600
C  27.93100 -4.19800 44.03400
O  29.15200 -3.92000 44.14100
C  26.86000 -3.44400 43.12400
C  26.97200 -2.00300 43.52400
O  26.44300 -1.42500 44.47700
O  27.77700 -1.41500 42.55300
C  27.99200 0.01500 42.69000
H  20.10500 -3.80700 42.29700
H  19.99900 -9.47700 45.39000
H  26.19400 -8.53900 46.90100
H  24.44700 -1.72000 42.60100
H  22.14800 -2.75400 41.20200
H  21.06500 -1.63700 43.75500
H  20.91300 -0.98400 42.15800
H  22.40800 -0.65400 43.05800
H  23.69500 -3.40200 40.20000
H  25.25000 -3.65600 40.72200
H  25.35000 -0.94100 40.72700
H  24.23600 -1.23700 39.46200
H  17.44200 -6.35000 41.91700
H  18.07300 -4.74200 41.76700
H  16.99800 -5.06500 43.07100
H  16.70900 -10.19800 44.32700
H  17.98200 -10.03600 45.59500
H  18.30000 -10.41300 43.83100
H  22.51100 -10.99200 45.88800
H  23.61500 -9.47400 48.13700
H  20.52000 -9.97000 47.69700
H  21.78700 -10.97800 48.61500
H  20.99200 -11.61000 47.23400
H  25.37300 -10.78800 46.01700
H  24.29700 -11.87500 46.93800
H  26.82100 -11.50800 47.74700
H  25.55800 -11.82700 48.76900
H  26.06700 -10.11600 48.60200
H  28.91000 -6.09500 46.78300
H  29.33000 -7.07900 45.42700
H  28.43600 -7.81400 46.75000
H  27.27300 -3.53100 42.12000
H  29.01000 0.26300 42.38900
H  27.77000 0.50000 43.64000
H  27.46200 0.54900 41.90100
Mg 35.79800 2.45600 29.76900
C  33.48400 3.40700 32.27100
C  38.24500 2.54300 32.18400
C  38.00900 1.73900 27.44900
C  33.26400 2.87000 27.43500
N  35.80900 2.96500 31.95500
C  34.76800 3.12700 32.80200
C  35.19100 3.13600 34.26500
C  36.71100 3.16800 34.14800
C  36.92900 2.75300 32.66600
C  37.31200 4.47300 34.59600
C  34.52700 1.92100 35.00100
C  33.81300 2.26400 36.37600
H  34.40200 3.30100 37.29600
N  37.89400 2.13800 29.84300
C  38.75600 2.21400 30.92600
C  40.07700 1.79400 30.51800
C  40.02600 1.46400 29.11000
C  38.67200 1.81800 28.71500
C  41.28300 1.80200 31.40500
C  41.19700 0.97900 28.22300
O  41.11500 0.81600 27.01900
C  42.58400 0.61000 28.76400
N  35.65800 2.43200 27.75800
C  36.69100 1.96800 26.96300
C  36.23300 1.62400 25.54200
C  34.77100 2.07300 25.48800
C  34.50700 2.46800 27.00800
C  37.12600 2.36700 24.52100
C  33.85000 1.01200 24.95500
C  32.54400 1.49500 24.22400
N  33.75700 3.05200 29.78100
C  32.87600 3.21100 28.71600
C  31.55800 3.67600 29.27300
C  31.73300 3.68900 30.69200
C  33.15200 3.41600 30.90800
C  30.34900 3.95700 28.42600
C  31.10200 3.88000 31.92300
O  29.93100 4.19500 32.14400
C  32.22200 3.70600 33.00900
C  32.30500 4.99300 33.80700
O  33.10300 5.87600 33.70700
O  31.32200 4.99200 34.80800
C  31.11900 6.01700 35.77900
H  38.98600 2.59700 32.98500
H  38.79600 1.47400 26.73900
H  32.48900 3.09100 26.69800
H  34.74500 4.03900 34.68000
H  37.14600 2.37400 34.75500
H  37.69000 4.35300 35.61100
H  36.54000 5.21000 34.37500
H  38.08200 4.73800 33.87300
H  35.30100 1.15400 35.02800
H  33.73500 1.56900 34.34100
H  33.61100 1.32900 36.89900
H  32.79500 2.48600 36.05600
H  42.22600 2.23200 31.06700
H  41.56400 0.75700 31.53700
H  41.01300 2.17800 32.39200
H  43.18000 0.14700 27.97700
H  42.56500 -0.05100 29.63100
H  43.16200 1.47500 29.08900
H  36.42000 0.58200 25.28500
H  34.70800 3.01000 24.93400
H  37.78900 1.64700 24.04200
H  37.79300 3.12500 24.93300
H  36.51400 2.71400 23.68900
H  33.56100 0.30700 25.73500
H  34.39600 0.36300 24.27000
H  32.44600 2.57700 24.31200
H  31.61100 0.94800 24.36600
H  32.74200 1.22600 23.18700
H  30.74100 4.62200 27.65700
H  29.54500 4.47600 28.94800
H  29.96500 3.11000 27.85800
H  31.95900 2.88000 33.67100
H  30.66400 5.62400 36.68800
H  30.45300 6.80400 35.42200
H  32.00100 6.49600 36.20400

