158

Mg 9.23100 4.10800 27.07700
C  10.55900 2.75000 30.08400
C  7.47700 6.25000 29.01600
C  8.09400 5.33300 24.23900
C  10.54200 1.39000 25.35200
N  9.03400 4.47900 29.39300
C  9.70600 3.90400 30.36000
C  9.41600 4.54400 31.75600
C  8.30300 5.57700 31.38700
C  8.20500 5.40100 29.86800
C  6.96900 5.48300 32.16200
C  10.63800 5.13400 32.47700
C  10.25700 5.83700 33.78600
H  11.20900 5.55500 35.00700
N  8.01800 5.53700 26.73600
C  7.29500 6.31800 27.58800
C  6.57600 7.32700 26.91300
C  6.98200 7.28400 25.58500
C  7.71900 6.01100 25.45200
C  5.55900 8.22000 27.49200
C  6.55100 8.11900 24.50000
O  6.85400 8.00100 23.31900
C  5.69300 9.33800 24.78000
N  9.60500 3.54600 25.03900
C  8.90600 4.14600 24.02900
C  9.08900 3.44100 22.69500
C  9.72700 2.11400 23.15900
C  10.00600 2.37400 24.57600
C  7.81500 3.38600 21.76300
C  10.87700 1.65200 22.19900
C  10.58200 0.40800 21.37800
N  10.26500 2.40600 27.54300
C  10.79200 1.42100 26.70800
C  11.52600 0.46100 27.56900
C  11.53900 1.04100 28.88300
C  10.71400 2.16800 28.79300
C  12.21500 -0.73200 27.20300
C  12.06000 0.79900 30.21000
O  12.77100 -0.04700 30.78600
C  11.42000 1.97600 31.06200
C  10.66500 1.25500 32.09700
O  9.63400 0.64000 31.74700
O  11.22600 1.50300 33.37500
C  10.41400 1.10100 34.46300
H  7.06100 7.07100 29.60300
H  7.71800 5.71000 23.28600
H  10.89000 0.52800 24.77800
H  9.06400 3.82400 32.49500
H  8.69800 6.56700 31.61700
H  6.90500 6.31500 32.86300
H  6.86000 4.52500 32.67100
H  6.13300 5.59300 31.47000
H  11.31600 5.70200 31.84000
H  11.25200 4.26900 32.72600
H  9.29400 5.40800 34.06200
H  10.18300 6.91300 33.63400
H  4.61600 8.08300 26.96400
H  5.86100 9.25900 27.35900
H  5.47000 7.93800 28.54100
H  5.77200 10.01800 23.93200
H  6.23700 9.98200 25.47100
H  4.65700 9.20400 25.09300
H  9.90400 4.01000 22.24800
H  8.89000 1.41500 23.15200
H  6.94600 3.77900 22.29000
H  7.77700 2.30000 21.67700
H  8.03200 3.83600 20.79500
H  11.74300 1.55400 22.85400
H  11.27100 2.41200 21.52500
H  11.23000 -0.44300 21.59100
H  10.84100 0.59200 20.33500
H  9.51600 0.18300 21.36800
H  11.89400 -1.60400 27.77400
H  13.29000 -0.56400 27.26300
H  11.95200 -1.12400 26.22000
H  12.26400 2.45900 31.55300
H  9.50300 0.63400 34.08800
H  10.23500 1.88300 35.20000
H  10.99000 0.31700 34.95400
Mg -11.15000 16.76900 42.67400
C  -7.71500 17.83800 43.19400
C  -12.15300 19.96800 42.37700
C  -14.24000 15.46700 42.34600
C  -9.83100 13.49600 42.67900
N  -9.96300 18.61900 42.51200
C  -8.65000 18.91700 42.90600
C  -8.46600 20.39900 42.63100
C  -9.85900 21.00200 42.90700
C  -10.75300 19.76200 42.59900
C  -9.99600 21.65100 44.31000
C  -7.94400 20.56600 41.14500
C  -6.49700 21.03800 41.01200
H  -5.48900 20.35900 40.06300
N  -12.93300 17.61400 42.26600
C  -13.18600 19.00300 42.13600
C  -14.54400 19.26400 41.90200
C  -15.11500 18.00100 41.86700
C  -14.14200 16.92000 42.26800
C  -15.14700 20.66700 41.89600
C  -16.59600 17.80600 41.70100
O  -17.35000 18.76000 41.57600
C  -17.25800 16.45100 41.76300
N  -11.89500 14.83200 42.50000
C  -13.20900 14.52300 42.42200
C  -13.56000 13.00800 42.47400
C  -12.12100 12.36500 42.66100
C  -11.21700 13.67400 42.54400
C  -14.65100 12.59700 43.50500
C  -11.83600 11.21300 41.62900
C  -12.34500 9.78900 41.87400
N  -9.23800 15.85800 42.94900
C  -8.91800 14.48600 42.88500
C  -7.48900 14.37600 43.07000
C  -7.00600 15.62400 43.35800
C  -8.09900 16.54700 43.11300
C  -6.55100 13.14500 42.86900
C  -5.86700 16.40600 43.65400
O  -4.67000 16.08900 43.87800
C  -6.32300 17.88500 43.59400
C  -6.03200 18.61400 44.86700
O  -6.50600 18.42700 45.99000
O  -4.92900 19.33200 44.64400
C  -4.13000 19.89100 45.73700
H  -12.69200 20.91600 42.43300
H  -15.23500 15.05000 42.17500
H  -9.52200 12.46600 42.48900
H  -7.78000 20.90100 43.31300
H  -10.10500 21.70500 42.11200
H  -10.79900 21.18700 44.88300
H  -10.34800 22.66700 44.13200
H  -9.10000 21.75000 44.92400
H  -8.47700 21.21800 40.45300
H  -7.97200 19.61400 40.61500
H  -6.01200 20.96500 41.98500
H  -6.55000 22.10200 40.77800
H  -15.93000 20.82600 42.63800
H  -15.71600 20.84300 40.98300
H  -14.53700 21.57000 41.90600
H  -18.34600 16.48700 41.80700
H  -17.04700 15.95300 42.70900
H  -16.99900 15.92500 40.84400
H  -14.00300 12.87700 41.48700
H  -12.01100 11.97300 43.67200
H  -15.12400 13.54900 43.74400
H  -14.13600 12.33700 44.43000
H  -15.41600 11.92300 43.11900
H  -10.84200 11.14000 41.18800
H  -12.34300 11.62400 40.75600
H  -12.93700 9.85300 42.78700
H  -11.62300 8.97400 41.92900
H  -13.02800 9.38200 41.12900
H  -5.50100 13.31600 42.63300
H  -6.96600 12.43100 42.15700
H  -6.55000 12.67600 43.85200
H  -5.64100 18.28900 42.84600
H  -3.18800 20.38000 45.48800
H  -3.95000 18.97200 46.29400
H  -4.66600 20.56600 46.40300

