158

Mg 42.38600 41.52000 26.08100
C  41.49500 43.79200 28.66000
C  43.17000 39.24500 28.57100
C  43.61900 39.48200 23.75700
C  41.61800 43.95500 23.76400
N  42.48200 41.54500 28.32800
C  41.95600 42.54100 29.15500
C  41.96800 42.15300 30.66600
C  42.56100 40.73500 30.60700
C  42.77900 40.47200 29.13200
C  43.78700 40.55800 31.56400
C  40.54300 42.33700 31.42100
C  40.47900 41.57400 32.77000
H  39.68800 42.21200 33.97300
N  43.15400 39.56300 26.11100
C  43.27300 38.74800 27.23900
C  43.65400 37.42100 26.83300
C  43.75700 37.46900 25.36100
C  43.54800 38.88500 24.97700
C  43.97100 36.25400 27.87400
C  44.16900 36.31400 24.40200
O  44.69800 36.61300 23.33600
C  44.03700 34.88900 24.92300
N  42.85100 41.76400 24.15400
C  43.28900 40.76400 23.32000
C  43.18600 41.05300 21.79400
C  42.24700 42.32300 21.84700
C  42.27100 42.76100 23.32700
C  44.58500 41.27300 21.16200
C  40.79600 42.02500 21.31700
C  40.12400 40.69300 21.73300
N  41.81700 43.53600 26.10800
C  41.56500 44.35700 25.09400
C  41.09200 45.61600 25.58300
C  41.08800 45.45600 26.96800
C  41.45800 44.13500 27.26500
C  40.69900 46.86600 24.86500
C  40.78600 46.04500 28.22100
O  40.44400 47.16900 28.41400
C  41.00500 45.04900 29.37600
C  42.14600 45.60600 30.28100
O  43.31300 45.70700 29.97000
O  41.68700 45.74300 31.50900
C  42.62200 46.00100 32.62900
H  43.24200 38.54900 29.41000
H  43.89500 38.70000 23.04700
H  41.12100 44.56800 23.00900
H  42.59000 42.85000 31.22700
H  41.78400 40.02700 30.89700
H  44.69900 40.41700 30.98500
H  43.68900 39.64800 32.15700
H  43.99000 41.33100 32.30500
H  39.70300 42.10000 30.76800
H  40.43900 43.41500 31.54200
H  41.46900 41.44000 33.20500
H  40.05300 40.60100 32.52400
H  45.01600 36.01500 27.67700
H  43.40100 35.32600 27.83300
H  43.92200 36.55300 28.92100
H  44.85000 34.74000 25.63300
H  44.04500 34.24800 24.04200
H  43.08800 34.71600 25.43000
H  42.70500 40.34300 21.12200
H  42.73700 43.00100 21.14700
H  44.80500 42.31500 20.92800
H  44.67600 40.70500 20.23600
H  45.28900 40.89900 21.90500
H  40.92900 42.08900 20.23700
H  40.04400 42.77700 21.55700
H  39.93000 40.07000 20.86000
H  39.14800 40.94300 22.14800
H  40.65000 39.99900 22.38900
H  39.89100 47.25700 25.48300
H  40.45400 46.73000 23.81200
H  41.60600 47.45600 24.99100
H  40.04000 44.82400 29.83100
H  42.08900 46.56000 33.39800
H  43.40400 46.65700 32.24700
H  43.00900 45.04600 32.98600
Mg -11.26500 38.00700 42.69500
C  -9.06800 35.40100 41.46800
C  -9.42100 40.19100 40.98600
C  -13.83000 40.00400 42.96700
C  -13.26300 35.32200 44.16400
N  -9.54800 37.74000 41.26100
C  -8.81100 36.61900 40.96700
C  -7.61900 36.97300 40.09900
C  -7.60700 38.57500 40.24600
C  -8.97400 38.89500 40.85600
C  -6.40700 39.13000 41.08400
C  -7.78900 36.46100 38.65400
C  -6.62600 35.60900 38.24200
H  -5.54000 36.26800 37.38200
N  -11.65300 39.88100 42.06400
C  -10.71100 40.66100 41.45700
C  -11.17000 41.97100 41.38800
C  -12.43100 41.99400 42.06600
C  -12.73900 40.59300 42.40900
C  -10.36800 42.96500 40.69200
C  -13.23300 43.21400 42.30200
O  -12.87000 44.34700 41.87500
C  -14.53600 43.14100 43.04000
N  -13.25500 37.65000 43.43600
C  -14.12700 38.70100 43.38100
C  -15.49000 38.28700 43.98200
C  -15.35800 36.72800 44.15900
C  -13.85300 36.52400 43.91000
C  -16.00600 39.11800 45.18500
C  -16.20700 35.81200 43.18700
C  -17.21300 34.86800 43.82000
N  -11.11600 35.85100 42.98100
C  -11.95500 34.94800 43.68800
C  -11.22200 33.64500 43.67400
C  -10.10800 33.78900 42.82800
C  -10.10200 35.13000 42.40200
C  -11.71700 32.49000 44.33900
C  -9.03700 33.05000 42.21300
O  -8.79400 31.82500 42.29500
C  -8.28200 34.08400 41.27300
C  -6.80400 34.02900 41.64000
O  -6.23200 34.83900 42.38700
O  -6.21000 32.98000 41.01000
C  -4.76100 32.75100 41.36100
H  -8.80100 41.03100 40.66600
H  -14.68900 40.67600 43.01800
H  -13.87300 34.52300 44.59100
H  -6.71000 36.55100 40.52700
H  -7.45000 39.08200 39.29400
H  -5.93300 39.78400 40.35200
H  -5.63700 38.42500 41.39800
H  -6.68400 39.73100 41.95000
H  -7.70200 37.33400 38.00800
H  -8.78600 36.04200 38.51600
H  -7.03800 34.70900 37.78400
H  -6.20900 35.18300 39.15500
H  -9.42700 43.19700 41.19000
H  -10.86600 43.91600 40.50200
H  -10.13200 42.69200 39.66300
H  -15.26200 42.66100 42.38300
H  -14.73100 44.18800 43.27300
H  -14.37800 42.67900 44.01500
H  -16.30000 38.38600 43.26000
H  -15.63200 36.38000 45.15500
H  -16.84600 39.63800 44.72500
H  -15.27100 39.86700 45.47900
H  -16.38600 38.49300 45.99200
H  -15.50300 35.22500 42.59600
H  -16.69600 36.37000 42.38800
H  -17.56500 35.37600 44.71900
H  -16.77100 33.92800 44.14800
H  -18.13200 34.79600 43.23900
H  -12.29900 32.49700 45.26100
H  -10.86700 31.96500 44.77500
H  -12.07700 31.66900 43.72100
H  -8.42800 33.78200 40.23600
H  -4.52600 31.73700 41.03600
H  -4.64400 32.89200 42.43500
H  -4.06200 33.47200 40.93700

