158

Mg 49.83500 45.59000 41.30400
C  46.64400 46.16400 40.07500
C  49.55600 42.28100 40.23700
C  53.18800 45.21200 41.73000
C  50.21400 49.03700 41.76100
N  48.31200 44.39700 40.13800
C  47.02100 44.84500 39.88400
C  46.23500 43.75300 39.11900
C  47.16900 42.42100 39.29100
C  48.40200 43.02500 40.03800
C  46.60400 41.19500 40.02700
C  46.09200 44.28500 37.67500
C  44.74800 44.25800 37.08000
H  44.52300 44.27400 35.56000
N  51.15400 43.95900 41.16600
C  50.80500 42.66000 40.78900
C  51.90200 41.74600 41.03700
C  53.02300 42.57500 41.49200
C  52.52400 44.01200 41.46000
C  51.79800 40.29400 40.83700
C  54.46100 42.14000 41.80200
O  54.78700 40.92500 41.73200
C  55.46400 43.11400 42.27000
N  51.53400 46.95900 41.63000
C  52.77400 46.52000 41.84400
C  53.76300 47.67200 42.05000
C  52.77200 48.82500 42.25500
C  51.38700 48.24900 41.83400
C  54.92900 47.56300 43.07900
C  53.15500 50.08400 41.38500
C  53.08900 51.34700 42.18700
N  48.68800 47.28800 41.04600
C  48.92200 48.58100 41.32200
C  47.73000 49.41800 41.00100
C  46.90800 48.51200 40.47800
C  47.47800 47.17500 40.61300
C  47.61600 50.85300 41.07400
C  45.61800 48.41700 39.82900
O  44.78300 49.24900 39.46800
C  45.32700 46.86800 39.61700
C  44.03100 46.57500 40.35900
O  43.05500 46.20600 39.75500
O  44.19100 46.59600 41.70200
C  43.19600 45.87400 42.42800
H  49.42300 41.22700 39.98500
H  54.27400 45.22800 41.83800
H  50.44700 50.06800 42.03200
H  45.27500 43.63600 39.62200
H  47.53600 42.03100 38.34200
H  45.51600 41.25600 40.03600
H  47.00200 41.11200 41.03900
H  46.86600 40.24800 39.55500
H  46.77300 43.62100 37.14200
H  46.33800 45.34600 37.63900
H  44.06700 45.02800 37.44100
H  44.21300 43.36000 37.39100
H  52.20400 39.95500 39.88400
H  50.78400 39.95100 41.04000
H  52.31900 39.83800 41.67900
H  54.99600 43.72300 43.04300
H  55.87900 43.64800 41.41500
H  56.32600 42.63800 42.73800
H  54.26300 47.85500 41.10000
H  52.72300 49.08400 43.31300
H  54.80300 46.62300 43.61600
H  54.98900 48.34700 43.83500
H  55.86100 47.65700 42.52100
H  52.40800 50.24700 40.60800
H  54.14000 49.97600 40.93200
H  54.06100 51.83700 42.12000
H  52.89800 51.18000 43.24600
H  52.37800 52.03500 41.73000
H  46.61200 51.11500 41.40800
H  47.73200 51.31900 40.09500
H  48.33400 51.27200 41.77900
H  45.12300 46.69900 38.56000
H  42.93000 45.00200 41.83000
H  42.27300 46.44100 42.55000
H  43.60100 45.68400 43.42200
Mg 26.14500 50.69400 27.60000
C  24.05700 52.05800 29.98900
C  28.27900 49.66900 30.00900
C  28.30200 49.79000 25.18800
C  24.04500 52.05000 25.16000
N  26.10200 50.78200 29.70500
C  25.11100 51.29400 30.52700
C  25.40400 51.04600 32.03000
C  26.88800 50.73400 31.97300
C  27.10600 50.27600 30.46900
C  27.91000 51.83200 32.43000
C  24.50900 50.01900 32.65400
C  24.03300 50.19000 34.14500
H  24.83500 50.88500 35.29900
N  27.94800 49.83900 27.62100
C  28.66400 49.34500 28.72200
C  29.93500 48.77500 28.33600
C  30.04300 48.86800 26.87300
C  28.70600 49.49700 26.49300
C  31.01900 48.12200 29.27400
C  31.18800 48.41400 25.98400
O  31.09200 48.41900 24.78600
C  32.50900 47.94500 26.49800
N  26.27500 51.09600 25.47200
C  27.26800 50.53200 24.64100
C  26.92700 50.67200 23.16300
C  25.47700 51.37500 23.13700
C  25.21500 51.46500 24.68600
C  27.99000 51.36700 22.25900
C  24.38800 50.66900 22.35800
C  23.96900 49.23800 22.70100
N  24.35000 51.68500 27.48300
C  23.65800 52.15500 26.48800
C  22.54900 52.98500 26.91100
C  22.73400 53.02200 28.32000
C  23.78900 52.18400 28.60300
C  21.57500 53.72300 26.09700
C  22.19000 53.47900 29.58500
O  21.29500 54.26800 29.84000
C  23.03000 52.83200 30.74200
C  23.70600 53.90800 31.56000
O  24.68700 54.56100 31.25500
O  22.89800 54.23400 32.68000
C  23.52400 54.91800 33.85200
H  28.97400 49.34100 30.78400
H  28.91700 49.46600 24.34500
H  23.40000 52.41600 24.35900
H  25.37100 52.05500 32.44000
H  27.08500 49.82300 32.53700
H  28.59000 52.12300 31.62900
H  28.50500 51.33500 33.19600
H  27.42800 52.71100 32.85800
H  24.92400 49.01700 32.54400
H  23.59000 49.85800 32.08900
H  23.88200 49.14300 34.40900
H  23.12600 50.79400 34.17000
H  30.40100 47.82500 30.12200
H  31.77700 48.84700 29.57200
H  31.53800 47.25300 28.87000
H  32.92000 48.71900 27.14600
H  33.14800 47.88500 25.61700
H  32.47900 46.91400 26.85000
H  26.83300 49.64900 22.79800
H  25.60700 52.42500 22.87200
H  27.51500 52.19700 21.73500
H  28.25000 50.61800 21.51100
H  28.84100 51.82000 22.76700
H  24.67600 50.70000 21.30700
H  23.52900 51.31500 22.54100
H  24.28500 48.62800 21.85400
H  22.88900 49.12400 22.60300
H  24.35000 48.83400 23.63900
H  22.09600 54.59000 25.69200
H  20.68600 54.01000 26.65800
H  21.28900 53.00300 25.33000
H  22.46500 52.18300 31.41200
H  23.75400 55.97300 33.70400
H  24.42400 54.32800 34.02600
H  22.91600 54.80100 34.74900

