158

Mg -1.72400 17.55900 25.39400
C  -2.02900 15.36000 28.01300
C  -2.08900 20.10400 27.59200
C  -2.40100 19.73600 22.76500
C  -2.05600 14.79700 23.21000
N  -1.99400 17.72100 27.53600
C  -2.05700 16.67500 28.39700
C  -2.08500 17.17100 29.86400
C  -2.30100 18.74900 29.75000
C  -2.13200 18.89700 28.23300
C  -3.64500 19.22700 30.28500
C  -0.94700 16.72000 30.78300
C  -0.38500 17.52100 31.99700
H  -0.14200 16.75100 33.36400
N  -1.88800 19.65400 25.20700
C  -2.00900 20.51400 26.27200
C  -1.90200 21.84700 25.77500
C  -1.96000 21.77600 24.32200
C  -2.11000 20.34900 24.05900
C  -2.01700 23.04800 26.73800
C  -1.92700 22.86600 23.21100
O  -2.04600 22.65900 22.02200
C  -1.57100 24.25500 23.71700
N  -2.25700 17.36500 23.24900
C  -2.46100 18.36700 22.40200
C  -2.75000 17.81500 21.06400
C  -2.40500 16.29700 21.05800
C  -2.22700 16.13200 22.57600
C  -4.23900 18.02100 20.59000
C  -1.09100 16.00600 20.24500
C  0.29300 16.14600 20.88500
N  -1.87200 15.44500 25.46800
C  -1.85300 14.45100 24.55500
C  -1.95200 13.15900 25.18300
C  -2.06000 13.42700 26.56200
C  -1.88900 14.84000 26.68300
C  -2.14400 11.87300 24.52900
C  -2.22300 12.83700 27.82200
O  -2.31600 11.65900 28.15700
C  -2.25700 14.09000 28.86800
C  -1.35600 13.74000 29.98900
O  -0.15100 13.73800 29.96300
O  -2.13300 13.29700 31.08000
C  -1.38100 12.74300 32.20500
H  -2.21800 20.94900 28.27200
H  -2.62600 20.37100 21.90500
H  -2.11900 13.91400 22.57100
H  -2.99700 16.76100 30.29700
H  -1.45500 19.27500 30.19100
H  -4.33500 18.45600 30.62800
H  -4.24900 19.72500 29.52600
H  -3.49700 20.02500 31.01300
H  -0.16600 16.42000 30.08400
H  -1.26600 15.80000 31.27200
H  -0.96700 18.40800 32.24700
H  0.62000 17.78300 31.66500
H  -3.00600 23.48100 26.59200
H  -1.31700 23.85800 26.53300
H  -1.83800 22.83600 27.79300
H  -0.58600 24.01400 24.11800
H  -2.29500 24.56300 24.47100
H  -1.57300 24.84500 22.80000
H  -2.13600 18.39800 20.37800
H  -3.24000 15.68400 20.71700
H  -4.38800 19.03200 20.21000
H  -4.95700 17.84400 21.39000
H  -4.46000 17.25900 19.84200
H  -1.03000 16.75600 19.45600
H  -1.16200 15.06500 19.70000
H  0.91500 16.68600 20.17200
H  0.63000 15.11000 20.93500
H  0.40000 16.72000 21.80500
H  -2.07000 11.92400 23.44300
H  -3.10700 11.44200 24.80000
H  -1.46100 11.12900 24.93800
H  -3.29300 14.14400 29.20000
H  -1.33200 13.58500 32.89500
H  -0.35100 12.47100 31.97400
H  -1.83800 11.90200 32.72700
Mg -10.75500 17.70200 42.25900
C  -7.30600 18.17200 42.89400
C  -11.07600 21.21300 42.31500
C  -13.78100 17.31000 40.99500
C  -10.07200 14.30300 41.93000
N  -9.37800 19.43500 42.53800
C  -8.08200 19.38800 42.72700
C  -7.43500 20.82900 42.63100
C  -8.69300 21.74200 42.91400
C  -9.81100 20.79100 42.62800
C  -8.64900 22.35000 44.38200
C  -6.95800 21.00700 41.10000
C  -5.37200 21.00400 40.88100
H  -4.80900 20.18100 39.65700
N  -12.20800 19.07200 41.71000
C  -12.18600 20.47100 41.82400
C  -13.40100 21.01900 41.36400
C  -14.15400 19.92600 40.86400
C  -13.37900 18.66600 41.14000
C  -13.85700 22.51800 41.24000
C  -15.48100 19.99700 40.15900
O  -16.01500 21.06800 39.97700
C  -16.13300 18.79400 39.52600
N  -11.75300 16.07000 41.61300
C  -13.03500 16.17200 41.27200
C  -13.59800 14.82200 40.99200
C  -12.46300 13.80600 41.34800
C  -11.35500 14.75300 41.62100
C  -14.96600 14.51200 41.68500
C  -12.18000 12.74600 40.28300
C  -12.74100 11.27500 40.51700
N  -9.03100 16.41200 42.55600
C  -8.96100 15.04900 42.35200
C  -7.59500 14.61900 42.57000
C  -6.88200 15.82300 42.83200
C  -7.80400 16.87700 42.78900
C  -7.13100 13.20700 42.45900
C  -5.57700 16.38800 43.06300
O  -4.47000 15.83000 43.13200
C  -5.76700 17.99400 43.20000
C  -5.23800 18.53500 44.50000
O  -5.54700 18.13900 45.55700
O  -4.32500 19.51900 44.30800
C  -3.72300 20.19300 45.46300
H  -11.20600 22.28700 42.46000
H  -14.80300 17.08300 40.68300
H  -9.96000 13.21800 41.88100
H  -6.59500 21.09100 43.27500
H  -8.69600 22.59600 42.23700
H  -9.57200 22.09800 44.90600
H  -8.75200 23.42600 44.23800
H  -7.72700 22.09900 44.90600
H  -7.23100 22.00100 40.74700
H  -7.29600 20.17800 40.47800
H  -4.93700 20.50400 41.74700
H  -4.95300 22.00100 40.74500
H  -13.05300 23.16700 41.58800
H  -14.71200 22.84700 41.83200
H  -14.04300 22.82000 40.21000
H  -16.91900 19.16300 38.86800
H  -16.50400 18.20900 40.36700
H  -15.45000 18.30200 38.83300
H  -13.77800 14.76400 39.91800
H  -12.63600 13.37100 42.33200
H  -15.70500 14.24500 40.92900
H  -15.23000 15.39200 42.27000
H  -14.96100 13.73100 42.44600
H  -11.11700 12.52300 40.18500
H  -12.39500 13.15100 39.29400
H  -13.54100 11.29000 41.25800
H  -11.88800 10.66800 40.82200
H  -13.21900 10.93300 39.59900
H  -7.72500 12.69900 41.69900
H  -7.06700 12.68200 43.41200
H  -6.11700 13.27100 42.06700
H  -5.10000 18.36000 42.42000
H  -4.47100 20.40800 46.22600
H  -3.31700 21.13600 45.09800
H  -2.86600 19.71700 45.94000

