158

Mg 7.02900 53.33200 41.18300
C  5.82000 50.04100 40.97100
C  10.09200 52.18500 40.24300
C  7.97600 56.57100 40.46700
C  3.82100 54.48500 41.82600
N  7.78600 51.32800 40.54500
C  7.16000 50.13500 40.65400
C  8.15100 48.91900 40.62400
C  9.57100 49.70900 40.62700
C  9.10000 51.19300 40.48300
C  10.50000 49.55500 41.84100
C  8.02900 47.87000 39.53200
C  8.50800 48.22200 38.09800
H  7.63700 47.65700 36.93400
N  8.82400 54.24700 40.36900
C  10.00500 53.57900 40.10400
C  11.02400 54.54400 39.83100
C  10.41400 55.85500 39.82100
C  8.98600 55.60000 40.23700
C  12.46200 54.15600 39.56400
C  11.13700 57.18400 39.39600
O  12.33300 57.19800 39.00300
C  10.34400 58.40900 39.17300
N  6.06900 55.27300 41.21200
C  6.67800 56.43800 40.87900
C  5.83600 57.68500 41.30000
C  4.49700 56.98100 41.72700
C  4.76800 55.49100 41.53300
C  6.42600 58.64100 42.28300
C  3.16300 57.51700 41.00200
C  2.81300 59.03100 41.10100
N  5.17200 52.50100 41.37400
C  3.91300 53.08800 41.57200
C  2.91600 52.11500 41.55000
C  3.63200 50.90300 41.37400
C  4.99600 51.18600 41.25300
C  1.38100 52.24600 41.82500
C  3.43500 49.48700 41.30500
O  2.43000 48.81900 41.38200
C  4.87100 48.82800 40.99800
C  4.72300 47.93000 39.70700
O  4.57800 48.34200 38.55600
O  4.69800 46.58300 40.00900
C  4.82100 45.64000 38.86100
H  11.10500 51.83000 40.03700
H  8.36400 57.58200 40.32700
H  2.82600 54.74400 42.19400
H  8.06900 48.42900 41.59500
H  10.10100 49.48900 39.70100
H  10.44000 50.46500 42.43700
H  11.51000 49.39400 41.46300
H  10.36200 48.66000 42.44800
H  7.11500 47.28600 39.62900
H  8.67700 47.04100 39.81800
H  9.54700 47.99700 37.85600
H  8.41400 49.30000 37.96700
H  12.55300 53.19800 39.05300
H  13.03200 53.99200 40.47900
H  13.04100 54.88000 38.99100
H  9.48600 58.09900 38.57500
H  10.86100 59.10700 38.51500
H  10.14000 58.94600 40.09900
H  5.77900 58.30700 40.40700
H  4.52600 57.22400 42.79000
H  7.34500 58.19900 42.66800
H  5.73000 58.79700 43.10600
H  6.76800 59.51600 41.73000
H  2.29300 56.90200 41.23300
H  3.35500 57.25300 39.96200
H  3.60500 59.46600 41.71100
H  1.85300 59.20300 41.58700
H  2.72300 59.45300 40.10000
H  0.79300 51.46600 41.34300
H  1.10400 53.23900 41.47300
H  1.23100 52.14400 42.90000
H  5.24100 48.17900 41.79200
H  5.37400 46.07800 38.03000
H  3.85800 45.19100 38.61700
H  5.42600 44.82600 39.26100
Mg -11.74300 38.25600 42.33500
C  -9.53000 35.61900 41.78700
C  -9.23100 40.34600 41.41100
C  -14.02300 40.66700 42.21500
C  -14.25700 35.89100 42.86300
N  -9.61600 37.99200 41.71000
C  -8.91100 36.82200 41.50600
C  -7.48900 37.08800 40.94400
C  -7.28900 38.56900 41.19400
C  -8.78500 39.06000 41.50400
C  -6.27200 39.17200 42.24600
C  -7.27800 36.55900 39.42200
C  -6.32700 35.30400 39.24900
H  -6.54500 34.35600 38.09800
N  -11.67200 40.25800 41.82900
C  -10.53400 40.95600 41.62600
C  -10.89200 42.37900 41.53200
C  -12.29300 42.51500 41.64900
C  -12.73000 41.12800 41.84800
C  -9.87900 43.48600 41.23200
C  -13.11200 43.85700 41.54500
O  -12.55500 44.97200 41.34100
C  -14.55800 43.79600 41.59500
N  -13.80600 38.30600 42.48800
C  -14.47400 39.42400 42.48800
C  -16.06000 39.17700 42.60700
C  -16.00700 37.64700 42.98700
C  -14.63300 37.27500 42.74000
C  -16.61300 40.07600 43.77700
C  -17.14900 36.85800 42.32300
C  -16.81900 36.23700 40.92100
N  -11.94500 36.14500 42.42400
C  -13.02000 35.31200 42.53300
C  -12.61900 33.92200 42.57300
C  -11.22400 33.98300 42.27800
C  -10.89500 35.37200 42.17800
C  -13.57800 32.80700 42.75500
C  -9.98500 33.26200 41.93900
O  -9.89600 32.02500 41.75300
C  -8.86000 34.24200 41.73900
C  -7.71200 34.13800 42.71200
O  -7.70600 34.75000 43.79700
O  -6.72000 33.39000 42.19600
C  -5.46200 33.22300 42.92100
H  -8.40100 41.05300 41.35400
H  -14.80800 41.42300 42.27100
H  -14.97500 35.16300 43.24600
H  -6.82600 36.59700 41.65500
H  -6.94400 38.95900 40.23700
H  -5.74800 38.43600 42.85500
H  -6.80000 39.85500 42.91300
H  -5.51200 39.74300 41.71200
H  -6.81200 37.31100 38.78600
H  -8.21100 36.28500 38.93000
H  -6.15300 34.78400 40.19100
H  -5.35700 35.78000 39.11100
H  -9.98900 43.66800 40.16300
H  -8.92600 43.07100 41.56000
H  -10.04900 44.35900 41.86200
H  -15.02000 43.04500 40.95500
H  -14.92300 44.78300 41.31200
H  -14.88200 43.70800 42.63200
H  -16.49600 39.36200 41.62600
H  -16.10100 37.56800 44.07000
H  -15.81500 40.64400 44.25500
H  -17.12100 39.59100 44.61200
H  -17.39400 40.74800 43.42100
H  -18.03500 37.49200 42.30000
H  -17.28300 36.01700 43.00300
H  -17.65900 36.36900 40.23900
H  -16.68700 35.16200 41.04500
H  -16.01500 36.72100 40.36700
H  -13.92600 32.70900 43.78300
H  -13.05300 31.90000 42.45700
H  -14.39700 32.94400 42.04800
H  -8.51600 34.01000 40.73000
H  -4.70400 32.95700 42.18400
H  -5.41900 32.55200 43.77800
H  -5.13400 34.19400 43.29300

