158

Mg 8.33200 4.05200 27.71400
C  9.49000 2.59700 30.71400
C  5.97400 5.91300 29.67400
C  7.24800 5.52900 24.95800
C  10.26000 1.81700 25.87500
N  7.80700 4.13500 29.91700
C  8.50200 3.59600 30.94500
C  7.99100 4.14200 32.29400
C  6.68800 4.90200 31.89300
C  6.83800 5.03000 30.37300
C  5.33600 4.15500 32.24900
C  8.96300 4.95700 33.17400
C  9.23800 4.39200 34.59000
H  9.91100 5.31800 35.64000
N  6.85800 5.56200 27.34200
C  5.99600 6.19400 28.23500
C  5.24200 7.15700 27.57400
C  5.57400 7.13300 26.22700
C  6.59200 5.99400 26.11100
C  4.19600 8.06800 28.26700
C  5.10000 8.04500 25.02000
O  5.43500 7.86900 23.81300
C  4.19000 9.04800 25.29200
N  8.66200 3.58900 25.72000
C  8.22100 4.51600 24.77600
C  8.82000 4.22200 23.42300
C  9.91500 3.17500 23.74500
C  9.62200 2.81300 25.21800
C  7.83400 3.78600 22.30700
C  11.39800 3.57600 23.48400
C  11.97900 4.57800 24.47700
N  9.56600 2.44100 28.17400
C  10.29400 1.62900 27.36200
C  10.98100 0.57700 28.10600
C  10.73600 0.94100 29.45700
C  9.84300 2.04900 29.41300
C  11.82500 -0.43600 27.50700
C  11.04700 0.57900 30.77500
O  11.67300 -0.26700 31.31100
C  10.31000 1.73800 31.73700
C  9.54100 0.89800 32.75600
O  8.45700 0.33900 32.58200
O  10.23400 0.87500 33.91100
C  9.75700 0.04500 35.06700
H  5.33900 6.54600 30.29700
H  6.96700 6.09000 24.06400
H  10.96000 1.14200 25.37700
H  7.66300 3.19900 32.73200
H  6.69200 5.89100 32.35200
H  4.64600 4.34600 31.42700
H  5.01600 4.56600 33.20700
H  5.51200 3.11700 32.53300
H  8.54100 5.96200 33.18200
H  9.96200 4.96400 32.73800
H  9.91200 3.53900 34.51300
H  8.33900 3.85900 34.90100
H  4.10600 8.01500 29.35200
H  3.25600 7.86300 27.75400
H  4.51600 9.11000 28.27800
H  3.26100 8.56600 25.59900
H  4.09500 9.69200 24.41800
H  4.68300 9.53000 26.13600
H  9.30800 5.14100 23.09800
H  9.78600 2.24700 23.18800
H  6.87900 3.77600 22.83100
H  8.08600 2.80400 21.90700
H  7.87300 4.58600 21.56700
H  11.43600 4.04200 22.49900
H  11.99800 2.66900 23.41200
H  11.33800 4.61800 25.35800
H  11.89200 5.51300 23.92400
H  13.00800 4.52100 24.83400
H  12.39000 0.04800 26.71100
H  11.36200 -1.25700 26.95900
H  12.52800 -0.77900 28.26700
H  11.12000 2.34800 32.13700
H  8.87800 0.58900 35.41400
H  10.50300 -0.07200 35.85300
H  9.38100 -0.90500 34.68700
Mg -12.60700 16.02200 42.31500
C  -9.56600 14.62800 41.55500
C  -11.68400 18.84200 40.44800
C  -15.79500 17.10900 41.93400
C  -13.82100 12.78100 42.98200
N  -10.83200 16.59000 41.13300
C  -9.67100 15.88200 40.96200
C  -8.63300 16.70800 40.21100
C  -9.29600 18.07600 39.86200
C  -10.72700 17.83600 40.48400
C  -8.39600 19.29500 40.31600
C  -8.03000 15.90600 38.95400
C  -6.43500 15.72800 38.91900
H  -5.78800 16.65800 37.78200
N  -13.54600 17.92400 41.66900
C  -12.98400 18.89900 40.93300
C  -13.90400 19.99600 40.72700
C  -15.11500 19.47500 41.08800
C  -14.81500 18.13300 41.61000
C  -13.53600 21.29900 40.14300
C  -16.50500 20.20200 41.02000
O  -16.66600 21.20000 40.34300
C  -17.65300 19.66200 41.80200
N  -14.57100 15.06900 42.25200
C  -15.76100 15.74400 42.22200
C  -16.94100 14.76400 42.43300
C  -16.22600 13.51900 43.17200
C  -14.77600 13.80400 42.78200
C  -18.13900 15.27700 43.30300
C  -16.74700 12.13900 42.69700
C  -16.66200 11.00300 43.72000
N  -11.84400 14.05900 42.42100
C  -12.44300 12.81200 42.73900
C  -11.38300 11.81200 42.95900
C  -10.21200 12.47200 42.54200
C  -10.59300 13.81300 42.11900
C  -11.58400 10.41700 43.48900
C  -8.83700 12.30400 42.30000
O  -8.07900 11.36700 42.49400
C  -8.31700 13.71300 41.65100
C  -7.44700 14.19500 42.68600
O  -7.84000 14.60800 43.77800
O  -6.16300 14.10700 42.26600
C  -5.11400 14.59400 43.21300
H  -11.30800 19.72500 39.92700
H  -16.82800 17.38400 41.71400
H  -14.13500 11.83300 43.42400
H  -7.83300 16.77900 40.94800
H  -9.49900 18.24300 38.80400
H  -8.35200 20.03300 39.51400
H  -7.40900 18.96700 40.63900
H  -8.74800 19.84100 41.19100
H  -8.36000 16.35000 38.01500
H  -8.45800 14.90400 38.97700
H  -6.18100 14.68000 38.76000
H  -5.96400 16.06100 39.84300
H  -13.93700 21.35200 39.13100
H  -12.45300 21.38300 40.05500
H  -13.87800 22.04400 40.86100
H  -18.26900 19.06500 41.12900
H  -18.26100 20.50600 42.12800
H  -17.21000 19.18100 42.67400
H  -17.40000 14.40300 41.51200
H  -16.44500 13.70500 44.22400
H  -18.99200 14.73100 42.89900
H  -18.28700 16.31800 43.01700
H  -18.05200 15.23800 44.38900
H  -16.05400 11.84900 41.90700
H  -17.72100 12.24000 42.21800
H  -15.97400 11.28600 44.51600
H  -16.28700 10.03700 43.38400
H  -17.64500 11.01600 44.19100
H  -11.95200 9.64700 42.81000
H  -12.19500 10.37800 44.39100
H  -10.56800 10.06300 43.66300
H  -7.76300 13.66300 40.71400
H  -5.04600 15.68100 43.21300
H  -4.12900 14.14300 43.09600
H  -5.33000 14.33800 44.25000

