158

Mg 36.07100 49.45600 24.60200
C  36.05900 47.65100 27.57500
C  34.60400 52.08300 26.18000
C  35.86900 50.97400 21.61300
C  37.24300 46.52500 23.03300
N  35.32700 49.75100 26.62700
C  35.65400 48.97200 27.73900
C  35.54700 49.75400 29.04500
C  34.85700 51.11100 28.55800
C  34.97400 51.01600 27.05100
C  33.44700 51.30700 28.98300
C  36.82800 49.85500 29.93700
C  36.57500 49.68200 31.50100
H  35.17100 49.81900 32.07700
N  35.31500 51.18400 24.03200
C  34.78700 52.19500 24.79900
C  34.43200 53.32100 24.03000
C  34.85800 53.07000 22.70500
C  35.40700 51.68100 22.71300
C  33.78200 54.50400 24.65700
C  34.78100 53.97500 21.47500
O  35.16600 53.62400 20.33500
C  34.01400 55.36500 21.54700
N  36.29700 48.77600 22.51500
C  36.29000 49.66400 21.48100
C  36.72800 49.02800 20.13900
C  37.33300 47.67400 20.65300
C  36.90900 47.61800 22.15800
C  35.62200 48.93700 19.08300
C  38.89200 47.49400 20.37300
C  39.99000 47.96100 21.34000
N  36.47500 47.43300 25.07300
C  37.00200 46.36900 24.40900
C  37.17600 45.18600 25.25300
C  36.77200 45.69600 26.50500
C  36.38600 47.04700 26.31700
C  37.53400 43.86800 24.67600
C  36.64600 45.30000 27.86900
O  36.79100 44.22600 28.40900
C  36.18100 46.56700 28.65000
C  35.01600 46.35600 29.43500
O  33.86300 46.46500 28.94900
O  35.34900 45.95900 30.74800
C  34.25300 45.27300 31.39200
H  34.36100 53.00200 26.71700
H  35.86600 51.52400 20.67000
H  37.70200 45.67900 22.51700
H  34.82100 49.09000 29.51400
H  35.34000 51.94400 29.06800
H  33.06700 50.59200 29.71200
H  32.76600 51.29200 28.13100
H  33.28400 52.29300 29.41700
H  37.11100 50.90600 29.88500
H  37.62600 49.23900 29.52200
H  37.20300 50.37000 32.06700
H  37.01200 48.69000 31.61500
H  34.51700 55.19900 25.06200
H  33.28900 54.17300 25.57100
H  32.99600 55.00700 24.09500
H  32.93000 55.25000 21.52300
H  34.36900 55.99800 20.73400
H  34.32800 55.88600 22.45100
H  37.50800 49.60000 19.63700
H  36.80300 46.86800 20.14600
H  34.65900 49.02600 19.58500
H  35.79200 48.00400 18.54500
H  35.81700 49.75800 18.39400
H  39.22400 47.98600 19.45900
H  38.96400 46.41800 20.21500
H  39.59900 48.15700 22.33800
H  40.56900 48.79100 20.93600
H  40.74400 47.19100 21.50500
H  37.63400 43.14600 25.48700
H  38.53600 43.99200 24.26600
H  36.71100 43.77200 23.96800
H  37.06900 46.87900 29.19900
H  33.35200 45.85700 31.20000
H  34.23100 45.42100 32.47200
H  34.25900 44.23000 31.07700
Mg 9.29400 48.75700 26.02600
C  7.00200 48.73900 28.77300
C  11.72800 49.81600 28.17300
C  11.35400 48.72900 23.29400
C  6.54200 48.47000 23.84400
N  9.30000 49.34400 28.27900
C  8.33700 49.11300 29.21400
C  8.82200 49.43500 30.61700
C  10.31500 49.95100 30.32400
C  10.46000 49.75400 28.81300
C  10.77100 51.31700 30.90100
C  8.65300 48.24100 31.61300
C  9.57900 48.13700 32.84100
H  9.01000 47.42200 34.02900
N  11.26500 49.14200 25.78000
C  12.05300 49.62200 26.81100
C  13.38600 49.64400 26.26200
C  13.37300 49.18900 24.87200
C  11.96600 49.00900 24.57700
C  14.60200 50.15700 27.00200
C  14.55300 49.05700 23.85500
O  14.37900 48.84700 22.67500
C  15.89600 49.42800 24.26000
N  8.99400 48.63400 23.88200
C  10.01600 48.52100 22.94800
C  9.51900 48.28400 21.54900
C  8.01400 48.30400 21.75200
C  7.80300 48.49900 23.21200
C  10.10300 49.32600 20.55000
C  7.37500 46.94300 21.17100
C  6.15100 47.09700 20.17700
N  7.27300 48.71300 26.20300
C  6.32900 48.51300 25.24200
C  4.98900 48.41500 25.79100
C  5.25300 48.33800 27.16900
C  6.62600 48.63300 27.42100
C  3.64800 48.24200 25.24200
C  4.56400 48.22900 28.44000
O  3.37700 48.06500 28.66300
C  5.67900 48.52300 29.54600
C  5.83900 47.33100 30.42900
O  6.35200 46.28000 30.12600
O  5.20000 47.53100 31.63900
C  5.21300 46.44100 32.58700
H  12.50400 50.06800 28.89900
H  11.93500 48.62200 22.37600
H  5.67700 48.29600 23.20000
H  8.18900 50.24700 30.97400
H  11.03400 49.30500 30.82900
H  11.40800 51.31700 31.78600
H  9.83800 51.76000 31.24900
H  11.18200 52.07400 30.23300
H  8.48300 47.33500 31.03200
H  7.71000 48.46300 32.11200
H  9.71700 49.18800 33.09700
H  10.52300 47.66800 32.56600
H  14.37900 50.28100 28.06100
H  14.90700 51.11900 26.59000
H  15.44000 49.46000 26.95900
H  16.29700 48.70300 24.96800
H  15.84600 50.35000 24.84000
H  16.41400 49.60500 23.31700
H  9.82000 47.26500 21.30700
H  7.57000 49.01900 21.06000
H  10.72200 50.08400 21.03100
H  9.34200 49.85800 19.97900
H  10.57100 48.77600 19.73400
H  6.99700 46.35500 22.00700
H  8.01500 46.26900 20.60000
H  5.83900 48.13000 20.01900
H  5.28100 46.53500 20.51700
H  6.40900 46.67300 19.20700
H  3.01200 49.09900 25.46500
H  3.33600 47.42300 25.89000
H  3.75600 48.07500 24.17100
H  5.49900 49.44000 30.10700
H  4.92400 46.79800 33.57500
H  6.14500 45.88600 32.69400
H  4.42800 45.73600 32.31200

