158

Mg 9.17100 4.86800 27.73000
C  10.62900 3.28000 30.49100
C  7.11100 6.62000 29.88600
C  7.74600 6.13200 25.03500
C  10.89300 2.63400 25.68800
N  8.80600 4.85500 29.95100
C  9.58000 4.21000 30.85100
C  9.06900 4.50900 32.27900
C  7.86900 5.52000 32.03800
C  7.91500 5.70500 30.54000
C  6.50300 5.22200 32.48200
C  10.24100 5.04400 33.12000
C  10.02200 6.02800 34.28600
H  10.87600 5.76300 35.52000
N  7.62200 6.07300 27.47300
C  6.89800 6.70600 28.43500
C  5.94300 7.62000 27.84200
C  6.18600 7.56800 26.44500
C  7.26200 6.57100 26.29500
C  4.96600 8.45800 28.52800
C  5.56300 8.27000 25.28700
O  6.03400 8.24700 24.20100
C  4.29600 9.01900 25.46500
N  9.27100 4.46300 25.60000
C  8.54000 5.05500 24.72100
C  9.03500 4.75600 23.26800
C  10.00800 3.58700 23.44600
C  10.07000 3.49200 25.01300
C  7.79200 4.50200 22.34200
C  11.36300 3.74400 22.72600
C  11.95800 2.53900 22.11200
N  10.52600 3.24900 27.95100
C  11.10400 2.42900 27.07200
C  11.93000 1.41600 27.76200
C  11.74400 1.71600 29.13600
C  10.96700 2.86100 29.16700
C  12.68200 0.27400 27.08800
C  12.09700 1.39400 30.48100
O  12.92400 0.54400 30.81000
C  11.47400 2.42000 31.44100
C  10.67200 1.54200 32.29800
O  9.64500 0.96800 32.03400
O  11.19200 1.43700 33.56600
C  10.33200 1.01900 34.65700
H  6.50400 7.26100 30.53000
H  7.58800 6.80100 24.18600
H  11.30700 1.90500 24.98700
H  8.83200 3.52500 32.68200
H  8.06800 6.51700 32.43000
H  6.07100 4.66700 31.64900
H  5.98900 6.18200 32.54000
H  6.55100 4.66300 33.41600
H  10.92900 5.60200 32.48500
H  10.64000 4.11800 33.53400
H  8.97000 5.84500 34.50600
H  10.21700 7.03500 33.91800
H  3.95400 8.22100 28.20000
H  5.34500 9.46300 28.33700
H  4.87900 8.22500 29.59000
H  3.93000 9.42300 24.52200
H  4.46700 9.87800 26.11400
H  3.59300 8.30400 25.89300
H  9.53500 5.65900 22.91700
H  9.55200 2.64600 23.13700
H  6.82600 4.41700 22.84000
H  7.94800 3.46800 22.03600
H  7.72000 5.28200 21.58400
H  12.02000 4.05000 23.54100
H  11.25300 4.52200 21.97100
H  11.72300 2.63600 21.05200
H  11.42300 1.64000 22.41700
H  13.03300 2.43700 22.25900
H  11.98400 -0.55800 26.99700
H  13.50400 -0.15900 27.65900
H  12.93100 0.51700 26.05500
H  12.18200 3.02600 32.00600
H  10.14900 1.95100 35.19400
H  10.85700 0.33700 35.32600
H  9.40100 0.58800 34.29100
Mg 47.66800 24.66800 28.19200
C  48.54500 27.25000 30.63900
C  47.12200 22.55700 30.79200
C  47.12600 22.31400 25.89500
C  48.55500 26.96500 25.71300
N  48.02100 24.90800 30.50100
C  48.21200 26.02900 31.28300
C  47.80200 25.77600 32.76400
C  47.69600 24.21300 32.82700
C  47.50800 23.86000 31.32200
C  48.97000 23.54000 33.39900
C  46.49200 26.50500 33.16900
C  46.53900 27.29800 34.53300
H  47.17200 26.65200 35.71500
N  46.97200 22.78100 28.30800
C  46.83100 22.07700 29.49800
C  46.39600 20.73900 29.11500
C  46.36600 20.67300 27.74800
C  46.81800 21.93700 27.27500
C  45.98100 19.65000 30.19700
C  45.91400 19.48400 26.82900
O  45.66900 19.53000 25.67700
C  45.98300 18.13100 27.55900
N  47.84600 24.59800 26.09900
C  47.59200 23.47600 25.34200
C  47.64300 23.76500 23.81100
C  48.26200 25.24200 23.76700
C  48.16300 25.66500 25.27600
C  48.38100 22.70600 22.99800
C  47.57000 26.36300 22.80000
C  48.58700 27.26300 22.11500
N  48.42300 26.64700 28.13600
C  48.66300 27.43000 26.97900
C  49.13100 28.74200 27.42100
C  49.10100 28.68500 28.84000
C  48.66000 27.43300 29.21600
C  49.59600 29.89600 26.53000
C  49.33400 29.49200 30.04700
O  49.76200 30.65400 30.16600
C  48.87200 28.65400 31.30500
C  49.88500 28.46200 32.33000
O  50.95800 27.91400 32.21100
O  49.41600 29.12400 33.43200
C  49.92400 28.78200 34.80000
H  46.96100 21.86600 31.62200
H  46.90400 21.65600 25.05200
H  48.64000 27.75100 24.95900
H  48.59900 26.16500 33.39800
H  46.85900 23.92300 33.46200
H  49.23800 24.18400 34.23600
H  49.79800 23.53600 32.69000
H  48.85000 22.51800 33.76000
H  45.63800 25.83000 33.21300
H  46.17100 27.29200 32.48700
H  45.47800 27.32200 34.78300
H  46.95100 28.29400 34.37100
H  46.62400 18.77000 30.20500
H  44.99600 19.21300 30.02600
H  45.99400 20.04900 31.21100
H  45.86400 17.38400 26.77400
H  45.16500 18.02100 28.27100
H  46.98500 18.11100 27.98700
H  46.59700 23.94100 23.55900
H  49.32300 25.09700 23.56300
H  47.60600 22.28300 22.35800
H  48.89000 21.97900 23.63100
H  49.04200 23.19000 22.28000
H  46.95700 27.07100 23.35700
H  46.88900 26.04100 22.01200
H  48.63100 28.30700 22.42600
H  48.48800 27.20800 21.03100
H  49.58000 26.88100 22.35000
H  49.78300 30.67000 27.27400
H  48.81100 30.21800 25.84500
H  50.56100 29.70900 26.05900
H  48.02900 29.13800 31.79900
H  50.53300 27.87900 34.82900
H  49.12500 28.77700 35.54100
H  50.65600 29.51400 35.14200

