158

Mg 40.85200 9.02200 28.74800
C  42.12300 9.99300 31.87300
C  38.50000 7.07700 30.50400
C  39.79000 7.65700 25.76900
C  43.51900 10.50200 27.20200
N  40.29700 8.68100 30.93500
C  40.97800 9.20000 32.00400
C  40.31400 8.78700 33.35600
C  39.18200 7.74000 32.95200
C  39.17100 7.90700 31.34000
C  39.32200 6.28700 33.47700
C  39.76800 9.95200 34.20400
C  40.25900 9.98700 35.68300
H  40.51600 11.33400 36.37700
N  39.24900 7.62700 28.23400
C  38.41500 7.01100 29.07100
C  37.50800 6.17200 28.27500
C  37.90400 6.31100 26.89000
C  39.03700 7.18500 26.90900
C  36.39400 5.30100 28.89800
C  37.24600 5.75500 25.68000
O  37.69100 5.95000 24.51700
C  36.06400 4.79100 25.72800
N  41.56500 9.00800 26.85000
C  40.90300 8.45500 25.73700
C  41.56800 8.91400 24.40800
C  42.69100 9.85300 24.87000
C  42.55600 9.84100 26.40000
C  42.07200 7.66900 23.60000
C  42.65400 11.26900 24.26200
C  41.30900 11.99700 24.20800
N  42.50800 10.07700 29.29400
C  43.54800 10.56000 28.59000
C  44.48500 11.21100 29.48900
C  43.97100 11.05700 30.77400
C  42.80100 10.32300 30.65400
C  45.72100 11.85200 29.07200
C  44.10600 11.35600 32.10300
O  45.02200 12.02700 32.57800
C  42.98700 10.66600 32.94400
C  43.81500 9.73800 33.84200
O  44.21000 8.64800 33.48400
O  44.03900 10.31300 35.08600
C  45.01000 9.59600 35.95400
H  37.69600 6.56300 31.03400
H  39.35400 7.36400 24.81200
H  44.30200 11.07700 26.70300
H  41.04800 8.17200 33.87600
H  38.22500 8.12700 33.30200
H  38.93400 5.59000 32.73400
H  38.61500 6.27000 34.30600
H  40.38000 6.16800 33.71300
H  38.68100 9.88500 34.19200
H  39.92900 10.90600 33.70200
H  41.06000 9.27200 35.86900
H  39.50100 9.48700 36.28700
H  35.41500 5.61400 28.53600
H  36.41800 5.32600 29.98700
H  36.48700 4.25700 28.59800
H  36.25200 3.94900 26.39300
H  35.85000 4.54900 24.68800
H  35.19800 5.35100 26.08200
H  40.69300 9.17100 23.81100
H  43.62400 9.32700 24.66300
H  42.87500 7.98200 22.93200
H  41.33400 7.16000 22.98000
H  42.34700 6.90300 24.32500
H  43.15600 11.20200 23.29700
H  43.24400 11.85500 24.96800
H  40.57300 11.62700 24.92100
H  40.83000 11.92200 23.23200
H  41.46400 13.05700 24.41000
H  45.59600 12.37500 28.12400
H  46.55400 11.15500 28.97100
H  45.92500 12.56000 29.87500
H  42.43700 11.40200 33.53000
H  44.67600 8.62000 36.30700
H  45.30900 10.26200 36.76300
H  45.86500 9.29100 35.35000
Mg 30.67200 58.54300 40.58300
C  28.06300 56.49100 39.42800
C  32.99800 55.98600 39.81200
C  33.20700 60.80900 40.68700
C  28.37400 61.16500 40.71200
N  30.47400 56.43600 39.81800
C  29.32600 55.83000 39.32000
C  29.65300 54.44600 38.78800
C  31.17200 54.29200 39.36200
C  31.57000 55.68500 39.73900
C  31.32200 53.23400 40.49100
C  29.48200 54.27700 37.22100
C  28.34000 53.39400 36.69100
H  27.46100 54.02800 35.58900
N  32.86400 58.36700 40.35200
C  33.62000 57.20400 40.14100
C  34.96400 57.52500 40.20900
C  35.09900 58.95500 40.38600
C  33.67100 59.46500 40.50600
C  36.03200 56.50700 39.90300
C  36.37500 59.75400 40.34000
O  37.45300 59.20600 40.28100
C  36.31800 61.26000 40.35700
N  30.75200 60.59800 40.82500
C  31.88400 61.29100 40.95300
C  31.64600 62.86000 41.12400
C  30.11200 62.90400 41.15100
C  29.70300 61.45600 40.85900
C  32.22000 63.44600 42.47200
C  29.49800 63.92600 40.20100
C  28.31300 64.76900 40.78900
N  28.62300 58.82300 40.27700
C  27.81500 59.92500 40.36400
C  26.42900 59.54300 40.13000
C  26.51500 58.26200 39.80600
C  27.89300 57.82900 39.75300
C  25.23000 60.56400 40.16200
C  25.68900 57.12800 39.39900
O  24.46100 57.04500 39.37500
C  26.69100 55.94600 39.18100
C  26.20100 54.79600 40.03800
O  26.73800 54.31000 41.01900
O  25.01600 54.35400 39.56000
C  24.45900 53.12400 40.18800
H  33.62500 55.10900 39.63500
H  33.97400 61.58600 40.71900
H  27.73600 62.02500 40.93000
H  28.96100 53.79700 39.32300
H  31.85000 54.06500 38.54000
H  32.04400 52.55000 40.04500
H  30.47200 52.56900 40.64400
H  31.61800 53.64900 41.45500
H  30.36100 53.85400 36.73400
H  29.27000 55.21100 36.70100
H  27.62600 53.19500 37.49000
H  28.79900 52.46700 36.34700
H  35.64500 55.56100 39.52500
H  36.51000 56.24000 40.84600
H  36.81700 56.85700 39.23200
H  35.71100 61.71500 39.57400
H  37.33300 61.62200 40.19100
H  35.97200 61.41600 41.37800
H  31.92500 63.40800 40.22400
H  29.72600 63.15100 42.14000
H  33.16000 62.98200 42.77000
H  31.50300 63.24800 43.26900
H  32.54200 64.46300 42.24900
H  29.16700 63.34300 39.34100
H  30.21900 64.67200 39.86300
H  28.71200 65.70700 41.17500
H  27.81600 64.27000 41.62100
H  27.56900 64.93300 40.01000
H  24.34000 60.06800 39.77500
H  25.44900 61.37300 39.46400
H  25.08800 60.81300 41.21300
H  26.58600 55.72400 38.11900
H  23.91300 53.53700 41.03600
H  25.25900 52.47200 40.54200
H  23.78200 52.55900 39.54800

