158

Mg 8.45600 3.29900 27.38500
C  9.75700 1.76000 30.33000
C  6.71900 5.39800 29.43800
C  7.21700 4.61300 24.58300
C  9.94700 0.65000 25.56100
N  8.42600 3.62800 29.59900
C  9.00700 2.86600 30.62900
C  8.80700 3.59200 32.04800
C  7.76000 4.66300 31.63000
C  7.60800 4.55900 30.09700
C  6.42900 4.60900 32.40900
C  10.27000 3.96200 32.68900
C  10.27300 4.99900 33.79900
H  10.52600 4.47800 35.19100
N  7.14700 4.85700 27.05300
C  6.43900 5.57900 28.07200
C  5.56000 6.54300 27.38400
C  5.73900 6.34900 25.93800
C  6.74000 5.24300 25.81200
C  4.94000 7.71600 28.09900
C  5.20300 7.15800 24.79300
O  5.37900 6.82500 23.59700
C  4.37200 8.44600 25.06600
N  8.74300 2.84900 25.28600
C  8.10800 3.54200 24.30700
C  8.24000 2.80700 22.93700
C  9.17300 1.64300 23.29900
C  9.31500 1.66900 24.80400
C  6.87900 2.24500 22.43700
C  10.57100 1.63100 22.58800
C  10.65700 0.67100 21.37000
N  9.66800 1.61800 27.81400
C  10.09700 0.60400 26.99100
C  10.73700 -0.52500 27.75000
C  10.66400 -0.01600 29.05800
C  9.89800 1.19700 29.07700
C  11.51300 -1.65800 27.15800
C  11.07700 -0.33700 30.37500
O  11.87300 -1.16900 30.84000
C  10.49300 0.80900 31.27500
C  9.57000 0.05200 32.28400
O  8.61500 -0.64700 31.97600
O  9.99200 0.25800 33.57100
C  9.19700 -0.41700 34.68700
H  6.13600 6.02700 30.11300
H  6.82700 5.12100 23.69800
H  10.19300 -0.28700 25.05700
H  8.40000 2.90900 32.79200
H  8.23300 5.62000 31.84900
H  6.21400 5.57100 32.87400
H  6.46700 3.83100 33.17200
H  5.55800 4.45100 31.77200
H  11.03500 4.17700 31.94300
H  10.54600 3.05900 33.23500
H  9.26100 5.40400 33.80400
H  11.03500 5.75800 33.62200
H  5.36700 7.62000 29.09700
H  3.86100 7.57600 28.04000
H  5.35500 8.64100 27.69800
H  5.10300 9.15000 25.46500
H  3.56900 8.15800 25.74400
H  3.98300 8.76200 24.09800
H  8.66000 3.48300 22.19300
H  8.64700 0.71400 23.08000
H  6.35400 1.87500 23.31800
H  7.16300 1.35200 21.87900
H  6.18500 2.88400 21.89200
H  11.32300 1.31000 23.31000
H  10.89200 2.62400 22.27300
H  9.67300 0.65900 20.90300
H  10.82100 -0.33800 21.75000
H  11.43900 1.00400 20.68800
H  12.27500 -1.24200 26.49900
H  10.79300 -2.27700 26.62300
H  12.01000 -2.31400 27.87200
H  11.35300 1.24600 31.78300
H  8.88900 0.41500 35.32000
H  9.77200 -1.09400 35.31800
H  8.35100 -1.05300 34.42400
Mg 35.92700 49.20100 24.82900
C  36.01000 47.52200 28.04000
C  34.53300 51.87500 26.47600
C  35.62100 50.51900 21.85600
C  36.67800 46.03200 23.33400
N  35.49600 49.68300 27.07200
C  35.59800 48.85500 28.19000
C  35.23900 49.62700 29.44100
C  34.86900 51.07100 28.92100
C  34.89100 50.81400 27.38100
C  33.49900 51.58100 29.49800
C  36.42000 49.71300 30.46800
C  36.10100 49.02300 31.81600
H  35.73700 49.91700 32.97100
N  35.32100 51.05900 24.23200
C  34.76800 51.97100 25.05200
C  34.56700 53.12300 24.28500
C  34.77800 52.81700 22.85800
C  35.26100 51.40500 22.92200
C  34.05800 54.44300 24.89400
C  34.48200 53.68700 21.63300
O  34.86600 53.29100 20.50000
C  33.73400 54.97500 21.66500
N  35.96100 48.32300 22.84200
C  36.00900 49.13700 21.81600
C  36.41200 48.49500 20.47700
C  36.76200 47.07700 21.01600
C  36.49400 47.12200 22.52800
C  35.28600 48.53200 19.40200
C  38.15900 46.61200 20.74100
C  39.35800 46.82800 21.72700
N  36.08200 47.10600 25.52000
C  36.55700 45.99200 24.75600
C  36.86400 44.97200 25.74900
C  36.60400 45.49400 26.99000
C  36.20800 46.83900 26.81900
C  37.29800 43.56900 25.38600
C  36.68200 45.15000 28.36400
O  37.04600 44.09900 28.92600
C  36.28300 46.42200 29.13800
C  35.02900 46.11400 29.86900
O  33.90600 46.40900 29.48100
O  35.34100 45.52900 31.08200
C  34.17900 45.05900 31.92600
H  34.10900 52.79600 26.88100
H  35.47900 51.00200 20.88700
H  37.18400 45.17400 22.88600
H  34.43600 49.17800 30.02700
H  35.59700 51.88000 28.97500
H  33.10900 51.03300 30.35600
H  32.72000 51.44800 28.74700
H  33.64100 52.59900 29.85800
H  36.67600 50.76700 30.57400
H  37.30400 49.15900 30.15100
H  36.97700 48.48200 32.17400
H  35.36000 48.22900 31.73100
H  32.97300 54.42300 25.00000
H  34.35200 55.28500 24.26800
H  34.57500 54.66400 25.82800
H  33.33100 55.28400 20.70100
H  34.36400 55.70700 22.17000
H  32.85400 54.74300 22.26600
H  37.24200 49.15000 20.21300
H  36.04500 46.32600 20.68500
H  35.15000 47.55000 18.94800
H  35.49600 49.10500 18.49900
H  34.36800 48.84300 19.90000
H  38.37200 47.09300 19.78600
H  38.16100 45.54400 20.52600
H  39.55100 45.82000 22.09600
H  39.32300 47.47600 22.60300
H  40.21300 47.19200 21.15900
H  36.83600 42.85400 26.06700
H  38.34200 43.26400 25.30700
H  36.89500 43.38400 24.39100
H  36.98100 46.75300 29.90700
H  33.47300 44.65400 31.20100
H  33.79200 45.69600 32.72100
H  34.57500 44.17500 32.42600

