158

Mg 54.81800 24.18100 44.28000
C  52.37500 26.67900 43.93400
C  52.46300 21.85500 43.36900
C  57.30700 22.03200 43.98800
C  57.16000 26.75900 44.87100
N  52.77100 24.27700 43.61100
C  51.95000 25.37600 43.46400
C  50.45900 25.02000 43.15600
C  50.50000 23.47100 43.42900
C  51.97200 23.10900 43.52700
C  49.69800 22.83500 44.65200
C  50.00200 25.40700 41.68700
C  51.11100 25.36300 40.62900
H  50.64000 25.12600 39.17300
N  54.83300 22.17900 43.86800
C  53.80000 21.37400 43.52200
C  54.22500 20.04800 43.51300
C  55.66300 20.08400 43.68400
C  56.00000 21.47100 43.89200
C  53.33000 18.85600 43.16400
C  56.56600 18.78900 43.79500
O  56.05200 17.67800 43.57100
C  58.02600 18.85000 44.12400
N  56.96000 24.36400 44.31800
C  57.77000 23.33500 44.11700
C  59.26200 23.72200 44.25100
C  59.16200 25.18600 44.51000
C  57.69000 25.48300 44.59700
C  60.11200 22.92100 45.35000
C  59.91600 26.04600 43.44800
C  59.10900 26.44100 42.14800
N  54.81400 26.25900 44.55900
C  55.78700 27.20500 44.84800
C  55.25800 28.49900 45.01800
C  53.88400 28.30700 44.66500
C  53.66700 26.99600 44.34800
C  56.02200 29.72800 45.32900
C  52.62800 28.98600 44.56600
O  52.32600 30.14500 44.79200
C  51.57200 27.96600 44.04100
C  50.98100 28.46600 42.76900
O  51.60500 28.54000 41.70000
O  49.67500 28.83200 42.95900
C  49.12900 29.40100 41.72700
H  51.60100 21.18900 43.29700
H  58.11400 21.32200 43.79300
H  57.90100 27.55600 44.96400
H  49.74300 25.48000 43.83800
H  50.23100 22.99300 42.48800
H  49.25100 23.63100 45.24700
H  50.34800 22.34600 45.37700
H  48.89200 22.18500 44.31100
H  49.59600 26.41800 41.66500
H  49.33200 24.62900 41.32100
H  51.90400 24.71000 40.99300
H  51.66700 26.30000 40.65200
H  53.67900 18.18700 42.37800
H  52.26600 19.07600 43.07500
H  53.39900 18.20400 44.03500
H  58.31300 17.90400 44.58400
H  58.14100 19.63100 44.87500
H  58.71600 19.05000 43.30400
H  59.71900 23.62200 43.26700
H  59.59600 25.49000 45.46300
H  60.99300 22.52100 44.84700
H  59.53200 22.04600 45.64200
H  60.26400 23.46900 46.28000
H  60.75200 25.42200 43.13300
H  60.44500 26.91000 43.85100
H  59.46800 27.46500 42.04600
H  58.02200 26.50600 42.20400
H  59.39600 26.03600 41.17700
H  55.44600 30.57600 44.95700
H  56.97900 29.77400 44.81000
H  56.32100 29.80100 46.37400
H  50.77900 27.87200 44.78300
H  48.09600 29.05200 41.74500
H  49.36300 29.00800 40.73800
H  49.23500 30.48200 41.63700
Mg 43.09300 41.90200 26.68400
C  42.19900 44.00300 29.26800
C  44.72700 39.87500 29.12500
C  44.00400 39.77800 24.37000
C  42.07200 44.20900 24.35900
N  43.41100 41.89500 28.88300
C  42.91600 42.88900 29.75400
C  43.02200 42.47500 31.20400
C  44.14500 41.36400 31.17500
C  44.22200 41.08300 29.61500
C  45.60200 41.69700 31.76600
C  41.66600 42.01800 31.83600
C  41.21300 42.80700 33.06500
H  40.73800 42.06700 34.34900
N  44.16100 40.01100 26.76500
C  44.69700 39.37100 27.82600
C  45.16200 37.97400 27.33000
C  44.84200 37.92000 25.94800
C  44.26500 39.28400 25.65800
C  45.68800 36.97300 28.36900
C  45.20500 36.81400 24.95000
O  45.01000 36.79800 23.78800
C  45.88000 35.66200 25.56300
N  43.10900 42.05400 24.66900
C  43.58800 41.02900 23.88300
C  43.52800 41.44300 22.39500
C  42.64300 42.67400 22.44800
C  42.61400 43.04500 23.90500
C  44.95700 41.65200 21.73600
C  41.29600 42.53700 21.73700
C  40.32900 41.56200 22.38400
N  42.18600 43.62700 26.75400
C  41.79900 44.51300 25.70900
C  41.23900 45.73200 26.25300
C  41.29400 45.50300 27.66500
C  41.92500 44.31200 27.91100
C  40.83100 46.95900 25.59900
C  41.02400 46.19100 28.95600
O  40.44500 47.28100 29.21700
C  41.52600 45.19700 30.08300
C  42.41700 45.97600 30.93800
O  43.56100 46.27300 30.62600
O  41.84500 46.25500 32.15200
C  42.59300 46.91500 33.24200
H  45.34300 39.32700 29.84100
H  44.41000 39.14200 23.58200
H  41.70600 44.95800 23.65400
H  43.37600 43.35800 31.73600
H  43.81700 40.45000 31.66900
H  45.84300 41.08200 32.63400
H  45.82000 42.72800 32.04500
H  46.25200 41.34100 30.96700
H  41.78100 41.00200 32.21300
H  40.91400 41.88400 31.05800
H  40.35000 43.33700 32.66200
H  41.98200 43.49400 33.41600
H  45.89000 37.28400 29.39400
H  46.56800 36.51800 27.91500
H  45.00300 36.12600 28.36700
H  46.81900 35.91500 26.05600
H  46.10700 35.13600 24.63500
H  45.20700 35.00300 26.11000
H  43.09000 40.60000 21.86000
H  43.11100 43.53000 21.96000
H  45.75000 41.26700 22.37600
H  45.13800 42.72500 21.67700
H  45.05800 41.14200 20.77800
H  41.27600 42.27300 20.68000
H  40.87500 43.53800 21.83200
H  39.48700 42.14300 22.76100
H  40.63400 41.00000 23.26700
H  39.96300 40.90200 21.59800
H  39.75500 47.12700 25.64800
H  41.11500 47.10700 24.55700
H  41.28800 47.74200 26.20400
H  40.61100 44.92000 30.60700
H  42.25500 47.95000 33.27400
H  43.64800 46.82900 32.98100
H  42.29000 46.43500 34.17200

