158

Mg 34.91400 2.95600 29.50700
C  33.02800 4.23900 32.18300
C  37.52500 2.59200 31.55400
C  36.79900 2.14900 26.75600
C  32.12700 3.60600 27.42800
N  35.32400 3.51200 31.60000
C  34.40600 3.94300 32.50000
C  34.99700 3.95600 33.90700
C  36.50900 3.75000 33.64100
C  36.51400 3.28900 32.16500
C  37.37000 4.96600 34.02000
C  34.34600 2.92100 34.82400
C  34.11000 3.28100 36.34300
H  34.69500 4.62700 36.98400
N  36.86300 2.37100 29.21800
C  37.70500 2.16800 30.25800
C  38.79000 1.34900 29.72100
C  38.58800 1.15200 28.31300
C  37.36800 1.94100 28.04600
C  39.89700 0.73700 30.67700
C  39.39000 0.42200 27.30000
O  38.99800 0.32100 26.19500
C  40.58900 -0.27500 27.58700
N  34.56700 2.89400 27.45900
C  35.46100 2.57100 26.50700
C  34.89900 2.83200 25.11000
C  33.44100 3.01000 25.33200
C  33.36200 3.12500 26.86800
C  35.70200 3.98600 24.30700
C  32.54200 1.88600 24.74400
C  32.53000 0.56100 25.56700
N  32.90900 3.65700 29.69700
C  31.92500 3.85700 28.81500
C  30.68600 4.28500 29.54300
C  31.13300 4.46200 30.87100
C  32.42900 4.05200 30.86500
C  29.29600 4.51400 28.93300
C  30.72500 4.84400 32.22300
O  29.59500 5.01400 32.66700
C  31.93700 4.70600 33.12800
C  32.20500 6.00800 33.82200
O  33.05100 6.81600 33.36100
O  31.39500 6.22700 34.92800
C  31.47300 7.62800 35.46000
H  38.43800 2.47100 32.14100
H  37.35100 1.84700 25.86300
H  31.32400 3.92500 26.76000
H  34.86300 4.99800 34.20000
H  36.92300 2.90600 34.19300
H  37.72000 5.44900 33.10800
H  38.22100 4.70700 34.65000
H  36.66500 5.69600 34.41800
H  34.96000 2.02300 34.89400
H  33.43900 2.50500 34.38500
H  34.54300 2.47100 36.92900
H  33.03400 3.24000 36.51700
H  39.78500 -0.34600 30.71800
H  39.89600 1.19100 31.66800
H  40.82000 0.98100 30.15100
H  41.12500 -0.32900 26.64000
H  40.36200 -1.27900 27.94600
H  41.11800 0.36700 28.29200
H  35.08600 1.92100 24.54200
H  33.09700 3.96900 24.94500
H  36.65700 4.23500 24.76900
H  35.16600 4.93000 24.20800
H  35.81500 3.53700 23.32000
H  32.80300 1.84300 23.68600
H  31.51400 2.24600 24.72100
H  33.36200 0.58300 26.27000
H  32.65900 -0.23900 24.83800
H  31.55400 0.54400 26.05300
H  28.56000 4.60600 29.73100
H  29.21600 3.54900 28.43300
H  29.34600 5.23900 28.12100
H  31.77400 4.02600 33.96400
H  32.37000 7.75600 36.06700
H  30.58400 7.90500 36.02500
H  31.45600 8.30800 34.60800
Mg 47.81200 25.03000 28.06600
C  48.96700 27.27500 30.64800
C  47.35600 22.79600 30.66200
C  46.92100 22.98500 25.67300
C  49.30100 27.17000 25.67400
N  48.23100 25.11600 30.41200
C  48.42600 26.20100 31.20400
C  48.09600 25.94100 32.68100
C  47.58200 24.48100 32.63700
C  47.76300 24.02200 31.11700
C  48.26900 23.57300 33.68700
C  47.07200 26.95300 33.14900
C  46.50400 26.59600 34.55600
H  46.87300 27.43400 35.77200
N  47.23700 23.19200 28.13000
C  46.99200 22.42800 29.25800
C  46.41300 21.15500 28.83100
C  46.19400 21.24000 27.44200
C  46.75200 22.51200 27.01700
C  45.93600 20.06700 29.85900
C  45.43100 20.31100 26.45600
O  45.44600 20.44200 25.22300
C  44.86300 19.06400 27.02700
N  47.90500 25.12300 25.98100
C  47.46600 24.12900 25.12500
C  47.94300 24.35800 23.65700
C  48.47800 25.82300 23.72400
C  48.55300 26.05400 25.19200
C  49.08100 23.46700 23.13100
C  47.61300 26.90600 22.97100
C  48.27800 27.85100 21.87900
N  48.83300 26.81500 28.04900
C  49.49700 27.53700 27.06100
C  50.09200 28.67200 27.55200
C  49.89700 28.64200 28.96000
C  49.13800 27.52100 29.22600
C  50.90900 29.59800 26.73400
C  50.23900 29.35800 30.15900
O  50.84400 30.46500 30.19800
C  49.56300 28.56600 31.31300
C  50.58000 28.25600 32.29100
O  51.45100 27.46100 32.20000
O  50.32300 28.92300 33.42700
C  51.05200 28.48100 34.64500
H  46.96700 22.11600 31.42300
H  46.70600 22.33400 24.82300
H  49.72400 27.74900 24.85000
H  49.04800 26.13300 33.17700
H  46.52000 24.56400 32.87100
H  48.99100 22.87100 33.27000
H  47.59600 22.92500 34.24800
H  48.76800 24.24500 34.38600
H  46.24100 26.83100 32.45400
H  47.46400 27.96900 33.18100
H  46.82200 25.58400 34.80500
H  45.42300 26.47300 34.48500
H  44.88000 19.80700 29.79500
H  45.97100 20.41300 30.89200
H  46.66200 19.26800 29.70700
H  45.57000 18.50100 27.63600
H  44.72600 18.42400 26.15600
H  43.95400 19.31400 27.57400
H  47.12400 24.28700 22.94200
H  49.50600 25.97500 23.39500
H  48.78300 22.53600 22.65000
H  49.74500 23.29000 23.97800
H  49.71100 23.95100 22.38500
H  47.20900 27.55500 23.74900
H  46.84900 26.33300 22.44600
H  47.71700 27.87300 20.94500
H  49.28900 27.47700 21.71200
H  48.51600 28.82700 22.30200
H  50.32900 29.75000 25.82300
H  51.93500 29.29000 26.53100
H  50.98100 30.54800 27.26300
H  48.84500 29.23300 31.78800
H  51.04200 29.30700 35.35600
H  52.06300 28.08400 34.54800
H  50.38700 27.73300 35.07600

