158

Mg 0.41000 7.88200 26.02000
C  0.90700 9.82500 28.99400
C  0.30000 5.10400 27.98900
C  0.14700 6.27100 23.24200
C  0.29700 11.00500 24.26800
N  0.51000 7.53800 28.30300
C  0.76700 8.46400 29.30300
C  0.76400 7.75100 30.65400
C  0.66600 6.24600 30.28500
C  0.48400 6.28200 28.77300
C  1.76500 5.30700 30.85000
C  -0.34400 8.24300 31.68200
C  0.16800 8.65600 33.13500
H  -0.55600 8.09200 34.42500
N  0.42900 6.01800 25.67700
C  0.30400 4.96800 26.57500
C  0.20600 3.69200 25.90200
C  0.11000 4.06700 24.48400
C  0.23700 5.49000 24.40300
C  0.10100 2.39100 26.60600
C  0.08200 3.08500 23.24000
O  0.24600 3.42000 22.09800
C  0.12400 1.60300 23.55200
N  0.50400 8.66600 23.96300
C  0.19500 7.68900 23.01400
C  0.04300 8.30200 21.58800
C  -0.21200 9.82600 21.95900
C  0.18200 9.85800 23.50300
C  1.34200 8.03000 20.78800
C  -1.66800 10.32400 21.75600
C  -1.77200 11.57600 20.87000
N  0.60800 9.94800 26.46600
C  0.58700 11.12300 25.65800
C  0.84000 12.32400 26.42300
C  1.01400 11.82100 27.68100
C  0.83400 10.41300 27.68900
C  0.90500 13.63100 25.85200
C  1.31300 12.19100 29.04500
O  1.56800 13.28000 29.55500
C  1.16000 10.94800 29.86100
C  2.27900 10.76600 30.74400
O  3.35300 10.17900 30.54000
O  1.92600 11.34000 31.97300
C  2.84800 10.97600 33.06800
H  0.16400 4.25200 28.65800
H  -0.08700 5.65000 22.37400
H  0.11100 11.90200 23.67300
H  1.75300 7.84700 31.10100
H  -0.16700 5.71500 30.74500
H  2.34000 5.81300 31.62600
H  2.51600 5.27400 30.06100
H  1.46400 4.30700 31.16300
H  -1.05600 7.42200 31.76300
H  -1.02200 8.96900 31.23400
H  0.04800 9.71900 32.92600
H  1.23200 8.46500 33.27900
H  -0.92500 2.06200 26.43500
H  0.37100 2.44800 27.66000
H  0.71800 1.65400 26.09200
H  0.22600 1.09900 22.59200
H  -0.72800 1.32700 24.17400
H  1.12000 1.45900 23.97300
H  -0.81200 7.85300 21.08300
H  0.50800 10.53500 21.55000
H  1.80800 8.96800 20.48700
H  0.96300 7.43000 19.96100
H  2.07400 7.55700 21.44400
H  -2.26600 10.51500 22.64600
H  -2.29700 9.58300 21.26200
H  -0.89000 11.62900 20.23200
H  -1.78700 12.45300 21.51700
H  -2.63300 11.39600 20.22600
H  0.58200 13.68100 24.81200
H  1.93200 13.98800 25.93700
H  0.17500 14.29300 26.31700
H  0.25700 11.17200 30.42900
H  2.23400 10.82500 33.95500
H  3.67300 11.68600 33.13600
H  3.26800 9.97400 32.98200
Mg -5.93700 25.51400 26.61700
C  -4.35900 26.95100 29.33700
C  -7.81600 23.51400 28.65100
C  -7.03300 23.82900 23.90300
C  -4.04800 27.44900 24.57300
N  -6.11000 25.29300 28.83000
C  -5.28500 25.91600 29.74400
C  -5.71100 25.48800 31.13000
C  -6.76200 24.27600 30.89600
C  -6.97600 24.37700 29.39700
C  -6.18000 22.99000 31.39800
C  -6.45400 26.72500 31.82900
C  -6.25200 26.89900 33.30500
H  -5.80400 25.69800 34.16800
N  -7.37100 24.03300 26.30700
C  -8.02600 23.37300 27.25700
C  -8.88000 22.30900 26.61600
C  -8.47300 22.31700 25.23300
C  -7.61700 23.44500 25.08200
C  -9.90400 21.46400 27.47500
C  -8.92100 21.30800 24.18100
O  -8.63500 21.29400 22.99800
C  -9.86900 20.19300 24.51000
N  -5.63800 25.71100 24.50100
C  -6.24100 24.90900 23.58300
C  -5.78100 25.16600 22.17300
C  -4.87100 26.39100 22.31200
C  -4.77500 26.55500 23.84900
C  -5.29200 23.98400 21.37200
C  -5.38300 27.73000 21.63800
C  -4.43900 28.55500 20.71500
N  -4.58100 26.96300 26.82600
C  -3.85900 27.59900 25.94200
C  -2.90500 28.45900 26.54100
C  -3.01200 28.21900 27.91500
C  -4.08700 27.29400 28.04000
C  -1.97300 29.48000 25.88600
C  -2.58900 28.58400 29.21600
O  -1.74300 29.36800 29.61600
C  -3.43600 27.76400 30.17800
C  -2.63700 26.94700 31.07400
O  -1.86500 25.96900 30.80000
O  -2.62200 27.51700 32.28400
C  -1.90000 26.76500 33.34700
H  -8.24800 22.79700 29.35200
H  -7.32100 23.27500 23.00800
H  -3.35300 28.10800 24.04900
H  -4.81600 25.13200 31.63800
H  -7.72300 24.41900 31.38900
H  -5.65800 22.57600 30.53500
H  -7.07800 22.40500 31.59800
H  -5.58300 23.08800 32.30400
H  -7.50800 26.73800 31.55300
H  -6.03200 27.58600 31.31000
H  -7.22900 27.16300 33.70900
H  -5.52200 27.69500 33.45200
H  -10.46700 22.06500 28.18900
H  -9.25300 20.84800 28.09600
H  -10.53600 20.85500 26.83000
H  -9.58800 19.62800 25.39900
H  -10.05500 19.52200 23.67200
H  -10.88200 20.57400 24.64200
H  -6.62600 25.47700 21.55800
H  -3.89000 26.13300 21.91400
H  -5.70400 24.07400 20.36700
H  -5.53700 23.03500 21.84900
H  -4.20900 24.03600 21.48700
H  -5.80900 28.37500 22.40700
H  -6.20100 27.51800 20.94900
H  -4.18700 29.47400 21.24600
H  -4.89600 28.64300 19.73000
H  -3.57500 27.94700 20.44700
H  -2.49400 29.90500 25.02800
H  -1.03200 29.14400 25.45000
H  -1.82600 30.21300 26.67900
H  -3.98700 28.45200 30.81800
H  -2.12900 25.70000 33.35400
H  -2.18500 27.08900 34.34800
H  -0.81200 26.83200 33.34500

