158

Mg 1.50700 -2.63800 45.68000
C  4.91900 -1.94100 45.46700
C  0.85800 0.26800 43.98400
C  -1.75400 -3.68300 45.33700
C  2.25300 -5.61700 47.20600
N  2.75700 -1.15300 44.57000
C  4.12600 -1.04800 44.68500
C  4.65500 0.18600 43.92100
C  3.35700 1.01700 43.92900
C  2.23600 0.02800 44.14000
C  3.35200 2.26700 44.89700
C  5.25600 -0.14300 42.59500
C  6.41200 0.81100 42.18400
H  6.40100 1.31700 40.74900
N  -0.16300 -1.79000 44.75500
C  -0.23500 -0.49500 44.22400
C  -1.60700 -0.23100 43.97100
C  -2.47000 -1.32600 44.38900
C  -1.45200 -2.38200 44.87300
C  -2.01100 1.15200 43.37000
C  -3.94100 -1.40100 44.24100
O  -4.50900 -0.32200 43.95900
C  -4.73100 -2.61100 44.58700
N  0.32000 -4.53400 46.10500
C  -0.94200 -4.75000 45.83800
C  -1.39500 -6.06100 46.33100
C  -0.00500 -6.78800 46.73700
C  0.91300 -5.53600 46.76200
C  -2.28800 -5.98700 47.62300
C  0.47700 -7.71900 45.51900
C  1.12000 -9.07600 45.86600
N  3.20800 -3.59100 46.23900
C  3.36400 -4.77500 46.94300
C  4.75000 -4.94600 47.35200
C  5.40300 -3.82700 46.76200
C  4.42600 -3.06800 46.08600
C  5.22600 -6.04200 48.21100
C  6.67000 -3.14800 46.61200
O  7.77900 -3.34700 47.11900
C  6.42700 -1.95200 45.63900
C  6.89600 -0.69200 46.32500
O  6.59800 -0.41200 47.50500
O  7.67900 0.10200 45.56900
C  8.03100 1.49900 45.97100
H  0.63100 1.30800 43.73900
H  -2.81200 -3.94600 45.28000
H  2.48200 -6.55400 47.71800
H  5.39600 0.69000 44.54000
H  3.05800 1.53600 43.01800
H  2.63400 2.17200 45.71200
H  3.07100 3.18400 44.38000
H  4.38300 2.51400 45.14900
H  4.44200 -0.12700 41.87000
H  5.73300 -1.12300 42.59500
H  7.39400 0.36500 42.33800
H  6.29000 1.67000 42.84300
H  -2.68700 1.60100 44.09800
H  -2.42400 1.21300 42.36300
H  -1.17300 1.84900 43.37800
H  -4.55100 -2.92600 45.61400
H  -4.46600 -3.32500 43.80700
H  -5.80200 -2.50100 44.41800
H  -1.97600 -6.50500 45.52300
H  -0.13400 -7.19900 47.73800
H  -2.48800 -4.93500 47.82300
H  -1.79300 -6.40400 48.50000
H  -3.26100 -6.46500 47.51200
H  1.18900 -7.17100 44.90300
H  -0.37000 -8.08500 44.93900
H  2.14900 -9.13100 45.51000
H  0.75200 -9.88000 45.22900
H  1.05800 -9.36000 46.91600
H  5.27600 -6.87800 47.51300
H  4.53400 -6.29000 49.01600
H  6.26600 -5.88400 48.49800
H  7.06000 -2.16900 44.77900
H  7.94200 2.19200 45.13500
H  9.04800 1.54900 46.36000
H  7.33000 1.91000 46.69700
Mg 40.13200 9.20400 29.92400
C  42.40400 10.60300 32.26300
C  38.26800 8.11600 32.57800
C  38.15400 7.86400 27.77900
C  42.36300 10.03800 27.37100
N  40.44000 9.32500 32.17400
C  41.29000 10.07500 32.88900
C  40.86000 10.12900 34.35400
C  39.82600 8.92400 34.32600
C  39.44700 8.78900 32.97400
C  40.27900 7.62300 35.01500
C  40.28300 11.52800 34.78500
C  40.07200 11.43100 36.31200
H  40.93700 12.23400 37.21600
N  38.43400 8.19100 30.17100
C  37.79200 7.76900 31.33300
C  36.47000 7.16400 30.97000
C  36.52400 7.02100 29.55700
C  37.75100 7.66200 29.11200
C  35.46700 6.54200 31.96900
C  35.51900 6.30300 28.60900
O  35.65300 6.10700 27.41700
C  34.44400 5.63500 29.27700
N  40.31200 8.82900 27.85900
C  39.23800 8.42800 27.20500
C  39.38000 8.56600 25.68800
C  40.87200 9.09300 25.52900
C  41.22900 9.34800 26.94200
C  39.07400 7.12200 24.98500
C  40.95000 10.29500 24.59000
C  40.47500 11.63400 25.14100
N  42.05400 10.09300 29.76500
C  42.78000 10.39400 28.65400
C  44.03500 11.02200 29.08500
C  43.89200 11.20500 30.49300
C  42.73000 10.56800 30.89700
C  45.10800 11.49300 28.11400
C  44.43500 11.87700 31.66300
O  45.44500 12.60500 31.79000
C  43.57700 11.42500 32.84500
C  44.46500 10.68400 33.77200
O  44.82200 9.53700 33.61200
O  44.69600 11.49600 34.87700
C  45.43900 10.92600 36.00300
H  37.71300 7.67100 33.40700
H  37.42600 7.55000 27.02800
H  43.02600 10.20200 26.52000
H  41.71400 9.86300 34.97700
H  38.93700 9.25300 34.86400
H  40.15100 6.77000 34.34800
H  39.85100 7.32100 35.97100
H  41.34600 7.77800 35.17400
H  39.41400 11.76300 34.17100
H  40.99500 12.29900 34.49100
H  40.01100 10.43800 36.75800
H  39.03800 11.76900 36.37000
H  34.53100 7.00100 31.65200
H  35.73200 6.88200 32.97000
H  35.50300 5.46100 31.84000
H  34.91500 4.83700 29.85000
H  33.72700 5.19100 28.58600
H  33.88200 6.26600 29.96500
H  38.63600 9.31000 25.40500
H  41.59700 8.34100 25.21900
H  39.95600 6.76100 24.45600
H  38.21400 7.13600 24.31600
H  38.87100 6.36800 25.74600
H  40.31100 10.17000 23.71600
H  41.99600 10.34100 24.28400
H  40.20100 11.76200 26.18800
H  39.74800 12.10600 24.48000
H  41.33100 12.30300 25.06500
H  44.65000 12.42600 27.78500
H  44.89900 10.72800 27.36600
H  46.05300 11.55700 28.65200
H  43.13200 12.29500 33.32900
H  44.63600 10.55700 36.64000
H  46.04700 11.70600 36.46100
H  46.07000 10.10300 35.66800

