158

Mg 54.08600 24.39200 44.89700
C  51.44600 26.68300 44.16900
C  51.85100 21.86000 44.03100
C  56.75300 22.46400 44.84700
C  56.12400 27.18600 45.47400
N  51.89200 24.24600 44.27100
C  51.09300 25.33700 43.92700
C  49.73200 24.78300 43.29700
C  49.72500 23.32500 43.97300
C  51.20800 23.09100 44.21000
C  48.86500 23.27400 45.26400
C  49.66400 24.80500 41.71000
C  48.23700 25.10900 41.21500
H  48.13700 25.28300 39.77100
N  54.34300 22.45700 44.38000
C  53.28500 21.58800 44.03700
C  53.89000 20.33600 43.83200
C  55.29400 20.39000 44.12400
C  55.56800 21.79400 44.41800
C  53.00100 19.13200 43.48000
C  56.31900 19.25000 43.92700
O  55.87800 18.15700 43.62200
C  57.76200 19.40600 44.13900
N  56.21000 24.86000 44.89600
C  56.99200 23.85000 45.09300
C  58.40900 24.36700 45.35400
C  58.23400 25.92100 45.54900
C  56.76200 26.03700 45.28300
C  59.21100 23.57500 46.41900
C  58.96100 26.75000 44.50700
C  59.26200 28.27800 44.98500
N  53.81600 26.48400 44.96100
C  54.76000 27.43300 45.34600
C  54.03900 28.68400 45.52500
C  52.74100 28.42200 44.97400
C  52.69600 27.10600 44.63000
C  54.50500 29.96200 46.06200
C  51.48300 28.94200 44.75700
O  51.19000 30.06700 44.98200
C  50.52600 27.88900 44.22200
C  50.14200 28.30800 42.88300
O  50.96000 28.55200 41.98100
O  48.76000 28.53200 42.83300
C  48.42400 29.22600 41.57200
H  51.12700 21.04800 43.93400
H  57.63200 21.81700 44.88200
H  56.69500 28.08200 45.72700
H  48.93700 25.43400 43.66200
H  49.39600 22.64900 43.18300
H  48.29800 22.37200 45.03400
H  48.27100 24.18400 45.34800
H  49.56900 23.00600 46.05200
H  49.98600 23.82300 41.36200
H  50.40300 25.46000 41.24900
H  47.80600 25.95800 41.74500
H  47.60400 24.24400 41.41400
H  53.52800 18.19000 43.32600
H  52.41900 19.45400 42.61700
H  52.33400 18.91900 44.31600
H  58.00700 20.22600 43.46400
H  58.15800 18.49900 43.68100
H  58.01400 19.43100 45.19900
H  58.79200 24.12900 44.36200
H  58.44800 26.15000 46.59200
H  59.41500 24.16300 47.31300
H  60.09500 23.12300 45.97000
H  58.52200 22.78900 46.72900
H  58.26900 26.72600 43.66500
H  59.93000 26.38700 44.16300
H  60.33000 28.26000 45.20400
H  58.76100 28.48400 45.93100
H  58.94700 28.94600 44.18400
H  55.47500 30.18600 45.61700
H  54.57300 29.79800 47.13700
H  53.73500 30.72200 45.93200
H  49.68500 27.75800 44.90300
H  49.07700 30.08500 41.41700
H  47.44000 29.69100 41.62200
H  48.48500 28.44300 40.81500
Mg 48.74100 45.94100 44.16900
C  45.50600 46.21500 42.81600
C  48.85800 42.86900 42.71200
C  51.95800 45.99900 44.80800
C  48.55300 49.41400 44.99300
N  47.29500 44.67200 42.94600
C  46.01000 44.92800 42.57500
C  45.47200 43.83900 41.58300
C  46.45400 42.69000 41.91800
C  47.62600 43.46500 42.56000
C  46.02500 41.55500 42.91500
C  45.58400 44.31700 40.05600
C  44.29400 44.48500 39.24100
H  44.03300 43.42400 38.21300
N  50.23300 44.57500 43.88500
C  50.07600 43.33400 43.31100
C  51.31400 42.57600 43.48900
C  52.31600 43.53400 43.98400
C  51.52600 44.76400 44.25000
C  51.52400 41.18700 42.97600
C  53.79700 43.32300 44.13600
O  54.19200 42.12700 44.00400
C  54.72400 44.30000 44.67100
N  50.02200 47.45700 44.91200
C  51.34100 47.20300 45.11600
C  52.22800 48.47800 45.34400
C  51.05000 49.57200 45.40400
C  49.81300 48.75700 45.12400
C  53.09400 48.44500 46.62900
C  51.22200 50.69400 44.33400
C  51.45800 52.05700 44.97200
N  47.33600 47.51900 44.15600
C  47.42300 48.86200 44.46600
C  46.14700 49.56500 44.13400
C  45.39900 48.53800 43.45200
C  46.18100 47.31000 43.42800
C  45.71500 50.96000 44.36100
C  44.11300 48.34600 42.72900
O  43.23800 49.15700 42.37300
C  44.13000 46.80400 42.33100
C  42.98100 46.14000 43.06300
O  42.81000 46.17200 44.30500
O  42.08200 45.59000 42.18700
C  41.08900 44.73500 42.81300
H  48.75600 41.80500 42.48900
H  53.04800 46.06000 44.84900
H  48.57100 50.48800 45.19000
H  44.45200 43.64200 41.91200
H  46.78500 42.23000 40.98700
H  45.67200 40.67300 42.38000
H  45.15500 41.88300 43.48400
H  46.79100 41.31800 43.65300
H  46.15000 43.52900 39.55900
H  46.20700 45.21100 40.07600
H  44.26900 45.45300 38.74100
H  43.41000 44.55200 39.87400
H  50.74700 40.99800 42.23500
H  51.46400 40.43500 43.76300
H  52.46400 41.19400 42.42300
H  55.77400 44.01100 44.64700
H  54.51600 44.44000 45.73200
H  54.70600 45.14000 43.97700
H  52.89200 48.58900 44.48700
H  50.95700 49.98500 46.40900
H  52.57100 48.91400 47.46300
H  53.88700 49.11000 46.28700
H  53.49100 47.45400 46.84800
H  50.32100 50.90300 43.75800
H  52.04500 50.39600 43.68400
H  52.51500 52.13800 45.22500
H  50.85800 52.11100 45.88100
H  51.12300 52.82400 44.27300
H  44.74800 50.87100 44.85700
H  45.79000 51.59500 43.47900
H  46.34500 51.40900 45.12800
H  43.94300 46.72900 41.25900
H  41.18300 43.71800 42.43400
H  40.09900 45.16100 42.65000
H  41.18600 44.68600 43.89700

