158

Mg 53.65800 23.74600 45.56800
C  50.80700 25.70900 44.77500
C  51.88900 21.04000 44.68600
C  56.62300 22.11100 45.63400
C  55.29000 26.65400 46.47100
N  51.58300 23.45700 44.57900
C  50.58700 24.35300 44.49800
C  49.25200 23.70000 44.21900
C  49.50800 22.15400 44.45900
C  51.09700 22.16600 44.65800
C  48.63000 21.70500 45.66600
C  48.74300 23.88000 42.76800
C  49.65900 23.51700 41.60300
H  49.45000 24.22700 40.24200
N  54.15300 21.86000 45.20800
C  53.28800 20.90800 44.92300
C  54.00500 19.66100 44.87400
C  55.43700 19.93600 44.85800
C  55.50900 21.34400 45.21800
C  53.28200 18.31300 44.73000
C  56.55600 18.87200 44.63900
O  56.27700 17.70600 44.44200
C  58.04900 19.31100 44.59900
N  55.73000 24.36800 45.91000
C  56.73800 23.44800 45.96400
C  58.04600 24.12000 46.42000
C  57.63100 25.54800 46.72000
C  56.08100 25.55300 46.34800
C  58.67900 23.35600 47.64600
C  58.68000 26.55400 46.11300
C  58.38000 27.14400 44.79300
N  53.24800 25.75300 45.64500
C  53.98300 26.80400 46.04400
C  53.15800 27.97800 46.27600
C  51.90000 27.56000 45.70400
C  52.03300 26.24700 45.29300
C  53.44900 29.19100 46.90900
C  50.54100 28.02200 45.48800
O  50.02500 29.08300 45.66600
C  49.79100 26.79000 44.80400
C  49.32400 27.27400 43.40200
O  50.03400 27.64400 42.46900
O  47.97100 27.45500 43.49700
C  47.27700 28.13200 42.40000
H  51.31700 20.15000 44.41700
H  57.55200 21.60900 45.91000
H  55.77600 27.53300 46.89900
H  48.45800 24.14700 44.81600
H  49.29800 21.58500 43.55300
H  49.19800 20.87900 46.09300
H  47.58600 21.48100 45.44500
H  48.69900 22.63200 46.23500
H  48.22300 24.81300 42.55200
H  47.96600 23.11600 42.73000
H  49.40000 22.48100 41.38000
H  50.71300 23.54100 41.88000
H  54.11200 17.63300 44.91800
H  52.92200 18.16200 43.71300
H  52.48800 18.23400 45.47300
H  58.18600 20.13400 43.89800
H  58.59800 18.45800 44.20000
H  58.44300 19.36300 45.61400
H  58.72900 24.14300 45.57200
H  57.69600 25.55300 47.80800
H  57.86000 22.73000 47.99900
H  59.01100 23.92300 48.51500
H  59.52000 22.78200 47.25700
H  59.69300 26.19800 46.30000
H  58.59400 27.41800 46.77100
H  57.92900 28.12100 44.96300
H  57.54800 26.62100 44.31900
H  59.31100 27.18200 44.22900
H  52.53700 29.76800 47.06100
H  54.18400 29.75600 46.33500
H  53.91600 28.98600 47.87200
H  48.84200 26.59600 45.30600
H  46.40200 28.51500 42.92500
H  46.93100 27.57700 41.52800
H  47.86400 28.99600 42.08600
Mg 41.58000 40.64000 27.04000
C  40.74500 43.05800 29.38800
C  42.40800 38.47700 29.63900
C  42.47600 38.43000 24.73000
C  41.13800 43.10200 24.56800
N  41.70900 40.76200 29.36500
C  41.06900 41.81400 30.00000
C  40.97700 41.44500 31.54000
C  41.55700 39.99700 31.58400
C  41.95800 39.71700 30.11100
C  42.66700 39.80700 32.61100
C  39.59900 41.58800 32.25500
C  39.54400 42.48100 33.51500
H  39.12000 41.80600 34.81200
N  42.35600 38.74000 27.16400
C  42.62000 38.01900 28.32000
C  43.09000 36.67100 27.99500
C  43.08700 36.60400 26.56400
C  42.64300 37.94500 26.09000
C  43.72700 35.70100 28.99400
C  43.33800 35.47200 25.65400
O  43.48900 35.53400 24.46500
C  43.49000 34.11800 26.29800
N  41.73900 40.73600 24.99400
C  42.00800 39.62900 24.16700
C  41.87800 39.99000 22.65300
C  41.16600 41.43300 22.72500
C  41.42200 41.81600 24.17800
C  43.25900 39.91000 21.84500
C  39.59600 41.41000 22.45000
C  38.77300 40.35300 23.25700
N  41.02500 42.59800 26.90600
C  40.87000 43.51900 25.88100
C  40.43500 44.77000 26.39400
C  40.39200 44.61100 27.72300
C  40.80400 43.32000 27.99900
C  40.26000 46.02900 25.48400
C  40.11000 45.33000 28.96100
O  39.77500 46.48800 29.21000
C  40.33700 44.34000 30.03200
C  41.42200 44.85700 30.92600
O  42.61100 44.55600 30.82200
O  40.88500 45.49000 32.00100
C  41.84200 45.93900 32.95400
H  42.52600 37.75600 30.45100
H  42.49800 37.76300 23.86500
H  41.01100 43.86900 23.80100
H  41.64900 42.19000 31.96600
H  40.75700 39.30200 31.84200
H  42.75600 38.77800 32.96000
H  42.62800 40.46400 33.48000
H  43.60900 40.04000 32.11500
H  39.20200 40.63700 32.61000
H  38.84100 41.90500 31.53800
H  38.85100 43.31500 33.40200
H  40.49200 42.99300 33.67700
H  44.68700 35.41100 28.56700
H  43.15500 34.80500 29.23500
H  44.06400 36.31100 29.83300
H  42.60400 34.07800 26.93200
H  44.44900 34.21600 26.80600
H  43.55200 33.27700 25.60600
H  41.12400 39.32900 22.22500
H  41.74800 42.18500 22.19100
H  43.98300 39.55700 22.58000
H  43.59200 40.92000 21.60800
H  43.16000 39.33700 20.92300
H  39.46700 41.21800 21.38500
H  39.09500 42.33400 22.73600
H  37.99100 39.98200 22.59500
H  38.33400 40.82800 24.13400
H  39.31500 39.46400 23.58100
H  41.13300 46.22400 24.86100
H  40.15200 46.80600 26.24000
H  39.44500 45.87400 24.77800
H  39.47600 44.32400 30.70000
H  42.59400 46.49100 32.39100
H  42.27900 45.06400 33.43600
H  41.23900 46.65300 33.51500

