158

Mg 7.57000 2.75700 27.93300
C  8.79900 1.40900 30.85300
C  5.21500 4.50800 29.79300
C  5.86500 3.37600 25.09500
C  9.43800 0.25500 26.05500
N  7.01400 2.96300 30.13700
C  7.84900 2.43600 31.07300
C  7.53000 3.10500 32.41300
C  6.32000 4.00200 32.07100
C  6.20400 3.89300 30.63200
C  4.87500 3.57800 32.69000
C  8.78600 3.87400 33.01100
C  9.33900 3.49000 34.39600
H  9.23700 4.54800 35.45900
N  5.94100 4.04100 27.49000
C  5.08400 4.64000 28.38100
C  4.23600 5.50000 27.62100
C  4.44900 5.17900 26.27500
C  5.44200 4.18200 26.24500
C  3.13700 6.35800 28.25400
C  3.71500 5.88500 25.08800
O  4.03000 5.53800 23.93500
C  2.70300 6.98300 25.30400
N  7.72400 2.00800 25.87200
C  6.80200 2.30800 24.95400
C  7.27200 1.89800 23.51400
C  8.42200 0.90300 23.84800
C  8.58500 1.05300 25.33300
C  6.20100 1.52600 22.45600
C  9.77700 1.15600 23.00900
C  10.51800 -0.04700 22.48700
N  8.92200 1.22600 28.32600
C  9.63600 0.33700 27.43400
C  10.59900 -0.36400 28.29500
C  10.25700 -0.02100 29.59700
C  9.22100 0.93100 29.57800
C  11.51500 -1.41300 27.79700
C  10.54800 -0.37600 31.01200
O  11.37100 -1.15800 31.58700
C  9.66400 0.63300 31.86800
C  8.82600 -0.10700 32.79900
O  7.64400 -0.41900 32.65300
O  9.61100 -0.48300 33.90300
C  8.86400 -1.42700 34.79600
H  4.47600 5.08500 30.35300
H  5.49700 3.63700 24.10100
H  10.08900 -0.51600 25.63700
H  7.14700 2.33600 33.08500
H  6.48000 5.05200 32.31600
H  4.19200 3.41700 31.85600
H  4.55300 4.47100 33.22500
H  4.85600 2.66200 33.28100
H  8.59300 4.94500 32.95000
H  9.59100 3.65400 32.31000
H  10.38000 3.16800 34.42000
H  8.76000 2.62200 34.71300
H  3.03700 7.33900 27.79000
H  3.39900 6.65700 29.26900
H  2.16100 5.87200 28.25300
H  1.89500 6.71000 25.98400
H  2.18500 7.20500 24.37100
H  3.23100 7.88200 25.62000
H  7.66000 2.80100 23.04400
H  8.05800 -0.10200 23.63100
H  5.23600 1.67600 22.93900
H  6.26500 0.50300 22.08400
H  6.16900 2.21300 21.61000
H  10.50600 1.62200 23.67300
H  9.73200 1.92600 22.23900
H  10.79400 0.10400 21.44400
H  9.85100 -0.90600 22.55200
H  11.43900 -0.29300 23.01700
H  11.81400 -1.17000 26.77800
H  10.94000 -2.33900 27.83400
H  12.40300 -1.40600 28.43000
H  10.30600 1.27600 32.47000
H  8.27900 -2.11400 34.18300
H  8.21600 -0.77500 35.38200
H  9.54300 -1.94300 35.47400
Mg 17.14000 51.15000 25.80700
C  18.83200 49.68300 28.59100
C  14.67900 52.06700 27.98800
C  15.41500 52.21400 23.09900
C  19.52100 49.58300 23.68800
N  16.77200 50.79500 28.00100
C  17.62900 50.28400 28.94800
C  17.07400 50.58100 30.34900
C  15.61800 51.00600 30.10800
C  15.70400 51.33500 28.56600
C  14.60000 49.81700 30.38900
C  17.91600 51.57600 31.16100
C  18.42000 51.13000 32.51600
H  17.83300 51.88600 33.72600
N  15.26900 52.02500 25.54200
C  14.41800 52.37500 26.56800
C  13.28500 53.13000 25.97200
C  13.55200 53.21000 24.58800
C  14.77000 52.45500 24.34000
C  12.05900 53.40900 26.65000
C  12.70000 53.94500 23.50300
O  12.92200 53.98100 22.29100
C  11.51200 54.77200 23.93300
N  17.41800 50.79900 23.67500
C  16.58000 51.50200 22.76200
C  17.16400 51.17000 21.37700
C  18.46900 50.31200 21.58600
C  18.49300 50.25600 23.03200
C  16.22400 50.55900 20.42600
C  19.83300 50.80500 20.98400
C  20.12700 50.18300 19.60800
N  18.90200 49.98300 26.06900
C  19.77800 49.42100 25.09600
C  20.87000 48.65400 25.73500
C  20.53000 48.81500 27.10800
C  19.29000 49.50200 27.24100
C  22.04600 47.99300 25.04800
C  20.90600 48.44200 28.51100
O  21.77600 47.63800 28.89100
C  19.81300 49.09500 29.50400
C  19.20500 48.05700 30.37700
O  18.24400 47.30100 30.10700
O  19.83300 48.02500 31.56700
C  19.39200 47.03100 32.53500
H  13.90500 52.49600 28.62800
H  14.86300 52.56200 22.22400
H  20.25300 49.05900 23.06900
H  16.98200 49.59900 30.81200
H  15.31800 51.89200 30.66600
H  14.82100 49.27200 31.30700
H  14.67500 49.18700 29.50400
H  13.54400 50.08300 30.44000
H  17.37100 52.47800 31.43700
H  18.70000 51.98500 30.52300
H  19.47500 51.40200 32.49900
H  18.38500 50.04500 32.60900
H  11.17700 52.92000 26.23600
H  11.91900 54.48800 26.58700
H  12.15700 53.05200 27.67500
H  11.13900 55.33200 23.07600
H  11.88000 55.54200 24.61300
H  10.72100 54.10700 24.27900
H  17.42400 52.14800 20.97200
H  18.34500 49.25500 21.35200
H  16.57600 50.89700 19.45100
H  15.23300 50.91100 20.71300
H  16.27900 49.47900 20.56000
H  20.73800 50.58500 21.55100
H  19.87500 51.88700 20.86200
H  19.35800 49.48000 19.28800
H  21.11700 49.75700 19.45000
H  20.10700 51.03200 18.92500
H  22.57600 48.71200 24.42300
H  21.76600 47.19400 24.36300
H  22.71500 47.67400 25.84700
H  20.06900 49.87500 30.22100
H  19.73800 46.05200 32.20400
H  18.33000 47.08500 32.77500
H  19.89800 47.24200 33.47700

