158

Mg 43.30000 3.83100 47.98800
C  41.53800 6.63300 47.45700
C  40.43300 2.04600 47.34600
C  45.16200 1.01900 47.38400
C  46.32100 5.79300 47.72500
N  41.19100 4.31200 47.18800
C  40.72700 5.53300 47.24200
C  39.17500 5.53600 47.15300
C  38.74600 4.04900 47.31000
C  40.20100 3.42200 47.35500
C  38.08100 3.67700 48.65000
C  38.60900 6.17800 45.84500
C  37.01900 6.14700 45.70100
H  36.54800 6.01600 44.24600
N  42.86900 1.74200 47.68000
C  41.63300 1.30500 47.42200
C  41.76700 -0.13900 47.23500
C  43.13600 -0.54100 47.48200
C  43.83600 0.80100 47.54800
C  40.52000 -1.01300 47.00600
C  43.62700 -1.99400 47.50000
O  42.90300 -2.92100 47.30500
C  45.04200 -2.29100 47.77300
N  45.51800 3.49600 47.34100
C  45.91700 2.16600 47.41700
C  47.46000 2.13800 47.39300
C  47.81300 3.67800 47.50400
C  46.49500 4.42700 47.51500
C  48.19500 1.24600 48.46500
C  48.72500 4.22300 46.37300
C  49.91500 5.12400 46.89900
N  43.93800 5.77400 47.90800
C  45.11300 6.46600 47.80500
C  44.86200 7.83800 47.77400
C  43.47000 7.94600 47.66900
C  42.93400 6.67900 47.75200
C  45.80600 8.82700 47.70000
C  42.40300 8.95700 47.48500
O  42.54300 10.17800 47.31600
C  41.08400 8.18300 47.41100
C  40.16800 8.56100 48.53000
O  39.89000 7.78000 49.46600
O  39.63600 9.86200 48.33900
C  38.75300 10.36400 49.43000
H  39.51500 1.45500 47.34100
H  45.74000 0.10300 47.24300
H  47.26100 6.31500 47.91800
H  38.68800 6.05900 47.97600
H  38.08800 3.66500 46.53100
H  38.81400 3.17900 49.28300
H  37.27300 2.95800 48.51600
H  37.76800 4.56700 49.19600
H  39.08500 5.71900 44.97800
H  38.87400 7.23400 45.89000
H  36.57800 7.06000 46.10200
H  36.57200 5.33500 46.27300
H  40.64200 -1.85700 46.32700
H  39.76000 -0.49900 46.41700
H  40.15400 -1.41000 47.95400
H  45.62200 -2.19000 46.85600
H  45.02100 -3.21600 48.34800
H  45.36300 -1.52300 48.47800
H  47.84100 1.88300 46.40400
H  48.33200 3.92500 48.43000
H  47.50300 0.71200 49.11700
H  48.89600 1.92400 48.95200
H  48.80300 0.46100 48.01700
H  48.12600 4.77300 45.64700
H  49.28700 3.47000 45.82100
H  50.86700 4.81500 46.46800
H  49.98000 5.07200 47.98600
H  49.71400 6.16300 46.63600
H  46.16200 8.84200 46.67000
H  46.68500 8.55400 48.28500
H  45.37300 9.80600 47.90400
H  40.45100 8.36500 46.54200
H  38.86100 9.77600 50.34200
H  37.71400 10.48900 49.12600
H  39.14200 11.35400 49.66900
Mg 27.15300 50.01400 26.11000
C  24.95800 51.36300 28.47500
C  29.28100 49.19300 28.54400
C  29.34300 49.26000 23.65500
C  24.91900 51.30500 23.63600
N  27.26400 50.44100 28.25000
C  26.13600 50.83600 28.99200
C  26.30500 50.43500 30.51100
C  27.78700 49.91700 30.49700
C  28.10300 49.74500 29.02400
C  28.90500 50.67800 31.29700
C  25.25400 49.26100 30.91600
C  24.31000 49.67100 32.06000
H  24.32300 48.84800 33.37400
N  29.06400 49.37100 26.10300
C  29.81300 49.01600 27.23400
C  31.11200 48.47900 26.80700
C  31.19600 48.69200 25.41700
C  29.81100 49.17500 25.01000
C  32.12500 47.99400 27.75700
C  32.30400 48.50000 24.46200
O  32.29900 48.92900 23.30200
C  33.57300 47.83000 25.04300
N  27.20800 50.44400 23.94900
C  28.14300 49.82400 23.17700
C  27.90100 49.98000 21.67900
C  26.42300 50.34300 21.68500
C  26.16900 50.79300 23.17700
C  28.75200 50.91300 20.85200
C  25.33300 49.26000 21.12800
C  24.59900 48.42700 22.19700
N  25.29500 51.07200 26.00200
C  24.54600 51.56200 24.94400
C  23.39300 52.34300 25.44400
C  23.48500 52.17500 26.82500
C  24.66100 51.44700 27.08700
C  22.45400 53.18600 24.66000
C  22.90500 52.56900 28.11600
O  21.92300 53.31000 28.34700
C  23.81200 51.91000 29.24200
C  24.27700 53.03400 30.05700
O  25.17500 53.92600 29.77500
O  23.43900 53.13700 31.13600
C  23.86400 54.18800 32.10700
H  29.90400 48.65300 29.26000
H  30.00800 48.98400 22.83400
H  24.29900 51.61900 22.79400
H  26.13800 51.23100 31.23700
H  27.85500 48.90400 30.89400
H  28.59600 51.69500 31.53700
H  29.78500 50.89100 30.69000
H  29.12700 50.04800 32.15900
H  25.85700 48.40700 31.22600
H  24.78000 48.77800 30.06200
H  23.32200 49.52000 31.62500
H  24.26900 50.75600 32.15800
H  33.04000 48.55500 27.56900
H  32.16300 46.91800 27.58300
H  31.78100 48.16100 28.77800
H  34.06500 48.57000 25.67400
H  34.28400 47.59200 24.25200
H  33.34400 46.93500 25.62100
H  28.00800 48.95800 21.31500
H  26.21900 51.21300 21.06100
H  28.25100 51.82700 20.53500
H  29.31100 50.49600 20.01300
H  29.51400 51.11600 21.60500
H  25.85500 48.56500 20.47000
H  24.62700 49.81600 20.51000
H  25.00400 48.36700 23.20700
H  24.58400 47.37800 21.90200
H  23.54500 48.70400 22.23100
H  22.45700 54.23300 24.96100
H  21.45400 52.78700 24.83600
H  22.66600 53.15700 23.59200
H  23.36400 51.11200 29.83200
H  24.89800 54.06400 32.43100
H  23.25500 54.21200 33.01000
H  23.70700 55.13200 31.58500

