158

Mg 48.58000 34.97400 26.82400
C  46.97700 33.43500 29.45300
C  49.41100 37.68400 28.69100
C  49.77500 36.51400 24.00900
C  47.62000 32.20800 24.78300
N  48.23900 35.50200 28.83700
C  47.59600 34.70200 29.76500
C  47.85300 35.34800 31.20500
C  48.24600 36.81500 30.79700
C  48.79300 36.63900 29.34800
C  47.15400 37.94000 31.02300
C  49.00800 34.52800 31.94700
C  48.70100 34.22200 33.37600
H  47.65400 34.97800 34.22400
N  49.52000 36.77300 26.35600
C  49.76500 37.77700 27.34600
C  50.26600 38.96100 26.68500
C  50.50900 38.65000 25.31100
C  49.93000 37.25000 25.17800
C  50.61400 40.25100 27.37700
C  51.07200 39.50200 24.17800
O  51.18000 39.03300 23.06300
C  51.52200 40.91100 24.50200
N  48.42700 34.59900 24.76900
C  49.05100 35.29600 23.82300
C  48.97500 34.66500 22.44100
C  48.71000 33.16300 22.73900
C  48.15100 33.31200 24.14000
C  48.09700 35.52600 21.46500
C  49.88000 32.14400 22.79500
C  49.94600 30.95200 21.71800
N  47.50700 33.14600 26.96600
C  47.27300 32.08100 26.11500
C  46.43500 31.04200 26.81000
C  46.32300 31.57900 28.12200
C  46.96000 32.77900 28.19300
C  45.90800 29.70300 26.27300
C  45.68100 31.33200 29.40100
O  45.08200 30.37400 29.71700
C  46.08200 32.56800 30.27600
C  46.50600 32.00300 31.57800
O  47.54500 31.42100 31.83000
O  45.38500 32.03300 32.42300
C  45.55400 31.14700 33.61300
H  49.50900 38.58900 29.29500
H  50.19200 36.85700 23.06000
H  47.46900 31.41900 24.04300
H  46.98300 35.34300 31.86100
H  49.02500 37.15300 31.48100
H  46.98000 38.52400 30.11900
H  47.47800 38.76000 31.66400
H  46.24700 37.57800 31.50900
H  49.94600 35.08300 31.91500
H  49.20100 33.53900 31.53200
H  49.68500 34.29400 33.84100
H  48.39500 33.19400 33.57200
H  50.12000 41.05600 26.83300
H  51.68200 40.37100 27.55400
H  50.15400 40.22200 28.36500
H  50.69200 41.57300 24.75000
H  51.99700 41.43500 23.67200
H  52.27300 40.87600 25.29100
H  49.96600 34.56600 21.99800
H  47.94700 32.73100 22.09000
H  48.62600 35.86600 20.57500
H  47.80100 36.45200 21.95900
H  47.27500 34.88700 21.14400
H  49.94700 31.56000 23.71300
H  50.80500 32.70300 22.65300
H  49.10300 31.04000 21.03300
H  49.93600 30.01800 22.28000
H  50.89100 30.99600 21.17600
H  46.79100 29.34700 25.74100
H  45.05900 29.68600 25.59000
H  45.71600 29.02500 27.10500
H  45.20800 33.20700 30.40400
H  46.30100 31.52400 34.31100
H  45.77400 30.11300 33.34500
H  44.60400 31.15100 34.14800
Mg -11.49100 17.32700 41.06500
C  -7.93800 16.88600 41.01700
C  -10.95100 20.77100 40.51100
C  -14.66300 17.72900 40.06600
C  -11.76600 13.82400 40.70900
N  -9.66000 18.64200 40.94200
C  -8.32000 18.24300 40.79500
C  -7.31600 19.45000 40.54900
C  -8.33100 20.65200 40.80000
C  -9.78300 19.99500 40.83500
C  -8.12500 21.46100 42.11300
C  -6.73700 19.36300 39.06800
C  -5.16600 19.03600 38.91200
H  -4.85500 18.00900 37.78200
N  -12.68200 19.00900 40.38600
C  -12.29500 20.32000 40.32900
C  -13.41600 21.17000 39.90900
C  -14.63000 20.29300 39.93400
C  -14.01700 18.98200 40.17100
C  -13.39200 22.56700 39.47100
C  -16.02000 20.72100 39.71400
O  -16.26800 21.91900 39.64000
C  -17.26800 19.84400 39.70200
N  -12.97800 15.92100 40.54100
C  -14.20400 16.37000 40.17300
C  -15.24700 15.26000 39.91700
C  -14.25400 14.08700 39.83600
C  -12.91800 14.63000 40.41600
C  -16.36800 14.96400 40.95200
C  -14.04700 13.51600 38.43100
C  -14.98800 12.35200 37.92000
N  -10.20100 15.66200 41.16100
C  -10.47400 14.33300 41.01900
C  -9.21200 13.55800 41.18800
C  -8.19400 14.56900 41.16600
C  -8.84400 15.84300 41.09200
C  -9.16400 12.07900 41.08400
C  -6.72000 14.76100 41.03500
O  -5.91300 13.89400 40.99800
C  -6.54000 16.29800 40.95500
C  -5.68100 16.69100 42.15800
O  -4.61100 16.09800 42.54300
O  -6.24600 17.65900 42.96400
C  -5.67600 18.04000 44.20000
H  -10.72800 21.82400 40.32600
H  -15.71000 17.75300 39.75700
H  -11.83000 12.75200 40.51400
H  -6.45100 19.41900 41.21100
H  -8.34900 21.38600 39.99500
H  -9.02900 21.23800 42.68000
H  -7.97700 22.52500 41.92800
H  -7.30500 21.00700 42.67000
H  -6.90400 20.40400 38.78800
H  -7.21400 18.56300 38.50300
H  -4.78100 18.70900 39.87800
H  -4.65000 19.97200 38.70200
H  -14.14200 22.71000 38.69300
H  -12.39300 22.80500 39.10500
H  -13.50100 23.22100 40.33600
H  -17.06500 19.01600 39.02400
H  -18.12600 20.36500 39.27800
H  -17.35000 19.55600 40.75000
H  -15.61600 15.49700 38.91900
H  -14.58100 13.27900 40.49000
H  -15.99800 15.48700 41.83400
H  -16.38600 13.89600 41.16800
H  -17.34600 15.27800 40.58600
H  -13.05500 13.06600 38.37700
H  -14.10200 14.34700 37.72700
H  -14.43500 11.56600 37.40600
H  -15.66300 12.79100 37.18400
H  -15.63300 11.99000 38.72100
H  -8.28100 11.79200 41.65500
H  -9.07500 11.77600 40.04100
H  -9.98300 11.49200 41.50000
H  -6.06700 16.66700 40.04500
H  -4.58800 18.04600 44.13300
H  -5.86000 17.34800 45.02100
H  -6.12300 18.98900 44.49900

