158

Mg 0.96500 7.60000 26.93600
C  1.26200 9.67500 29.67000
C  0.86100 4.87400 29.17800
C  0.27400 5.45800 24.30100
C  1.00200 10.16400 24.87800
N  1.13600 7.28000 29.18300
C  1.13600 8.36700 30.07500
C  1.11700 7.86400 31.48400
C  1.16200 6.31200 31.32100
C  1.03700 6.08200 29.80700
C  2.42600 5.57100 31.94300
C  -0.15300 8.30900 32.31700
C  -0.14300 8.36200 33.82600
H  1.11100 7.97400 34.61800
N  0.69300 5.52900 26.80200
C  0.64500 4.54600 27.79000
C  0.45700 3.25300 27.21100
C  0.26300 3.45400 25.84900
C  0.41400 4.86000 25.56800
C  0.54600 2.02800 28.16200
C  -0.11200 2.43300 24.76600
O  -0.24300 2.59100 23.60100
C  -0.43400 1.05400 25.24200
N  0.94900 7.71300 24.88800
C  0.53700 6.77500 23.99600
C  0.46200 7.31700 22.53300
C  0.35600 8.84400 22.86500
C  0.78200 8.94400 24.25700
C  1.70900 7.14000 21.58400
C  -1.07800 9.47300 22.89200
C  -1.50100 10.01300 21.51400
N  1.05400 9.53200 27.18200
C  1.08400 10.49100 26.21800
C  1.33000 11.75500 26.78700
C  1.40000 11.53200 28.17800
C  1.17000 10.15800 28.36500
C  1.46400 13.03000 25.95600
C  1.63000 12.12600 29.46700
O  1.95000 13.27900 29.78000
C  1.41300 10.89100 30.47900
C  2.55200 10.83100 31.47700
O  3.68300 10.64900 31.14300
O  2.08100 11.37900 32.67300
C  2.95600 11.84100 33.74100
H  0.52800 4.10200 29.87500
H  0.03800 4.88700 23.40000
H  1.07600 10.91600 24.09000
H  2.00700 8.13200 32.05400
H  0.31800 5.79800 31.78100
H  2.21000 5.36800 32.99200
H  3.26800 6.24700 31.79600
H  2.68200 4.65100 31.41800
H  -1.00300 7.68000 32.05100
H  -0.42500 9.31900 32.00900
H  -0.92800 7.69300 34.17900
H  -0.45800 9.39600 33.96600
H  -0.47900 1.78100 28.44000
H  1.01900 2.31900 29.10000
H  1.09700 1.19600 27.72300
H  0.48400 0.52000 25.48700
H  -0.76500 0.46200 24.38900
H  -1.17700 1.06300 26.04000
H  -0.50200 7.03200 22.11300
H  1.02800 9.46300 22.27000
H  2.22300 6.22400 21.87700
H  2.47900 7.90700 21.50000
H  1.19900 7.02800 20.62800
H  -1.13600 10.26900 23.63500
H  -1.89400 8.81800 23.19600
H  -2.42000 9.50600 21.22100
H  -0.73000 9.81600 20.76900
H  -1.63400 11.09400 21.48200
H  1.22300 13.78500 26.70500
H  0.75400 13.15200 25.13800
H  2.48000 13.14200 25.57800
H  0.50500 10.99700 31.07300
H  3.71200 12.45100 33.24700
H  3.33600 11.11900 34.46400
H  2.37500 12.62000 34.23500
Mg 47.50400 25.31400 28.51700
C  48.46500 27.61700 31.06700
C  46.50000 23.18300 30.74100
C  47.21700 23.04200 25.86300
C  48.54700 27.74300 26.15500
N  47.61800 25.34600 30.62700
C  47.98900 26.37000 31.49200
C  47.64000 26.10400 32.95300
C  47.00100 24.63200 32.78200
C  47.05700 24.36700 31.30300
C  47.68600 23.45000 33.54200
C  46.63200 27.13800 33.54500
C  46.92100 27.81000 34.89200
H  45.73500 28.00900 35.82400
N  46.91400 23.47300 28.37000
C  46.52300 22.74700 29.42100
C  46.11700 21.42800 29.10100
C  46.24700 21.32900 27.66000
C  46.80400 22.65400 27.15700
C  45.58900 20.33200 29.97500
C  45.71300 20.25300 26.75600
O  45.87500 20.39400 25.59200
C  44.87500 19.08600 27.30400
N  47.86600 25.36900 26.36600
C  47.56800 24.32600 25.51200
C  47.96300 24.71500 24.06800
C  48.09900 26.22900 24.20300
C  48.14700 26.48000 25.67200
C  49.24700 23.91500 23.61400
C  46.99200 27.10000 23.52800
C  47.56300 28.25100 22.70500
N  48.19900 27.32200 28.51800
C  48.68300 28.15400 27.51300
C  49.24800 29.35800 28.05800
C  49.13400 29.18300 29.43400
C  48.56200 27.93900 29.68800
C  49.87100 30.44200 27.16700
C  49.48500 29.79600 30.69200
O  50.06900 30.83500 30.86000
C  49.10200 28.78000 31.81300
C  50.27800 28.47000 32.72300
O  51.28400 27.90200 32.28800
O  50.11300 29.14800 33.93300
C  51.30100 29.14000 34.80200
H  46.20200 22.38200 31.42000
H  46.97000 22.36300 25.04500
H  48.79800 28.48700 25.39600
H  48.49000 25.95300 33.61800
H  45.96400 24.48200 33.08100
H  48.56400 23.01900 33.06000
H  46.93300 22.67000 33.65700
H  48.01100 23.77600 34.53000
H  45.69300 26.58700 33.59400
H  46.38000 27.99600 32.92200
H  47.38400 28.78200 34.72600
H  47.55400 27.07800 35.39600
H  44.53400 20.08300 29.86500
H  45.82100 20.57300 31.01300
H  46.29900 19.57800 29.63500
H  44.63000 18.53500 26.39600
H  43.91600 19.47000 27.65100
H  45.44800 18.41900 27.94900
H  47.12200 24.43400 23.43400
H  49.07000 26.53100 23.81200
H  50.01400 24.52400 23.13800
H  48.90500 23.09600 22.98100
H  49.73800 23.40600 24.44400
H  46.41900 27.50700 24.36100
H  46.25100 26.58300 22.91800
H  48.29100 27.83700 22.00800
H  47.80200 29.14300 23.28400
H  46.77600 28.47200 21.98300
H  49.43300 30.56300 26.17700
H  50.95200 30.34000 27.07200
H  49.83300 31.40900 27.67000
H  48.19900 29.15000 32.29800
H  52.19500 29.33600 34.21200
H  51.48700 28.16500 35.25400
H  51.01200 29.96700 35.45100

