158

Mg 42.47900 41.86200 26.40900
C  41.46900 44.19700 28.82300
C  43.52100 39.78300 28.90600
C  43.39100 39.52800 24.14800
C  41.86300 44.21700 23.91000
N  42.47500 42.04200 28.61600
C  41.92900 43.00000 29.39200
C  41.87100 42.58200 30.91300
C  42.51300 41.15000 30.91100
C  42.92200 41.00100 29.39500
C  43.76500 40.97100 31.84400
C  40.47100 42.59200 31.56000
C  40.20800 43.44700 32.79800
H  39.37900 42.90000 33.93200
N  43.35600 39.96900 26.51700
C  43.69800 39.29700 27.61100
C  44.14400 37.99800 27.31200
C  43.88300 37.77700 25.92800
C  43.50400 39.14000 25.48700
C  44.66200 37.06800 28.39200
C  44.08300 36.48500 25.07900
O  43.72400 36.45000 23.89700
C  44.43900 35.18500 25.87600
N  42.69500 41.90000 24.30800
C  42.96500 40.79600 23.58700
C  42.87500 41.06200 22.09800
C  42.29300 42.49500 22.04100
C  42.31200 42.93900 23.52700
C  44.26700 40.77800 21.36700
C  40.87200 42.73800 21.39800
C  40.71700 43.89900 20.40800
N  41.81000 43.87500 26.34500
C  41.63900 44.64100 25.26600
C  41.01500 45.91000 25.68800
C  40.84000 45.72500 27.09600
C  41.40800 44.50700 27.41800
C  40.63600 47.00900 24.84500
C  40.44400 46.42400 28.27100
O  40.01900 47.55000 28.40600
C  40.86300 45.38100 29.48000
C  41.85600 46.03300 30.47700
O  43.08000 45.90800 30.46000
O  41.16200 46.59800 31.53600
C  42.00500 47.02000 32.67400
H  43.74700 39.19200 29.79700
H  43.60300 38.79100 23.37200
H  41.63900 44.84800 23.04800
H  42.45400 43.30000 31.48900
H  41.83900 40.31400 31.10300
H  43.63100 41.57600 32.74000
H  44.65800 41.37600 31.36800
H  43.97100 39.94500 32.14800
H  40.06900 41.61400 31.82500
H  39.82100 42.98900 30.78000
H  39.79600 44.44000 32.61500
H  41.17100 43.73900 33.21700
H  43.84900 36.40500 28.68500
H  45.15100 37.59700 29.21000
H  45.33900 36.29900 28.02000
H  45.51600 35.18500 26.04400
H  44.23300 34.33400 25.22800
H  43.77600 34.99900 26.72000
H  42.12100 40.37600 21.71100
H  43.04800 43.06300 21.49800
H  45.11100 40.75100 22.05600
H  44.47100 41.59200 20.67100
H  44.22200 39.81400 20.86100
H  40.21400 42.90300 22.25200
H  40.39200 41.86700 20.95200
H  39.94700 44.47500 20.92000
H  40.04400 43.59100 19.60800
H  41.52400 44.47800 19.95900
H  40.57400 46.59600 23.83800
H  41.35300 47.82900 24.89000
H  39.64000 47.40900 25.03900
H  40.01600 45.03600 30.07400
H  43.05200 47.15300 32.40100
H  41.93300 46.30600 33.49400
H  41.62800 47.98000 33.02700
Mg 16.87600 52.08900 26.54900
C  19.22600 50.67900 28.84400
C  14.87500 52.69300 29.17400
C  14.84300 53.11400 24.40800
C  19.06300 50.79700 23.95700
N  17.15500 51.84400 28.69800
C  18.14500 51.22500 29.43700
C  17.77900 51.26500 30.92200
C  16.23800 51.51600 30.97500
C  16.03300 51.98700 29.50600
C  15.44900 50.26600 31.07600
C  18.58700 52.23200 31.76500
C  18.58600 52.02800 33.32000
H  17.70100 50.87600 33.93800
N  15.16800 52.94800 26.76000
C  14.47900 53.10800 27.89000
C  13.27200 53.83200 27.58800
C  13.19700 53.97400 26.15100
C  14.38500 53.28300 25.67800
C  12.35300 54.30500 28.60500
C  12.09600 54.55500 25.20600
O  12.23600 54.66000 24.01400
C  10.86700 55.07700 25.80700
N  16.91500 51.84600 24.43900
C  15.88600 52.43500 23.81200
C  16.14000 52.49000 22.27200
C  17.65200 52.05600 22.14500
C  17.95100 51.58900 23.57700
C  15.08600 51.59400 21.47800
C  18.67000 53.22500 21.81500
C  19.16400 53.22000 20.38600
N  18.74800 50.94800 26.38000
C  19.47700 50.55300 25.28000
C  20.76600 49.97000 25.77400
C  20.66600 49.93400 27.12000
C  19.47000 50.61700 27.45000
C  21.86400 49.42300 24.91500
C  21.32900 49.53300 28.36500
O  22.30800 48.91500 28.56100
C  20.47000 50.06200 29.53400
C  20.19600 48.89400 30.41700
O  20.03100 47.74900 30.01700
O  20.25200 49.21400 31.78700
C  20.44900 48.05900 32.70800
H  14.26500 52.87700 30.06100
H  14.19800 53.59000 23.66700
H  19.81600 50.54400 23.20800
H  17.88800 50.23800 31.27100
H  15.84600 52.27300 31.65500
H  15.63100 49.57700 30.25100
H  14.39900 50.53600 31.19500
H  15.63500 49.80100 32.04400
H  18.27000 53.26200 31.60500
H  19.58200 52.16200 31.32700
H  18.22500 52.96800 33.73800
H  19.62800 51.83200 33.57200
H  11.59600 53.53000 28.72400
H  11.98700 55.29200 28.32200
H  12.81400 54.44500 29.58300
H  10.13000 55.48600 25.11600
H  11.13700 55.95900 26.38700
H  10.34800 54.28200 26.34200
H  15.88800 53.50200 21.95700
H  17.59600 51.25700 21.40500
H  15.59000 50.99000 20.72400
H  14.29200 52.20500 21.04800
H  14.50600 50.92900 22.11800
H  19.53800 53.14600 22.47000
H  18.09600 54.14300 21.93600
H  18.55500 53.94000 19.83900
H  18.92700 52.22400 20.01100
H  20.22000 53.48600 20.34500
H  21.92700 49.82300 23.90300
H  21.73000 48.34400 24.84000
H  22.77900 49.65900 25.45900
H  21.01800 50.81500 30.10100
H  21.12600 48.26600 33.53700
H  20.82100 47.17600 32.18700
H  19.56600 47.67100 33.21500

