158

Mg 10.55700 46.77300 25.51400
C  8.39900 47.22700 28.11100
C  13.13500 47.80300 27.47400
C  12.55000 46.35400 22.87800
C  7.83300 46.09500 23.38500
N  10.67400 47.70400 27.49100
C  9.77700 47.48000 28.44900
C  10.36400 47.67000 29.81100
C  11.81100 48.27000 29.50300
C  11.86100 47.87200 28.05000
C  11.86800 49.78300 29.75400
C  10.37400 46.27200 30.62900
C  11.29300 45.93100 31.78200
H  10.60100 45.12100 32.84500
N  12.53200 46.97400 25.21800
C  13.49100 47.36400 26.13100
C  14.87000 47.15100 25.65900
C  14.70400 46.60900 24.38400
C  13.17500 46.59900 24.09500
C  16.09000 47.64200 26.38000
C  15.69800 46.27900 23.33700
O  15.42500 45.82100 22.21300
C  17.17600 46.36000 23.69500
N  10.20500 46.45200 23.32200
C  11.23800 46.26100 22.46100
C  10.84000 46.05700 21.04900
C  9.29500 45.92100 21.22000
C  9.03200 46.18200 22.72600
C  11.26200 47.21700 20.24300
C  8.78400 44.54900 20.69300
C  8.23200 44.60100 19.23000
N  8.50200 46.72400 25.66600
C  7.48300 46.34600 24.73400
C  6.22300 46.35000 25.39500
C  6.52700 46.63000 26.75700
C  7.90700 46.87200 26.85800
C  4.84800 46.19300 24.88500
C  5.96700 46.69500 28.04400
O  4.78500 46.54900 28.45600
C  7.17000 46.95900 28.96000
C  7.27100 45.64400 29.78200
O  7.90800 44.66900 29.38400
O  6.59400 45.76300 31.00300
C  6.68000 44.49800 31.85400
H  14.01200 48.05200 28.07500
H  13.25400 46.40900 22.04500
H  6.88200 46.01400 22.85300
H  9.70000 48.44000 30.20300
H  12.57200 47.68200 30.01700
H  10.87400 50.22200 29.67700
H  12.41600 50.29300 28.96200
H  12.16700 50.03000 30.77300
H  10.36700 45.33800 30.06800
H  9.37100 46.37800 31.04300
H  11.67000 46.83900 32.25300
H  12.23400 45.47100 31.48100
H  16.00500 47.49300 27.45700
H  16.06800 48.71700 26.20000
H  17.04400 47.23300 26.04800
H  17.94600 46.15800 22.95100
H  17.28300 45.57900 24.44800
H  17.30800 47.40100 23.99100
H  11.23200 45.12600 20.63900
H  8.77500 46.71100 20.67800
H  12.15400 46.97000 19.66800
H  11.59500 48.08900 20.80600
H  10.46300 47.39500 19.52300
H  7.93400 44.11900 21.22200
H  9.50600 43.74300 20.82700
H  7.87400 45.60500 19.00100
H  7.43500 43.87500 19.06500
H  8.96600 44.27200 18.49500
H  4.90900 46.58400 23.86900
H  4.03600 46.76400 25.33600
H  4.53900 45.14900 24.83200
H  7.01300 47.63000 29.80500
H  7.63600 43.99700 31.70000
H  5.93900 43.73200 31.62500
H  6.50900 44.64800 32.92000
Mg -6.23100 25.40800 25.98300
C  -4.50800 26.68400 28.76900
C  -8.04200 23.52600 28.03200
C  -7.48900 24.03400 23.24100
C  -3.74500 26.94500 23.91200
N  -6.42000 25.34000 28.15300
C  -5.61700 25.85900 29.13000
C  -6.05200 25.37300 30.55000
C  -6.92100 24.13300 30.19200
C  -7.12300 24.34500 28.68200
C  -6.15800 22.73200 30.43000
C  -6.84800 26.52300 31.33600
C  -7.14200 26.24500 32.88700
H  -6.30100 25.13200 33.55000
N  -7.71700 24.08900 25.69100
C  -8.40800 23.43200 26.67400
C  -9.37900 22.56000 26.05400
C  -9.15700 22.66400 24.69500
C  -8.10900 23.65800 24.47800
C  -10.38900 21.67300 26.92100
C  -9.95500 21.97500 23.60500
O  -9.60700 22.04000 22.41200
C  -11.02000 20.95800 23.87300
N  -5.68300 25.53700 23.85800
C  -6.32200 24.68200 22.96500
C  -5.74000 24.84800 21.53500
C  -4.67300 25.95500 21.66700
C  -4.70300 26.21500 23.21500
C  -5.30600 23.49600 20.89400
C  -5.08100 27.28100 20.95000
C  -4.37300 27.54000 19.57300
N  -4.56800 26.61600 26.23400
C  -3.67100 27.10200 25.32100
C  -2.53700 27.77700 26.00900
C  -2.85000 27.66000 27.31600
C  -4.03900 26.91500 27.44400
C  -1.38100 28.49100 25.37100
C  -2.38700 28.01200 28.64500
O  -1.34400 28.54500 28.97300
C  -3.48600 27.47100 29.70100
C  -2.87700 26.59100 30.71400
O  -2.30900 25.56400 30.40900
O  -3.05200 27.05000 32.01600
C  -2.54100 26.19000 33.10400
H  -8.68100 22.88000 28.63700
H  -7.88800 23.65100 22.29900
H  -2.89000 27.40200 23.40800
H  -5.12700 25.07300 31.04200
H  -7.79800 24.15300 30.83900
H  -5.91900 22.12000 29.56000
H  -6.81600 22.10600 31.03200
H  -5.23300 22.90000 30.98200
H  -7.77900 26.60400 30.77600
H  -6.34100 27.48700 31.30800
H  -8.20300 26.06500 33.05600
H  -6.69100 27.10300 33.38600
H  -9.97800 20.66400 26.92200
H  -11.33700 21.50200 26.41100
H  -10.53500 22.08300 27.92000
H  -11.30900 20.51600 22.92000
H  -11.90800 21.45000 24.26900
H  -10.71700 20.24800 24.64300
H  -6.63700 25.21700 21.03800
H  -3.72300 25.54300 21.32700
H  -5.20900 22.79700 21.72500
H  -4.31200 23.56900 20.45200
H  -6.05600 23.14000 20.18800
H  -4.71100 28.15300 21.49000
H  -6.16800 27.32100 20.88000
H  -4.95100 27.53200 18.65000
H  -3.64500 26.74200 19.42500
H  -3.78000 28.45400 19.60600
H  -1.69300 28.86200 24.39500
H  -0.49600 27.88000 25.19400
H  -1.05300 29.35500 25.94900
H  -3.85700 28.35700 30.21700
H  -1.49900 26.50900 33.12200
H  -2.77900 25.16900 32.80600
H  -3.02500 26.40500 34.05600

