158

Mg 25.70800 0.80600 29.60400
C  27.55900 0.53000 32.47300
C  22.77400 0.96700 31.40500
C  23.98900 0.74100 26.64900
C  28.61900 0.27000 27.72100
N  25.24100 0.76200 31.72100
C  26.19900 0.79100 32.73600
C  25.52400 0.90700 34.09800
C  24.04400 0.76000 33.77000
C  23.97400 0.81600 32.19600
C  23.35000 -0.47600 34.38200
C  25.92200 2.20400 34.93000
C  26.46700 1.91300 36.38700
H  26.05100 2.88500 37.52600
N  23.77700 0.83400 29.12100
C  22.64300 0.92300 30.02500
C  21.39300 1.13200 29.30400
C  21.70800 1.07900 27.93000
C  23.22500 0.83000 27.85100
C  19.93800 1.04200 29.95900
C  20.78900 1.16200 26.66900
O  21.25400 1.05300 25.50100
C  19.33100 1.39900 26.89100
N  26.25100 0.63300 27.48100
C  25.35100 0.65000 26.46400
C  26.03800 0.72300 25.12000
C  27.60200 0.56500 25.51400
C  27.46800 0.48800 27.00800
C  25.46400 -0.26800 24.09600
C  28.44300 1.75000 25.10400
C  29.93600 1.46700 24.62200
N  27.71600 0.59000 30.03000
C  28.77000 0.35700 29.14800
C  29.97300 0.10400 29.93600
C  29.51400 0.22000 31.25600
C  28.17300 0.39700 31.24100
C  31.29900 -0.31000 29.41300
C  29.94900 0.15100 32.58600
O  31.09200 -0.08900 33.01700
C  28.70500 0.45400 33.46100
C  28.64300 -0.80100 34.42600
O  28.32200 -1.93800 34.15200
O  29.07600 -0.46300 35.69300
C  28.74900 -1.38100 36.82200
H  21.84400 0.83700 31.96100
H  23.43200 1.10500 25.78300
H  29.42100 -0.06200 27.05800
H  25.86500 -0.00400 34.59100
H  23.46000 1.61700 34.10300
H  22.93200 -1.19700 33.68000
H  22.51900 -0.20600 35.03500
H  24.11300 -1.01100 34.94600
H  24.99400 2.74000 35.12500
H  26.69000 2.86900 34.53400
H  27.54900 1.88200 36.25800
H  26.26200 0.90800 36.75800
H  19.34500 0.23200 29.53400
H  19.24100 1.84700 29.72400
H  19.87500 0.83900 31.02800
H  18.78100 1.76100 26.02200
H  19.14000 2.12300 27.68300
H  18.74800 0.50100 27.09500
H  25.89300 1.73100 24.73300
H  28.09600 -0.29400 25.06000
H  24.74900 -1.04200 24.37500
H  26.25200 -0.91400 23.70900
H  24.89600 0.33600 23.38800
H  28.45400 2.64000 25.73400
H  27.97500 2.24100 24.25100
H  30.24000 0.42100 24.58000
H  30.67800 1.94100 25.26600
H  30.05200 1.81200 23.59500
H  31.36500 -1.34900 29.09000
H  31.97700 -0.18600 30.25800
H  31.68900 0.29200 28.59200
H  28.84900 1.31900 34.10900
H  28.39300 -2.38300 36.58100
H  28.02800 -0.85000 37.44300
H  29.67300 -1.41500 37.40100
Mg 30.34700 57.85100 40.08600
C  27.77900 55.69800 38.69000
C  32.60300 55.58900 38.91300
C  32.62800 60.14000 40.45300
C  27.78900 60.31600 40.41100
N  30.18300 55.84000 38.96700
C  29.08900 55.19500 38.48300
C  29.51600 53.82100 38.01100
C  31.02800 53.75200 38.24400
C  31.32200 55.17800 38.68200
C  31.39100 52.64800 39.21600
C  29.03700 53.56100 36.50200
C  29.58800 54.60900 35.49500
H  28.75700 55.41600 34.39000
N  32.37600 57.83200 39.91400
C  33.16900 56.85200 39.38700
C  34.52000 57.23700 39.39500
C  34.57100 58.55900 39.89600
C  33.17400 58.91900 40.07800
C  35.63500 56.20700 39.08000
C  35.86400 59.36400 40.16900
O  36.88000 58.89800 39.80100
C  35.90900 60.72500 40.82900
N  30.22000 59.96000 40.19400
C  31.36100 60.65000 40.56400
C  31.06900 62.18400 40.68900
C  29.49900 62.21500 40.86600
C  29.13500 60.75900 40.45500
C  31.84400 62.96400 41.72900
C  28.79600 63.27200 39.98900
C  28.32200 64.53500 40.68600
N  28.24300 57.93100 39.81100
C  27.31100 58.99100 40.07100
C  25.92600 58.51300 39.81300
C  26.12800 57.27700 39.28500
C  27.49600 56.98900 39.20900
C  24.61900 59.20500 40.12500
C  25.38900 56.11900 38.81400
O  24.20400 56.03100 38.68200
C  26.39500 54.97100 38.57800
C  26.20800 53.87300 39.55700
O  27.05000 53.23100 40.17400
O  24.90700 53.55400 39.60100
C  24.59100 52.43000 40.52000
H  33.41000 54.88000 38.71600
H  33.37400 60.93100 40.55800
H  26.92600 60.97300 40.53500
H  29.02200 53.04800 38.60000
H  31.51300 53.50000 37.30100
H  31.50200 52.97100 40.25100
H  32.36500 52.24100 38.94400
H  30.72500 51.79500 39.08700
H  27.95200 53.47000 36.46300
H  29.45900 52.61200 36.17100
H  30.35700 54.09700 34.91600
H  30.10200 55.36400 36.09000
H  36.02300 56.33000 38.06900
H  35.29500 55.17900 39.20000
H  36.44900 56.28000 39.80200
H  36.91300 61.07200 41.07300
H  35.33200 60.61300 41.74700
H  35.49800 61.42300 40.10000
H  31.23000 62.60500 39.69700
H  29.30300 62.35900 41.92800
H  32.49500 62.25600 42.24200
H  31.13000 63.46800 42.38100
H  32.46500 63.68200 41.19500
H  27.97300 62.76700 39.48200
H  29.43200 63.56000 39.15200
H  28.25200 64.31800 41.75200
H  27.38200 64.98600 40.36600
H  29.13700 65.25500 40.60600
H  23.93800 58.46400 40.54400
H  24.03000 59.58200 39.28900
H  24.83600 59.86800 40.96200
H  26.27600 54.69500 37.53100
H  23.60700 51.98400 40.37800
H  24.62300 52.88400 41.51000
H  25.32700 51.62800 40.57800

