158

Mg 1.95500 41.35900 26.42900
C  3.80100 41.98900 29.20200
C  -0.84200 40.53900 28.20200
C  0.50500 40.30000 23.54500
C  4.84700 42.20500 24.48500
N  1.50400 41.29100 28.49000
C  2.40300 41.64100 29.51500
C  1.71500 41.62700 30.87200
C  0.24700 41.19800 30.51800
C  0.26900 41.04700 28.98800
C  -0.20400 39.81000 31.12300
C  1.77600 43.03000 31.60100
C  2.24300 43.19600 33.07300
H  1.91000 41.97200 33.94800
N  0.13200 40.41700 26.01500
C  -0.92400 40.21200 26.86600
C  -2.02000 39.54900 26.20400
C  -1.56700 39.45500 24.79400
C  -0.24500 39.99800 24.73000
C  -3.35000 39.00900 26.86300
C  -2.30100 38.86600 23.54600
O  -1.84200 38.83000 22.41400
C  -3.73400 38.35200 23.79600
N  2.59200 41.31700 24.24200
C  1.74100 40.88300 23.29300
C  2.39500 40.95400 21.88900
C  3.80600 41.66700 22.15500
C  3.73300 41.75600 23.73600
C  2.58000 39.54800 21.14800
C  3.97300 43.00700 21.35000
C  4.11500 44.43500 22.12600
N  3.87900 42.02100 26.68200
C  4.91500 42.31400 25.84300
C  6.04400 42.77100 26.60500
C  5.66400 42.63200 27.96300
C  4.35700 42.13200 27.93200
C  7.37900 43.34000 26.09700
C  6.00900 42.79100 29.31000
O  7.04500 43.18500 29.85700
C  4.91500 42.23000 30.17400
C  5.45500 40.89500 30.78000
O  6.02000 39.99200 30.13800
O  5.15200 40.74700 32.06600
C  5.40800 39.51000 32.73200
H  -1.81900 40.32200 28.64000
H  0.06000 39.92500 22.62100
H  5.64900 42.56000 23.83400
H  2.27100 40.85000 31.39700
H  -0.52400 41.88200 30.87200
H  0.54300 39.49600 31.85100
H  -0.27400 39.01100 30.38600
H  -1.15400 39.88400 31.65300
H  0.75100 43.39500 31.65500
H  2.48200 43.72300 31.14400
H  1.94600 44.16900 33.46300
H  3.33200 43.18000 33.04100
H  -4.17400 39.70800 26.71900
H  -3.08300 38.87800 27.91100
H  -3.67700 38.05000 26.46100
H  -4.42100 39.05300 24.27000
H  -3.70300 37.44300 24.39700
H  -4.05800 38.11900 22.78200
H  1.78600 41.52300 21.18700
H  4.53300 40.99100 21.70500
H  1.99400 38.76500 21.63000
H  3.55000 39.19900 20.79600
H  1.88600 39.66500 20.31600
H  3.09800 43.10200 20.70800
H  4.82600 42.88900 20.68200
H  3.33600 45.13100 21.81600
H  5.04200 44.90600 21.79900
H  3.84300 44.46900 23.18100
H  8.13000 42.63500 25.74200
H  7.86600 44.03400 26.78200
H  7.12200 44.04500 25.30600
H  4.64000 42.91200 30.97800
H  4.93000 39.64100 33.70300
H  6.44800 39.24300 32.92400
H  4.89600 38.67600 32.25300
Mg -6.10900 24.59200 25.51100
C  -4.35800 25.78400 28.25100
C  -8.00500 22.68400 27.58000
C  -7.63000 23.14400 22.83100
C  -4.08100 26.45400 23.50100
N  -6.22300 24.26100 27.73700
C  -5.40700 24.90000 28.65300
C  -5.78300 24.52900 30.09700
C  -6.87800 23.44300 29.89900
C  -7.14800 23.48300 28.36200
C  -6.63000 22.01500 30.49200
C  -6.28300 25.77200 30.95400
C  -5.80500 25.68100 32.43000
H  -5.66600 24.31900 33.12300
N  -7.61300 23.18900 25.23300
C  -8.26900 22.58400 26.18400
C  -9.34500 21.68500 25.62300
C  -9.20200 21.78100 24.19100
C  -8.10100 22.71200 24.03900
C  -10.42000 21.00200 26.48500
C  -9.94200 21.06700 23.09000
O  -9.69100 21.29200 21.91600
C  -11.14400 20.20000 23.43700
N  -5.85300 24.65100 23.43500
C  -6.68400 24.10200 22.49200
C  -6.31600 24.52600 21.07200
C  -5.30900 25.74900 21.31900
C  -5.02600 25.63700 22.82800
C  -5.76200 23.42600 20.14400
C  -5.89700 27.12400 20.88900
C  -5.22400 27.75300 19.60900
N  -4.53500 25.87600 25.69900
C  -3.78800 26.61600 24.80300
C  -2.80800 27.50700 25.54700
C  -3.01800 27.17200 26.87100
C  -4.02100 26.22300 26.90000
C  -1.67300 28.38000 24.89200
C  -2.51000 27.31000 28.16800
O  -1.48400 27.91100 28.42600
C  -3.31700 26.44900 29.15800
C  -2.36900 25.42100 29.78300
O  -2.07100 24.30500 29.32800
O  -1.71000 25.98900 30.84900
C  -1.07100 25.09400 31.84700
H  -8.55000 21.89800 28.10600
H  -8.11900 22.91400 21.88200
H  -3.59000 27.24900 22.93600
H  -4.83900 24.06600 30.38500
H  -7.68000 23.87800 30.49600
H  -5.65500 21.95100 30.97400
H  -6.57000 21.23700 29.73100
H  -7.39500 21.65500 31.17900
H  -7.37200 25.81700 30.94200
H  -5.97500 26.76100 30.61400
H  -6.55900 26.26600 32.95600
H  -4.80700 26.11900 32.45500
H  -10.29900 19.94400 26.25100
H  -11.44600 21.26600 26.22600
H  -10.28900 21.17100 27.55400
H  -10.68800 19.42600 24.05500
H  -11.55400 19.79900 22.51000
H  -11.81000 20.83900 24.01700
H  -7.22800 24.92600 20.63000
H  -4.39100 25.55800 20.76300
H  -6.39400 22.53900 20.11600
H  -4.79700 23.01000 20.43200
H  -5.58100 23.87900 19.16800
H  -5.58900 27.84500 21.64500
H  -6.96900 27.21300 20.71200
H  -6.01800 27.96600 18.89200
H  -4.44500 27.07100 19.27000
H  -4.69900 28.68200 19.83200
H  -1.11500 29.01300 25.58200
H  -2.14100 29.11300 24.23500
H  -0.98900 27.79100 24.28100
H  -3.72300 27.11500 29.91900
H  -1.84000 24.38600 32.15800
H  -0.84000 25.69000 32.73000
H  -0.21800 24.63700 31.34600

