158

Mg 25.21400 -5.37800 45.99800
C  27.48700 -3.40900 44.21700
C  22.75000 -4.38700 43.86900
C  23.33800 -8.01100 46.87000
C  27.88300 -6.50700 47.90300
N  25.16700 -4.11500 44.22400
C  26.19000 -3.37600 43.70700
C  25.62800 -2.31300 42.72000
C  24.10300 -2.42300 42.92200
C  24.00400 -3.71100 43.72200
C  23.40600 -1.32100 43.69000
C  26.05800 -2.62400 41.22400
C  26.43000 -1.37500 40.34300
H  25.74000 -1.18900 38.95000
N  23.30300 -6.11300 45.42500
C  22.40000 -5.48900 44.64800
C  21.07600 -6.01700 44.72200
C  21.11700 -7.08000 45.65400
C  22.58500 -7.14900 46.01200
C  19.88100 -5.56300 43.90300
C  20.03300 -8.15300 46.00700
O  18.84600 -8.05700 45.57500
C  20.41200 -9.35000 46.86400
N  25.50400 -7.01800 47.13200
C  24.59400 -7.96800 47.33500
C  25.14400 -9.14200 48.17800
C  26.59600 -8.58200 48.56700
C  26.68600 -7.26200 47.85200
C  24.28000 -9.49900 49.40300
C  27.83300 -9.57800 48.24300
C  28.14000 -10.58100 49.39800
N  27.36400 -5.04400 46.17600
C  28.26800 -5.46800 47.09600
C  29.50700 -4.75300 46.92500
C  29.22900 -3.93700 45.75700
C  27.96400 -4.19200 45.31000
C  30.76100 -4.93000 47.68700
C  29.84600 -2.97200 44.84000
O  30.97700 -2.49500 44.82100
C  28.63700 -2.51600 43.85100
C  28.26700 -1.08000 44.09100
O  27.88000 -0.58300 45.17400
O  28.34300 -0.28800 42.97000
C  28.14300 1.17200 43.11400
H  21.83500 -3.91500 43.50800
H  22.90300 -8.90900 47.31300
H  28.75500 -6.85500 48.46100
H  26.03600 -1.33000 42.95300
H  23.57600 -2.39300 41.96800
H  24.16000 -0.60100 44.00800
H  22.90900 -1.63000 44.61000
H  22.68900 -0.81200 43.04600
H  25.25300 -3.25800 40.85200
H  26.93200 -3.26700 41.32400
H  27.45900 -1.63200 40.09100
H  26.52200 -0.46400 40.93500
H  20.10800 -5.13500 42.92600
H  19.37600 -4.79000 44.48200
H  19.19300 -6.38000 43.68400
H  19.56800 -10.02700 46.99600
H  20.73600 -8.85100 47.77800
H  21.24500 -9.91400 46.44500
H  25.21700 -10.01000 47.52300
H  26.54300 -8.46300 49.64900
H  23.93000 -10.52200 49.27100
H  23.43900 -8.81800 49.53700
H  24.79000 -9.53800 50.36600
H  28.68700 -8.93900 48.01700
H  27.57300 -10.18800 47.37900
H  29.10900 -10.35500 49.84200
H  28.34200 -11.59600 49.05500
H  27.42700 -10.65500 50.21900
H  30.80800 -5.93900 48.09800
H  30.76700 -4.22300 48.51700
H  31.60000 -4.75200 47.01500
H  28.98500 -2.56700 42.81900
H  28.84300 1.58000 43.84200
H  27.11600 1.40700 43.39300
H  28.43600 1.62500 42.16600
Mg 49.41100 36.19600 27.46800
C  47.78800 34.18300 29.75700
C  49.58900 38.66000 29.83800
C  50.96500 38.01600 25.16500
C  48.78400 33.66400 25.09000
N  48.77000 36.34500 29.60500
C  48.15800 35.38600 30.36000
C  48.16300 35.83300 31.83300
C  48.15200 37.36600 31.61700
C  48.90200 37.48600 30.26700
C  46.78700 37.98000 31.63500
C  49.48600 35.39800 32.63800
C  49.35400 35.21200 34.14800
H  48.45300 36.15200 35.06200
N  50.20100 38.05200 27.53400
C  50.11700 38.99400 28.51800
C  50.69500 40.21200 28.07600
C  51.14200 40.06000 26.76000
C  50.81800 38.65900 26.44900
C  50.73600 41.48300 29.03800
C  51.82800 40.98400 25.78200
O  52.13800 40.64800 24.63300
C  52.10000 42.38500 26.21600
N  49.79900 35.81100 25.42800
C  50.43100 36.76200 24.75400
C  50.78900 36.33300 23.32000
C  50.31400 34.80100 23.37800
C  49.58900 34.74400 24.63300
C  50.19900 37.18200 22.17000
C  51.46500 33.76600 23.39800
C  51.20900 32.51400 22.64800
N  48.48500 34.29300 27.38200
C  48.35300 33.31600 26.36900
C  47.82500 32.10300 26.94600
C  47.56800 32.39900 28.29800
C  47.92400 33.75600 28.49200
C  47.39400 30.87400 26.15600
C  47.06400 31.83100 29.55400
O  46.60500 30.70700 29.79300
C  46.98800 33.09400 30.48000
C  47.31800 32.75800 31.88100
O  48.29400 32.12000 32.27000
O  46.36600 33.21900 32.67900
C  46.32200 32.89800 34.15000
H  49.46300 39.51900 30.50000
H  51.37800 38.58000 24.32600
H  48.61000 32.87200 24.35900
H  47.26700 35.51900 32.36900
H  48.72700 37.76700 32.45200
H  46.01300 37.30200 31.99600
H  46.52600 38.20400 30.60100
H  46.87000 38.92400 32.17300
H  50.30700 36.06800 32.38400
H  49.78100 34.51700 32.06700
H  50.34100 35.31700 34.59900
H  49.13000 34.14600 34.19400
H  51.51400 42.20700 28.79600
H  50.95400 41.15100 30.05300
H  49.73300 41.90100 29.11500
H  52.35600 43.13700 25.46900
H  52.84800 42.44300 27.00700
H  51.28800 42.99800 26.60700
H  51.86500 36.44500 23.18800
H  49.54000 34.63100 22.63000
H  49.77400 38.03600 22.69700
H  49.39200 36.66300 21.65400
H  50.92100 37.44500 21.39700
H  51.62100 33.46900 24.43500
H  52.39300 34.12400 22.95300
H  52.01000 32.31300 21.93600
H  50.44100 32.59500 21.87800
H  50.90500 31.65200 23.24200
H  48.26000 30.21500 26.08900
H  47.07400 31.18400 25.16100
H  46.57600 30.39600 26.69500
H  45.95200 33.42800 30.41800
H  45.67700 32.05100 34.38500
H  45.79500 33.75900 34.56000
H  47.28400 32.82000 34.65600

