158

Mg 42.60800 3.67700 48.25800
C  40.92100 6.66500 47.96900
C  39.79900 1.96200 47.67900
C  44.41100 0.78700 47.99700
C  45.63800 5.54100 48.19000
N  40.67800 4.28500 47.84500
C  40.12400 5.54000 47.80900
C  38.63500 5.62900 47.57100
C  38.27600 4.08300 47.70000
C  39.64900 3.33700 47.75200
C  37.43800 3.68400 48.92400
C  38.16300 6.17500 46.15700
C  39.04300 5.77600 44.95100
H  39.38500 6.82800 43.86100
N  42.13900 1.58700 48.10100
C  40.91900 1.11900 47.79900
C  40.84100 -0.32200 47.70100
C  42.18300 -0.70400 47.81700
C  42.97300 0.54400 47.98900
C  39.61200 -1.16600 47.43000
C  42.68900 -2.13200 47.66600
O  41.86500 -3.02800 47.47600
C  44.17700 -2.53100 47.53400
N  44.72600 3.23700 48.04400
C  45.19500 1.98200 48.06800
C  46.70300 1.91700 48.20300
C  47.10200 3.43400 48.02200
C  45.75900 4.13500 48.00200
C  47.26700 1.31800 49.56600
C  47.83000 3.73100 46.71200
C  48.91400 4.84000 46.72400
N  43.23600 5.68300 48.00900
C  44.44200 6.30400 48.19700
C  44.29700 7.75600 48.25600
C  42.90900 7.93600 48.14200
C  42.33000 6.67500 48.07300
C  45.34300 8.68100 48.20500
C  41.93500 8.94400 48.03000
O  41.99000 10.15900 47.97900
C  40.55300 8.11100 47.99400
C  39.66000 8.47500 49.10900
O  39.58600 7.87400 50.21200
O  38.85500 9.51700 48.75100
C  37.67100 9.77200 49.68500
H  38.87100 1.45100 47.41500
H  45.06100 -0.09000 47.96700
H  46.61300 6.00400 48.35700
H  38.29700 6.27600 48.38000
H  37.71700 3.78500 46.81300
H  36.99600 4.56500 49.39100
H  37.98800 3.01300 49.58400
H  36.54100 3.23800 48.49400
H  37.96000 7.24600 46.15300
H  37.30500 5.62700 45.76800
H  38.73200 4.83200 44.50500
H  40.06600 5.62600 45.29500
H  39.74500 -1.96800 46.70400
H  38.77100 -0.55200 47.10900
H  39.31000 -1.69200 48.33600
H  44.67200 -1.99300 46.72500
H  44.05800 -3.57300 47.23600
H  44.77800 -2.53300 48.44300
H  47.09900 1.36300 47.35200
H  47.67100 3.80200 48.87500
H  47.64500 0.31300 49.37900
H  46.51500 1.36700 50.35300
H  48.14700 1.88500 49.86900
H  47.04700 4.09900 46.05000
H  48.23300 2.87100 46.17700
H  48.71800 5.42200 45.82300
H  49.91500 4.43900 46.56800
H  48.77900 5.57500 47.51700
H  45.76000 8.76500 47.20100
H  46.16400 8.30000 48.81300
H  45.08200 9.64500 48.63900
H  40.02200 8.43300 47.09800
H  36.85200 9.09200 49.44800
H  37.35900 10.79600 49.47900
H  37.96900 9.60300 50.71900
Mg 42.09600 40.76200 25.77300
C  41.19400 43.13700 28.22400
C  43.03000 38.62200 28.21600
C  43.21400 38.75500 23.36800
C  41.29000 43.14200 23.31300
N  42.11700 40.90900 27.98800
C  41.56600 41.90700 28.83100
C  41.64300 41.50100 30.35600
C  42.41400 40.08600 30.26900
C  42.53100 39.86100 28.72600
C  43.78500 39.98000 30.97900
C  40.20900 41.47200 31.01400
C  40.16700 40.78500 32.32900
H  39.74300 41.60700 33.53100
N  42.90000 38.86300 25.80800
C  43.14500 38.12400 26.93200
C  43.67000 36.82000 26.53600
C  43.77900 36.84800 25.16700
C  43.35600 38.23500 24.71300
C  44.08600 35.72500 27.57100
C  44.19700 35.72400 24.14500
O  44.27600 35.91000 22.92400
C  44.50200 34.27400 24.60400
N  42.33900 41.03700 23.59800
C  42.69000 39.92700 22.82100
C  42.45700 40.20500 21.38700
C  41.60200 41.45300 21.46500
C  41.59300 41.87100 22.91100
C  43.74200 40.21000 20.54400
C  40.13600 41.39800 20.94600
C  39.00400 40.63000 21.70300
N  41.56800 42.75300 25.75200
C  41.28200 43.55500 24.65900
C  41.06100 44.92200 25.13000
C  40.94700 44.75200 26.52700
C  41.21100 43.37800 26.87200
C  40.66000 46.15600 24.31800
C  40.71000 45.56200 27.74600
O  40.55500 46.73500 27.93400
C  40.73800 44.48000 28.87900
C  41.71200 44.90200 29.85800
O  42.87700 45.07100 29.60100
O  41.01600 45.30500 31.02800
C  41.93800 45.81100 32.06300
H  43.24000 37.89200 29.00000
H  43.46700 38.19300 22.46700
H  40.86700 43.80700 22.55700
H  42.30200 42.27400 30.75100
H  41.78600 39.32300 30.72800
H  44.60100 39.52200 30.42000
H  43.62700 39.42300 31.90200
H  44.09500 40.94900 31.37000
H  39.49400 41.08600 30.28800
H  39.90000 42.49600 31.22600
H  41.13900 40.33000 32.52300
H  39.41600 39.99500 32.35000
H  43.49800 34.82900 27.37600
H  43.94300 36.01500 28.61200
H  45.15900 35.54900 27.49500
H  43.64000 33.93400 25.17900
H  45.35800 34.14600 25.26600
H  44.76000 33.75100 23.68400
H  41.88400 39.35200 21.02300
H  42.03500 42.23900 20.84700
H  43.81400 41.16700 20.02700
H  43.60000 39.49600 19.73200
H  44.63700 39.90300 21.08500
H  40.20900 40.97000 19.94600
H  39.82500 42.41900 20.72500
H  38.46200 39.93600 21.06000
H  38.36900 41.27900 22.30700
H  39.52400 40.02300 22.44400
H  39.65000 46.00200 23.93900
H  41.44500 46.36300 23.59000
H  40.68100 46.93700 25.07800
H  39.72500 44.36200 29.26600
H  42.42300 45.15800 32.78900
H  41.16800 46.32700 32.63600
H  42.59300 46.59800 31.69000

