158

Mg 25.06500 2.04800 29.83400
C  27.56100 2.11400 32.51100
C  22.73700 2.32900 32.01700
C  22.98400 1.97100 27.18800
C  27.82800 1.32900 27.60600
N  25.21200 2.33300 31.96700
C  26.21500 2.45100 32.88800
C  25.67300 2.48200 34.32000
C  24.16200 2.47300 34.04000
C  24.01100 2.35600 32.58200
C  23.39200 1.52400 34.97400
C  26.20800 3.72800 35.16600
C  26.91600 3.39900 36.48100
H  26.88200 4.39500 37.62900
N  23.08500 2.16800 29.62400
C  22.22900 2.29400 30.64600
C  20.85000 2.20300 30.16800
C  20.90500 1.95600 28.77500
C  22.38400 2.04700 28.46300
C  19.68600 2.15200 31.12100
C  19.80600 1.66600 27.73900
O  20.04400 1.51600 26.57400
C  18.44800 1.58200 28.06200
N  25.32500 1.66100 27.71100
C  24.32300 1.72900 26.79500
C  24.77500 1.54900 25.35200
C  26.31600 1.54500 25.56500
C  26.54400 1.48100 27.04800
C  24.10300 0.30300 24.61100
C  27.19300 2.57100 24.72200
C  27.82600 3.77600 25.47000
N  27.25100 1.78700 29.99800
C  28.11600 1.47700 29.00400
C  29.46600 1.39000 29.63300
C  29.25300 1.57000 30.99500
C  27.93100 1.94000 31.13600
C  30.77600 1.04800 28.96000
C  29.86900 1.53200 32.32400
O  31.05200 1.24300 32.69400
C  28.78100 1.95800 33.35400
C  28.68500 0.89900 34.41300
O  27.94100 -0.04100 34.41400
O  29.33800 1.38000 35.58000
C  29.04500 0.69600 36.80900
H  21.99000 2.47300 32.80100
H  22.30600 1.84000 26.34200
H  28.51200 1.01400 26.81600
H  25.91400 1.52800 34.78900
H  23.91000 3.48200 34.36700
H  22.60700 2.10800 35.45400
H  24.06800 1.05200 35.68700
H  22.93300 0.78100 34.32100
H  25.41900 4.44000 35.40800
H  26.94300 4.20700 34.51900
H  27.96900 3.30700 36.21400
H  26.50800 2.43100 36.77000
H  19.12300 1.22100 31.05000
H  18.93000 2.86100 30.78400
H  19.95900 2.27800 32.16900
H  18.44200 0.61600 28.56800
H  17.82100 1.55600 27.17000
H  18.00000 2.36500 28.67300
H  24.40800 2.49300 24.94900
H  26.69600 0.59500 25.19200
H  23.29700 -0.01300 25.27300
H  24.86300 -0.46800 24.48400
H  23.77500 0.76700 23.68100
H  26.55600 3.03400 23.96900
H  28.00100 2.12200 24.14500
H  28.88900 3.53800 25.51100
H  27.47000 3.88100 26.49500
H  27.74800 4.72600 24.94000
H  30.63500 1.14600 27.88400
H  31.07800 0.05000 29.27800
H  31.50800 1.82300 29.18900
H  29.09500 2.90600 33.79100
H  29.95000 0.35400 37.31200
H  28.34400 -0.13800 36.84200
H  28.55500 1.38500 37.49800
Mg 47.59800 25.44300 28.80600
C  49.11400 27.42100 31.35000
C  46.99900 23.06200 31.05800
C  46.84600 23.38900 26.21200
C  49.13100 27.69000 26.48500
N  47.95500 25.32900 30.98200
C  48.46700 26.27100 31.84800
C  48.19700 25.86900 33.29600
C  47.91500 24.36700 33.13900
C  47.70800 24.18700 31.62300
C  48.93800 23.42800 33.70500
C  47.10700 26.68900 34.08000
C  47.43900 27.14500 35.50700
H  46.29100 27.21400 36.53900
N  46.82600 23.51400 28.64300
C  46.58700 22.71300 29.70100
C  45.98900 21.46700 29.21500
C  45.78000 21.62500 27.81300
C  46.44700 22.86600 27.49600
C  45.69600 20.28000 30.13900
C  45.07600 20.77200 26.76200
O  45.03000 20.90400 25.55300
C  44.34700 19.59100 27.29100
N  47.91000 25.61100 26.69200
C  47.46700 24.57800 25.88200
C  47.76900 24.98400 24.41900
C  48.42300 26.38800 24.39600
C  48.47600 26.60600 25.93900
C  48.73000 23.93100 23.86300
C  47.46100 27.48100 23.77100
C  48.23800 28.60400 22.98100
N  48.74100 27.27200 28.95700
C  49.16200 28.07400 27.88100
C  49.89600 29.19100 28.46200
C  49.81700 29.03100 29.85000
C  49.17700 27.83800 30.05700
C  50.59200 30.18900 27.60500
C  50.40000 29.53000 31.16700
O  51.03800 30.51900 31.50500
C  49.73300 28.53100 32.21300
C  50.83400 28.14000 33.13000
O  51.69200 27.33200 32.88200
O  50.73000 28.69400 34.39400
C  51.68500 28.24400 35.40000
H  46.86500 22.28500 31.81300
H  46.71200 22.71900 25.36000
H  49.64100 28.30200 25.73800
H  49.16500 26.00700 33.77600
H  46.94100 24.17800 33.59000
H  49.18900 23.54300 34.76000
H  49.83500 23.36100 33.09000
H  48.45200 22.45200 33.67600
H  46.15400 26.17300 34.19900
H  46.87900 27.58600 33.50400
H  47.60000 28.21500 35.36800
H  48.32100 26.69300 35.96000
H  46.14000 19.41400 29.64900
H  44.66200 19.97900 30.30800
H  46.15500 20.53700 31.09400
H  43.53500 20.02500 27.87300
H  45.09300 18.95400 27.76700
H  43.84800 19.20500 26.40200
H  46.87600 24.98700 23.79500
H  49.46400 26.46200 24.08000
H  48.12700 23.23600 23.28000
H  49.23900 23.50600 24.72800
H  49.44600 24.36500 23.16600
H  46.85300 27.98800 24.51900
H  46.71600 27.08400 23.08200
H  47.83900 28.54500 21.96800
H  49.25700 28.22300 23.05300
H  48.09700 29.63500 23.30700
H  50.34500 30.12400 26.54500
H  51.61500 29.82600 27.51300
H  50.57200 31.20800 27.99100
H  49.12200 29.04800 32.95300
H  52.60300 28.83100 35.36600
H  51.83200 27.16700 35.32000
H  51.36400 28.45100 36.42100

