158

Mg 47.53400 35.44100 26.61800
C  46.04300 33.75800 29.17900
C  48.09000 38.12700 28.60400
C  49.15000 37.00600 24.06900
C  46.74400 32.76900 24.54100
N  47.07600 35.90500 28.67800
C  46.53500 35.01900 29.57400
C  46.66000 35.60500 31.02300
C  47.14800 37.11900 30.77900
C  47.49600 37.03300 29.25700
C  46.12500 38.25000 31.10700
C  47.72200 34.77900 31.76200
C  47.58400 34.84100 33.28800
H  46.73100 35.92500 33.98000
N  48.55400 37.30200 26.37400
C  48.67500 38.29700 27.31800
C  49.28800 39.45200 26.80800
C  49.65800 39.16900 25.42300
C  49.14000 37.77400 25.22400
C  49.47400 40.76700 27.52800
C  50.35200 40.07400 24.44300
O  50.63800 39.64800 23.32600
C  50.56400 41.59300 24.63900
N  47.71100 34.98600 24.54300
C  48.58400 35.70600 23.78800
C  48.78000 35.09400 22.41100
C  48.12200 33.71700 22.62300
C  47.42800 33.77800 23.94100
C  48.11200 35.95700 21.29300
C  49.13600 32.48500 22.45700
C  49.10700 31.68600 21.13000
N  46.41000 33.70600 26.76200
C  46.17000 32.75000 25.82500
C  45.59700 31.58400 26.45500
C  45.39800 31.89300 27.78000
C  46.01700 33.21000 27.93300
C  45.30900 30.24900 25.81500
C  44.94900 31.47100 29.10600
O  44.25000 30.53600 29.45200
C  45.20000 32.76400 30.02000
C  45.58400 32.28200 31.30800
O  46.48000 31.41500 31.48500
O  44.78000 32.80000 32.29800
C  44.75400 32.13400 33.55100
H  48.12000 39.01000 29.24600
H  49.72600 37.35900 23.21100
H  46.56000 31.94200 23.85200
H  45.69800 35.47100 31.51700
H  48.06100 37.33000 31.33600
H  45.76900 38.86300 30.27900
H  46.65900 38.99700 31.69400
H  45.36100 37.83400 31.76400
H  48.70400 35.15000 31.46900
H  47.81300 33.78800 31.31800
H  48.59500 34.85600 33.69500
H  47.30000 33.84500 33.62900
H  49.24600 41.65900 26.94400
H  50.50800 40.76200 27.87400
H  48.89800 40.85300 28.45000
H  50.77700 42.10900 23.70300
H  51.27500 41.92800 25.39500
H  49.61100 41.98700 24.99000
H  49.81700 34.94600 22.10900
H  47.25000 33.51400 22.00100
H  47.26400 35.43800 20.84500
H  48.80700 36.24900 20.50600
H  47.57100 36.78900 21.74200
H  48.94700 31.68300 23.17100
H  50.15600 32.84200 22.59700
H  48.13300 31.79600 20.65300
H  49.23700 30.62500 21.34600
H  49.93400 31.94800 20.46900
H  44.69400 30.38300 24.92500
H  44.93700 29.63000 26.63100
H  46.23300 29.80300 25.44600
H  44.20600 33.19200 30.14500
H  44.84500 32.76000 34.43900
H  45.47600 31.33300 33.71200
H  43.76600 31.67600 33.60100
Mg -10.91800 40.41500 39.62900
C  -9.56000 37.31400 38.60500
C  -7.85500 41.84600 38.77600
C  -12.27400 43.39900 40.06000
C  -14.06000 38.87200 39.66900
N  -8.99000 39.69500 38.73300
C  -8.64100 38.38500 38.50600
C  -7.20200 38.25700 38.01000
C  -6.59500 39.64900 38.28700
C  -7.86000 40.42600 38.66500
C  -5.57700 39.80100 39.43600
C  -7.21000 37.91600 36.49900
C  -6.15800 37.04100 35.87900
H  -6.65900 36.20800 34.67500
N  -10.20300 42.37300 39.32400
C  -8.87000 42.79500 39.06800
C  -8.79200 44.20500 39.19800
C  -10.05700 44.69800 39.48100
C  -10.94000 43.47700 39.64800
C  -7.54300 45.09100 38.98300
C  -10.47000 46.16800 39.52100
O  -9.55900 46.99800 39.43000
C  -11.92200 46.60300 39.55600
N  -12.92000 40.97600 39.75900
C  -13.16800 42.33000 39.96000
C  -14.65200 42.56600 40.26100
C  -15.26700 41.16900 40.11200
C  -14.00900 40.25400 39.80600
C  -15.01500 43.09900 41.69800
C  -16.34500 41.13600 38.86300
C  -17.68700 41.76100 39.32200
N  -11.72400 38.41400 39.39400
C  -12.98400 37.97400 39.41800
C  -13.00000 36.54500 39.24500
C  -11.66300 36.23100 38.93700
C  -10.92900 37.45700 39.00900
C  -14.18600 35.60100 39.36500
C  -10.73900 35.17100 38.52100
O  -10.89300 33.98700 38.32900
C  -9.32200 35.82100 38.25500
C  -8.39500 35.12500 39.14400
O  -8.66000 34.76100 40.27200
O  -7.33800 34.69900 38.36600
C  -6.41400 33.78800 39.06800
H  -6.85300 42.26100 38.64800
H  -12.63300 44.34800 40.46400
H  -15.09300 38.58400 39.87300
H  -6.62700 37.49300 38.53400
H  -6.06800 40.10600 37.45000
H  -5.12100 40.77600 39.26600
H  -4.73200 39.11700 39.35500
H  -5.98700 39.81400 40.44600
H  -7.10700 38.83900 35.92900
H  -8.17900 37.52600 36.18700
H  -5.69100 36.40000 36.62600
H  -5.42200 37.69700 35.41500
H  -7.53600 45.47800 37.96400
H  -6.65700 44.45800 38.92800
H  -7.35000 45.81800 39.77200
H  -11.95300 47.45600 38.87800
H  -12.36500 46.77300 40.53700
H  -12.50500 45.87600 38.99000
H  -15.13100 43.27600 39.58600
H  -15.82000 40.84200 40.99300
H  -14.13000 43.50000 42.19300
H  -15.52700 42.53100 42.47400
H  -15.64100 43.95200 41.43700
H  -16.56800 40.22300 38.31000
H  -15.87500 41.80200 38.14000
H  -17.44100 42.65400 39.89700
H  -18.10300 40.98200 39.96100
H  -18.34600 42.03300 38.49800
H  -14.28500 35.01900 38.44900
H  -15.11700 36.16500 39.42600
H  -14.12200 34.84800 40.14900
H  -9.01100 35.66700 37.22200
H  -5.37100 34.03700 38.87300
H  -6.72400 32.74500 39.00100
H  -6.45200 33.92000 40.15000

