158

Mg 8.23900 2.52100 28.43300
C  9.96700 1.32700 31.38800
C  6.16500 4.16500 30.54000
C  6.77000 3.63700 25.78000
C  9.91000 -0.00000 26.68600
N  8.05300 2.62900 30.66200
C  8.93100 2.19200 31.57700
C  8.63600 2.77700 32.92800
C  7.22200 3.37400 32.76300
C  7.07600 3.39300 31.19700
C  6.13200 2.55400 33.46000
C  9.72400 3.82300 33.33400
C  9.63900 4.49700 34.64500
H  10.53200 3.94100 35.77800
N  6.63900 3.79600 28.18200
C  5.90700 4.43800 29.18800
C  5.02300 5.42600 28.62100
C  5.21100 5.26500 27.22000
C  6.17900 4.22200 26.94800
C  4.11600 6.26200 29.38200
C  4.43500 6.08100 26.09800
O  4.62200 5.88300 24.90500
C  3.42200 7.08000 26.44100
N  8.28000 1.89300 26.48100
C  7.62400 2.56800 25.51300
C  7.87800 1.99400 24.12400
C  8.81000 0.72200 24.51400
C  9.11000 0.94400 25.94600
C  6.53500 1.69500 23.26100
C  9.99600 0.53100 23.41700
C  10.94900 1.70500 23.41300
N  9.63000 1.00200 28.88500
C  10.29200 0.10000 28.05200
C  11.34900 -0.65100 28.71500
C  11.25000 -0.16400 30.00000
C  10.14500 0.77100 30.09800
C  12.33800 -1.61400 28.00900
C  11.77600 -0.33800 31.37800
O  12.64000 -1.11400 31.80300
C  11.03600 0.67900 32.29600
C  10.32000 -0.04600 33.38600
O  9.31100 -0.67800 33.28200
O  11.02500 0.07100 34.53200
C  10.51300 -0.37700 35.80000
H  5.54100 4.71700 31.24600
H  6.35800 4.00600 24.83900
H  10.38000 -0.70400 25.99500
H  8.70100 1.91000 33.58500
H  7.19800 4.37700 33.19100
H  5.99400 1.54300 33.07800
H  5.17500 3.06700 33.36100
H  6.30100 2.42700 34.52900
H  9.64600 4.56600 32.54000
H  10.73900 3.42800 33.34800
H  8.63700 4.31000 35.03200
H  9.85600 5.56300 34.57500
H  4.32700 6.09800 30.43900
H  3.06800 5.96800 29.33300
H  4.22900 7.33700 29.23800
H  2.95600 7.36600 25.49800
H  4.03900 7.84200 26.91500
H  2.68800 6.68900 27.14600
H  8.44400 2.73000 23.55200
H  8.28000 -0.23100 24.52200
H  5.64800 1.84700 23.87500
H  6.43400 0.64600 22.98400
H  6.51200 2.27100 22.33500
H  9.51900 0.63500 22.44200
H  10.52900 -0.42000 23.40300
H  11.96300 1.33300 23.55900
H  10.60300 2.47100 24.10600
H  10.91500 2.36400 22.54500
H  13.22200 -1.72900 28.63700
H  12.62900 -1.40500 26.98000
H  11.88700 -2.60700 28.02500
H  11.81500 1.31600 32.71400
H  9.84000 0.35600 36.24400
H  11.39700 -0.48500 36.42800
H  9.91600 -1.27800 35.65900
Mg 36.33200 49.40800 25.54800
C  36.18800 47.35800 28.35800
C  34.98500 51.95600 27.48300
C  35.81200 51.25300 22.76200
C  36.84400 46.66000 23.60600
N  35.67300 49.59700 27.68900
C  35.88500 48.69500 28.68300
C  35.70800 49.31700 30.06400
C  35.03700 50.68900 29.74100
C  35.18100 50.76200 28.24200
C  33.64600 50.93800 30.27000
C  37.13100 49.41500 30.81900
C  37.17700 49.98200 32.25500
H  35.94200 49.86900 33.05600
N  35.70400 51.41600 25.16600
C  35.28300 52.27600 26.13500
C  34.84500 53.49700 25.52200
C  35.13200 53.39900 24.11800
C  35.58700 52.02000 23.91300
C  34.24400 54.72600 26.28500
C  34.99100 54.31900 22.93900
O  35.04000 53.91100 21.77000
C  34.66300 55.77900 23.07800
N  36.37800 49.03800 23.47700
C  36.09000 49.93300 22.49600
C  36.29800 49.39900 21.15200
C  36.98800 48.07900 21.43700
C  36.67300 47.84300 22.93200
C  34.92100 49.23500 20.32600
C  38.56100 47.97700 21.26000
C  38.95700 47.68400 19.78000
N  36.62400 47.33800 25.90900
C  36.80900 46.37600 24.98200
C  37.13600 45.08500 25.67700
C  36.91400 45.45200 27.06200
C  36.49700 46.81600 27.08100
C  37.54900 43.72300 25.07300
C  36.98600 44.90000 28.41900
O  37.25400 43.77200 28.85000
C  36.58700 46.23000 29.29000
C  35.58500 45.78400 30.29800
O  34.48100 45.28600 29.95700
O  35.99100 45.99500 31.60900
C  35.01500 45.57800 32.63400
H  34.60900 52.80300 28.06100
H  35.70700 51.80600 21.82600
H  37.07000 45.79800 22.97500
H  35.04100 48.59000 30.52500
H  35.61800 51.45100 30.26200
H  33.26100 50.06800 30.80200
H  32.96800 51.06800 29.42600
H  33.58400 51.81500 30.91500
H  37.77200 50.04000 30.19600
H  37.59700 48.43000 30.81000
H  37.57300 50.99400 32.16700
H  37.90700 49.33900 32.74600
H  34.08900 55.64600 25.72200
H  34.90600 54.95600 27.11900
H  33.31100 54.29900 26.65400
H  33.69100 56.00000 23.51800
H  34.73600 56.28000 22.11300
H  35.52300 56.16300 23.62700
H  37.04600 49.99500 20.62900
H  36.60600 47.34900 20.72400
H  34.12500 48.86400 20.97100
H  35.03000 48.48000 19.54700
H  34.68100 50.21600 19.91500
H  39.07100 47.22600 21.86300
H  39.05100 48.89800 21.57600
H  38.18000 47.17100 19.21400
H  39.85900 47.07500 19.73400
H  39.12100 48.63800 19.27800
H  37.16100 43.71700 24.05400
H  37.01300 42.98300 25.66800
H  38.63100 43.59700 25.02600
H  37.47200 46.39900 29.90400
H  34.94500 44.50600 32.81400
H  33.99700 45.94800 32.50900
H  35.38400 45.95700 33.58700

