158

Mg -0.71700 18.08400 27.39000
C  -1.33600 15.80200 30.09500
C  -1.49500 20.57600 29.40500
C  -0.60400 19.96700 24.66900
C  -0.56600 15.14600 25.28500
N  -1.32900 18.19500 29.51400
C  -1.29900 17.16200 30.49700
C  -1.49100 17.70100 31.88700
C  -1.75000 19.21000 31.56700
C  -1.61600 19.31700 30.05700
C  -3.06000 19.79200 32.17400
C  -0.40000 17.41200 33.01300
C  -1.01500 16.90100 34.39500
H  -0.18600 17.25300 35.65600
N  -0.76700 20.04800 27.07200
C  -1.09300 20.95500 28.08300
C  -0.93000 22.30200 27.54300
C  -0.69800 22.14700 26.12300
C  -0.64900 20.70700 25.88500
C  -1.21200 23.57700 28.39700
C  -0.58500 23.17700 25.03800
O  -0.41900 22.94100 23.87800
C  -0.72300 24.62800 25.38000
N  -0.66200 17.61000 25.26600
C  -0.50300 18.63600 24.38400
C  -0.45100 17.97900 22.99000
C  -0.04800 16.57400 23.24400
C  -0.50100 16.43400 24.66000
C  -1.66700 18.29600 22.03100
C  1.57400 16.37600 23.05200
C  2.51000 17.25600 23.92000
N  -0.99200 16.00200 27.52700
C  -0.98400 14.93500 26.60100
C  -1.20800 13.69000 27.15300
C  -1.35100 13.96900 28.47000
C  -1.25700 15.35700 28.72900
C  -1.31600 12.41400 26.35300
C  -1.61700 13.31200 29.75900
O  -1.81300 12.08700 30.03600
C  -1.60300 14.52700 30.83500
C  -0.58500 14.16600 31.90000
O  0.63900 14.18400 31.77700
O  -1.29900 13.62000 32.94400
C  -0.52500 12.91800 34.00100
H  -1.73700 21.44600 30.01900
H  -0.54500 20.67000 23.83600
H  -0.32400 14.30700 24.62800
H  -2.42600 17.29600 32.27300
H  -0.96100 19.79000 32.04600
H  -3.70200 20.16900 31.37800
H  -2.93100 20.71700 32.73600
H  -3.59600 19.04100 32.75300
H  0.19400 18.31600 33.14400
H  0.31500 16.64500 32.71500
H  -1.14300 15.82300 34.49000
H  -1.93100 17.49000 34.44400
H  -1.62000 23.41400 29.39500
H  -1.93900 24.25900 27.95400
H  -0.40400 24.26900 28.63500
H  -0.72800 25.24800 24.48400
H  0.00200 24.99600 26.10700
H  -1.75000 24.66300 25.74500
H  0.34200 18.55600 22.51500
H  -0.67500 15.85500 22.71600
H  -2.02700 17.45100 21.44400
H  -1.12100 18.89200 21.29900
H  -2.47000 18.79100 22.57700
H  1.77800 16.59600 22.00400
H  1.83200 15.32300 23.16800
H  2.97400 16.67900 24.72000
H  2.02700 18.03900 24.50500
H  3.31000 17.65700 23.29700
H  -0.34300 12.01400 26.06800
H  -1.80100 12.60000 25.39500
H  -1.91300 11.65900 26.86500
H  -2.62700 14.53200 31.20900
H  -1.05000 13.25400 34.89600
H  0.53100 13.14900 34.14000
H  -0.68100 11.84200 33.92900
Mg 2.45800 -1.39000 45.13200
C  6.01200 -0.85800 44.79100
C  2.02900 1.63400 43.54200
C  -0.80000 -2.23100 44.60000
C  3.25000 -4.54000 46.16400
N  3.83000 0.08400 44.25300
C  5.19100 0.11500 44.21300
C  5.73500 1.23100 43.41400
C  4.50200 2.24600 43.22700
C  3.36400 1.28500 43.72800
C  4.45100 3.52200 44.07900
C  6.46400 0.74400 42.15000
C  7.88300 1.26500 41.86300
H  8.08500 1.56700 40.40000
N  0.79300 -0.43700 44.26800
C  0.86700 0.81200 43.73400
C  -0.49100 1.25000 43.30400
C  -1.33400 0.15500 43.68500
C  -0.50400 -0.90000 44.23000
C  -0.77600 2.62900 42.54700
C  -2.85800 0.10100 43.53400
O  -3.44000 1.01800 42.92100
C  -3.63300 -0.93000 44.27400
N  1.36700 -3.21300 45.25600
C  0.00900 -3.26200 45.13200
C  -0.51100 -4.66200 45.72600
C  0.78000 -5.51900 46.14300
C  1.89900 -4.40700 45.75700
C  -1.54100 -4.59500 46.83700
C  0.89900 -6.85700 45.28400
C  1.60400 -8.03000 45.99200
N  4.23000 -2.51200 45.57000
C  4.38000 -3.71900 46.09300
C  5.76700 -4.01900 46.44300
C  6.45300 -2.92300 46.01800
C  5.50200 -2.02000 45.45400
C  6.30100 -5.25700 47.04900
C  7.69500 -2.25000 45.88700
O  8.80000 -2.61400 46.32600
C  7.52800 -0.93700 45.01200
C  8.12900 0.28900 45.57100
O  7.96800 0.61900 46.77200
O  8.95800 0.97300 44.71200
C  9.36000 2.31300 45.22400
H  1.99900 2.58900 43.01300
H  -1.80600 -2.63800 44.47600
H  3.45400 -5.46600 46.70500
H  6.53000 1.66700 44.01800
H  4.23000 2.45700 42.19300
H  5.50200 3.72500 44.28500
H  3.84100 3.44400 44.97900
H  4.00500 4.32600 43.49300
H  5.79800 0.81400 41.29000
H  6.64600 -0.33000 42.18700
H  8.57000 0.62500 42.41700
H  8.10600 2.20900 42.36000
H  -1.84300 2.82200 42.65400
H  -0.53200 2.43200 41.50300
H  -0.21300 3.46600 42.96000
H  -4.64800 -0.62100 44.52400
H  -3.01700 -1.02200 45.16900
H  -3.61700 -1.86800 43.72000
H  -1.03300 -5.17600 44.91900
H  0.77600 -5.80300 47.19600
H  -1.76800 -3.56600 47.11500
H  -1.16200 -5.05800 47.74800
H  -2.45600 -5.15000 46.63100
H  1.51000 -6.71600 44.39200
H  -0.05900 -7.25300 44.94800
H  1.44100 -8.03300 47.07000
H  2.67800 -7.96500 45.81800
H  1.14900 -8.96700 45.67000
H  5.97300 -6.18300 46.57700
H  5.96200 -5.35700 48.08000
H  7.38700 -5.16700 47.08800
H  8.03900 -1.15700 44.07500
H  8.57400 2.91100 45.68500
H  9.66400 2.84900 44.32500
H  10.16600 2.22900 45.95400

