158

Mg 25.46800 51.18600 27.06100
C  23.34200 52.23000 29.73500
C  27.79900 50.46500 29.44100
C  27.63600 50.90300 24.58000
C  23.11800 52.41700 24.82100
N  25.66900 51.57800 29.32400
C  24.62900 51.75900 30.18500
C  24.96200 51.44600 31.65900
C  26.53800 51.18600 31.54300
C  26.76100 51.15800 30.03900
C  27.46900 52.13700 32.36700
C  24.06400 50.30800 32.22200
C  23.49700 50.58400 33.64000
H  24.40600 51.27200 34.69800
N  27.32400 50.46700 26.96600
C  28.11300 50.25100 28.04700
C  29.39300 49.69500 27.59400
C  29.38500 49.76200 26.20400
C  28.05900 50.37600 25.84400
C  30.50500 49.20500 28.57700
C  30.60600 49.54500 25.23000
O  30.51700 49.72900 24.03500
C  31.89800 48.88100 25.68800
N  25.39700 51.76600 24.88300
C  26.49700 51.59200 24.14100
C  26.23000 52.13100 22.71000
C  24.63900 52.10300 22.72300
C  24.39200 52.05800 24.26200
C  26.87600 53.41600 22.29400
C  23.85100 51.00300 21.89900
C  22.78400 51.37000 20.94500
N  23.67300 52.25300 27.23400
C  22.80000 52.60900 26.21300
C  21.53400 53.01200 26.79800
C  21.74100 52.88700 28.17200
C  23.03000 52.40300 28.38900
C  20.37700 53.30600 26.01100
C  20.98200 52.89800 29.41500
O  19.85900 53.16500 29.57500
C  22.06300 52.54800 30.51500
C  22.25700 53.67800 31.42400
O  23.06200 54.61400 31.23000
O  21.50900 53.60200 32.57600
C  21.93900 54.64600 33.59700
H  28.47800 50.11500 30.22100
H  28.33400 50.64100 23.78300
H  22.36000 52.74100 24.10400
H  24.78700 52.30100 32.31100
H  26.73700 50.14700 31.80200
H  28.26600 52.51300 31.72600
H  27.96700 51.67200 33.21700
H  26.91100 53.05000 32.57600
H  24.63500 49.38300 32.13900
H  23.23300 50.02800 31.57500
H  23.18900 49.60100 33.99500
H  22.70600 51.33100 33.57100
H  30.97000 48.25600 28.30900
H  30.38800 49.32000 29.65500
H  31.26200 49.94900 28.33200
H  31.66000 47.92100 26.14500
H  32.33600 49.54600 26.43200
H  32.59700 48.71200 24.86900
H  26.54200 51.32100 22.05100
H  24.38800 53.11500 22.40600
H  27.47300 53.18900 21.41100
H  27.44800 53.72700 23.16800
H  26.19300 54.10400 21.79600
H  23.38900 50.31500 22.60700
H  24.50900 50.36500 21.30800
H  23.08200 50.95900 19.98000
H  22.82100 52.45100 20.80400
H  21.73900 51.18600 21.19100
H  19.58000 52.57400 26.14000
H  20.64100 53.20000 24.95900
H  20.10200 54.34400 26.19800
H  21.60500 51.68000 30.99000
H  21.93000 55.68300 33.26300
H  22.93000 54.38800 33.97200
H  21.29300 54.51300 34.46500
Mg 8.47800 48.04700 25.30900
C  6.47900 48.24400 28.01400
C  11.20600 48.83900 27.37600
C  10.58200 47.84900 22.58400
C  5.81800 47.70200 23.19300
N  8.83800 48.36400 27.52400
C  7.81200 48.35100 28.43300
C  8.38000 48.72600 29.81700
C  9.71900 49.41900 29.42900
C  10.00100 48.85900 28.06300
C  9.68500 50.98300 29.38700
C  8.61700 47.40500 30.66000
C  8.51000 47.54500 32.15300
H  7.80700 46.50600 33.00600
N  10.50700 48.32200 25.01500
C  11.48700 48.50000 25.99300
C  12.79800 48.46200 25.42300
C  12.67000 48.04400 24.11300
C  11.23100 48.06000 23.85400
C  14.04700 48.97500 26.13900
C  13.71500 47.72900 23.07100
O  13.50600 47.43700 21.90800
C  15.16900 47.77800 23.39500
N  8.23400 47.94200 23.09200
C  9.21900 47.76500 22.21900
C  8.72500 47.46600 20.82900
C  7.21100 47.25800 21.02600
C  7.08200 47.56800 22.52700
C  9.02800 48.60200 19.83700
C  6.59800 45.84300 20.69300
C  5.41600 45.76200 19.69900
N  6.59700 47.93000 25.52400
C  5.55600 47.90500 24.59100
C  4.29300 47.92800 25.19600
C  4.65000 47.94500 26.60100
C  6.04100 48.07800 26.69100
C  2.95000 47.89100 24.61700
C  4.06100 48.03600 27.88900
O  2.82200 48.03900 28.10700
C  5.19600 48.24300 28.92200
C  5.05300 47.10200 29.87200
O  5.65600 46.08000 29.76400
O  4.22600 47.40000 30.94000
C  4.00200 46.38800 32.02300
H  11.98000 49.11300 28.09500
H  11.27600 47.72300 21.75000
H  4.91600 47.57900 22.59000
H  7.62400 49.39400 30.22900
H  10.56900 49.03100 29.99100
H  8.70600 51.41300 29.60200
H  9.87600 51.21700 28.34000
H  10.52500 51.45900 29.89300
H  9.60600 47.01600 30.41700
H  7.83800 46.71400 30.33900
H  8.13600 48.51300 32.48600
H  9.52800 47.50400 32.54000
H  13.96100 49.13000 27.21400
H  14.44800 49.93300 25.80800
H  14.83200 48.22500 26.04800
H  15.52100 46.90700 23.94700
H  15.38800 48.70700 23.92200
H  15.68100 47.81800 22.43400
H  9.22700 46.51300 20.66000
H  6.54700 47.96100 20.52300
H  8.83800 49.59200 20.25000
H  8.34700 48.54200 18.98800
H  10.04700 48.51900 19.45600
H  6.35000 45.25700 21.57800
H  7.40800 45.32800 20.17700
H  5.50100 44.82700 19.14600
H  5.37700 46.60700 19.01200
H  4.49800 45.87900 20.27500
H  2.73200 48.95100 24.48500
H  2.22000 47.38700 25.25100
H  3.01300 47.35400 23.67100
H  4.94100 49.20200 29.37500
H  2.94800 46.24600 32.26200
H  4.57100 46.75400 32.87900
H  4.35400 45.45100 31.59100

