158

Mg -1.44400 17.69900 27.24500
C  -2.18700 15.55200 29.88400
C  -2.37400 20.35900 29.35900
C  -1.81300 19.80200 24.52300
C  -1.45200 14.94600 25.13200
N  -2.21400 17.93700 29.48400
C  -2.33300 16.88300 30.32900
C  -2.47700 17.45000 31.77400
C  -2.72600 18.99500 31.53700
C  -2.49400 19.14100 29.98500
C  -4.04100 19.60800 32.07700
C  -1.28600 17.02700 32.65100
C  -0.69000 17.98800 33.74300
H  -0.28200 17.39000 35.09100
N  -2.00800 19.73400 26.99200
C  -2.20600 20.64900 27.99000
C  -2.44100 21.96100 27.42000
C  -2.15300 21.88500 26.04000
C  -2.05700 20.41100 25.77200
C  -2.95000 23.19300 28.21200
C  -2.05200 22.96400 24.95600
O  -2.05600 22.71200 23.75500
C  -2.16100 24.43700 25.31600
N  -1.65200 17.41300 25.09500
C  -1.61000 18.45900 24.21200
C  -1.40900 17.96400 22.72100
C  -1.14600 16.42300 22.94300
C  -1.47400 16.25700 24.49900
C  -2.62300 18.36500 21.79500
C  0.26300 15.93100 22.45000
C  1.35900 16.51500 23.40300
N  -1.67800 15.58300 27.39800
C  -1.70100 14.67600 26.45700
C  -1.80800 13.38200 27.02900
C  -2.05300 13.61800 28.40900
C  -1.97100 14.98600 28.60800
C  -1.89400 12.04400 26.36500
C  -2.25300 13.08100 29.73200
O  -2.42300 11.95700 30.14500
C  -2.35700 14.26900 30.68400
C  -1.29300 14.01800 31.72700
O  -0.15000 14.25300 31.60100
O  -1.85600 13.42300 32.83800
C  -0.87600 12.94200 33.78800
H  -2.51600 21.29400 29.90500
H  -1.58700 20.51200 23.72400
H  -1.36300 14.10100 24.44500
H  -3.39000 16.98800 32.14900
H  -1.90600 19.58600 31.94300
H  -4.83200 19.74200 31.33900
H  -3.88400 20.61700 32.45700
H  -4.46900 19.09800 32.94000
H  -0.38100 16.88900 32.06000
H  -1.58000 16.07400 33.09100
H  -1.39000 18.78900 33.98000
H  0.13000 18.46300 33.20500
H  -2.19600 23.96500 28.36100
H  -3.29200 22.93000 29.21300
H  -3.82400 23.49700 27.63500
H  -1.27900 24.64100 25.92300
H  -3.11200 24.68700 25.78600
H  -2.01800 25.05600 24.43000
H  -0.47900 18.37200 22.32500
H  -1.83400 15.73000 22.45900
H  -3.51800 18.33100 22.41500
H  -2.69300 17.61700 21.00500
H  -2.38900 19.35900 21.41500
H  0.44300 16.38500 21.47600
H  0.13800 14.84900 22.47600
H  1.02600 17.16200 24.21500
H  2.07200 17.10300 22.82500
H  1.96200 15.73500 23.86800
H  -1.14500 12.15300 25.58000
H  -2.88500 11.91500 25.92900
H  -1.66100 11.26300 27.08800
H  -3.25700 14.32500 31.29600
H  -0.17700 13.71500 34.10700
H  -0.42500 12.02200 33.41300
H  -1.58800 12.62900 34.55100
Mg 24.08800 -4.74900 45.35000
C  26.43800 -2.52000 43.89300
C  21.73500 -3.35400 43.31300
C  22.23300 -7.51200 45.85900
C  26.86600 -6.36700 46.84000
N  24.11300 -3.04000 43.80900
C  25.13500 -2.21800 43.47400
C  24.65200 -1.12100 42.52300
C  23.08400 -1.24200 42.72100
C  22.93000 -2.64400 43.30800
C  22.51100 -0.24000 43.76700
C  25.16200 -1.35600 41.11300
C  25.52000 -0.09900 40.24300
H  25.02700 -0.15200 38.79600
N  22.15600 -5.32300 44.77700
C  21.34600 -4.55100 43.90300
C  20.18800 -5.31900 43.68400
C  20.14600 -6.45700 44.53400
C  21.55100 -6.50400 45.12400
C  19.04600 -4.95000 42.68200
C  18.98000 -7.38500 44.64400
O  17.98700 -7.25500 43.93000
C  19.02800 -8.44000 45.69500
N  24.45100 -6.62000 46.36600
C  23.51300 -7.61800 46.49400
C  24.07100 -8.91500 47.08600
C  25.57200 -8.49300 47.37800
C  25.65500 -7.03200 46.86000
C  23.35400 -9.53500 48.32900
C  26.57900 -9.42200 46.75800
C  26.24700 -10.97800 46.89300
N  26.18100 -4.41000 45.57900
C  27.11800 -5.13000 46.26100
C  28.45500 -4.62100 46.03200
C  28.28100 -3.56900 45.10400
C  26.84800 -3.50100 44.84200
C  29.75400 -5.08200 46.67600
C  28.91800 -2.57100 44.30000
O  30.09900 -2.19800 44.29500
C  27.75500 -1.87400 43.45400
C  27.83100 -0.41700 43.96400
O  27.21600 0.02900 44.91700
O  28.77400 0.24200 43.20600
C  29.17000 1.51800 43.77000
H  20.95000 -3.06800 42.61000
H  21.62500 -8.38900 46.09000
H  27.75900 -6.87000 47.21800
H  25.09700 -0.19200 42.87800
H  22.47500 -1.28700 41.81800
H  23.31600 0.30500 44.25900
H  21.92500 -0.70800 44.55800
H  21.90000 0.54400 43.31900
H  24.35200 -1.88000 40.60600
H  26.00300 -2.04200 41.21900
H  26.60700 -0.02400 40.20900
H  24.99800 0.76600 40.65200
H  18.04700 -5.02300 43.11200
H  19.18500 -5.41800 41.70700
H  18.94800 -3.86600 42.62600
H  19.66900 -8.10100 46.51000
H  19.52500 -9.27800 45.20600
H  18.08300 -8.90100 45.98500
H  24.18200 -9.58300 46.23200
H  25.89500 -8.37200 48.41100
H  22.54600 -8.98600 48.81200
H  24.04900 -9.93200 49.06900
H  22.82200 -10.43600 48.02200
H  27.47000 -9.23600 47.35700
H  26.70000 -9.12300 45.71700
H  25.69600 -11.11400 47.82400
H  27.09200 -11.66600 46.89500
H  25.55700 -11.17900 46.07300
H  30.44300 -4.23800 46.70700
H  30.20600 -5.76200 45.95400
H  29.64100 -5.62600 47.61400
H  27.97300 -1.78100 42.39000
H  29.92200 1.94700 43.10900
H  29.60300 1.33900 44.75400
H  28.34200 2.21900 43.88100

