158

Mg 23.34900 -4.91800 45.61600
C  25.42800 -2.31700 44.24700
C  20.94000 -3.74600 43.51000
C  21.67100 -7.75100 46.26700
C  26.29900 -6.25800 47.01900
N  23.27000 -3.22800 43.96900
C  24.17300 -2.34300 43.65400
C  23.62300 -1.31400 42.63900
C  22.05000 -1.61700 42.77000
C  22.05400 -2.95300 43.47800
C  21.31600 -0.52000 43.58200
C  24.26800 -1.58000 41.20800
C  24.88800 -0.44100 40.38900
H  25.66800 -0.88700 39.18700
N  21.47000 -5.60200 45.06000
C  20.67900 -5.03300 44.15100
C  19.43900 -5.69400 44.16200
C  19.53600 -6.79500 45.05200
C  20.97400 -6.77800 45.47500
C  18.33400 -5.31600 43.17000
C  18.44100 -7.79500 45.22200
O  17.32500 -7.64000 44.72100
C  18.60500 -9.00400 46.03800
N  23.91900 -6.74800 46.48700
C  23.03900 -7.78100 46.65600
C  23.69300 -8.90600 47.40000
C  25.17800 -8.49400 47.61000
C  25.17000 -7.01500 47.05000
C  22.98800 -9.38000 48.71300
C  26.16300 -9.46400 46.89300
C  27.25600 -9.98300 47.81300
N  25.30300 -4.30600 45.83800
C  26.43400 -4.92400 46.51600
C  27.55600 -4.11100 46.39000
C  27.18300 -3.03900 45.58400
C  25.86600 -3.27100 45.12900
C  28.84200 -4.35600 47.02600
C  27.68300 -1.83000 45.00100
O  28.76300 -1.25200 45.12400
C  26.63300 -1.35800 44.03400
C  26.47100 0.15400 44.24700
O  25.86000 0.63000 45.18700
O  27.22900 0.91400 43.37400
C  27.32000 2.38300 43.68900
H  20.07500 -3.33500 42.98600
H  21.18400 -8.67600 46.58500
H  27.18700 -6.70600 47.46900
H  23.87000 -0.28900 42.91600
H  21.46200 -1.58300 41.85300
H  22.03700 -0.12300 44.29700
H  20.43000 -0.85800 44.11900
H  21.04100 0.23300 42.84300
H  23.54200 -2.06600 40.55700
H  25.05300 -2.32100 41.35900
H  25.46000 0.15800 41.09700
H  24.07200 0.08500 39.89300
H  18.59900 -4.54000 42.45100
H  17.54900 -4.98300 43.84900
H  17.97600 -6.22400 42.68500
H  19.05200 -8.81500 47.01400
H  19.29800 -9.62000 45.46400
H  17.71100 -9.62300 46.12100
H  23.64900 -9.83900 46.83800
H  25.36200 -8.49200 48.68500
H  22.14100 -8.74500 48.97200
H  23.53100 -9.03800 49.59400
H  22.87700 -10.45900 48.82200
H  26.74600 -8.88400 46.17700
H  25.61500 -10.28000 46.42300
H  27.26600 -11.07300 47.83600
H  27.03800 -9.63400 48.82300
H  28.21900 -9.60400 47.47000
H  29.17200 -5.34900 46.72100
H  28.75200 -4.39600 48.11200
H  29.52400 -3.58100 46.67800
H  26.97700 -1.47200 43.00600
H  26.92800 2.96700 42.85600
H  28.39700 2.55000 43.71300
H  26.92900 2.62100 44.67800
Mg 16.68600 -1.12200 27.40600
C  15.26900 0.70300 30.11500
C  18.63600 -2.71800 29.67800
C  18.18200 -2.57300 24.85400
C  15.00800 1.04900 25.17800
N  16.88300 -1.00900 29.70800
C  16.23000 -0.20200 30.56400
C  16.72900 -0.45000 31.98300
C  17.96000 -1.39400 31.80400
C  17.83200 -1.74100 30.35000
C  19.27700 -0.87900 32.27600
C  15.61500 -1.06400 32.79500
C  15.61800 -0.73800 34.29500
H  16.81700 0.13500 34.88900
N  18.05000 -2.56100 27.28800
C  18.66400 -3.19700 28.34300
C  19.40900 -4.33400 27.85400
C  19.31400 -4.33100 26.41400
C  18.49700 -3.10500 26.10000
C  20.13700 -5.18500 28.76400
C  19.97800 -5.23000 25.38900
O  19.78500 -5.15300 24.14100
C  20.87400 -6.41200 25.73800
N  16.87400 -0.52900 25.35800
C  17.52600 -1.45500 24.53400
C  17.30400 -1.14600 23.03000
C  16.27200 0.01400 23.06800
C  15.99900 0.20500 24.59200
C  18.58000 -0.77900 22.19200
C  15.03400 -0.03000 22.19400
C  14.81000 1.19200 21.29800
N  15.38600 0.46000 27.52600
C  14.75700 1.23600 26.54700
C  13.76000 2.11400 27.16900
C  14.00400 1.94300 28.55800
C  14.98700 0.95300 28.71700
C  12.91400 3.05200 26.41000
C  13.54600 2.43100 29.89200
O  12.66900 3.20700 30.18800
C  14.45400 1.66500 30.87700
C  15.15600 2.63900 31.78800
O  16.29300 3.03900 31.77000
O  14.26800 3.00900 32.78200
C  14.70700 4.02300 33.69400
H  19.19900 -3.20000 30.48000
H  18.52300 -3.22300 24.04500
H  14.40600 1.62800 24.47600
H  17.09900 0.49500 32.38100
H  17.88100 -2.23500 32.49400
H  19.70300 -0.31400 31.44800
H  19.91400 -1.69200 32.62700
H  19.20300 -0.23300 33.15100
H  15.49000 -2.13500 32.63700
H  14.63900 -0.65100 32.53700
H  15.86700 -1.65200 34.83400
H  14.62500 -0.35100 34.52500
H  19.71600 -6.18000 28.90300
H  20.35800 -4.70600 29.71800
H  21.11500 -5.47800 28.38400
H  20.63100 -6.98400 26.63300
H  21.78400 -5.85300 25.95900
H  20.86800 -7.03200 24.84200
H  16.76300 -1.98600 22.59300
H  16.90000 0.83800 22.73100
H  18.40500 0.13200 21.62000
H  18.87400 -1.60300 21.54300
H  19.38900 -0.51600 22.87400
H  14.14200 -0.09600 22.81700
H  15.15600 -0.96300 21.64300
H  15.69900 1.75200 21.00500
H  14.23700 1.93600 21.85100
H  14.28100 0.75600 20.45100
H  13.58800 3.84400 26.08300
H  12.20900 3.55100 27.07400
H  12.33100 2.57800 25.61900
H  13.82400 1.11600 31.57600
H  14.80100 4.88600 33.03500
H  15.70800 3.91300 34.11100
H  13.99900 4.25800 34.48900

