158

Mg 23.77600 -5.49100 46.13900
C  26.12300 -3.21400 44.76800
C  21.40300 -4.13700 44.18200
C  21.78600 -8.21500 46.93900
C  26.38200 -6.88400 48.02700
N  23.82000 -3.88500 44.63700
C  24.82400 -2.98100 44.36800
C  24.32600 -1.86400 43.44300
C  22.78100 -2.04900 43.45400
C  22.67100 -3.46200 44.03800
C  21.88000 -1.05800 44.27000
C  25.06300 -2.06500 42.07500
C  25.21800 -0.75600 41.27500
H  24.58200 -0.76400 39.88000
N  21.86700 -6.03100 45.63600
C  21.01600 -5.34000 44.80500
C  19.77800 -6.03100 44.72200
C  19.82500 -7.14800 45.51500
C  21.18600 -7.19200 46.10400
C  18.67200 -5.53500 43.78600
C  18.69100 -8.20200 45.61500
O  17.63600 -8.00200 45.00000
C  18.76200 -9.37100 46.63800
N  24.04400 -7.43800 47.19500
C  23.11600 -8.31100 47.46300
C  23.60000 -9.47300 48.33000
C  25.00300 -8.88500 48.95100
C  25.15200 -7.65600 48.02000
C  22.54400 -10.00200 49.47600
C  26.22600 -9.84800 48.83400
C  26.87900 -10.18400 50.14200
N  25.86600 -5.17300 46.43800
C  26.75800 -5.81900 47.19900
C  27.97700 -5.12900 47.14900
C  27.81100 -4.11900 46.21700
C  26.52000 -4.21700 45.70700
C  29.20800 -5.28800 47.92900
C  28.44500 -2.98700 45.51700
O  29.66000 -2.64000 45.58000
C  27.38100 -2.37700 44.53100
C  27.26500 -0.94400 44.75200
O  26.59500 -0.44400 45.61800
O  27.99700 -0.29700 43.81100
C  27.91800 1.13000 43.81300
H  20.57100 -3.64200 43.67800
H  21.31400 -9.17200 47.17000
H  27.18900 -7.31300 48.62500
H  24.60700 -0.87800 43.81400
H  22.31000 -1.87900 42.48600
H  22.60600 -0.53800 44.89500
H  21.12500 -1.58300 44.85500
H  21.41600 -0.43400 43.50600
H  24.61700 -2.83300 41.44300
H  26.11200 -2.34900 42.16400
H  26.28500 -0.58000 41.14200
H  24.78000 0.07800 41.82300
H  18.64100 -6.36100 43.07500
H  18.77200 -4.55900 43.31000
H  17.75100 -5.55200 44.36800
H  17.85000 -9.93900 46.81900
H  19.18800 -9.06900 47.59500
H  19.45600 -10.11700 46.25400
H  23.72000 -10.34100 47.68100
H  24.82300 -8.47500 49.94500
H  21.58000 -9.51300 49.33500
H  22.89400 -9.87700 50.50100
H  22.29900 -11.03200 49.22000
H  26.90100 -9.49900 48.05300
H  25.85700 -10.85100 48.62000
H  27.91600 -9.85700 50.22200
H  26.83200 -11.27300 50.17200
H  26.39300 -9.76700 51.02400
H  30.06000 -5.70100 47.38800
H  28.97000 -5.81900 48.85100
H  29.58600 -4.31400 48.23900
H  27.74900 -2.44000 43.50700
H  27.94800 1.63800 44.77600
H  26.98300 1.53300 43.42400
H  28.76500 1.55500 43.27500
Mg 26.81500 51.64200 26.59900
C  25.13400 52.49100 29.42400
C  29.38600 50.37400 28.45700
C  28.63700 50.89400 23.67500
C  24.74300 53.56300 24.75300
N  27.19500 51.51300 28.77400
C  26.29200 51.82400 29.75600
C  26.84400 51.54800 31.13700
C  28.29800 50.86800 30.77400
C  28.35400 50.96600 29.25600
C  29.43100 51.66500 31.36200
C  25.92900 50.68100 32.08300
C  26.52300 50.28700 33.38600
H  26.19600 51.12300 34.63600
N  28.73000 50.68800 26.20100
C  29.65300 50.27800 27.04700
C  30.77300 49.71100 26.41100
C  30.45600 49.70000 25.01900
C  29.22100 50.41300 24.91100
C  32.01700 49.08100 27.13900
C  31.26300 49.14100 23.88000
O  30.90800 49.22400 22.74000
C  32.54800 48.47800 24.10900
N  26.77300 52.18900 24.50900
C  27.58800 51.75200 23.52600
C  27.18800 52.30600 22.12600
C  25.88900 53.19500 22.52800
C  25.76200 52.90600 24.02300
C  28.27900 53.16500 21.32500
C  24.62300 53.08200 21.64300
C  23.80900 51.81100 21.83200
N  25.21500 52.75400 26.97100
C  24.35700 53.39700 26.09400
C  23.25500 53.98800 26.83600
C  23.53600 53.70000 28.18700
C  24.72100 52.92600 28.19500
C  22.11100 54.74100 26.29100
C  23.02900 53.82800 29.52200
O  22.05000 54.41300 29.96800
C  24.05900 53.06100 30.38700
C  24.51300 54.06000 31.40300
O  25.26400 55.00900 31.17400
O  23.78200 53.91600 32.54700
C  23.98800 54.91300 33.61900
H  30.14200 49.92000 29.10100
H  29.11900 50.58000 22.74700
H  23.93000 53.96500 24.14600
H  26.93300 52.57500 31.49100
H  28.31100 49.82500 31.09100
H  29.17800 52.03700 32.35500
H  29.68000 52.52400 30.73900
H  30.21500 50.93600 31.56700
H  25.57800 49.83400 31.49200
H  25.11200 51.38900 32.22500
H  27.60800 50.37400 33.33200
H  26.27700 49.23100 33.49100
H  31.93900 47.99500 27.19900
H  32.00100 49.53800 28.12800
H  32.96800 49.37600 26.69400
H  33.28800 49.03900 24.68000
H  32.94100 48.30600 23.10600
H  32.49200 47.44100 24.44000
H  26.83100 51.41900 21.60300
H  26.14600 54.25300 22.58200
H  29.31500 52.99800 21.61800
H  27.97800 54.16400 21.00800
H  28.28600 52.54500 20.42800
H  25.03700 53.03300 20.63600
H  24.00700 53.96600 21.80600
H  22.83300 52.07700 22.23900
H  24.15800 51.17900 22.64900
H  23.72400 51.21700 20.92200
H  21.52400 54.11000 25.62400
H  22.53300 55.44700 25.57700
H  21.39800 55.09900 27.03400
H  23.53600 52.25000 30.89500
H  23.76800 54.40900 34.56100
H  23.19600 55.65400 33.51000
H  24.97300 55.36400 33.73400

