158

Mg 2.40800 0.19100 45.21700
C  5.56000 1.70700 44.59400
C  1.07300 3.14800 43.96600
C  -0.40700 -1.42100 45.07000
C  4.16800 -2.96000 45.61700
N  3.24000 2.25100 44.40200
C  4.53000 2.55600 44.25100
C  4.71600 3.95900 43.82600
C  3.22700 4.51600 43.61600
C  2.47700 3.25500 44.06400
C  2.82500 5.89500 44.32000
C  5.43900 4.07500 42.44600
C  5.17300 3.01700 41.38900
H  5.73200 3.20300 40.03100
N  0.59100 0.75600 44.64100
C  0.15100 2.02700 44.19600
C  -1.23900 1.94000 43.85900
C  -1.69500 0.64000 44.30200
C  -0.43700 -0.06200 44.71900
C  -2.02800 3.14500 43.36100
C  -3.15200 0.19400 44.26000
O  -3.92200 0.88900 43.67700
C  -3.72300 -0.92700 45.05600
N  2.00200 -1.84200 45.36600
C  0.71300 -2.29000 45.30000
C  0.59700 -3.77900 45.27500
C  2.02600 -4.23000 45.37000
C  2.79200 -2.93400 45.42400
C  -0.33500 -4.36500 46.36500
C  2.44900 -5.30700 44.41200
C  2.99700 -6.65200 45.00700
N  4.41700 -0.49400 45.35900
C  4.96800 -1.79300 45.58800
C  6.40600 -1.70600 45.64800
C  6.65100 -0.38600 45.22200
C  5.43900 0.31900 45.01700
C  7.44600 -2.68800 45.88500
C  7.71200 0.68700 44.90600
O  8.95500 0.57200 44.96100
C  7.04100 2.03600 44.58000
C  7.38200 3.05000 45.48400
O  7.69000 4.24000 45.24100
O  7.07300 2.62700 46.68300
C  6.76100 3.60000 47.65100
H  0.50100 3.97200 43.53600
H  -1.35700 -1.95600 45.02000
H  4.69500 -3.90200 45.78700
H  5.18900 4.55300 44.60900
H  2.90300 4.66700 42.58600
H  1.91800 5.70000 44.89100
H  2.71700 6.73400 43.63300
H  3.68200 6.02600 44.98100
H  6.49200 4.35400 42.46700
H  4.96700 4.92600 41.95500
H  4.09600 3.05000 41.23100
H  5.54800 2.07600 41.79100
H  -3.05200 3.17200 43.73400
H  -1.95800 3.03100 42.27900
H  -1.58600 4.01300 43.85000
H  -3.33800 -0.96900 46.07500
H  -3.63000 -1.90900 44.59300
H  -4.78400 -0.77200 45.25000
H  0.19900 -4.01500 44.28700
H  2.17900 -4.62700 46.37300
H  -0.88200 -3.51000 46.76200
H  0.25400 -4.80100 47.17100
H  -0.99200 -5.12300 45.93800
H  3.18100 -4.83800 43.75300
H  1.59300 -5.54400 43.78000
H  2.87500 -6.77200 46.08300
H  4.05100 -6.72800 44.73800
H  2.44200 -7.45500 44.52200
H  8.13100 -2.10900 46.50500
H  7.93600 -2.92000 44.94000
H  7.12300 -3.62100 46.34600
H  7.35300 2.22900 43.55300
H  5.84000 4.07200 47.30900
H  7.37000 4.49200 47.80000
H  6.45700 3.20200 48.61900
Mg 36.37800 49.89800 25.72400
C  36.23500 47.98600 28.74300
C  35.12500 52.51000 27.40700
C  35.98500 51.37000 22.81800
C  37.32400 46.73800 24.09200
N  35.77300 50.22700 27.90300
C  35.95700 49.38500 28.91600
C  35.56800 50.09600 30.22900
C  35.24300 51.50300 29.82200
C  35.35500 51.42100 28.25800
C  33.88000 52.02800 30.39100
C  36.64300 49.90700 31.32500
C  36.12300 49.41000 32.68800
H  34.70300 49.65300 33.11400
N  35.77300 51.68500 25.27200
C  35.31700 52.61700 26.04500
C  34.91300 53.76700 25.22300
C  35.38300 53.54900 23.93100
C  35.74100 52.13700 23.95000
C  34.06700 54.81600 25.77000
C  35.19100 54.32800 22.62400
O  35.51100 53.99500 21.48100
C  34.50300 55.71800 22.62900
N  36.32900 48.98600 23.70700
C  36.24000 49.96000 22.67900
C  36.71300 49.24500 21.33100
C  37.12100 47.78100 21.80600
C  36.99700 47.84900 23.32000
C  35.72200 49.35300 20.23100
C  38.49900 47.31600 21.28000
C  39.76700 47.84300 21.97600
N  36.67600 47.75400 26.26000
C  37.08600 46.63700 25.48100
C  37.20600 45.49800 26.30800
C  36.86200 45.98500 27.64100
C  36.55700 47.33500 27.50000
C  37.63800 44.08300 25.87700
C  36.71100 45.61700 29.01500
O  36.75400 44.51400 29.51100
C  36.25600 46.85900 29.81200
C  34.91300 46.60400 30.47500
O  33.76600 46.66500 30.01800
O  35.19500 45.94500 31.68600
C  34.01900 45.47400 32.56300
H  34.75900 53.33600 28.02000
H  36.11700 51.89800 21.87200
H  37.68200 45.84500 23.57400
H  34.65500 49.56000 30.49000
H  36.07300 52.10800 30.18800
H  33.97600 52.83100 31.12100
H  33.30300 51.24200 30.87800
H  33.29400 52.55300 29.63600
H  37.15600 50.86100 31.44600
H  37.34600 49.13300 31.01700
H  36.75700 49.86000 33.45200
H  36.32300 48.33900 32.69800
H  34.71000 55.69400 25.69700
H  33.83600 54.77200 26.83500
H  33.14100 54.89000 25.20000
H  33.45100 55.57300 22.87500
H  34.55500 56.07100 21.59900
H  35.00300 56.32400 23.38500
H  37.61600 49.76200 21.00700
H  36.38100 47.07600 21.42700
H  34.76600 49.73200 20.59300
H  35.51500 48.42000 19.70700
H  35.98800 49.95400 19.36100
H  38.58800 47.42400 20.19900
H  38.63400 46.24700 21.44700
H  39.45000 48.77000 22.45400
H  40.60400 48.13200 21.34200
H  40.25500 47.28800 22.77800
H  36.87600 43.55700 25.30100
H  37.68100 43.39800 26.72300
H  38.61400 44.05000 25.39300
H  37.06100 46.97100 30.53800
H  33.84000 45.97100 33.51600
H  34.12500 44.39200 32.65400
H  33.01900 45.56200 32.14000

