158

Mg 49.24100 16.19800 28.38500
C  47.07100 15.79300 31.00400
C  51.26700 18.15800 30.31500
C  51.21700 16.51000 25.78300
C  46.81700 14.68200 26.34500
N  49.07000 16.96500 30.35800
C  48.24800 16.49000 31.33900
C  48.53100 17.11300 32.68400
C  49.73400 18.11900 32.38500
C  50.06900 17.73200 30.93500
C  49.42000 19.62700 32.61800
C  48.71100 16.08800 33.77200
C  48.10900 16.41000 35.17200
H  48.05900 17.85400 35.68800
N  51.06000 17.15100 28.13900
C  51.80800 17.86100 29.01100
C  53.08900 18.21700 28.46000
C  53.08900 17.75500 27.15200
C  51.73500 17.08000 26.94300
C  54.03500 19.06000 29.18000
C  54.12700 17.76200 26.09200
O  54.02900 17.19900 25.02800
C  55.40500 18.50800 26.27200
N  49.15400 15.51500 26.38600
C  50.06900 15.83100 25.51500
C  49.64100 15.33800 24.07000
C  48.29800 14.55300 24.36000
C  48.08400 14.92000 25.80300
C  49.52000 16.57500 23.14600
C  48.50700 13.03500 24.18100
C  47.47400 12.29700 23.30900
N  47.28800 15.40100 28.52600
C  46.47400 14.77200 27.67000
C  45.24600 14.31400 28.35900
C  45.47500 14.63400 29.68400
C  46.69600 15.34000 29.72000
C  44.06900 13.55900 27.68400
C  44.91900 14.56400 31.07100
O  43.88800 14.09600 31.48200
C  45.89800 15.44500 31.93300
C  45.01300 16.51100 32.42500
O  44.57800 17.53000 31.84200
O  44.86000 16.19100 33.76600
C  43.97700 16.99500 34.61400
H  51.93300 18.82800 30.86300
H  51.75500 16.49000 24.83300
H  46.16000 14.07400 25.71900
H  47.61300 17.67000 32.87200
H  50.62300 17.79300 32.92400
H  48.46400 19.89600 33.06800
H  49.26800 20.11600 31.65600
H  50.19100 19.94900 33.31800
H  49.76400 15.94700 34.01800
H  48.36300 15.09500 33.48800
H  48.77200 15.87600 35.85300
H  47.07100 16.08000 35.21600
H  55.09400 18.81100 29.11500
H  53.82600 19.10500 30.24900
H  54.08300 20.04500 28.71400
H  56.08300 18.18700 27.06300
H  55.14700 19.56500 26.33700
H  55.95200 18.54000 25.33000
H  50.44800 14.74300 23.64400
H  47.47600 14.97700 23.78400
H  50.36200 16.54800 22.45300
H  49.38200 17.59500 23.50400
H  48.64900 16.30300 22.54900
H  48.50600 12.60500 25.18200
H  49.47300 12.72600 23.78100
H  46.75900 12.01100 24.08000
H  47.83900 11.42400 22.76800
H  47.08000 13.07600 22.65700
H  44.10300 12.47100 27.74700
H  44.01600 13.89500 26.64800
H  43.12200 13.95500 28.04900
H  46.26400 14.84200 32.76400
H  42.98400 16.54800 34.65300
H  43.80500 18.06900 34.53800
H  44.45200 16.81400 35.57800
Mg 50.07200 45.35500 41.11300
C  46.85400 46.07900 40.10500
C  49.70100 42.11400 39.98700
C  53.54100 44.82900 41.22400
C  50.71900 48.77900 41.63200
N  48.39600 44.18000 40.23600
C  47.08900 44.67700 39.95500
C  46.23500 43.51100 39.38500
C  47.17200 42.23300 39.50400
C  48.49800 42.88100 39.92700
C  46.55900 41.17900 40.53100
C  45.71100 43.68400 37.96900
C  44.61500 42.70600 37.48000
H  44.91900 41.88500 36.21900
N  51.34600 43.67700 40.82900
C  51.00800 42.41700 40.31400
C  52.19100 41.57600 40.27800
C  53.29300 42.41400 40.72500
C  52.74600 43.72900 40.95800
C  52.24000 40.11200 39.87400
C  54.65500 41.87600 40.96800
O  54.85800 40.66100 40.86900
C  55.88500 42.60600 41.56200
N  51.85800 46.61100 41.33500
C  53.15300 46.13400 41.36500
C  54.15600 47.26800 41.66000
C  53.19500 48.44300 41.99700
C  51.83700 47.87900 41.68300
C  55.31300 46.98700 42.72700
C  53.48600 49.76400 41.26900
C  53.27900 51.06400 42.07500
N  49.06200 47.08400 41.02700
C  49.41800 48.39500 41.24300
C  48.28000 49.31400 41.13400
C  47.25900 48.39500 40.59500
C  47.76800 47.07200 40.59100
C  48.28200 50.75600 41.31300
C  45.88100 48.37400 40.05500
O  45.09400 49.29800 39.76800
C  45.60600 46.91100 39.83000
C  44.45900 46.50300 40.80500
O  44.48000 46.55200 41.99900
O  43.43400 46.12700 40.02400
C  42.13500 45.84700 40.69000
H  49.56900 41.06400 39.72000
H  54.62400 44.70100 41.27700
H  50.84900 49.79300 42.01600
H  45.29800 43.43200 39.93600
H  47.17400 41.71700 38.54400
H  46.27800 40.26600 40.00600
H  45.63900 41.51800 41.00700
H  47.28700 41.02200 41.32700
H  46.52800 43.46900 37.28000
H  45.28100 44.68300 37.90300
H  43.75600 43.32100 37.21100
H  44.31200 42.01500 38.26700
H  51.38100 39.87000 39.24800
H  52.12800 39.49300 40.76400
H  53.19800 39.92800 39.38900
H  55.54500 43.28500 42.34400
H  56.32400 43.23400 40.78700
H  56.59300 41.90200 41.99800
H  54.76100 47.55100 40.79900
H  53.25700 48.62500 43.07000
H  55.44800 47.86700 43.35400
H  56.21000 46.67000 42.19600
H  55.01000 46.20000 43.41800
H  52.79300 49.79000 40.42800
H  54.54500 49.78900 41.01300
H  52.85700 50.86900 43.06100
H  52.47300 51.55600 41.53000
H  54.16400 51.70000 42.08200
H  47.38100 51.01900 41.86700
H  48.10100 51.09500 40.29300
H  49.18300 51.26300 41.65900
H  45.40000 46.78800 38.76600
H  41.74700 44.96800 40.17700
H  41.48000 46.67700 40.42500
H  42.17900 45.65800 41.76300

