158

Mg 47.67600 16.52900 28.72200
C  45.82900 15.94900 31.60900
C  49.99100 18.39000 30.73000
C  49.37500 17.30700 25.95200
C  45.33900 14.78600 26.93500
N  47.92600 17.09900 30.90600
C  46.98900 16.65700 31.86700
C  47.55800 17.09000 33.21900
C  48.60600 18.17100 32.87200
C  48.93600 17.82800 31.43400
C  48.09000 19.68800 32.93700
C  48.12400 15.87100 33.98400
C  48.01700 15.91200 35.57300
H  47.66000 17.21500 36.25300
N  49.48800 17.72300 28.37700
C  50.23900 18.41400 29.32400
C  51.32700 19.07000 28.54900
C  51.20000 18.68400 27.19000
C  49.97200 17.87100 27.10500
C  52.37400 19.97000 29.27300
C  52.09000 19.04200 25.99300
O  51.97900 18.61100 24.91200
C  53.19900 20.05200 26.05500
N  47.38900 16.23400 26.73500
C  48.15100 16.67200 25.69600
C  47.72000 16.11500 24.34100
C  46.50600 15.18500 24.69800
C  46.42800 15.37900 26.24200
C  47.51200 17.19200 23.27600
C  46.63500 13.66000 24.26600
C  45.62800 13.30400 23.17800
N  45.92400 15.72400 29.08500
C  44.99800 15.14400 28.21000
C  43.87600 14.65700 28.89300
C  44.20700 14.88800 30.18900
C  45.41800 15.60900 30.30500
C  42.65100 13.89600 28.36800
C  43.63000 14.81100 31.55600
O  42.61000 14.26300 31.92400
C  44.71600 15.44900 32.52500
C  44.08600 16.60400 33.26100
O  43.63800 17.67100 32.70100
O  44.15300 16.26900 34.57500
C  43.53200 17.31000 35.46300
H  50.64600 19.11200 31.22000
H  49.88800 17.55400 25.02100
H  44.55900 14.17000 26.48100
H  46.75100 17.54500 33.79300
H  49.50400 18.00800 33.46900
H  48.40700 20.20900 32.03300
H  48.52100 20.29400 33.73300
H  47.00300 19.72600 33.01500
H  49.15600 15.70500 33.67500
H  47.54500 15.01000 33.64900
H  48.94900 15.54500 36.00400
H  47.25300 15.16200 35.77800
H  53.39900 19.62800 29.12900
H  52.27500 20.02500 30.35700
H  52.21600 20.97700 28.88700
H  52.96500 20.94900 26.62800
H  53.46500 20.35200 25.04200
H  54.04500 19.48900 26.45000
H  48.54300 15.60300 23.84200
H  45.55600 15.52300 24.28500
H  46.50800 17.16500 22.85300
H  48.34000 17.09800 22.57300
H  47.59100 18.18200 23.72600
H  46.55200 12.93300 25.07400
H  47.65700 13.55100 23.90300
H  46.14800 13.06500 22.25000
H  44.89000 14.08200 22.98200
H  45.15700 12.35400 23.43200
H  43.01300 12.87000 28.29700
H  42.41000 14.16000 27.33800
H  41.75100 14.01300 28.97100
H  44.98800 14.69300 33.26100
H  43.85100 18.29000 35.11000
H  43.99600 17.17200 36.43900
H  42.45100 17.17000 35.45900
Mg 29.55300 57.99800 41.16700
C  26.74600 56.32000 39.93600
C  31.48800 55.36800 39.95800
C  32.12000 60.02300 41.26500
C  27.35400 60.83300 41.93600
N  29.12900 56.05800 40.08400
C  27.92600 55.58700 39.68600
C  28.15500 54.33100 38.91800
C  29.57000 53.76300 39.33100
C  30.09600 55.13500 39.88600
C  29.60500 52.69600 40.35100
C  28.04300 54.69500 37.41100
C  26.96200 53.86000 36.62300
H  26.24100 54.62400 35.45700
N  31.56100 57.72600 40.73700
C  32.15000 56.60000 40.21500
C  33.58400 56.80200 40.15900
C  33.78300 58.12800 40.75300
C  32.44300 58.70200 40.87600
C  34.48700 55.64200 39.72000
C  35.15700 58.64800 40.92800
O  36.24400 58.13000 40.57400
C  35.29800 60.04500 41.65000
N  29.69000 60.07300 41.52800
C  30.92600 60.66800 41.57000
C  30.84900 62.02400 42.23400
C  29.31200 62.38200 42.19200
C  28.72700 61.04700 41.88800
C  31.50900 62.09100 43.67100
C  29.03900 63.51500 41.13400
C  27.66700 64.13700 41.31400
N  27.49400 58.46100 41.08800
C  26.76300 59.60200 41.58800
C  25.38200 59.33800 41.41100
C  25.29400 58.06100 40.72700
C  26.60600 57.56500 40.58800
C  24.29500 60.37600 41.58800
C  24.41800 57.04300 40.19400
O  23.18400 57.06100 40.21800
C  25.28100 55.89900 39.56000
C  25.04300 54.59100 40.26600
O  25.26000 54.43500 41.41500
O  24.33900 53.71600 39.42700
C  23.92800 52.48700 40.05500
H  32.04600 54.46000 39.72400
H  32.94400 60.72600 41.40700
H  26.72300 61.68800 42.18700
H  27.37300 53.59300 39.09600
H  30.14700 53.44300 38.46300
H  29.71000 53.10000 41.35800
H  30.44900 52.03100 40.16900
H  28.64400 52.21900 40.15800
H  29.04200 54.57900 36.99100
H  27.73200 55.72600 37.24500
H  26.16100 53.39200 37.19700
H  27.43000 52.95000 36.25000
H  34.25500 55.03000 38.84900
H  34.43700 54.99500 40.59600
H  35.50700 56.01300 39.61700
H  34.98500 60.88000 41.02400
H  36.26300 60.29200 42.09300
H  34.64500 59.95200 42.51800
H  31.39600 62.64600 41.52600
H  28.83200 62.75700 43.09600
H  31.54900 61.07900 44.07500
H  30.82800 62.57900 44.36800
H  32.54400 62.41900 43.58300
H  29.06400 63.03300 40.15700
H  29.76300 64.31300 41.30200
H  27.10100 64.02400 40.39000
H  27.68300 65.17400 41.65000
H  27.09200 63.69500 42.12800
H  23.37800 59.83500 41.35600
H  24.47800 61.24800 40.96100
H  24.27300 60.74100 42.61500
H  25.11200 56.05400 38.49500
H  24.67900 52.06500 40.72200
H  23.55200 51.79200 39.30300
H  23.01300 52.72100 40.59900

