158

Mg 43.51700 4.22800 47.30900
C  41.20100 6.87200 47.19600
C  40.76700 2.10000 46.74500
C  45.65000 1.67100 46.78200
C  46.14400 6.52400 47.02000
N  41.22000 4.44300 47.01600
C  40.54300 5.59300 47.10000
C  39.03900 5.31500 47.20000
C  38.89400 3.76500 47.30700
C  40.37600 3.39200 46.95700
C  38.22500 3.22800 48.58200
C  38.27500 6.05800 46.05400
C  38.59500 5.60400 44.60300
H  39.30000 6.67900 43.71200
N  43.30100 2.14200 46.87600
C  42.05600 1.48500 46.69400
C  42.30100 0.08200 46.57200
C  43.67500 -0.16000 46.50200
C  44.29700 1.25200 46.74400
C  41.23900 -0.95900 46.25600
C  44.26500 -1.47600 46.08800
O  43.63000 -2.50500 45.91300
C  45.72900 -1.54900 45.90500
N  45.58900 4.11200 46.90500
C  46.21400 2.91800 46.83900
C  47.76500 3.09400 47.06400
C  47.95600 4.66500 47.09400
C  46.48800 5.16700 46.99600
C  48.30300 2.23600 48.29500
C  48.94100 5.21600 45.99200
C  50.35200 5.27900 46.48500
N  43.73900 6.26500 47.30500
C  44.84100 7.12600 47.21100
C  44.44100 8.52200 47.45100
C  43.03500 8.40800 47.40600
C  42.60600 7.09500 47.20700
C  45.27700 9.70200 47.73500
C  41.81900 9.22600 47.60300
O  41.76000 10.41900 47.84700
C  40.57700 8.26300 47.45900
C  39.71700 8.34900 48.71200
O  40.24700 8.19400 49.83400
O  38.37200 8.36800 48.44200
C  37.44700 8.24700 49.56100
H  39.92200 1.40900 46.74100
H  46.34500 0.83300 46.86700
H  47.01900 7.13700 47.24800
H  38.68100 5.64500 48.17500
H  38.31400 3.32800 46.49500
H  38.73700 2.34400 48.96400
H  37.18400 2.97900 48.37200
H  38.29400 3.91700 49.42400
H  38.35600 7.14500 46.06600
H  37.25800 5.71600 46.24700
H  37.60400 5.37700 44.21000
H  39.29200 4.77100 44.69800
H  41.37700 -1.84200 46.88000
H  41.42100 -1.11600 45.19300
H  40.26700 -0.54900 46.53000
H  46.21900 -1.25600 46.83400
H  45.95400 -0.79200 45.15300
H  46.21000 -2.46600 45.56400
H  48.21900 2.65500 46.17600
H  48.32300 5.02800 48.05400
H  47.42800 1.82500 48.79900
H  48.85600 2.98700 48.86000
H  48.88200 1.34700 48.04400
H  48.57100 6.20300 45.71300
H  48.93700 4.63100 45.07300
H  50.48600 5.20600 47.56500
H  50.73900 6.26200 46.21800
H  50.90200 4.48500 45.97900
H  45.18700 9.87000 48.80800
H  44.79500 10.51600 47.19400
H  46.31600 9.54600 47.44600
H  40.09900 8.65500 46.56100
H  37.81900 8.82200 50.41000
H  37.23200 7.20500 49.79900
H  36.45400 8.56800 49.24700
Mg -1.61700 34.67800 27.09000
C  -3.64300 33.03700 29.50600
C  -0.51400 36.70000 29.68400
C  -0.16200 36.68000 24.89000
C  -3.35700 33.02100 24.58600
N  -2.11900 34.87400 29.34000
C  -2.87800 34.04700 30.08100
C  -2.73200 34.28800 31.61800
C  -2.08400 35.71400 31.65000
C  -1.54700 35.80800 30.13300
C  -3.16600 36.86500 31.98000
C  -2.01600 33.11400 32.34100
C  -2.72600 32.46500 33.58100
H  -1.95100 32.55500 34.91400
N  -0.24700 36.20000 27.30800
C  0.11300 36.85200 28.45200
C  1.03900 37.93000 28.08900
C  1.25600 37.85800 26.73000
C  0.29300 36.87500 26.26000
C  1.74300 38.76200 29.21300
C  2.21600 38.70500 25.94600
O  2.38600 38.62100 24.70200
C  3.00700 39.82200 26.67500
N  -1.91700 34.87200 24.94200
C  -1.06000 35.74800 24.25100
C  -1.03800 35.45100 22.71000
C  -2.04700 34.19500 22.62200
C  -2.40600 33.95700 24.08300
C  -1.56500 36.60000 21.93100
C  -1.53000 32.91500 21.86800
C  -0.73900 31.87800 22.76500
N  -3.24500 33.32000 27.00500
C  -3.79000 32.69900 25.93600
C  -4.73400 31.69200 26.32700
C  -4.66900 31.75200 27.80500
C  -3.79200 32.78600 28.14100
C  -5.52100 30.75100 25.38700
C  -5.06800 31.08600 29.04800
O  -5.76400 30.12800 29.13000
C  -4.37300 31.86700 30.19800
C  -5.49900 32.24700 31.10400
O  -6.23200 33.19700 31.03100
O  -5.63100 31.22100 32.08200
C  -6.54700 31.55600 33.18300
H  -0.20500 37.36100 30.49700
H  0.41600 37.31500 24.21600
H  -3.83700 32.36500 23.85700
H  -3.74300 34.34600 32.02000
H  -1.23300 35.69800 32.33100
H  -2.94600 37.57800 31.18600
H  -2.90800 37.26900 32.96000
H  -4.17700 36.47300 31.86900
H  -1.05500 33.49700 32.68400
H  -1.84700 32.30500 31.63100
H  -2.86000 31.39500 33.42400
H  -3.74700 32.83200 33.68600
H  1.41600 39.80200 29.21100
H  2.81500 38.59600 29.11600
H  1.43400 38.44100 30.20800
H  3.49100 40.39000 25.88000
H  3.79000 39.30200 27.22700
H  2.34800 40.45300 27.27200
H  -0.05500 35.23600 22.29100
H  -3.01300 34.47800 22.20200
H  -1.54900 37.51900 22.51600
H  -2.58900 36.37700 21.63100
H  -1.00700 36.80400 21.01800
H  -1.04400 33.34500 20.99200
H  -2.44900 32.46100 21.49900
H  -0.60500 32.21800 23.79200
H  0.26000 31.75400 22.34600
H  -1.26300 30.92200 22.77600
H  -6.07300 31.37600 24.68400
H  -6.22100 30.19000 26.00600
H  -4.69300 30.15100 25.01000
H  -3.66000 31.17500 30.64500
H  -6.07800 32.28600 33.84200
H  -6.67300 30.69400 33.83800
H  -7.51900 32.00800 32.98800

