158

Mg -1.10200 17.76700 26.85000
C  -1.66100 15.23600 29.40300
C  -1.74600 20.10800 29.30000
C  -0.50300 19.88000 24.47100
C  -1.27600 15.15500 24.52700
N  -1.75300 17.65000 29.11400
C  -1.69300 16.52400 29.94000
C  -2.18900 16.97300 31.38300
C  -2.23800 18.52700 31.27700
C  -1.91800 18.81500 29.80600
C  -3.57400 19.25600 31.63300
C  -1.18900 16.44400 32.53800
C  -1.20400 17.24800 33.89900
H  -0.72600 16.50200 35.11900
N  -1.02400 19.64400 26.87200
C  -1.31200 20.50900 27.96500
C  -1.16600 21.84200 27.58300
C  -0.81600 21.79600 26.18700
C  -0.72800 20.39500 25.79600
C  -1.32100 23.00600 28.59100
C  -0.56600 22.93300 25.29600
O  -0.07800 22.83700 24.21200
C  -0.91100 24.28800 25.68600
N  -1.09300 17.58400 24.74900
C  -0.63200 18.60000 24.02800
C  -0.50200 18.14000 22.53200
C  -0.53000 16.60500 22.65000
C  -1.00900 16.40700 24.04300
C  -1.60700 18.75300 21.62500
C  0.85400 15.96000 22.29700
C  1.99900 16.12000 23.30600
N  -1.39600 15.68800 26.89900
C  -1.46200 14.77300 25.87300
C  -1.70500 13.47100 26.35500
C  -1.64000 13.56900 27.74900
C  -1.57100 14.94400 28.05800
C  -1.89300 12.22400 25.52200
C  -1.82700 12.78500 28.96300
O  -2.07600 11.62100 29.19100
C  -1.79600 13.90800 30.13500
C  -0.62500 13.56400 30.91100
O  0.52000 13.69100 30.43500
O  -0.93600 13.03000 32.13300
C  0.21100 12.82200 33.07300
H  -1.78100 20.78900 30.15300
H  -0.24400 20.60400 23.69500
H  -1.37900 14.31200 23.84000
H  -3.15200 16.47100 31.47900
H  -1.47400 19.00900 31.88700
H  -4.15600 18.56100 32.23700
H  -4.08100 19.50500 30.70100
H  -3.22400 20.16500 32.12100
H  -0.18100 16.22500 32.18700
H  -1.60000 15.47800 32.83000
H  -2.11800 17.79400 34.13300
H  -0.46600 18.02700 33.70700
H  -0.52300 23.74100 28.48800
H  -1.28300 22.77100 29.65500
H  -2.27100 23.53500 28.50200
H  -1.92400 24.35000 26.08500
H  -0.84600 25.05800 24.91700
H  -0.15400 24.60900 26.40000
H  0.36400 18.38700 21.91800
H  -1.18500 16.05400 21.97500
H  -2.08500 17.92000 21.10900
H  -1.28400 19.53900 20.94200
H  -2.36800 19.19400 22.26900
H  1.15900 16.51700 21.41100
H  0.79600 14.88800 22.10700
H  1.74400 15.67100 24.26600
H  2.19100 17.16800 23.53600
H  2.95800 15.69000 23.01800
H  -0.95900 11.82700 25.12500
H  -2.56800 12.50000 24.71200
H  -2.38000 11.43300 26.09200
H  -2.72500 13.90800 30.70600
H  1.09500 13.41100 32.82800
H  0.44400 11.76600 33.20800
H  -0.13500 13.26800 34.00600
Mg 8.42300 2.17600 27.90500
C  9.62200 0.59700 30.80300
C  6.55100 4.34700 30.00300
C  6.77800 3.31100 25.22500
C  10.24000 -0.00900 25.97900
N  7.89100 2.16400 30.12300
C  8.68200 1.59300 31.10000
C  8.52900 2.31500 32.47400
C  7.44600 3.34800 32.17600
C  7.19900 3.23100 30.68000
C  6.14400 3.27600 32.98100
C  9.89900 2.91900 33.12300
C  9.77900 3.71600 34.40800
H  10.50100 3.27000 35.66200
N  6.85700 3.60700 27.66100
C  6.33300 4.46200 28.58300
C  5.36000 5.33100 27.99900
C  5.47600 5.12300 26.60500
C  6.39300 3.98300 26.42400
C  4.61200 6.40900 28.81500
C  4.68400 5.73600 25.41100
O  4.69500 5.31300 24.23100
C  3.67400 6.87600 25.72200
N  8.46800 1.68200 25.92200
C  7.71400 2.28300 24.94200
C  8.08200 1.85200 23.48900
C  9.25300 0.87600 23.77800
C  9.27900 0.73400 25.28000
C  6.84400 1.11900 22.78800
C  10.63200 1.33800 23.30100
C  11.47000 2.31200 24.19400
N  9.68000 0.59000 28.29400
C  10.35100 -0.14500 27.38800
C  11.30500 -1.01900 28.08900
C  10.97100 -0.80300 29.43300
C  9.92500 0.17000 29.49900
C  12.15200 -2.18000 27.55900
C  11.32100 -1.14100 30.80200
O  12.11300 -2.02400 31.18100
C  10.59000 -0.16100 31.77400
C  9.79000 -0.86600 32.93100
O  8.91600 -1.71600 32.75200
O  10.23400 -0.53000 34.19300
C  9.90000 -1.40000 35.29100
H  5.99200 4.99500 30.68200
H  6.25600 3.63400 24.32200
H  10.92400 -0.69900 25.48100
H  8.27400 1.58700 33.24400
H  7.78300 4.33100 32.50400
H  6.26400 2.63100 33.85100
H  5.40000 2.95700 32.25100
H  5.89100 4.22500 33.45300
H  10.42800 3.43900 32.32500
H  10.57600 2.10800 33.39400
H  8.71600 3.74800 34.65000
H  10.18100 4.67500 34.08300
H  3.55200 6.21400 28.65500
H  4.80200 7.35200 28.30300
H  4.69200 6.67900 29.86800
H  3.13900 7.27600 24.86100
H  4.18300 7.62200 26.33200
H  2.81800 6.49000 26.27600
H  8.29900 2.76700 22.93700
H  9.05500 -0.15100 23.47100
H  6.11800 0.91000 23.57300
H  7.08900 0.15000 22.35500
H  6.31800 1.76800 22.08700
H  10.48300 1.83100 22.34000
H  11.23500 0.44000 23.16900
H  10.94800 2.62900 25.09700
H  11.74000 3.17200 23.58100
H  12.46800 1.92400 24.40100
H  12.46900 -2.10600 26.51900
H  11.65500 -3.13300 27.74100
H  13.12200 -2.22600 28.05400
H  11.32000 0.53300 32.19100
H  9.62100 -0.87500 36.20400
H  10.84200 -1.85600 35.59600
H  9.05200 -2.05200 35.08200

