158

Mg 44.17900 4.10500 47.63200
C  42.15900 6.93400 47.04400
C  41.37100 2.12300 47.39200
C  46.25800 1.54300 47.94200
C  47.02300 6.37300 47.53000
N  41.99400 4.52700 47.13000
C  41.44500 5.72400 46.98200
C  39.97200 5.55500 46.56700
C  39.63900 4.09300 47.01400
C  41.08200 3.47900 47.17500
C  38.83600 3.94300 48.25500
C  39.77000 5.79500 45.07600
C  38.85500 6.97100 44.65800
H  39.27700 7.72100 43.46000
N  43.88900 2.05800 47.73600
C  42.62600 1.45200 47.57200
C  42.78600 0.05700 47.69200
C  44.18400 -0.18600 47.95800
C  44.85100 1.14900 47.90600
C  41.75700 -0.94500 47.46600
C  44.74800 -1.60800 48.08800
O  44.10500 -2.65700 48.02000
C  46.21200 -1.75200 48.25000
N  46.31700 3.98200 47.59500
C  46.86600 2.78800 47.83500
C  48.40500 2.90300 47.70000
C  48.65700 4.44900 47.55400
C  47.23400 5.00400 47.47800
C  49.31400 2.19100 48.79700
C  49.59600 4.88500 46.38700
C  50.73000 5.89300 46.69700
N  44.60800 6.30100 47.40800
C  45.77300 7.04200 47.50200
C  45.39400 8.48500 47.43000
C  44.00600 8.50700 47.23300
C  43.57100 7.12000 47.17200
C  46.27100 9.76000 47.69900
C  42.79600 9.39200 47.08900
O  42.64000 10.56900 47.05000
C  41.59300 8.36800 46.86000
C  40.40700 8.56800 47.84900
O  40.31900 8.01500 48.90700
O  39.54800 9.51800 47.32600
C  38.35600 9.80900 48.11600
H  40.49200 1.47700 47.36000
H  46.94600 0.70200 48.05400
H  47.92700 6.96800 47.67500
H  39.42700 6.28900 47.16000
H  39.19800 3.53900 46.18500
H  38.49700 4.96600 48.42100
H  39.37500 3.57700 49.12900
H  37.97000 3.28300 48.18900
H  39.44900 4.88100 44.57500
H  40.74800 6.11200 44.71400
H  38.80000 7.69100 45.47500
H  37.86300 6.67500 44.31600
H  40.86800 -0.55800 46.96800
H  41.45800 -1.44200 48.38800
H  42.15800 -1.62600 46.71500
H  46.85000 -1.68400 47.37000
H  46.61100 -2.58900 48.82400
H  46.49800 -0.96700 48.95000
H  48.71600 2.36500 46.80500
H  48.95600 4.82600 48.53100
H  48.53700 1.86200 49.48700
H  50.07200 2.81100 49.27600
H  49.84200 1.28000 48.51400
H  48.94100 5.37300 45.66600
H  50.01900 3.99400 45.92300
H  50.55300 6.89700 46.31100
H  51.70900 5.44800 46.51600
H  50.81100 6.00300 47.77800
H  45.81900 10.63800 47.23800
H  47.23300 9.57200 47.22000
H  46.43300 9.79200 48.77600
H  41.25800 8.35100 45.82300
H  38.31600 9.17200 48.99900
H  37.55900 9.73800 47.37600
H  38.39400 10.84300 48.45900
Mg 29.94900 58.58900 38.96900
C  27.06500 57.17200 38.05300
C  31.66000 55.72100 38.22200
C  32.83500 60.37300 38.81700
C  28.25200 61.63300 39.64200
N  29.47000 56.68000 38.20000
C  28.18300 56.33600 37.81000
C  28.21300 54.84700 37.28500
C  29.59200 54.36300 37.73200
C  30.31600 55.63600 38.00200
C  29.59800 53.37300 38.99500
C  28.04500 54.73100 35.68900
C  26.67600 54.10100 35.36900
H  25.81500 54.92900 34.33500
N  31.96800 58.08300 38.57200
C  32.45100 56.81700 38.36500
C  33.86400 56.78900 38.23600
C  34.33900 58.10900 38.42300
C  33.08900 58.90600 38.58100
C  34.63000 55.44800 38.08500
C  35.71300 58.59600 38.44000
O  36.63700 57.77400 38.42800
C  36.09700 60.03400 38.48400
N  30.42000 60.68400 39.08400
C  31.73200 61.09300 39.05200
C  31.78100 62.57400 39.21600
C  30.31400 63.02800 39.46900
C  29.61600 61.71900 39.38800
C  32.77600 63.19100 40.22100
C  29.87300 64.16000 38.59400
C  29.65500 65.47200 39.41200
N  28.04300 59.25500 38.98300
C  27.48600 60.43700 39.34100
C  26.07300 60.29200 39.34600
C  25.86400 59.03900 38.79600
C  27.08600 58.45400 38.61600
C  25.10100 61.39800 39.60700
C  24.79900 58.05000 38.37200
O  23.56700 58.21200 38.39900
C  25.57600 56.76200 37.93700
C  25.21900 55.65500 38.86900
O  25.69400 55.56800 39.97800
O  24.41900 54.60200 38.37900
C  24.29800 53.41300 39.34200
H  32.05700 54.70500 38.17100
H  33.64300 61.10400 38.74600
H  27.67300 62.53000 39.87300
H  27.48200 54.20000 37.76800
H  30.14100 53.86600 36.93200
H  30.02300 54.05200 39.73400
H  30.15900 52.45500 38.82200
H  28.56900 53.05000 39.15400
H  28.86400 54.11900 35.31100
H  28.01000 55.73100 35.25700
H  26.11900 53.94100 36.29200
H  26.82700 53.13700 34.88300
H  34.20700 54.70100 38.75700
H  35.60300 55.61800 38.54700
H  34.76600 54.98600 37.10700
H  37.17300 60.05600 38.30900
H  35.78100 60.36400 39.47400
H  35.48000 60.55600 37.75300
H  32.07500 62.85200 38.20400
H  30.26600 63.29500 40.52400
H  32.45100 63.68700 41.13600
H  33.28800 64.07400 39.84000
H  33.56100 62.47800 40.47400
H  28.90400 63.95800 38.13800
H  30.60400 64.33400 37.80400
H  28.98100 66.09100 38.81900
H  30.61600 65.96300 39.56300
H  29.12600 65.23200 40.33400
H  24.80900 61.98200 38.73400
H  25.62700 62.08700 40.26800
H  24.27800 60.97700 40.18500
H  25.32000 56.46300 36.92100
H  23.81700 52.54800 38.88500
H  23.66700 53.71300 40.17900
H  25.18900 53.13600 39.90500

