158

Mg 25.23800 1.76100 29.72100
C  27.41700 1.44700 32.55000
C  22.57800 1.96500 31.78200
C  23.43300 1.88800 26.98200
C  28.13400 1.07100 27.64400
N  25.07100 1.83900 31.97600
C  26.08400 1.68500 32.90300
C  25.53700 1.85800 34.36900
C  23.93500 1.86800 34.02200
C  23.79400 1.87800 32.50600
C  23.03900 0.98400 34.95300
C  25.97800 3.19000 35.17100
C  26.04200 2.93500 36.68600
H  25.55600 4.02000 37.63400
N  23.26000 1.96600 29.39800
C  22.32100 2.05000 30.35500
C  21.08300 2.15400 29.79800
C  21.26400 2.05900 28.39400
C  22.73700 1.97300 28.18300
C  19.76200 2.33200 30.67700
C  20.20700 1.84700 27.30200
O  20.50200 1.56200 26.12900
C  18.75500 1.90200 27.72400
N  25.72600 1.38900 27.60700
C  24.74300 1.66200 26.73200
C  25.31500 1.63500 25.26400
C  26.81700 1.47400 25.46600
C  26.90400 1.32200 27.00100
C  24.77400 0.67900 24.15300
C  27.60300 2.68500 24.80400
C  27.66000 4.04600 25.55200
N  27.35100 1.39300 29.96400
C  28.34900 1.09800 29.05900
C  29.55700 0.65800 29.78300
C  29.27700 0.95300 31.13500
C  27.87800 1.24900 31.21600
C  30.82600 0.22600 29.13600
C  29.84000 1.00800 32.47500
O  31.00000 0.97500 32.89500
C  28.60400 1.32000 33.42700
C  28.44800 0.32700 34.54500
O  28.29800 -0.86200 34.39400
O  28.57900 0.98700 35.70200
C  28.37400 0.18000 36.93400
H  21.74400 2.05900 32.48000
H  22.82300 1.90600 26.07500
H  29.05600 1.08900 27.05800
H  25.72800 0.99400 35.00500
H  23.65600 2.88500 34.30100
H  23.60500 0.50800 35.75300
H  22.55800 0.31300 34.24000
H  22.30400 1.68400 35.35000
H  25.17700 3.91900 35.04600
H  26.89600 3.53600 34.69500
H  27.03800 2.69700 37.06000
H  25.42800 2.04500 36.82700
H  19.76200 1.99600 31.71400
H  18.81800 1.96800 30.27100
H  19.55900 3.40200 30.65100
H  18.39200 2.81400 28.19700
H  18.60600 1.00100 28.32000
H  18.26400 1.67500 26.77700
H  25.10800 2.64200 24.90300
H  27.19200 0.56700 24.99000
H  23.74500 0.90400 23.87500
H  24.84600 -0.38700 24.36800
H  25.39600 0.84300 23.27300
H  27.08600 2.87300 23.86300
H  28.61000 2.26900 24.76200
H  26.92500 3.79400 26.31700
H  27.23700 4.81000 24.90000
H  28.68900 4.27700 25.82700
H  31.38800 -0.39300 29.83400
H  31.42200 1.05700 28.75900
H  30.59600 -0.39700 28.27100
H  28.90600 2.26200 33.88400
H  29.15600 -0.57500 37.00600
H  27.34800 -0.14700 37.10600
H  28.48700 0.80400 37.82000
Mg 40.89100 9.34400 29.74600
C  42.59300 10.58700 32.74200
C  38.63200 8.06800 31.83200
C  39.32300 8.43200 27.12000
C  43.73400 10.06900 27.91600
N  40.61900 9.45700 32.16200
C  41.40300 9.97900 33.11700
C  40.79400 9.87700 34.46100
C  39.71000 8.77700 34.18300
C  39.64800 8.74600 32.60800
C  39.85700 7.44100 34.98400
C  40.28900 11.25200 35.04500
C  40.05300 11.23900 36.57800
H  40.67600 12.28400 37.55800
N  39.22300 8.46000 29.47400
C  38.36400 8.07300 30.46800
C  37.19000 7.38200 29.89600
C  37.41700 7.52900 28.46300
C  38.68400 8.13800 28.30400
C  35.99900 6.83300 30.66500
C  36.49500 7.03800 27.34300
O  36.79200 7.02800 26.17600
C  35.08900 6.65100 27.65500
N  41.44200 9.30300 27.75100
C  40.55900 9.01400 26.82900
C  41.21000 8.94800 25.40400
C  42.64100 9.47300 25.71000
C  42.66200 9.60000 27.18000
C  41.10500 7.70400 24.52200
C  43.06700 10.76300 24.96100
C  42.35800 12.05100 25.32600
N  42.78500 10.15400 30.13800
C  43.72100 10.57500 29.26400
C  44.67600 11.35500 29.92000
C  44.28500 11.40000 31.27600
C  43.09000 10.61400 31.37400
C  45.84800 11.92000 29.32000
C  44.71900 11.85800 32.59900
O  45.64700 12.51000 33.07300
C  43.60200 11.44800 33.52700
C  44.07800 10.69100 34.77400
O  44.49600 9.54600 34.65100
O  44.16800 11.38700 35.88100
C  44.56100 10.80500 37.14700
H  37.91600 7.45400 32.38200
H  38.75800 8.08300 26.25400
H  44.65000 10.26900 27.35600
H  41.48700 9.45700 35.19000
H  38.75900 9.23400 34.45600
H  39.94400 6.58400 34.31600
H  38.95100 7.46000 35.58900
H  40.77100 7.68600 35.52500
H  39.43700 11.58400 34.45100
H  41.01000 12.04800 34.86300
H  40.42600 10.32100 37.03100
H  38.99300 11.16800 36.82000
H  36.07400 7.15600 31.70300
H  35.88800 5.75100 30.58700
H  35.03900 7.19500 30.29800
H  34.36700 7.46000 27.76700
H  35.05700 5.86900 28.41400
H  34.83500 6.14400 26.72400
H  40.82100 9.78500 24.82500
H  43.45400 8.77000 25.52500
H  40.54700 6.88100 24.96800
H  42.08700 7.26900 24.33700
H  40.62500 7.97900 23.58300
H  42.96100 10.65200 23.88100
H  44.12800 10.81400 25.20100
H  43.18900 12.72700 25.52300
H  41.79500 11.92600 26.25100
H  41.74300 12.44700 24.51800
H  45.91300 11.94200 28.23300
H  46.73400 11.40400 29.69100
H  45.94200 12.97600 29.57500
H  43.20400 12.43800 33.75100
H  44.19500 11.57700 37.82500
H  45.63400 10.68900 37.30100
H  43.93600 9.91500 37.21500

