158

Mg 47.02700 25.08100 28.32000
C  47.98700 27.38000 30.81000
C  46.53500 22.73300 30.64100
C  46.57200 22.87800 25.75000
C  48.35600 27.35400 25.88000
N  47.37000 25.03500 30.55400
C  47.46700 26.20000 31.26700
C  47.16500 25.80000 32.72400
C  46.80600 24.22800 32.68300
C  46.95000 23.97400 31.19700
C  47.69700 23.25800 33.50200
C  45.98700 26.74400 33.36300
C  45.20100 26.40300 34.58000
H  45.37300 27.32600 35.82900
N  46.52200 23.04900 28.27000
C  46.33700 22.26000 29.34700
C  45.97300 20.96100 28.94900
C  45.96900 21.04100 27.51600
C  46.35100 22.35100 27.06700
C  45.64600 19.86100 29.90100
C  45.68000 19.98700 26.49100
O  45.79700 20.12300 25.27600
C  45.31900 18.68400 27.06000
N  47.53600 25.13300 26.16200
C  47.09300 24.11400 25.37300
C  47.03900 24.54000 23.86500
C  47.28300 26.12500 23.88200
C  47.76700 26.23000 25.39500
C  48.16900 23.79000 23.12800
C  45.95600 26.99300 23.63200
C  46.19600 28.32200 22.78800
N  48.02600 26.93200 28.31500
C  48.51500 27.67500 27.23600
C  49.06400 28.88900 27.81300
C  48.85900 28.84200 29.16800
C  48.14800 27.63800 29.43000
C  49.61900 30.02500 27.14400
C  49.07200 29.59200 30.35900
O  49.67400 30.63000 30.58700
C  48.43500 28.65000 31.54100
C  49.40500 28.51100 32.63300
O  50.25200 27.66600 32.82400
O  49.00500 29.41600 33.55400
C  49.47100 29.29600 34.87500
H  46.32900 22.05300 31.46900
H  46.24500 22.21900 24.94200
H  48.73400 28.09900 25.17700
H  48.12300 25.91000 33.23200
H  45.76600 24.05600 32.95900
H  48.52300 22.88800 32.89400
H  47.05600 22.45500 33.86500
H  48.18100 23.90200 34.23700
H  45.23500 26.87600 32.58500
H  46.62400 27.58700 33.62800
H  45.63100 25.42800 34.81100
H  44.13700 26.26800 34.38800
H  46.52300 19.21500 29.87100
H  44.68600 19.45400 29.58200
H  45.38400 20.12100 30.92700
H  45.04600 17.89500 26.36000
H  44.42800 18.92300 27.64100
H  46.09300 18.25400 27.69600
H  46.04300 24.32200 23.48000
H  48.06500 26.49500 23.21900
H  47.77200 22.78000 23.02200
H  49.06800 23.91300 23.73100
H  48.24800 24.26300 22.14900
H  45.58300 27.32700 24.60000
H  45.17000 26.33600 23.26100
H  45.94000 28.07600 21.75700
H  47.23100 28.65200 22.69800
H  45.61700 29.13000 23.23600
H  49.52900 30.02600 26.05800
H  50.70100 29.91400 27.21800
H  49.26700 30.95300 27.59500
H  47.49100 29.06900 31.89000
H  48.80000 28.75500 35.54300
H  49.49600 30.31000 35.27400
H  50.39700 28.74400 35.03800
Mg 48.57500 45.42400 43.43100
C  45.28500 45.83500 42.23400
C  48.40700 42.21900 42.08300
C  51.94000 45.22400 43.82800
C  48.64400 48.70500 44.58400
N  47.07700 44.25900 42.16000
C  45.75600 44.61600 41.87200
C  45.00400 43.56400 41.03300
C  45.90500 42.31200 41.35400
C  47.24600 42.94200 41.93000
C  45.16000 41.38200 42.34600
C  44.86200 43.93900 39.51300
C  43.60100 43.48800 38.73000
H  43.80700 42.40800 37.74500
N  50.00600 43.95200 42.90900
C  49.69700 42.67700 42.44200
C  50.98300 41.94200 42.33300
C  51.99100 42.82200 42.82400
C  51.32500 44.02100 43.24800
C  51.00700 40.41300 41.87400
C  53.44500 42.45200 42.87600
O  53.85700 41.41100 42.36300
C  54.47300 43.35300 43.44500
N  50.04500 46.68100 44.30700
C  51.34600 46.43800 44.22100
C  52.19800 47.60200 44.76000
C  51.09700 48.67200 45.01500
C  49.87600 47.94200 44.71700
C  53.06400 47.29800 46.07400
C  51.21800 50.02400 44.15300
C  50.69100 51.27600 44.85100
N  47.14300 46.98000 43.60100
C  47.35200 48.24800 44.12300
C  46.19900 49.00300 43.88900
C  45.32400 48.06100 43.19200
C  45.97700 46.85000 43.00300
C  45.96300 50.40300 44.34700
C  44.02300 47.94600 42.60500
O  43.08300 48.74400 42.56700
C  43.85000 46.56400 41.80300
C  42.67200 45.79600 42.13900
O  41.84700 45.42700 41.27400
O  42.57600 45.53500 43.45000
C  41.36000 44.87800 43.92100
H  48.28000 41.16200 41.83600
H  53.02500 45.34000 43.80300
H  48.54100 49.74800 44.88900
H  43.96600 43.55800 41.36600
H  46.13100 41.80100 40.41700
H  45.23000 40.40500 41.86700
H  44.17400 41.81100 42.52400
H  45.59800 41.39800 43.34400
H  45.72700 43.51900 38.99900
H  45.06800 45.00400 39.41000
H  43.20200 44.39400 38.27400
H  42.86600 43.04300 39.40100
H  51.79500 40.14800 41.16900
H  50.09600 40.06900 41.38400
H  51.04400 39.83700 42.79900
H  54.05300 43.78300 44.35400
H  54.75500 44.17400 42.78600
H  55.30200 42.64800 43.51900
H  53.03300 47.82200 44.09500
H  50.99200 48.83900 46.08700
H  53.80700 48.06500 46.29400
H  53.59800 46.35800 45.93100
H  52.46800 47.10300 46.96500
H  50.72700 49.74400 43.22100
H  52.26300 50.13600 43.86400
H  51.38700 52.11200 44.78500
H  50.44300 50.94100 45.85800
H  49.73900 51.51900 44.37900
H  44.89900 50.61100 44.46200
H  46.43800 51.06600 43.62400
H  46.38300 50.54000 45.34400
H  44.00500 46.70500 40.73400
H  41.39600 43.79000 43.86000
H  40.52200 45.23400 43.32200
H  41.15500 45.05100 44.97800

