158

Mg 16.86000 -2.49500 28.22500
C  16.04900 -0.29800 30.96200
C  18.71700 -4.21100 30.44500
C  18.04600 -4.05900 25.62600
C  15.17100 -0.30800 26.22100
N  17.16400 -2.34000 30.47900
C  16.84600 -1.34500 31.34100
C  17.21200 -1.66000 32.76300
C  18.11700 -2.92300 32.64500
C  17.99500 -3.21200 31.13800
C  19.54300 -2.87900 33.28500
C  15.91900 -1.83600 33.65100
C  15.95800 -1.22800 35.09300
H  17.35700 -0.77500 35.61500
N  18.15900 -4.05100 28.06200
C  18.80900 -4.64300 29.10100
C  19.56200 -5.70700 28.52400
C  19.31100 -5.70600 27.14900
C  18.47200 -4.58400 26.88900
C  20.33000 -6.79100 29.36400
C  19.78400 -6.67900 26.05000
O  19.43200 -6.59300 24.86800
C  20.83700 -7.73800 26.49200
N  16.61000 -2.30500 26.23700
C  17.28600 -2.99400 25.32700
C  17.13500 -2.47500 23.90600
C  16.04900 -1.30300 24.07100
C  15.84100 -1.34300 25.63200
C  18.42800 -2.10800 23.11100
C  14.66800 -1.51300 23.28800
C  13.57000 -2.33700 24.03100
N  15.73800 -0.80800 28.49300
C  15.05300 -0.03200 27.57100
C  14.35500 1.07100 28.18500
C  14.76900 1.03200 29.49600
C  15.58100 -0.12800 29.62800
C  13.47200 2.03100 27.47800
C  14.59300 1.69400 30.70200
O  13.97200 2.71300 30.99000
C  15.39900 0.87100 31.70700
C  16.50300 1.73300 32.30500
O  17.55100 2.01100 31.77800
O  16.02700 2.39200 33.45000
C  16.75600 3.41800 34.15500
H  19.40400 -4.74300 31.10700
H  18.47100 -4.60900 24.78400
H  14.72000 0.41500 25.53900
H  17.78300 -0.80500 33.12600
H  17.66200 -3.77400 33.15100
H  20.28100 -3.34100 32.62900
H  19.49400 -3.56500 34.13000
H  19.84600 -1.88400 33.61100
H  15.77000 -2.90800 33.77900
H  15.03300 -1.48300 33.12300
H  15.73200 -2.01900 35.80800
H  15.23500 -0.41400 35.15700
H  21.38200 -6.52300 29.45700
H  19.97200 -7.74800 28.98600
H  19.87800 -6.84700 30.35500
H  20.37000 -8.56400 27.02800
H  21.57000 -7.27700 27.15300
H  21.25800 -8.14400 25.57200
H  16.70300 -3.23500 23.25500
H  16.47100 -0.31100 23.91100
H  18.36200 -1.09800 22.70700
H  18.79200 -2.83800 22.38700
H  19.21200 -1.99600 23.86000
H  14.77400 -2.11200 22.38400
H  14.28500 -0.52400 23.04000
H  12.95500 -1.61600 24.57000
H  14.09500 -2.99600 24.72200
H  12.97400 -2.81400 23.25300
H  13.03000 1.45800 26.66300
H  14.02000 2.78300 26.91100
H  12.75000 2.55300 28.10600
H  14.71400 0.69900 32.53700
H  17.00300 4.24500 33.49000
H  17.51700 2.95300 34.78200
H  16.12100 3.90600 34.89400
Mg 25.92300 -0.15400 29.37800
C  27.69900 -0.15400 32.29700
C  23.05600 0.17300 31.19900
C  24.29300 -0.55000 26.44900
C  28.86400 -0.63700 27.56100
N  25.45600 0.15100 31.48500
C  26.37400 0.06700 32.53500
C  25.67500 0.25800 33.90500
C  24.15600 0.24000 33.57200
C  24.19300 0.20100 31.99200
C  23.37100 -0.92800 34.27600
C  26.24400 1.58600 34.54400
C  26.94700 1.50500 35.97700
H  26.69300 2.50900 37.12800
N  23.95200 -0.19200 28.92700
C  22.89900 -0.04500 29.77900
C  21.67300 -0.04000 29.00200
C  22.02000 -0.12300 27.60800
C  23.52100 -0.29800 27.63900
C  20.26500 0.07800 29.62900
C  21.04700 -0.16300 26.43600
O  21.41000 -0.37400 25.29000
C  19.59000 0.08100 26.69100
N  26.45900 -0.51800 27.20200
C  25.59200 -0.59000 26.21300
C  26.22200 -0.67700 24.78100
C  27.73300 -0.74300 25.18200
C  27.70300 -0.65700 26.74600
C  25.69200 -1.85900 23.89600
C  28.72900 0.26000 24.52200
C  28.40300 1.71400 24.71900
N  27.83400 -0.51500 29.84100
C  28.99600 -0.66000 28.99600
C  30.22200 -0.66500 29.79300
C  29.74300 -0.47400 31.09700
C  28.30400 -0.39100 31.06900
C  31.67100 -0.85000 29.22000
C  30.15200 -0.35600 32.48000
O  31.29000 -0.31400 32.94400
C  28.88100 -0.07200 33.26100
C  28.82500 -1.18600 34.25000
O  28.33200 -2.30100 34.03000
O  29.38400 -0.79400 35.44100
C  29.44800 -1.80300 36.48700
H  22.12100 0.36800 31.72900
H  23.64100 -0.84700 25.62500
H  29.79900 -0.74200 27.00700
H  26.00600 -0.62000 34.45900
H  23.69900 1.17800 33.88700
H  22.98100 -1.70800 33.62200
H  22.47700 -0.48100 34.71100
H  23.94000 -1.44400 35.04900
H  25.44000 2.31100 34.67500
H  26.97300 2.02900 33.86600
H  27.96500 1.72500 35.65800
H  26.92700 0.44400 36.22600
H  19.74800 -0.83600 29.33800
H  19.79100 1.04000 29.43100
H  20.29200 -0.08900 30.70600
H  19.06700 0.34800 25.77200
H  19.47600 1.02400 27.22600
H  19.09500 -0.68100 27.29300
H  26.10400 0.22000 24.17300
H  28.06300 -1.75500 24.94500
H  26.54200 -2.49500 23.64700
H  25.19500 -1.59300 22.96300
H  24.98100 -2.37800 24.53800
H  28.64000 0.06000 23.45400
H  29.75900 0.07400 24.82600
H  27.34100 1.93500 24.61600
H  29.05600 2.23400 24.01800
H  28.78700 2.15500 25.63900
H  32.38000 -0.34400 29.87500
H  31.77400 -0.39500 28.23500
H  31.91600 -1.90500 29.10700
H  29.02700 0.88100 33.77200
H  28.96900 -1.43400 37.39300
H  30.50200 -1.93900 36.73200
H  29.00300 -2.76900 36.24900

