158

Mg 46.34300 17.34300 28.70400
C  44.48700 16.76200 31.54700
C  48.57800 19.19400 30.59300
C  47.74500 18.59400 25.87800
C  43.81900 15.92100 26.85900
N  46.51100 17.86800 30.91000
C  45.65300 17.52800 31.84900
C  46.12300 17.95200 33.22700
C  47.36600 18.80600 32.93900
C  47.49600 18.64600 31.36900
C  47.28400 20.27000 33.38300
C  46.43600 16.62700 34.08900
C  46.71400 16.90900 35.54600
H  46.50600 18.35100 36.09400
N  48.05700 18.70200 28.30100
C  48.84300 19.33300 29.23100
C  49.88800 20.00700 28.54800
C  49.65100 19.83200 27.13400
C  48.44900 19.08900 27.01500
C  50.87500 20.79100 29.24800
C  50.37900 20.50500 25.93700
O  50.05000 20.28000 24.78400
C  51.65300 21.41600 26.27800
N  45.85800 17.35500 26.75000
C  46.56300 17.89800 25.73900
C  45.94500 17.67200 24.32500
C  45.09700 16.43400 24.74000
C  44.85400 16.57500 26.20800
C  45.38300 19.05800 23.64000
C  45.61700 15.00900 24.23100
C  46.28700 14.19600 25.32400
N  44.53300 16.49000 29.08500
C  43.63700 15.85800 28.23400
C  42.62400 15.22700 28.99300
C  42.88500 15.60000 30.35500
C  44.06300 16.31100 30.32700
C  41.53500 14.51100 28.43600
C  42.46700 15.51400 31.74700
O  41.51000 14.89800 32.18300
C  43.45200 16.35100 32.56300
C  42.76400 17.51000 33.16900
O  42.23000 18.40900 32.57900
O  42.70100 17.31800 34.54700
C  41.87700 18.27300 35.23600
H  49.21400 19.83200 31.21000
H  48.17500 18.86800 24.91200
H  43.11400 15.39800 26.20900
H  45.27300 18.57300 33.51100
H  48.27300 18.36100 33.34800
H  47.33500 20.96600 32.54600
H  48.19300 20.41100 33.96900
H  46.35900 20.56900 33.87600
H  47.29900 16.15400 33.62200
H  45.58500 15.94600 34.05700
H  47.74400 16.71200 35.84300
H  46.10000 16.21900 36.12300
H  51.87200 20.40000 29.04500
H  50.74400 20.78100 30.33000
H  50.76900 21.84400 28.98800
H  52.21600 20.84900 27.02100
H  51.33800 22.37400 26.69200
H  52.12000 21.58900 25.30800
H  46.80300 17.27000 23.78600
H  44.21700 16.64300 24.13200
H  44.32200 18.96300 23.40600
H  45.92800 19.24400 22.71500
H  45.51000 19.84900 24.37900
H  46.40200 15.20000 23.49900
H  44.82600 14.46800 23.71200
H  45.73300 13.26000 25.40400
H  46.40600 14.52200 26.35700
H  47.32700 14.07700 25.02200
H  40.81700 15.07100 27.83700
H  41.06000 13.90700 29.20900
H  42.01100 13.86100 27.70200
H  43.87200 15.65400 33.28800
H  40.85800 18.01000 34.95400
H  42.09700 19.27400 34.86300
H  42.15200 18.26500 36.29000
Mg 46.58600 25.27700 28.71500
C  47.88200 27.67800 31.05000
C  45.57800 23.31800 31.31000
C  45.30400 23.12800 26.43300
C  47.88400 27.17700 26.18900
N  46.79500 25.54300 30.95100
C  47.19600 26.58400 31.66000
C  46.81100 26.37300 33.15300
C  46.38500 24.88600 33.11400
C  46.25400 24.53000 31.63800
C  47.31800 24.02300 34.04600
C  45.70700 27.33300 33.65500
C  46.14200 28.33700 34.75800
H  45.24400 28.29000 36.04700
N  45.67500 23.42700 28.88600
C  45.23400 22.84200 30.05900
C  44.47300 21.62000 29.71600
C  44.36600 21.54900 28.31500
C  45.15100 22.73200 27.82300
C  43.85300 20.67700 30.77000
C  43.58200 20.64500 27.40200
O  43.59600 20.74600 26.22400
C  42.68700 19.46200 27.88900
N  46.81600 25.09800 26.62800
C  46.01400 24.22300 25.92500
C  46.04800 24.44600 24.40400
C  46.71400 25.83800 24.41200
C  47.18000 26.06100 25.79700
C  47.02600 23.44800 23.63500
C  45.75200 26.97800 24.08500
C  46.23200 28.12900 23.23000
N  47.73500 27.04000 28.60800
C  48.15100 27.74900 27.49300
C  48.68500 29.03600 27.88200
C  48.59600 29.00000 29.28300
C  48.05800 27.81900 29.65300
C  49.11400 30.02800 26.98400
C  48.91500 29.77700 30.49400
O  49.50100 30.84900 30.61900
C  48.44600 28.91300 31.64100
C  49.53300 28.54700 32.56400
O  50.55000 27.93000 32.29400
O  49.23900 28.79900 33.84900
C  50.04500 28.26600 34.95300
H  45.23800 22.77000 32.19100
H  44.84200 22.57900 25.61000
H  48.20700 27.77000 25.33100
H  47.58100 26.73000 33.83600
H  45.40300 24.76800 33.57000
H  46.65900 23.36400 34.61100
H  47.89000 24.59400 34.77700
H  47.92900 23.44500 33.35300
H  44.80900 26.82900 34.01400
H  45.42200 27.82300 32.72300
H  46.19300 29.32700 34.30500
H  47.13100 28.15100 35.17500
H  44.00200 21.01000 31.79700
H  44.41000 19.76100 30.57500
H  42.78000 20.62300 30.58500
H  41.91700 19.71700 28.61700
H  43.30100 18.62800 28.22900
H  42.08700 19.07400 27.06600
H  45.08800 24.31400 23.90500
H  47.58200 26.01500 23.77700
H  47.34900 22.66200 24.31800
H  47.90200 23.94900 23.22400
H  46.45400 23.01800 22.81300
H  45.46100 27.43400 25.03100
H  44.89700 26.46700 23.64200
H  46.11800 29.09700 23.71800
H  45.76000 28.18600 22.24900
H  47.28300 28.08400 22.94600
H  48.83700 31.00000 27.39000
H  48.46200 29.98400 26.11200
H  50.14700 30.03200 26.63600
H  47.63600 29.47100 32.11000
H  50.73600 27.47600 34.66100
H  49.42300 27.90000 35.77000
H  50.49700 29.17500 35.34900

