158

Mg 47.96300 16.02800 27.84100
C  46.18000 15.73500 30.88700
C  50.42000 17.71500 29.58400
C  49.57200 16.39500 24.97800
C  45.21900 14.57500 26.19400
N  48.23400 16.68000 30.05700
C  47.42600 16.37200 31.10000
C  48.01300 16.87700 32.41800
C  49.06400 17.85000 31.84600
C  49.27800 17.40600 30.41600
C  48.65500 19.33500 31.89200
C  48.63200 15.70500 33.16100
C  48.75900 16.01400 34.72000
H  49.01700 17.41900 35.16000
N  49.77200 16.86800 27.35000
C  50.68900 17.46300 28.21400
C  51.91800 17.76400 27.48700
C  51.76700 17.25200 26.17900
C  50.32200 16.79100 26.07500
C  53.25500 18.20000 28.15800
C  52.76600 17.19500 24.99400
O  52.41300 16.64100 23.94700
C  54.14500 17.73500 25.11900
N  47.41400 15.53300 25.86600
C  48.27200 15.92600 24.88000
C  47.61000 15.80700 23.50800
C  46.21800 15.19000 23.91000
C  46.31700 14.96900 25.39300
C  47.52400 17.06000 22.61700
C  45.86600 13.96100 23.12700
C  46.44300 12.55900 23.58600
N  46.05900 15.31000 28.33500
C  45.08600 14.69600 27.58500
C  44.00600 14.29100 28.45400
C  44.32100 14.70000 29.80700
C  45.60600 15.29100 29.65000
C  42.81400 13.49200 28.04300
C  43.97900 14.68300 31.15200
O  42.97400 14.28200 31.70200
C  45.13500 15.35900 31.94700
C  44.60100 16.49200 32.70600
O  44.23000 17.52800 32.21400
O  44.38700 16.15900 34.03900
C  43.80900 17.18500 34.93600
H  51.31800 18.10800 30.06400
H  50.07800 16.42800 24.01100
H  44.36700 14.19300 25.62800
H  47.35500 17.48000 33.04500
H  50.01600 17.74000 32.36600
H  47.57900 19.40800 32.05300
H  48.91700 19.97500 31.04900
H  49.07700 19.80500 32.78000
H  49.62200 15.47200 32.77000
H  47.96900 14.84400 33.07000
H  49.63800 15.42600 34.98300
H  47.84700 15.67800 35.21300
H  54.07200 17.71400 27.62500
H  53.23400 17.96800 29.22300
H  53.44300 19.25600 27.96300
H  54.80500 17.06000 25.66400
H  53.96200 18.75800 25.44900
H  54.46900 17.91000 24.09400
H  48.24100 15.09100 22.98000
H  45.45400 15.96500 23.84400
H  48.29100 17.69900 23.05400
H  46.58100 17.60600 22.65600
H  47.73500 16.75900 21.59100
H  46.26900 14.12900 22.12800
H  44.79100 13.78300 23.09100
H  46.76900 12.10300 22.65100
H  45.64900 11.94700 24.01400
H  47.28700 12.67200 24.26600
H  42.38900 12.92800 28.87400
H  43.10100 12.72800 27.32100
H  42.12100 14.13200 27.49700
H  45.56800 14.68000 32.68200
H  42.97900 17.55800 34.33600
H  44.61500 17.90600 35.07500
H  43.46000 16.82500 35.90300
Mg -5.83400 24.71500 26.32000
C  -4.89900 26.44000 29.23000
C  -7.66400 22.64400 28.30900
C  -6.53800 22.78300 23.59900
C  -3.49300 26.49400 24.43900
N  -6.17900 24.54900 28.49100
C  -5.67400 25.37800 29.47400
C  -6.37200 25.13200 30.82800
C  -7.13200 23.81200 30.52500
C  -6.99600 23.63500 29.03000
C  -6.60600 22.54700 31.31600
C  -7.26200 26.36000 31.27200
C  -7.04500 26.69800 32.83000
H  -6.55100 25.66800 33.80900
N  -7.09000 23.12100 25.98800
C  -7.79300 22.38400 26.96800
C  -8.67500 21.36900 26.34400
C  -8.25600 21.39700 24.92800
C  -7.27200 22.46100 24.74900
C  -9.53800 20.55300 27.14000
C  -8.68200 20.45600 23.83800
O  -8.22900 20.40300 22.72200
C  -9.74400 19.47900 24.12700
N  -5.05700 24.64400 24.32500
C  -5.50700 23.67000 23.43800
C  -4.71200 23.76900 22.10500
C  -3.99500 25.16900 22.27100
C  -4.15600 25.47400 23.73100
C  -3.93700 22.53900 21.84000
C  -4.62800 26.38500 21.39900
C  -3.65100 27.02900 20.40300
N  -4.46700 26.11100 26.73000
C  -3.63200 26.87900 25.81100
C  -3.00700 27.97000 26.49000
C  -3.51700 27.82500 27.79800
C  -4.36800 26.68400 27.94000
C  -2.08000 29.05800 25.90000
C  -3.45300 28.39900 29.13200
O  -2.93200 29.40300 29.50600
C  -4.33200 27.53800 30.10900
C  -3.35900 26.88500 31.07700
O  -2.48000 26.01400 30.85000
O  -3.65000 27.49400 32.32300
C  -2.75300 27.20600 33.42400
H  -8.26300 22.01600 28.97200
H  -6.81500 22.31200 22.65300
H  -2.94100 27.13000 23.74400
H  -5.48900 25.09000 31.46600
H  -8.17900 23.99700 30.76200
H  -6.55400 21.68900 30.64600
H  -7.24300 22.45200 32.19500
H  -5.57900 22.76400 31.61100
H  -8.29700 26.06100 31.10400
H  -7.00200 27.21500 30.64800
H  -7.95600 27.17800 33.18700
H  -6.34700 27.53100 32.91900
H  -10.57800 20.64600 26.82600
H  -9.58800 20.90200 28.17200
H  -9.40700 19.47200 27.07500
H  -10.00500 19.08800 23.14400
H  -10.52600 20.04700 24.63100
H  -9.49900 18.71700 24.86700
H  -5.34800 23.95600 21.24000
H  -2.94700 25.14900 21.97100
H  -2.85800 22.65900 21.93500
H  -4.17400 22.25900 20.81400
H  -4.09600 21.73400 22.55900
H  -4.84900 27.25100 22.02200
H  -5.53800 26.06000 20.89500
H  -4.23000 27.33200 19.53000
H  -2.83800 26.35000 20.14600
H  -3.17500 27.92800 20.79500
H  -2.51800 29.58300 25.05200
H  -1.10200 28.64400 25.65400
H  -1.78900 29.78300 26.66000
H  -5.07500 28.13400 30.63900
H  -3.27400 26.70300 34.23800
H  -2.38900 28.15300 33.82200
H  -1.89500 26.58100 33.17600

