158

Mg 24.52200 -8.08600 47.95600
C  26.89800 -5.71000 46.95600
C  22.33300 -6.61900 45.63600
C  22.48900 -10.77900 48.09600
C  26.95100 -9.77200 49.81500
N  24.61800 -6.19000 46.61200
C  25.67700 -5.37300 46.29500
C  25.46400 -4.45500 45.09200
C  23.92200 -4.68600 44.86000
C  23.51600 -5.88000 45.80400
C  22.92700 -3.53800 45.01500
C  26.36700 -4.89400 43.85300
C  26.83900 -3.70100 42.90500
H  26.19800 -3.59700 41.51400
N  22.64000 -8.64900 46.97200
C  21.88800 -7.87000 46.10100
C  20.70900 -8.61900 45.77700
C  20.71900 -9.80800 46.49200
C  22.00700 -9.76900 47.20600
C  19.60600 -8.09400 44.79100
C  19.65300 -10.92000 46.53500
O  18.60000 -10.74200 46.01000
C  19.83200 -12.14900 47.29800
N  24.65300 -9.96100 48.91600
C  23.62800 -10.87000 48.87500
C  23.93500 -12.09000 49.75900
C  25.28200 -11.71500 50.49900
C  25.65400 -10.44200 49.71500
C  22.76900 -12.34500 50.77400
C  26.35800 -12.89700 50.41700
C  27.48100 -12.85500 51.50100
N  26.46900 -7.81400 48.42500
C  27.33600 -8.54000 49.16200
C  28.68200 -7.97900 49.17400
C  28.48900 -6.82200 48.40000
C  27.15200 -6.78900 47.90300
C  29.96200 -8.48300 49.82400
C  29.14600 -5.63100 47.87500
O  30.28700 -5.24200 48.03600
C  28.20800 -4.94600 46.85100
C  28.06000 -3.47600 47.16800
O  27.56800 -2.90500 48.17100
O  28.72600 -2.77800 46.20000
C  28.54500 -1.28400 46.24800
H  21.70100 -6.22200 44.83900
H  21.92400 -11.67600 48.36000
H  27.70300 -10.26600 50.43400
H  25.67400 -3.44100 45.43200
H  23.82600 -5.05300 43.83800
H  22.56500 -3.29700 44.01500
H  23.51300 -2.66100 45.29200
H  22.10400 -3.73500 45.70100
H  25.76800 -5.62200 43.30600
H  27.08300 -5.55800 44.33700
H  27.88100 -3.94700 42.69800
H  26.94000 -2.79100 43.49600
H  19.88100 -7.27100 44.13100
H  18.75800 -7.70000 45.35000
H  19.16100 -8.97300 44.32400
H  20.70800 -12.70100 46.95800
H  19.01800 -12.87100 47.23500
H  19.83900 -11.95300 48.37000
H  23.93600 -12.84700 48.97500
H  25.22800 -11.40200 51.54100
H  22.56200 -13.41300 50.83000
H  21.85900 -11.77800 50.57700
H  23.22800 -12.13800 51.74100
H  26.87600 -12.75600 49.46800
H  25.87400 -13.87400 50.41800
H  27.28100 -12.16100 52.31800
H  28.44300 -12.67300 51.02300
H  27.42700 -13.88300 51.85900
H  29.81500 -8.87600 50.83000
H  30.69700 -7.68100 49.89700
H  30.29900 -9.33600 49.23500
H  28.66900 -5.08600 45.87400
H  29.17300 -0.79600 46.99300
H  27.51500 -0.96700 46.41000
H  28.84300 -0.95700 45.25200
Mg -5.37700 24.88400 26.27200
C  -3.80700 26.64500 28.96700
C  -6.48900 22.57600 28.61500
C  -6.51700 23.07800 23.70800
C  -3.97400 27.13200 24.08300
N  -5.20800 24.70300 28.51600
C  -4.59000 25.54900 29.38300
C  -4.84200 25.24300 30.82700
C  -5.72100 23.91200 30.72400
C  -5.88800 23.73700 29.20700
C  -5.02000 22.72200 31.42400
C  -5.72400 26.35200 31.55700
C  -6.03400 26.32000 33.05700
H  -5.62100 25.05400 33.85500
N  -6.27100 23.12900 26.19000
C  -6.70700 22.36700 27.25300
C  -7.44200 21.18500 26.69800
C  -7.41400 21.23500 25.24800
C  -6.70800 22.50600 25.00000
C  -8.12500 20.13000 27.55900
C  -8.04100 20.28300 24.23600
O  -7.85000 20.41400 23.03400
C  -8.87000 19.09000 24.71600
N  -5.02600 24.94800 24.22600
C  -5.71000 24.17900 23.40800
C  -5.81300 24.71300 21.90100
C  -4.88300 25.94300 22.01100
C  -4.63900 26.04400 23.48100
C  -5.37500 23.70500 20.82700
C  -5.34100 27.16700 21.28800
C  -4.58100 27.65700 20.06000
N  -4.10600 26.56500 26.46900
C  -3.51400 27.29200 25.45100
C  -2.62000 28.24100 26.00000
C  -2.74100 28.07300 27.38800
C  -3.63400 27.03700 27.64000
C  -1.81300 29.23800 25.15700
C  -2.29700 28.60700 28.69500
O  -1.55600 29.53600 28.96300
C  -2.93600 27.68700 29.75600
C  -1.84900 27.02400 30.41400
O  -0.95900 26.41800 29.87300
O  -1.93100 27.30100 31.77200
C  -1.06100 26.43200 32.59100
H  -6.74200 21.70900 29.23000
H  -7.06000 22.65600 22.86000
H  -3.76800 28.02300 23.48800
H  -3.85000 25.12700 31.26300
H  -6.73900 24.09500 31.06700
H  -4.76200 21.94500 30.70300
H  -5.74000 22.29200 32.12000
H  -4.08900 23.00100 31.91700
H  -6.64000 26.38100 30.96700
H  -5.07200 27.22200 31.48000
H  -7.10400 26.46800 33.19900
H  -5.55300 27.16400 33.55200
H  -9.16900 20.15700 27.24600
H  -8.17400 20.42200 28.60900
H  -7.70100 19.13500 27.43100
H  -8.42800 18.44100 25.47100
H  -8.95400 18.61500 23.73800
H  -9.86600 19.40200 25.03200
H  -6.84200 24.99600 21.68200
H  -3.89200 25.66700 21.65200
H  -6.17800 23.11700 20.38400
H  -4.55200 23.08100 21.17700
H  -5.00300 24.27700 19.97700
H  -5.37400 28.05200 21.92200
H  -6.39200 26.99900 21.05200
H  -5.23700 27.60600 19.19000
H  -3.70000 27.04300 19.87200
H  -4.21300 28.68200 20.10400
H  -0.84600 29.47500 25.60200
H  -2.46800 30.10000 25.03200
H  -1.78900 28.88000 24.12700
H  -3.57700 28.31300 30.37700
H  -1.49800 26.22900 33.56900
H  -0.17100 27.00600 32.84900
H  -1.02600 25.44700 32.12800

