158

Mg 36.01900 2.65000 30.07700
C  33.75800 3.49300 32.63900
C  38.38600 2.05400 32.52400
C  38.05900 1.86000 27.61000
C  33.31800 2.99500 27.83300
N  36.01500 2.70600 32.25700
C  35.06700 3.11600 33.11700
C  35.47400 3.14700 34.56800
C  36.99300 3.05400 34.37200
C  37.16900 2.50300 32.94800
C  37.69300 4.44500 34.54400
C  34.79000 1.97400 35.33100
C  34.26300 2.25000 36.71300
H  34.82600 3.47600 37.40700
N  37.96400 2.08000 30.05600
C  38.71700 1.75200 31.18800
C  39.99400 1.24700 30.73800
C  39.96000 1.18900 29.29100
C  38.65800 1.80400 28.90200
C  41.14500 0.82100 31.65500
C  40.95300 0.57200 28.31200
O  40.74200 0.49400 27.09800
C  42.27400 -0.01200 28.77100
N  35.78400 2.60700 28.03700
C  36.77900 2.16400 27.23900
C  36.37700 2.11400 25.82100
C  34.87800 2.40500 25.88900
C  34.63300 2.68000 27.36600
C  37.25800 2.95500 24.85500
C  33.95300 1.40100 25.17100
C  33.61700 0.11300 25.96000
N  33.92400 3.00600 30.15900
C  32.96200 3.20500 29.20900
C  31.70500 3.58800 29.75800
C  32.01700 3.72200 31.10900
C  33.34300 3.39600 31.28800
C  30.53500 4.08400 29.13300
C  31.41600 4.05600 32.33700
O  30.28900 4.34600 32.62300
C  32.48900 3.82900 33.42600
C  32.57100 5.13200 34.15700
O  32.93000 6.25900 33.83800
O  32.18000 4.92400 35.44200
C  31.89200 5.99100 36.38800
H  39.03000 1.78100 33.36200
H  38.67100 1.36900 26.85100
H  32.56400 3.12700 27.05500
H  35.10900 4.08600 34.98300
H  37.46500 2.47800 35.16800
H  38.56200 4.32600 35.19200
H  36.98800 5.17000 34.95000
H  37.91700 4.88700 33.57400
H  35.49200 1.14100 35.28700
H  33.94300 1.60700 34.75100
H  34.53900 1.42200 37.36500
H  33.18300 2.11400 36.76300
H  42.08400 1.28700 31.35800
H  41.17800 -0.26900 31.65100
H  40.88100 1.21600 32.63600
H  42.75900 -0.31900 27.84500
H  42.15300 -0.89400 29.40000
H  42.96500 0.72300 29.18600
H  36.46200 1.04000 25.65000
H  34.70800 3.34400 25.36200
H  38.33500 2.97200 25.02500
H  36.89100 3.97600 24.95500
H  37.21100 2.50700 23.86300
H  34.37300 1.14900 24.19700
H  33.05600 2.00800 25.05100
H  33.76600 -0.70200 25.25100
H  32.56700 0.09700 26.25000
H  34.34800 -0.06600 26.74800
H  30.44600 4.28500 28.06600
H  30.25900 4.95200 29.73200
H  29.84500 3.25100 29.26700
H  32.15900 3.04700 34.11100
H  30.89400 5.77000 36.76700
H  31.91800 7.03200 36.06600
H  32.52700 5.79500 37.25100
Mg 17.07000 50.94100 25.96500
C  18.93700 49.48700 28.55300
C  14.57300 51.77100 28.10600
C  15.21700 51.94300 23.26500
C  19.58000 49.81500 23.67400
N  16.82700 50.67100 28.13800
C  17.74400 50.17900 28.98000
C  17.34600 50.51100 30.39600
C  15.78400 50.96300 30.22700
C  15.67700 51.18700 28.72200
C  14.77600 50.01900 30.85400
C  18.28900 51.58700 30.99700
C  18.44700 51.66700 32.47600
H  17.45000 50.99400 33.33500
N  15.16400 51.80800 25.73600
C  14.33100 52.15500 26.72900
C  13.34000 53.02800 26.26100
C  13.52500 53.13100 24.83500
C  14.65200 52.30200 24.53300
C  12.32400 53.71300 27.17800
C  12.69600 53.93000 23.81300
O  12.99800 53.82700 22.64400
C  11.59500 54.96300 24.23300
N  17.32000 50.91400 23.85100
C  16.46300 51.44400 23.01500
C  16.95000 51.28600 21.57200
C  18.41900 50.78700 21.73700
C  18.46900 50.45200 23.15800
C  15.96500 50.43600 20.70400
C  19.54200 51.81400 21.23800
C  20.60000 51.23600 20.31000
N  18.85000 49.81900 26.01200
C  19.78800 49.51100 25.05700
C  20.87900 48.83200 25.62200
C  20.57600 48.80200 27.03900
C  19.33600 49.44200 27.20200
C  22.03600 48.34000 24.88500
C  21.09700 48.46200 28.33100
O  22.09300 47.85400 28.68200
C  20.12400 49.02600 29.34300
C  19.70900 48.00900 30.28300
O  19.43500 46.86300 29.96500
O  19.71600 48.49600 31.59100
C  19.28900 47.62700 32.66500
H  13.77600 52.09200 28.78000
H  14.83900 52.31600 22.31100
H  20.35300 49.57800 22.94000
H  17.40600 49.58500 30.96700
H  15.73400 51.96100 30.66200
H  14.07100 50.44900 31.56500
H  15.25300 49.14900 31.30700
H  14.15300 49.68600 30.02400
H  17.97700 52.58700 30.69700
H  19.28400 51.37400 30.60500
H  18.52200 52.70800 32.78900
H  19.43000 51.30200 32.77300
H  12.35000 53.17200 28.12300
H  11.29600 53.55000 26.85300
H  12.54600 54.74900 27.43400
H  12.05200 55.71600 24.87500
H  10.76600 54.45800 24.72900
H  11.22700 55.27600 23.25600
H  17.01100 52.29000 21.15200
H  18.48000 49.83200 21.21400
H  16.26300 49.47000 20.29700
H  15.52500 51.08500 19.94700
H  15.12800 50.05900 21.29100
H  20.06700 52.40200 21.99200
H  19.05500 52.54200 20.58900
H  21.39800 50.67000 20.79100
H  21.00300 51.98800 19.63300
H  20.09400 50.51900 19.66300
H  22.09400 47.27000 24.68900
H  22.84300 48.65000 25.54900
H  22.14200 48.90000 23.95600
H  20.63500 49.80000 29.91600
H  18.36600 47.05100 32.59900
H  19.21100 48.15100 33.61700
H  20.05400 46.85100 32.68100

