158

Mg 30.64300 59.17600 39.11800
C  27.61200 57.51700 37.95700
C  32.36700 56.61900 37.91300
C  33.23400 61.23700 39.27800
C  28.48000 62.15600 39.52200
N  30.03800 57.41800 37.96800
C  28.78800 56.91100 37.66000
C  28.87800 55.46500 37.09100
C  30.41900 55.11800 37.42900
C  30.94700 56.42800 37.89800
C  30.67600 53.98900 38.43700
C  28.70600 55.43000 35.56500
C  27.69100 54.38000 34.99600
H  26.78700 54.84400 33.81300
N  32.57400 58.90800 38.92200
C  33.15000 57.77500 38.35400
C  34.58200 57.94600 38.47800
C  34.80400 59.23600 39.03800
C  33.50600 59.87900 39.10500
C  35.63500 57.00800 38.06200
C  36.19100 59.75100 39.45900
O  37.20400 59.14900 39.23200
C  36.36600 61.08500 40.17200
N  30.81000 61.45600 39.37800
C  32.08100 62.04600 39.43700
C  31.98400 63.55200 39.57300
C  30.48300 63.71800 40.00800
C  29.83200 62.37300 39.60400
C  33.11900 64.24400 40.38800
C  29.88600 65.01400 39.45600
C  28.88400 65.80200 40.39200
N  28.45200 59.70000 38.96500
C  27.81700 60.87600 39.22500
C  26.43200 60.74300 38.89200
C  26.31000 59.36500 38.46100
C  27.55300 58.79400 38.45500
C  25.34700 61.81300 38.86100
C  25.28900 58.34200 37.99300
O  24.06200 58.35300 37.79500
C  26.11500 57.08600 37.71400
C  25.61100 56.11500 38.68900
O  25.98500 55.95000 39.90000
O  24.80400 55.23400 38.02300
C  24.33200 54.06100 38.83400
H  33.03100 55.79400 37.64600
H  34.06400 61.94600 39.28100
H  27.84600 63.04400 39.53000
H  28.24600 54.71000 37.55700
H  31.06700 54.92700 36.57400
H  30.94000 54.45500 39.38600
H  31.46700 53.28300 38.18500
H  29.78500 53.38700 38.61500
H  29.64300 55.32700 35.01800
H  28.30200 56.34800 35.13700
H  27.00900 54.13600 35.81000
H  28.17800 53.45400 34.69200
H  36.46100 56.76800 38.73100
H  36.11100 57.43800 37.18100
H  35.27600 56.04200 37.70800
H  37.26900 61.22500 40.76700
H  35.46400 61.19700 40.77300
H  36.30500 61.86900 39.41700
H  32.19000 63.76200 38.52300
H  30.35800 63.75000 41.09100
H  32.66800 64.87600 41.15300
H  33.81800 64.75600 39.72700
H  33.74200 63.54200 40.94200
H  29.35200 64.61800 38.59100
H  30.62900 65.64800 38.97200
H  29.04000 65.61400 41.45400
H  27.83500 65.92500 40.12500
H  29.31300 66.78800 40.21300
H  25.60900 62.71500 38.30900
H  25.11100 62.12700 39.87800
H  24.50200 61.40900 38.30200
H  25.88400 56.70700 36.71900
H  25.06200 53.70700 39.56100
H  24.11900 53.21700 38.17700
H  23.43100 54.23200 39.42300
Mg 8.68400 48.49400 27.87800
C  7.09900 47.68500 30.88100
C  11.62500 48.64400 29.70700
C  10.35500 49.66400 25.20300
C  5.73000 48.80300 26.36200
N  9.23500 48.22600 30.06500
C  8.45500 47.85300 31.13500
C  9.19100 47.88400 32.50800
C  10.67300 48.27200 32.01800
C  10.50700 48.40300 30.53500
C  11.25800 49.59600 32.66000
C  9.07000 46.68200 33.44100
C  8.74200 46.99000 34.90200
H  9.48300 46.03200 35.87700
N  10.72400 48.95600 27.44100
C  11.76000 48.83900 28.33900
C  12.96700 49.01200 27.64700
C  12.66600 49.31400 26.30100
C  11.19500 49.39500 26.25600
C  14.37700 48.85900 28.29000
C  13.56300 49.75700 25.09200
O  13.15800 50.14600 24.02600
C  15.06400 49.43900 25.18800
N  8.11700 49.11000 26.04200
C  9.00100 49.61800 25.07100
C  8.18800 50.15100 23.87400
C  6.72900 49.75400 24.24300
C  6.85300 49.08800 25.60400
C  8.39500 51.67400 23.60400
C  6.07400 48.78700 23.23100
C  6.73200 47.45800 22.75300
N  6.80000 48.05300 28.39900
C  5.65100 48.21300 27.66000
C  4.44900 47.89400 28.47400
C  5.00000 47.75000 29.72600
C  6.42600 47.83700 29.69100
C  2.97500 47.79300 27.98000
C  4.65300 47.38100 31.13800
O  3.55200 47.08100 31.54700
C  5.97700 47.27600 31.88300
C  6.05100 45.78200 32.24200
O  6.51800 44.95000 31.54100
O  5.39800 45.54000 33.46200
C  5.52000 44.16900 34.07200
H  12.57800 48.67200 30.23900
H  10.84700 50.07100 24.31700
H  4.78300 48.95100 25.83800
H  8.77700 48.75100 33.02400
H  11.32900 47.40200 32.03100
H  12.34200 49.51500 32.58300
H  10.91900 49.83200 33.66800
H  11.09800 50.41300 31.95600
H  10.03400 46.18100 33.52600
H  8.51300 45.92300 32.89100
H  7.68800 46.73700 35.01600
H  8.82800 48.05900 35.09600
H  14.82700 47.92300 27.96100
H  14.32900 48.94600 29.37500
H  14.99400 49.68100 27.92700
H  15.66500 50.18200 25.71200
H  15.42800 49.27800 24.17300
H  15.08400 48.50700 25.75300
H  8.55500 49.70800 22.94800
H  6.09600 50.63900 24.31100
H  9.21100 51.78000 22.89000
H  8.62400 52.08400 24.58700
H  7.58100 52.32200 23.27800
H  5.97600 49.36900 22.31500
H  5.04800 48.51200 23.47400
H  7.35900 47.63200 21.87800
H  5.91300 46.76300 22.56600
H  7.45300 47.08200 23.47900
H  2.57600 48.77500 27.72600
H  2.36700 47.35700 28.77300
H  2.97100 47.16100 27.09100
H  6.03200 47.86000 32.80200
H  6.33900 44.11800 34.79000
H  5.54700 43.35300 33.35000
H  4.62500 44.08300 34.68900

