158

Mg 52.88700 24.05700 45.57600
C  50.19100 26.12900 44.55600
C  51.17100 21.38500 44.24800
C  55.81600 22.31000 45.47900
C  54.45500 26.75100 46.91300
N  50.89700 23.83800 44.46300
C  49.91900 24.76100 44.21600
C  48.78200 24.20500 43.39600
C  48.94800 22.63100 43.65600
C  50.40600 22.61100 44.18700
C  48.12700 21.95400 44.81400
C  48.66300 24.67900 41.95500
C  49.85900 25.11000 41.14300
H  51.18500 24.40400 41.47200
N  53.47200 22.18300 44.86300
C  52.59700 21.20600 44.39400
C  53.35100 20.01400 44.09200
C  54.68500 20.28000 44.34500
C  54.74600 21.63800 44.94800
C  52.71500 18.83500 43.47600
C  55.74800 19.22300 44.17500
O  55.51000 18.11200 43.60100
C  57.11000 19.38700 44.68200
N  55.02100 24.64800 45.81600
C  55.87100 23.58800 46.08400
C  57.04400 24.01800 46.83400
C  56.67700 25.51700 47.25000
C  55.28700 25.65400 46.70200
C  57.56700 23.08700 47.89500
C  57.74500 26.54600 46.61600
C  58.49300 27.40600 47.72500
N  52.44800 26.04600 45.75700
C  53.17400 27.02600 46.36800
C  52.36600 28.18300 46.58600
C  51.20000 27.90700 45.80300
C  51.32700 26.56600 45.35100
C  52.75700 29.40200 47.45900
C  49.98700 28.43900 45.32700
O  49.51700 29.58100 45.39000
C  49.36800 27.35500 44.32900
C  49.29500 27.91000 42.95300
O  50.30800 28.32100 42.34000
O  48.01300 28.00700 42.51000
C  47.88300 28.60100 41.20400
H  50.65200 20.54900 43.77400
H  56.68300 21.66600 45.63600
H  54.95200 27.42100 47.61800
H  47.90100 24.57000 43.92300
H  48.70700 22.09600 42.73700
H  48.66500 21.37000 45.56200
H  47.25300 21.43500 44.41900
H  47.81700 22.79500 45.43400
H  47.83000 25.37800 41.88700
H  48.35800 23.78700 41.40800
H  49.89900 26.17600 41.36800
H  49.75800 25.01900 40.06200
H  53.31000 17.92600 43.38600
H  52.18300 19.10100 42.56300
H  51.92700 18.59900 44.19100
H  57.68200 18.51700 44.36000
H  56.96500 19.30900 45.76000
H  57.58300 20.34300 44.46100
H  57.92800 24.05500 46.19800
H  56.60900 25.65700 48.32900
H  57.13800 22.08500 47.88900
H  57.27700 23.52300 48.85100
H  58.64700 22.96700 47.81300
H  57.23400 27.24500 45.95500
H  58.55900 26.09200 46.05200
H  58.62100 28.45200 47.44400
H  59.46700 26.97900 47.96400
H  57.90500 27.36700 48.64200
H  51.87100 29.76200 47.98100
H  53.20200 30.17400 46.83200
H  53.55400 29.25600 48.18800
H  48.38200 27.27700 44.78800
H  47.06900 28.07500 40.70400
H  48.67700 28.42200 40.47900
H  47.45900 29.60600 41.20100
Mg 43.40400 42.10100 26.21700
C  42.55000 44.34500 28.87800
C  44.86600 40.02700 28.47700
C  44.13000 40.14000 23.63400
C  42.27200 44.74200 24.03800
N  43.66400 42.21800 28.35900
C  43.17000 43.13000 29.26000
C  43.43000 42.60100 30.69500
C  44.40700 41.37400 30.55000
C  44.21000 41.13600 29.02500
C  45.88400 41.59800 31.00600
C  42.22000 42.35300 31.56700
C  42.13000 42.99600 32.94100
H  40.74500 43.37600 33.40900
N  44.32400 40.25300 26.10100
C  44.87800 39.56500 27.13400
C  45.41200 38.29400 26.62800
C  45.13200 38.28300 25.20700
C  44.48900 39.60100 24.92600
C  46.07700 37.27700 27.53600
C  45.60700 37.23500 24.15900
O  45.40500 37.36200 22.93500
C  46.21500 35.88500 24.54000
N  43.33400 42.44000 24.16600
C  43.61700 41.38600 23.26200
C  43.33900 41.84100 21.85600
C  42.48800 43.13200 22.01600
C  42.77400 43.50000 23.52000
C  44.53600 42.08700 20.90600
C  40.99700 42.90000 21.79900
C  40.43300 41.71000 22.52600
N  42.69200 44.20000 26.31300
C  42.22700 45.14700 25.37900
C  41.75400 46.30400 25.99100
C  41.85000 46.04600 27.38500
C  42.41700 44.73100 27.53100
C  41.28900 47.45200 25.35700
C  41.55400 46.54900 28.68200
O  41.03400 47.66200 28.96400
C  41.83200 45.41800 29.72600
C  42.79200 46.01600 30.68400
O  43.96300 46.20300 30.47400
O  42.10300 46.37900 31.86700
C  42.99400 47.02300 32.82700
H  45.33100 39.38000 29.22400
H  44.37400 39.55700 22.74400
H  41.78700 45.30500 23.23800
H  44.03900 43.37900 31.15400
H  44.11000 40.55100 31.20000
H  46.04400 42.67500 31.03900
H  46.57300 40.96100 30.45200
H  45.80100 41.15800 31.99900
H  42.06500 41.27600 31.63500
H  41.36400 42.67000 30.97100
H  42.78300 43.86700 32.89400
H  42.69900 42.27200 33.52300
H  45.44500 36.39000 27.51300
H  46.08300 37.60700 28.57500
H  47.10900 37.03000 27.28400
H  46.26100 35.16900 23.72000
H  45.47600 35.49100 25.23800
H  47.19800 35.91900 25.01000
H  42.73000 41.07500 21.37600
H  42.84700 43.86400 21.29200
H  45.44800 41.68500 21.34700
H  44.65800 43.15500 20.73100
H  44.37400 41.58000 19.95500
H  40.81000 42.85600 20.72600
H  40.44300 43.80000 22.06400
H  41.11100 40.91000 22.82300
H  39.49700 41.32900 22.11900
H  40.19200 41.92600 23.56800
H  42.13100 47.96100 24.88800
H  40.75100 48.10100 26.04800
H  40.62900 47.18800 24.53100
H  40.93400 45.11100 30.26100
H  43.73400 46.30900 33.18900
H  42.35100 47.35900 33.64100
H  43.57200 47.81100 32.34500

