158

Mg 47.85300 24.47900 27.90000
C  48.62600 26.80300 30.40100
C  47.30700 22.22200 30.45500
C  47.27000 22.27200 25.57600
C  48.81400 26.83400 25.54700
N  48.12200 24.50900 30.19200
C  48.26600 25.61900 30.96500
C  48.05000 25.29600 32.46900
C  47.57500 23.77200 32.44400
C  47.77600 23.41400 30.99500
C  48.33700 22.87300 33.47100
C  47.01100 26.29200 33.12300
C  46.41700 25.91400 34.45600
H  46.53100 27.09300 35.41900
N  47.25400 22.59000 28.04400
C  47.09900 21.78600 29.14000
C  46.80900 20.40000 28.68300
C  46.61700 20.42500 27.27000
C  47.05900 21.82500 26.90200
C  46.59500 19.27200 29.66000
C  46.06600 19.30400 26.27000
O  45.91800 19.53400 25.12400
C  45.79900 17.98700 26.81400
N  48.04500 24.60400 25.76800
C  47.63300 23.49400 25.04100
C  47.82400 23.81300 23.46200
C  48.04300 25.34000 23.55000
C  48.31800 25.65800 25.00800
C  48.84000 22.88000 22.80300
C  47.01100 26.27200 22.81300
C  45.61000 26.47900 23.35300
N  48.68100 26.46500 27.92300
C  48.93700 27.29300 26.85900
C  49.46100 28.55300 27.43900
C  49.39400 28.39900 28.84100
C  48.82700 27.10600 29.09800
C  49.87100 29.82400 26.73100
C  49.69900 29.00100 30.08200
O  50.28200 29.98200 30.33100
C  49.11000 28.06100 31.18600
C  50.15400 27.73800 32.19700
O  51.04400 26.89100 32.04400
O  49.99800 28.53300 33.34900
C  50.66000 28.08200 34.59300
H  47.11300 21.61900 31.34400
H  47.17700 21.51200 24.79700
H  49.22800 27.51700 24.80300
H  48.99300 25.42900 32.99900
H  46.52400 23.67900 32.71400
H  49.30500 22.52100 33.11400
H  47.65600 22.06500 33.73800
H  48.50100 23.47300 34.36600
H  46.20800 26.43400 32.40000
H  47.54300 27.23100 33.27600
H  46.75300 24.94300 34.81900
H  45.35200 25.90500 34.22100
H  47.00900 19.61300 30.60900
H  46.95500 18.35900 29.18600
H  45.54600 19.18000 29.94200
H  46.55400 17.61300 27.50400
H  45.70900 17.42100 25.88700
H  44.77200 17.95800 27.18000
H  46.94600 23.80800 22.81600
H  48.92400 25.58000 22.95500
H  48.90700 21.95000 23.36800
H  49.70600 23.54200 22.77900
H  48.59600 22.57800 21.78500
H  46.81800 25.89200 21.81000
H  47.53800 27.22600 22.79500
H  45.71100 26.57800 24.43400
H  44.89300 25.71300 23.05800
H  45.34400 27.48200 23.01900
H  48.93200 30.37400 26.67600
H  50.16700 29.64100 25.69800
H  50.64000 30.41500 27.22900
H  48.33900 28.65400 31.67900
H  50.31700 27.06500 34.78500
H  50.37200 28.71200 35.43500
H  51.74600 28.11900 34.51500
Mg -9.98700 39.55200 40.47100
C  -8.54300 36.32900 39.45500
C  -6.92500 40.93900 39.70600
C  -11.38400 42.67200 40.44400
C  -12.94900 38.01100 40.87500
N  -7.97900 38.73200 39.56200
C  -7.57600 37.43100 39.49600
C  -6.09000 37.33300 39.25100
C  -5.59800 38.74900 39.57500
C  -6.94000 39.53300 39.66800
C  -4.65400 38.90000 40.75100
C  -5.80900 36.87000 37.77200
C  -6.53800 37.67600 36.65000
H  -7.27600 36.85700 35.53500
N  -9.29600 41.49600 40.07100
C  -7.95500 41.82700 39.85100
C  -7.86000 43.20500 39.59600
C  -9.09200 43.76600 39.87800
C  -10.05600 42.65200 40.23900
C  -6.51800 43.87400 39.18800
C  -9.43300 45.26400 39.80200
O  -8.61900 46.08900 39.44700
C  -10.71300 45.72700 40.22400
N  -11.93400 40.29300 40.64900
C  -12.35300 41.61800 40.60100
C  -13.82600 41.72800 41.04900
C  -14.24800 40.20300 41.34400
C  -12.97900 39.46000 40.92500
C  -14.14000 42.70300 42.25800
C  -15.59500 39.71800 40.65200
C  -16.77100 39.12000 41.48300
N  -10.66900 37.59400 40.31700
C  -11.94700 37.10100 40.47500
C  -12.02300 35.68700 40.09400
C  -10.68300 35.34300 39.77000
C  -9.91300 36.48300 39.87800
C  -13.18800 34.78300 40.14000
C  -9.86800 34.26200 39.26800
O  -10.14400 33.11000 38.98900
C  -8.37200 34.80000 39.13800
C  -7.56000 34.12700 40.25600
O  -7.96800 33.70900 41.34700
O  -6.17700 34.08100 39.83900
C  -5.31600 33.25200 40.74100
H  -5.91200 41.32700 39.57800
H  -11.91400 43.61500 40.29300
H  -13.93100 37.54300 40.96900
H  -5.73300 36.61500 39.98900
H  -5.10300 39.09800 38.66900
H  -5.29500 39.21200 41.57600
H  -3.93800 39.66200 40.44000
H  -4.23700 37.90800 40.92500
H  -5.89900 35.79700 37.60200
H  -4.74800 37.09200 37.65900
H  -5.78200 38.18900 36.05700
H  -7.03200 38.55200 37.07100
H  -6.75700 44.33800 38.23100
H  -5.64100 43.30400 38.88200
H  -6.20400 44.63500 39.90200
H  -10.99600 45.45500 41.24100
H  -11.46400 45.31800 39.54800
H  -10.85500 46.79400 40.05100
H  -14.27700 42.10200 40.13000
H  -14.28500 40.05100 42.42300
H  -14.87800 43.43700 41.93500
H  -13.29200 43.28100 42.62700
H  -14.67400 42.13300 43.01800
H  -15.32200 39.02600 39.85600
H  -15.97900 40.47500 39.96800
H  -17.65000 39.72700 41.26200
H  -16.45200 39.34300 42.50100
H  -16.91000 38.04200 41.40900
H  -14.06300 35.20800 40.63100
H  -12.90100 33.84300 40.61200
H  -13.52800 34.63900 39.11400
H  -7.79600 34.63700 38.22700
H  -5.79000 32.50400 41.37800
H  -4.83900 33.95500 41.42400
H  -4.54300 32.78600 40.13000

