158

Mg 29.75000 57.76800 40.66200
C  27.05000 55.77200 39.47800
C  31.84300 55.60700 39.11600
C  32.25500 60.01500 40.98800
C  27.49400 60.26000 41.57800
N  29.41200 55.97100 39.44900
C  28.31000 55.25100 39.08400
C  28.57700 53.93200 38.29300
C  30.12400 53.86900 38.48200
C  30.48100 55.23900 39.04400
C  30.69800 52.67900 39.28300
C  28.06900 54.02800 36.78700
C  27.86400 55.35100 36.12600
H  27.03300 55.39000 34.95700
N  31.83700 57.80500 40.22600
C  32.50700 56.70800 39.70500
C  33.92700 56.96700 39.76100
C  34.07500 58.24600 40.41100
C  32.70500 58.76300 40.56300
C  35.02200 55.96600 39.44800
C  35.36500 58.94500 40.63500
O  36.45900 58.45900 40.28500
C  35.45400 60.29300 41.29000
N  29.83000 59.95100 41.13200
C  31.02000 60.55400 41.25500
C  30.80800 62.02900 41.67600
C  29.25100 62.15800 41.92800
C  28.82300 60.71000 41.58100
C  31.69700 62.56500 42.90000
C  28.54300 63.34400 41.13600
C  28.21200 64.59400 41.90800
N  27.70400 57.94300 40.74700
C  26.93500 59.00200 41.16200
C  25.55200 58.58100 41.15200
C  25.55900 57.26500 40.47800
C  26.93500 57.00300 40.24500
C  24.39500 59.49900 41.46300
C  24.69000 56.30300 39.89000
O  23.45500 56.26800 39.74800
C  25.62700 55.27500 39.27100
C  25.38700 53.97600 39.98600
O  26.02600 53.53300 40.95800
O  24.25400 53.38300 39.55500
C  23.95000 52.02600 39.86000
H  32.52100 54.87200 38.67700
H  33.02600 60.78000 41.10300
H  26.68100 60.97500 41.72600
H  28.08800 53.20800 38.94400
H  30.70100 53.86700 37.55800
H  29.96900 51.86800 39.26900
H  30.78000 53.00400 40.32000
H  31.67500 52.40500 38.88400
H  27.17900 53.40600 36.67900
H  28.87200 53.60400 36.18400
H  28.82500 55.77700 35.83900
H  27.48700 56.13000 36.78900
H  35.75900 56.43600 38.79600
H  34.64800 55.06700 38.95900
H  35.67000 55.67900 40.27600
H  35.01500 61.06500 40.65800
H  36.53200 60.41600 41.39400
H  35.04100 60.45400 42.28600
H  31.10600 62.55300 40.76900
H  29.16500 62.27700 43.00800
H  32.63200 62.00500 42.86500
H  31.28800 62.49200 43.90800
H  31.96000 63.60100 42.68100
H  27.74700 62.91100 40.53100
H  29.25400 63.70000 40.39000
H  28.76800 65.45800 41.54300
H  28.49100 64.51500 42.95900
H  27.14900 64.79800 41.78200
H  24.68500 60.18800 42.25600
H  23.49200 58.95300 41.73500
H  24.22000 60.12700 40.58800
H  25.42600 55.17200 38.20500
H  23.17400 51.84100 40.60300
H  24.84300 51.45300 40.11300
H  23.48000 51.61000 38.96900
Mg -5.23100 25.71500 26.23700
C  -4.11800 27.46500 28.97200
C  -6.61200 23.35800 28.34800
C  -6.07500 23.77900 23.48300
C  -2.93200 27.48000 24.20000
N  -5.33500 25.39100 28.40800
C  -4.89900 26.34000 29.33000
C  -5.33400 26.01400 30.69600
C  -5.88400 24.48900 30.52400
C  -5.93500 24.37900 29.01100
C  -5.12300 23.31700 31.09300
C  -6.36700 27.02100 31.28100
C  -7.07900 26.58400 32.59700
H  -6.45400 25.48300 33.45700
N  -6.43300 24.06200 25.92700
C  -7.02300 23.36700 26.96600
C  -7.92100 22.33700 26.36800
C  -7.77600 22.47700 24.92500
C  -6.70800 23.48500 24.71500
C  -8.84600 21.41500 27.22300
C  -8.41800 21.83100 23.80200
O  -8.27400 22.10900 22.64100
C  -9.63100 20.81700 24.00700
N  -4.43500 25.55600 24.17200
C  -5.05200 24.71800 23.27600
C  -4.48800 24.97300 21.88900
C  -3.61300 26.35600 22.08800
C  -3.69100 26.52700 23.56500
C  -3.77500 23.78400 21.26200
C  -4.18000 27.53600 21.21700
C  -3.21700 28.69100 21.00600
N  -3.82100 27.14400 26.50000
C  -2.99700 27.78800 25.59000
C  -2.26200 28.78300 26.31000
C  -2.66700 28.62900 27.67700
C  -3.59500 27.61500 27.70100
C  -1.26300 29.82900 25.77600
C  -2.35200 29.11500 28.94500
O  -1.63800 29.96400 29.44100
C  -3.36500 28.48100 29.86400
C  -2.76700 27.84100 31.00300
O  -1.94500 26.93700 31.00500
O  -3.30500 28.39600 32.16900
C  -2.80600 27.69600 33.35100
H  -7.16900 22.64300 28.95700
H  -6.25200 23.27200 22.53200
H  -2.16200 28.09300 23.72700
H  -4.47000 25.81200 31.32900
H  -6.92100 24.44400 30.85700
H  -4.57000 22.76100 30.33700
H  -5.84600 22.75400 31.68400
H  -4.33800 23.63700 31.77800
H  -7.14900 27.19700 30.54200
H  -5.84000 27.95600 31.47200
H  -8.08600 26.37800 32.23600
H  -7.02600 27.45000 33.25700
H  -8.50900 20.39800 27.02000
H  -9.89300 21.70700 27.13900
H  -8.65400 21.46400 28.29500
H  -9.84000 20.43900 23.00600
H  -10.44800 21.36900 24.47100
H  -9.19400 19.97700 24.54800
H  -5.34500 25.19600 21.25500
H  -2.58800 26.13500 21.79200
H  -3.80000 22.99100 22.00900
H  -2.70900 23.97200 21.13200
H  -4.26700 23.41800 20.36200
H  -5.12400 27.84300 21.66600
H  -4.39200 27.15000 20.22000
H  -2.74800 28.64600 20.02300
H  -2.49700 28.80400 21.81600
H  -3.85400 29.56800 21.12100
H  -0.76800 29.62900 24.82600
H  -0.44400 29.88000 26.49300
H  -1.77200 30.78400 25.64500
H  -3.99800 29.32900 30.12500
H  -2.55000 26.63900 33.27900
H  -3.58800 27.64100 34.10800
H  -2.01200 28.34500 33.71900

