158

Mg -0.33600 7.99100 26.53800
C  0.46500 9.80100 29.35700
C  -0.33000 5.19700 28.51600
C  -0.80100 6.13700 23.72100
C  0.22000 10.80100 24.54600
N  0.33200 7.55500 28.69300
C  0.30600 8.47000 29.69400
C  0.17400 7.88100 31.08500
C  0.33600 6.38500 30.72600
C  0.12700 6.33200 29.20800
C  1.70200 5.70000 31.14600
C  -1.15000 8.34900 31.73800
C  -1.25900 8.80700 33.19600
H  0.04400 8.71200 34.01900
N  -0.51900 5.96600 26.17100
C  -0.63000 4.95300 27.12900
C  -1.07100 3.78500 26.58300
C  -1.25500 3.96900 25.19100
C  -0.83000 5.40400 24.95300
C  -1.21900 2.48600 27.45900
C  -1.77400 2.87900 24.12500
O  -1.81500 3.11800 22.95200
C  -2.20600 1.52200 24.62600
N  -0.16600 8.39600 24.36900
C  -0.50200 7.50000 23.42200
C  -0.42700 8.16200 21.99600
C  -0.28200 9.65100 22.30200
C  -0.04900 9.66700 23.85200
C  0.73700 7.59400 21.21800
C  -1.39200 10.44100 21.73800
C  -2.67600 10.69300 22.50500
N  0.28200 9.92300 26.82400
C  0.48200 10.95300 25.93900
C  0.85400 12.13200 26.68100
C  0.77700 11.75000 27.99200
C  0.48300 10.35200 28.10700
C  1.19300 13.45000 26.08000
C  1.02400 12.27300 29.26700
O  1.45900 13.36000 29.57200
C  0.76800 11.07400 30.23700
C  1.95100 10.90900 31.24500
O  2.80200 10.00100 31.32200
O  1.89700 11.92500 32.18700
C  3.08600 11.97200 33.08600
H  -0.27100 4.33500 29.18400
H  -0.96400 5.71200 22.72900
H  0.25500 11.60700 23.81100
H  1.01300 8.11500 31.74000
H  -0.42100 5.71500 31.13300
H  2.47400 6.36300 31.53600
H  2.11700 5.22700 30.25600
H  1.59200 4.93400 31.91400
H  -1.84500 7.52000 31.61000
H  -1.44900 9.20200 31.12800
H  -2.00600 8.10500 33.56600
H  -1.59500 9.83700 33.31000
H  -0.55400 2.49800 28.32300
H  -0.89800 1.63200 26.86200
H  -2.25000 2.31600 27.76700
H  -2.99900 1.50100 25.37300
H  -1.37000 0.91800 24.97900
H  -2.67500 1.07300 23.75000
H  -1.34900 7.90000 21.47800
H  0.57600 10.17400 21.88100
H  0.70600 6.56300 21.57000
H  1.67500 8.10400 21.43700
H  0.39900 7.74900 20.19300
H  -1.65700 10.10600 20.73500
H  -0.99100 11.44800 21.62600
H  -3.58300 10.59700 21.90900
H  -2.70500 11.69700 22.92800
H  -2.71500 9.98600 23.33300
H  1.62000 13.96700 26.94000
H  0.25700 13.93700 25.80800
H  1.92300 13.34600 25.27700
H  -0.01500 11.27300 30.97000
H  4.00300 12.00400 32.49700
H  3.12500 11.11800 33.76200
H  3.08700 12.92200 33.62100
Mg -1.05400 33.96900 26.91500
C  -2.99500 32.48700 29.52900
C  0.39900 36.01300 29.22500
C  0.40900 35.76300 24.29300
C  -2.94400 32.24000 24.59000
N  -1.33900 34.33600 29.16700
C  -2.09100 33.57200 30.01000
C  -2.00700 34.03900 31.44200
C  -1.03000 35.25100 31.34600
C  -0.62200 35.25200 29.82400
C  -1.65700 36.65400 31.80600
C  -1.52500 32.91700 32.42900
C  -2.49000 32.51300 33.64800
H  -1.84400 32.25100 35.02500
N  0.34700 35.49100 26.80000
C  0.84400 36.14600 27.90600
C  1.88200 37.13400 27.42200
C  1.75900 37.13600 26.02800
C  0.84900 36.08700 25.60200
C  2.80200 37.86200 28.30400
C  2.43700 38.14400 24.99800
O  2.20900 38.16100 23.82300
C  3.52900 39.01000 25.52500
N  -1.23400 34.04800 24.85400
C  -0.57700 34.84800 23.96100
C  -0.97300 34.57200 22.43500
C  -1.73100 33.20700 22.56500
C  -1.99400 33.17100 24.08600
C  -1.61400 35.81000 21.76200
C  -0.95400 32.02700 22.02400
C  0.27400 31.61600 22.87000
N  -2.59300 32.59500 26.99300
C  -3.23600 31.97700 25.96000
C  -4.13900 30.96400 26.44100
C  -4.13500 31.22100 27.88000
C  -3.11400 32.12600 28.11400
C  -5.10900 30.14800 25.68700
C  -4.78000 30.78900 29.09500
O  -5.68100 29.97900 29.22700
C  -4.02600 31.58700 30.30000
C  -5.03900 32.41900 30.94000
O  -5.66700 33.34200 30.42100
O  -5.35100 31.95200 32.09500
C  -6.38100 32.65200 32.93800
H  0.90500 36.58500 30.00500
H  0.82300 36.37800 23.49100
H  -3.45300 31.68900 23.79700
H  -2.97700 34.37100 31.81100
H  -0.21700 35.02000 32.03400
H  -2.73800 36.55200 31.90800
H  -1.33900 37.46700 31.15400
H  -1.28700 36.93600 32.79200
H  -0.59300 33.14000 32.94800
H  -1.36900 32.04900 31.78800
H  -2.95500 31.56600 33.37300
H  -3.31500 33.22600 33.66500
H  2.56700 38.92500 28.35500
H  3.82500 37.65500 27.98800
H  2.76400 37.41900 29.29900
H  3.15300 39.70500 26.27600
H  4.06300 39.43900 24.67700
H  4.22000 38.35300 26.05500
H  -0.02400 34.42100 21.91900
H  -2.65900 33.30900 22.00200
H  -0.78200 36.09200 21.11800
H  -1.77200 36.65600 22.43100
H  -2.53200 35.51400 21.25400
H  -0.63200 32.10900 20.98600
H  -1.64100 31.18100 22.03300
H  0.29700 32.40100 23.62600
H  1.17000 31.69600 22.25500
H  0.13400 30.67800 23.40700
H  -5.17700 30.39400 24.62800
H  -6.09700 30.30500 26.12100
H  -4.87900 29.12700 25.99400
H  -3.63200 30.81000 30.95500
H  -7.22200 33.13700 32.44400
H  -5.81400 33.38100 33.51600
H  -6.67000 31.77200 33.51300

