158

Mg 44.18800 5.58700 47.75600
C  42.11200 8.33300 47.36200
C  41.25500 3.46600 47.51400
C  46.02900 2.90400 47.60400
C  46.96600 7.64400 47.35600
N  41.99300 5.82300 47.31000
C  41.38400 7.11700 47.26800
C  39.86100 7.02500 47.31300
C  39.61500 5.46100 47.40500
C  41.03800 4.84500 47.40200
C  38.65900 5.03500 48.60400
C  39.11500 7.72200 46.18200
C  39.69900 7.86900 44.78000
H  38.80100 7.35400 43.66500
N  43.69100 3.46800 47.62800
C  42.50900 2.84500 47.55300
C  42.69900 1.43100 47.48500
C  44.03800 1.16600 47.61000
C  44.63800 2.59100 47.65900
C  41.52100 0.40500 47.23400
C  44.73600 -0.25100 47.59200
O  44.11600 -1.29500 47.48600
C  46.26100 -0.34600 47.72500
N  46.15900 5.31500 47.27900
C  46.73600 4.06400 47.48000
C  48.24000 4.06000 47.41200
C  48.49700 5.56600 47.18300
C  47.11500 6.26900 47.35900
C  48.90900 3.44800 48.60700
C  49.19000 5.87100 45.83600
C  50.59900 5.35600 45.81900
N  44.55600 7.60100 47.45800
C  45.76900 8.32000 47.36300
C  45.40800 9.75000 47.16500
C  44.00700 9.76900 47.15700
C  43.51800 8.45900 47.36800
C  46.45500 10.76600 46.81600
C  42.84500 10.66300 47.01600
O  42.70500 11.89800 46.96000
C  41.60200 9.72500 47.17800
C  40.52100 10.14300 48.08300
O  40.36800 9.69400 49.22800
O  39.74600 11.04000 47.48100
C  38.61600 11.54500 48.24900
H  40.39100 2.84900 47.26100
H  46.69900 2.04200 47.60000
H  47.78600 8.36400 47.30700
H  39.47200 7.57300 48.17100
H  39.14300 5.01400 46.53000
H  38.11500 5.85900 49.06500
H  39.13800 4.52800 49.44100
H  37.91000 4.35000 48.20600
H  38.77100 8.66900 46.59700
H  38.24700 7.07600 46.04800
H  40.63400 7.30800 44.78000
H  39.86600 8.93700 44.64200
H  41.86000 -0.45100 46.64900
H  40.60000 0.84600 46.85300
H  41.16900 0.03900 48.19800
H  46.78300 0.09600 46.87600
H  46.52900 -1.40200 47.73700
H  46.51700 -0.01900 48.73300
H  48.52000 3.54600 46.49200
H  49.12100 5.96100 47.98500
H  48.20100 3.07700 49.34800
H  49.55900 4.17600 49.09300
H  49.49000 2.60000 48.24500
H  49.09800 6.94600 45.67800
H  48.47300 5.46900 45.12000
H  50.59100 4.42400 45.25500
H  50.87800 5.14200 46.85100
H  51.31500 6.10400 45.47700
H  47.00400 11.16700 47.66800
H  45.81200 11.57200 46.46000
H  47.16400 10.50900 46.02900
H  41.16900 9.78800 46.18000
H  37.75700 10.89200 48.09000
H  38.43800 12.59300 48.01000
H  38.76100 11.52800 49.32900
Mg 9.41100 48.67000 26.40700
C  7.55900 48.61500 29.47500
C  11.98500 50.09700 28.19600
C  11.08900 48.90000 23.54200
C  6.66600 47.34300 24.78000
N  9.63300 49.45100 28.61200
C  8.76200 49.20200 29.64200
C  9.32000 49.95700 30.98100
C  10.80200 50.26200 30.53900
C  10.79100 49.93500 28.99400
C  11.26300 51.74700 30.77000
C  9.23700 49.04800 32.23900
C  10.17000 49.40000 33.37600
H  9.55100 49.63700 34.76600
N  11.32800 49.20100 25.96100
C  12.25500 49.76800 26.83700
C  13.53900 49.96500 26.16000
C  13.31200 49.60200 24.81900
C  11.87600 49.19500 24.69300
C  14.80500 50.51900 26.80100
C  14.26900 49.51800 23.62600
O  13.92000 49.32900 22.44900
C  15.76300 49.74000 23.93200
N  8.82100 48.35000 24.46100
C  9.67500 48.58000 23.47200
C  9.05700 48.20300 22.12100
C  7.82500 47.35400 22.48700
C  7.71800 47.68500 23.98300
C  8.78500 49.50700 21.30700
C  7.93300 45.84200 22.13000
C  9.22000 45.17400 22.63700
N  7.42400 48.16800 26.93400
C  6.41700 47.63300 26.17600
C  5.20200 47.48500 26.95100
C  5.60100 47.76100 28.24600
C  6.96100 48.27500 28.18600
C  3.88600 46.95000 26.55000
C  5.23400 47.77500 29.68800
O  4.23400 47.42500 30.20200
C  6.46200 48.29100 30.45500
C  6.80700 47.14500 31.31700
O  7.48500 46.21700 30.98300
O  6.18100 47.23100 32.54900
C  6.56100 46.31700 33.64800
H  12.80400 50.56600 28.74600
H  11.62000 49.06400 22.60100
H  5.78900 46.85000 24.35500
H  8.74600 50.86700 31.15400
H  11.51500 49.68100 31.12400
H  10.41900 52.37200 31.06300
H  11.65900 52.13800 29.83200
H  12.10800 51.76700 31.45800
H  9.23500 48.03300 31.84200
H  8.24500 49.11600 32.68400
H  10.77200 50.28200 33.16100
H  10.98300 48.67800 33.30300
H  15.17900 51.40100 26.28100
H  15.59900 49.77300 26.79800
H  14.75100 50.77400 27.86000
H  16.27200 49.48700 23.00100
H  16.19200 49.14500 24.73800
H  15.85500 50.77900 24.24700
H  9.70900 47.57300 21.51600
H  6.93500 47.72300 21.97700
H  9.36200 50.27800 21.81800
H  7.71200 49.69100 21.35100
H  9.08500 49.29700 20.28100
H  7.91500 45.80800 21.04100
H  7.16900 45.23300 22.61500
H  8.94100 44.29000 23.21000
H  9.75200 45.79700 23.35600
H  9.82900 44.87200 21.78500
H  3.16800 47.75800 26.40600
H  3.48500 46.37300 27.38300
H  3.95100 46.34500 25.64500
H  6.09300 49.11400 31.06700
H  7.54600 45.89600 33.44600
H  5.87300 45.50100 33.86600
H  6.72900 46.89600 34.55600

