158

Mg 6.49300 54.21200 40.67800
C  5.87700 50.76800 40.03500
C  9.71900 53.49100 39.78500
C  6.90400 57.45500 40.47900
C  3.15700 54.58800 41.41600
N  7.58400 52.36600 39.61600
C  7.08900 51.07600 39.52100
C  8.22400 50.09700 39.25700
C  9.54400 50.95300 39.72200
C  8.93900 52.34200 39.71400
C  10.06800 50.58600 41.12600
C  8.33100 49.27600 37.86300
C  8.16700 49.98900 36.51000
H  6.98400 49.76500 35.65300
N  8.03500 55.34300 40.08000
C  9.31000 54.87500 39.86300
C  10.22100 55.95900 39.77400
C  9.47400 57.13400 39.95100
C  8.09600 56.68000 40.23400
C  11.64200 55.75500 39.35800
C  9.99500 58.57000 39.95400
O  11.22900 58.71800 39.79700
C  9.17000 59.72900 40.43000
N  5.16700 55.79700 40.71500
C  5.56000 57.06900 40.67500
C  4.44800 58.11100 41.11200
C  3.21400 57.18600 41.15400
C  3.89700 55.74800 41.20200
C  4.84800 58.83300 42.48300
C  2.21800 57.38300 39.96400
C  0.81200 56.81400 39.95600
N  4.87400 52.92600 40.86400
C  3.62100 53.23100 41.26400
C  2.88400 52.03700 41.37700
C  3.68600 50.99400 41.02000
C  4.88100 51.62900 40.60600
C  1.49100 51.84600 41.74200
C  3.81400 49.52700 40.80300
O  2.98600 48.59600 40.89200
C  5.23000 49.36100 40.19200
C  4.99500 48.59100 38.89000
O  4.74200 49.03300 37.76600
O  5.06200 47.26400 39.21100
C  4.67500 46.31500 38.12500
H  10.78200 53.31000 39.61000
H  6.94000 58.54200 40.58500
H  2.15100 54.61000 41.84100
H  8.10800 49.23600 39.91600
H  10.22400 50.83000 38.87800
H  9.45500 49.84700 41.64200
H  9.97400 51.48800 41.73000
H  11.09000 50.25300 40.94200
H  7.59600 48.48300 38.00500
H  9.32100 48.82500 37.92700
H  9.06600 49.78400 35.92900
H  8.22600 51.04300 36.78000
H  11.84000 55.80500 38.28700
H  12.16700 54.85100 39.66500
H  12.17200 56.53700 39.90100
H  8.34600 60.01900 39.77700
H  9.86400 60.55500 40.58400
H  8.86700 59.44400 41.43700
H  4.36800 58.83300 40.29800
H  2.67000 57.26300 42.09500
H  5.87700 58.60600 42.75900
H  4.25100 58.49600 43.33000
H  4.75700 59.88700 42.21800
H  2.70200 56.93800 39.09400
H  2.15100 58.46100 39.82000
H  0.64300 56.30600 40.90600
H  0.67400 56.10400 39.14000
H  0.02900 57.56700 39.86600
H  0.81700 52.24800 40.98600
H  1.30400 52.49200 42.60100
H  1.24600 50.83300 42.06100
H  5.86600 48.59500 40.63500
H  4.83700 46.71200 37.12300
H  3.63500 45.98700 38.13400
H  5.38600 45.49600 38.23500
Mg -10.01800 16.96600 40.44500
C  -6.60900 16.84400 40.54400
C  -9.76700 20.35800 39.57300
C  -13.40000 17.04400 39.95900
C  -10.05800 13.48900 40.44500
N  -8.35200 18.34600 39.96100
C  -7.07600 18.05000 40.10500
C  -6.26500 19.22300 39.53500
C  -7.17000 20.43900 39.74400
C  -8.50400 19.71300 39.75300
C  -6.95000 21.30900 40.98700
C  -5.79100 18.94200 38.07100
C  -4.37800 18.61500 37.66000
H  -4.14500 17.22900 37.01400
N  -11.38200 18.53400 39.92200
C  -11.08300 19.86600 39.54600
C  -12.30800 20.56900 39.28300
C  -13.37600 19.61400 39.44900
C  -12.72100 18.33200 39.82200
C  -12.27700 22.02200 38.99900
C  -14.79100 19.91200 39.36000
O  -15.10400 21.08400 39.13600
C  -15.87000 18.96200 39.59200
N  -11.47900 15.49300 40.18700
C  -12.85600 15.76700 40.06300
C  -13.68500 14.47500 39.98300
C  -12.51000 13.33500 39.95300
C  -11.25600 14.16500 40.19800
C  -14.67100 14.23600 41.10800
C  -12.33000 12.57000 38.58200
C  -12.39500 11.00400 38.63600
N  -8.67500 15.36900 40.57100
C  -8.82700 14.09400 40.64100
C  -7.46200 13.46200 40.98600
C  -6.58300 14.54100 41.06600
C  -7.37000 15.63200 40.70800
C  -7.30300 11.99400 41.20600
C  -5.20900 14.94900 41.25600
O  -4.25700 14.26300 41.66500
C  -5.10900 16.42700 40.82400
C  -4.62600 17.36500 41.93400
O  -5.30200 18.17500 42.53600
O  -3.32900 17.10800 42.24300
C  -2.73800 18.01100 43.24000
H  -9.60500 21.38900 39.25100
H  -14.44700 17.01300 39.65100
H  -10.18500 12.40500 40.47200
H  -5.38000 19.24900 40.17100
H  -7.25700 21.17200 38.94200
H  -6.04800 21.00600 41.51800
H  -7.80200 21.18000 41.65500
H  -6.75600 22.34300 40.70500
H  -6.02300 19.79500 37.43400
H  -6.41600 18.16000 37.64000
H  -3.75500 18.72000 38.54800
H  -4.14500 19.32500 36.86700
H  -12.25200 22.59300 39.92700
H  -13.03100 22.25300 38.24700
H  -11.32800 22.28300 38.52900
H  -15.70100 18.51800 40.57300
H  -15.86100 18.20200 38.81000
H  -16.84600 19.44500 39.56600
H  -14.27800 14.46100 39.06800
H  -12.67200 12.64200 40.77900
H  -14.47300 14.93900 41.91700
H  -14.55400 13.20300 41.43400
H  -15.71100 14.48300 40.89200
H  -11.34200 12.78700 38.17400
H  -13.00900 12.91400 37.80200
H  -12.00800 10.70800 39.61100
H  -11.63900 10.58200 37.97300
H  -13.39800 10.62300 38.44500
H  -6.47100 11.66100 41.82700
H  -7.15100 11.46600 40.26500
H  -8.12200 11.51300 41.74100
H  -4.53100 16.53800 39.90700
H  -2.80400 18.98600 42.75700
H  -1.69400 17.91700 43.54100
H  -3.36100 17.99200 44.13400

