158

Mg -2.15800 17.10500 26.37300
C  -2.70900 14.67900 29.00700
C  -2.61200 19.69100 28.61500
C  -2.13600 19.22500 23.90900
C  -1.87800 14.44900 24.25100
N  -2.77600 17.14600 28.49900
C  -2.77000 16.04700 29.37000
C  -2.76500 16.54000 30.82500
C  -2.92400 18.16200 30.71200
C  -2.72400 18.38000 29.16400
C  -4.17900 18.75800 31.25900
C  -1.53500 16.04300 31.65400
C  -0.87900 16.96300 32.77400
H  -0.64500 16.32500 34.17100
N  -2.28600 19.11700 26.29400
C  -2.45700 20.04700 27.31800
C  -2.47000 21.38800 26.78600
C  -2.39900 21.25800 25.38100
C  -2.31900 19.86200 25.10800
C  -2.61500 22.54200 27.80500
C  -2.33400 22.36000 24.34500
O  -2.49800 22.20600 23.18100
C  -2.22900 23.84000 24.89400
N  -2.01900 16.95200 24.40900
C  -1.94000 17.92200 23.53800
C  -1.81100 17.46500 22.06100
C  -1.74500 15.95800 22.19200
C  -1.85500 15.73600 23.71600
C  -2.97500 17.97700 21.17600
C  -0.47200 15.41900 21.56000
C  0.85000 15.54800 22.32500
N  -2.23000 14.99400 26.52900
C  -2.10100 14.05800 25.54500
C  -2.15200 12.75300 26.06900
C  -2.45600 12.93400 27.48200
C  -2.52500 14.33900 27.68100
C  -2.00600 11.41800 25.26200
C  -2.67100 12.28400 28.78300
O  -2.68900 11.05400 29.05500
C  -2.77800 13.41300 29.81700
C  -1.69900 13.02300 30.73700
O  -0.50900 13.30900 30.63200
O  -2.30500 12.31800 31.75000
C  -1.34500 12.09500 32.83800
H  -2.63300 20.43400 29.41500
H  -2.02800 19.96600 23.11500
H  -1.60200 13.57800 23.65300
H  -3.65100 16.07500 31.25500
H  -2.15600 18.71600 31.25100
H  -4.83400 18.89400 30.39800
H  -3.92800 19.68600 31.77100
H  -4.70800 18.05600 31.90400
H  -0.73500 15.77800 30.96300
H  -1.88100 15.19500 32.24600
H  -1.56800 17.79500 32.91800
H  0.01200 17.41000 32.33500
H  -1.80900 23.26000 27.65200
H  -2.85500 22.27500 28.83400
H  -3.47500 23.01500 27.33100
H  -3.07500 23.98300 25.56700
H  -2.28400 24.48300 24.01600
H  -1.24800 23.98500 25.34700
H  -0.81000 17.75200 21.73800
H  -2.59300 15.48700 21.69500
H  -3.47200 17.20000 20.59500
H  -2.70500 18.77000 20.47900
H  -3.72500 18.29500 21.89900
H  -0.26100 15.84500 20.58000
H  -0.61700 14.34300 21.46900
H  0.74600 16.08400 23.26900
H  1.59900 15.89300 21.61300
H  1.25900 14.58400 22.62700
H  -1.43100 11.64500 24.36400
H  -3.01200 11.01700 25.14300
H  -1.36100 10.78800 25.87400
H  -3.77800 13.30700 30.23700
H  -0.48600 11.48000 32.57000
H  -1.93400 11.73000 33.68000
H  -1.03000 13.00600 33.34700
Mg -11.23700 39.15300 41.55900
C  -9.89600 36.05900 40.57400
C  -8.65300 40.73000 39.94400
C  -12.87600 42.09800 42.15100
C  -14.20600 37.42300 42.62500
N  -9.56700 38.42800 40.19700
C  -9.13400 37.16800 40.21100
C  -7.86100 37.06200 39.37000
C  -7.33100 38.45600 39.57100
C  -8.56200 39.31300 39.94600
C  -6.20100 38.62000 40.70000
C  -8.07000 36.57800 37.88500
C  -7.30800 35.31200 37.52600
H  -6.20100 35.64800 36.49700
N  -10.85000 41.11300 41.06900
C  -9.76800 41.52100 40.38400
C  -9.81800 42.96100 40.29800
C  -10.87900 43.44400 41.08100
C  -11.63500 42.22100 41.50800
C  -8.78600 43.70300 39.59700
C  -11.12900 44.89300 41.31500
O  -10.41400 45.75600 40.80700
C  -12.28600 45.41900 42.06000
N  -13.26500 39.70200 42.06500
C  -13.64000 40.99400 42.42300
C  -15.12500 41.06900 42.93600
C  -15.50700 39.58100 42.94200
C  -14.20800 38.86400 42.61700
C  -15.15700 41.81900 44.32900
C  -16.61000 39.28900 41.87300
C  -17.65400 38.26700 42.15500
N  -11.94800 37.17900 41.63200
C  -13.12900 36.59600 42.15000
C  -12.96700 35.08000 42.15400
C  -11.73400 34.85600 41.59100
C  -11.16900 36.16100 41.28700
C  -13.90900 34.03300 42.79500
C  -10.67000 33.88300 41.23500
O  -10.60700 32.68300 41.54900
C  -9.55200 34.61800 40.61400
C  -8.30800 34.59200 41.54200
O  -8.33400 34.87100 42.74200
O  -7.27700 33.98000 40.86400
C  -6.04200 34.14000 41.68000
H  -7.72400 41.13300 39.53500
H  -13.40700 43.02300 42.38700
H  -15.05800 36.84400 42.98900
H  -7.17600 36.37500 39.86500
H  -6.87400 38.78600 38.63800
H  -5.30300 39.03500 40.24100
H  -5.90300 37.62500 41.02900
H  -6.42000 39.28400 41.53600
H  -7.65200 37.30400 37.18700
H  -9.13700 36.44000 37.71200
H  -7.86000 34.45500 37.14100
H  -6.70500 34.99000 38.37500
H  -7.85800 43.22400 39.28400
H  -8.39700 44.46400 40.27300
H  -9.32500 44.15600 38.76400
H  -13.19900 45.16300 41.52300
H  -12.05100 46.47700 42.18100
H  -12.20700 44.85300 42.98800
H  -15.51200 41.61800 42.07700
H  -15.86400 39.22700 43.90900
H  -14.20500 41.91900 44.84900
H  -15.80200 41.26100 45.00800
H  -15.58400 42.80400 44.14200
H  -16.05700 39.07500 40.95800
H  -17.10200 40.21400 41.57100
H  -17.71900 37.80900 41.16800
H  -18.66700 38.66700 42.17800
H  -17.41900 37.55000 42.94200
H  -13.25300 33.34700 43.33000
H  -14.53600 33.51600 42.06800
H  -14.51600 34.49400 43.57400
H  -9.26500 34.34400 39.59900
H  -5.92200 35.17400 42.00400
H  -5.17700 33.95800 41.04200
H  -5.90800 33.43400 42.50000

