158

Mg 34.53200 2.92500 29.31000
C  32.44000 4.09400 31.98000
C  37.09300 2.67800 31.69100
C  36.51000 1.99800 26.91500
C  31.83500 3.56100 27.13100
N  34.64400 3.18700 31.50800
C  33.67200 3.58500 32.40400
C  34.20100 3.66600 33.84900
C  35.74400 3.58600 33.65500
C  35.83200 3.14600 32.15000
C  36.50300 4.92800 33.93600
C  33.46200 2.64900 34.80900
C  33.82500 2.72600 36.34500
H  34.73100 3.90300 36.96200
N  36.60500 2.39400 29.26300
C  37.46000 2.28700 30.38400
C  38.66600 1.68500 29.90200
C  38.59000 1.55200 28.47500
C  37.16100 1.91400 28.12500
C  39.81200 1.39900 30.86400
C  39.70600 1.14400 27.41600
O  39.53700 1.15500 26.21800
C  40.96200 0.65500 27.90100
N  34.29900 3.03500 27.27000
C  35.25300 2.50600 26.46400
C  34.83300 2.55900 25.01700
C  33.29500 2.95800 25.09600
C  33.15600 3.20000 26.61600
C  35.70500 3.41600 24.12000
C  32.25700 1.87000 24.53000
C  32.02300 0.65500 25.44100
N  32.51500 3.64900 29.52500
C  31.56300 3.84800 28.50500
C  30.35000 4.30700 29.01900
C  30.65300 4.35700 30.40000
C  31.99700 4.09400 30.63500
C  29.11400 4.46600 28.31700
C  30.05000 4.74900 31.60800
O  28.95200 5.22700 31.88200
C  31.18600 4.46500 32.70400
C  31.29300 5.74600 33.48900
O  31.76500 6.79100 33.05900
O  31.24400 5.46400 34.82100
C  31.58200 6.44300 35.89600
H  37.81700 2.51900 32.49300
H  37.06500 1.54900 26.08900
H  31.05900 3.78800 26.39800
H  33.91600 4.66100 34.19200
H  36.08500 2.82900 34.36100
H  37.40500 4.75200 34.52200
H  35.98200 5.64900 34.56500
H  36.76900 5.31000 32.95000
H  34.01100 1.77700 34.45400
H  32.39500 2.60100 34.59000
H  34.30100 1.78400 36.61900
H  33.00100 2.82100 37.05300
H  40.03600 0.34200 30.72200
H  39.43900 1.40300 31.88800
H  40.70600 1.99700 30.68800
H  41.46800 1.29900 28.62000
H  41.68300 0.61700 27.08400
H  40.80200 -0.32200 28.35500
H  35.00600 1.56400 24.60600
H  33.16800 3.87800 24.52600
H  36.54000 3.84800 24.67200
H  35.11900 4.25100 23.73500
H  36.08900 2.93200 23.22200
H  32.62300 1.42300 23.60600
H  31.33100 2.41200 24.33800
H  32.80700 -0.07700 25.24400
H  31.05200 0.30700 25.08700
H  32.06300 0.82800 26.51600
H  29.09500 3.72700 27.51500
H  28.98100 5.47100 27.91500
H  28.29300 4.26100 29.00400
H  30.86400 3.62200 33.31400
H  31.26600 7.42800 35.55200
H  32.66700 6.44600 36.00600
H  31.09100 6.22700 36.84400
Mg 50.35500 35.53800 27.21300
C  47.94200 34.29600 29.51600
C  50.69300 38.34400 29.17700
C  52.17800 36.78200 24.78300
C  49.09900 33.24900 24.95400
N  49.46600 36.21400 29.09800
C  48.68500 35.38200 29.95800
C  48.69200 36.00700 31.36600
C  49.12400 37.48400 31.05000
C  49.84300 37.33600 29.71100
C  47.94300 38.52000 31.11600
C  49.70000 35.27500 32.30000
C  49.26900 35.23100 33.81100
H  48.24500 36.27600 34.34500
N  51.46900 37.24100 27.07600
C  51.53100 38.31700 28.00000
C  52.42000 39.38100 27.47500
C  52.86600 38.93400 26.20000
C  52.18000 37.60600 25.99400
C  52.79000 40.56400 28.32800
C  53.85400 39.54100 25.29600
O  54.11200 39.07600 24.22700
C  54.55700 40.81100 25.69400
N  50.73600 34.98100 25.22100
C  51.61600 35.62800 24.39400
C  51.73200 34.99400 23.06300
C  50.94500 33.69200 23.27500
C  50.15700 33.93600 24.58000
C  51.22400 35.96800 21.95100
C  51.87700 32.46000 23.32500
C  51.32200 31.20300 22.50700
N  48.81600 34.06500 27.15200
C  48.41700 33.23900 26.19200
C  47.34400 32.39000 26.61300
C  47.15800 32.75100 27.92700
C  48.01900 33.80200 28.17600
C  46.73000 31.28100 25.90500
C  46.38100 32.53200 29.14900
O  45.52100 31.71900 29.42100
C  46.85300 33.57800 30.21100
C  47.31400 32.72000 31.39000
O  48.39900 32.12500 31.43100
O  46.38000 32.67400 32.46600
C  46.72800 31.89600 33.59400
H  50.71300 39.22800 29.81700
H  52.66800 37.30600 23.96000
H  48.59200 32.50200 24.34000
H  47.68000 36.01900 31.76900
H  49.73600 37.77200 31.90400
H  47.96400 39.04700 30.16200
H  48.06500 39.26500 31.90100
H  46.99500 37.98300 31.14100
H  50.64100 35.82400 32.28000
H  49.94200 34.31200 31.85200
H  50.13100 35.34500 34.46800
H  48.94300 34.19900 33.94700
H  53.86800 40.55800 28.49000
H  52.27400 40.58000 29.28800
H  52.37000 41.42700 27.81300
H  53.82400 41.59700 25.87100
H  55.15200 41.25000 24.89300
H  55.27000 40.66700 26.50600
H  52.78000 34.84400 22.80600
H  50.25500 33.49900 22.45400
H  50.39100 35.35500 21.60800
H  51.97900 36.18100 21.19400
H  50.88800 36.89100 22.42500
H  51.86300 32.03400 24.32800
H  52.90700 32.66600 23.03400
H  52.21900 30.69000 22.16100
H  50.75700 31.40900 21.59800
H  50.72800 30.60200 23.19600
H  47.53900 30.70000 25.46300
H  46.01700 31.71100 25.20200
H  46.14500 30.59700 26.52000
H  46.01200 34.22900 30.45100
H  47.80100 31.80700 33.76200
H  46.21000 30.94500 33.46900
H  46.23500 32.40300 34.42400

