158

Mg -2.88100 16.54200 27.75000
C  -3.49700 14.35300 30.43100
C  -3.57700 19.12400 29.98100
C  -2.95700 18.66400 25.25600
C  -3.23600 13.82600 25.61700
N  -3.43800 16.68300 29.94800
C  -3.52800 15.66600 30.83400
C  -3.78900 16.15100 32.22800
C  -4.02000 17.69200 32.03300
C  -3.72200 17.82300 30.55300
C  -5.34600 18.30000 32.50200
C  -2.69700 15.97300 33.25200
C  -3.23500 15.78200 34.76000
H  -2.18700 16.04600 35.81600
N  -2.96100 18.64900 27.63500
C  -3.20300 19.52700 28.66300
C  -3.15200 20.83000 28.08900
C  -2.95600 20.74900 26.75200
C  -2.88900 19.30500 26.46700
C  -3.36600 22.12700 28.85400
C  -2.75900 21.89000 25.67000
O  -2.73100 21.72400 24.43100
C  -2.66000 23.33600 26.16600
N  -3.14600 16.32300 25.81100
C  -3.20300 17.33300 24.88000
C  -3.24700 16.96100 23.39600
C  -3.29500 15.37700 23.60500
C  -3.17600 15.10900 25.14000
C  -4.43800 17.44800 22.56300
C  -2.13600 14.75400 22.77600
C  -0.76000 14.59600 23.44800
N  -3.24400 14.49000 27.86900
C  -3.29000 13.48500 26.98600
C  -3.58200 12.22300 27.60400
C  -3.61800 12.45200 28.98100
C  -3.49400 13.86800 29.13400
C  -3.74100 10.93500 26.90600
C  -3.77100 11.84800 30.28300
O  -3.89800 10.69500 30.69900
C  -3.64100 13.12000 31.20800
C  -2.52500 12.75100 32.05200
O  -1.33000 12.89800 31.76200
O  -2.95800 12.24700 33.24800
C  -1.97200 11.87000 34.23100
H  -3.60000 20.00400 30.62700
H  -3.08600 19.32800 24.39800
H  -3.29000 12.98700 24.92100
H  -4.76500 15.75200 32.50400
H  -3.27400 18.32000 32.52000
H  -6.22400 17.65800 32.58600
H  -5.50600 19.16000 31.85200
H  -5.14200 18.74400 33.47700
H  -1.93300 16.74900 33.18700
H  -2.10800 15.07800 33.05300
H  -3.66700 14.78200 34.81700
H  -4.06900 16.45800 34.94800
H  -4.15300 22.75300 28.43500
H  -2.44600 22.71200 28.87000
H  -3.60900 21.83400 29.87600
H  -3.55400 23.66400 26.69500
H  -2.52800 23.93000 25.26100
H  -1.76800 23.38300 26.79000
H  -2.26100 17.21200 23.00500
H  -4.26100 15.00100 23.26900
H  -5.21900 16.70600 22.39800
H  -4.21800 17.86200 21.57900
H  -4.97200 18.18500 23.16300
H  -1.96200 15.39200 21.91000
H  -2.47700 13.77100 22.45000
H  -0.79000 14.55600 24.53700
H  -0.26900 15.51200 23.12300
H  -0.26800 13.77000 22.93400
H  -2.76400 10.50500 26.68400
H  -4.30000 11.04800 25.97700
H  -4.32600 10.25300 27.52300
H  -4.57900 13.23400 31.75100
H  -1.14600 11.28200 33.83100
H  -2.51100 11.28200 34.97400
H  -1.62700 12.79800 34.68800
Mg 49.18200 46.96900 44.11400
C  46.15600 46.99500 42.28200
C  49.97600 44.10700 42.58300
C  52.34500 47.72500 44.99900
C  48.23000 50.28300 45.11400
N  48.06800 45.68700 42.79800
C  46.86600 45.83000 42.16600
C  46.40100 44.49200 41.44900
C  47.58200 43.55600 41.78700
C  48.59700 44.43400 42.51400
C  47.11100 42.34200 42.64300
C  46.31200 44.67700 39.91100
C  45.02300 44.12200 39.34800
H  45.27900 43.22500 38.09900
N  50.93000 45.99300 43.91700
C  51.05000 44.82100 43.17800
C  52.49600 44.50100 43.16000
C  53.18100 45.44200 43.91900
C  52.18700 46.42500 44.38900
C  53.09800 43.42300 42.18200
C  54.71800 45.33500 44.27800
O  55.46100 44.46400 43.81300
C  55.38800 46.34800 45.26700
N  50.12900 48.76800 44.97800
C  51.41200 48.72900 45.30900
C  51.68800 49.94100 46.15700
C  50.43900 50.88500 46.10500
C  49.50800 49.98300 45.37200
C  52.16000 49.59600 47.62300
C  50.71300 52.31600 45.39400
C  51.61500 53.28700 46.16800
N  47.55200 48.37200 43.86600
C  47.35700 49.57700 44.36000
C  46.06100 50.11300 43.91800
C  45.55600 49.14800 43.09300
C  46.48700 48.06900 43.10800
C  45.48900 51.43600 44.34900
C  44.41000 48.76600 42.24200
O  43.41100 49.43500 42.02800
C  44.72600 47.39100 41.63000
C  43.58900 46.42300 41.78800
O  43.39300 45.65000 42.71400
O  42.61400 46.51800 40.73700
C  41.53200 45.51100 40.87400
H  50.34600 43.21900 42.06600
H  53.41400 47.90500 45.13100
H  47.93400 51.27700 45.45400
H  45.43400 44.20000 41.85900
H  48.13400 43.13200 40.94900
H  47.54300 42.31000 43.64300
H  47.50800 41.47700 42.11200
H  46.04000 42.33000 42.84300
H  47.08700 44.09800 39.40900
H  46.48100 45.72100 39.65100
H  44.35600 44.91900 39.01800
H  44.47700 43.54100 40.09000
H  53.90900 42.85100 42.63100
H  53.55400 43.93600 41.33500
H  52.38100 42.62500 41.99100
H  55.56300 47.31700 44.79800
H  56.33900 45.95800 45.62900
H  54.71000 46.40200 46.11800
H  52.46100 50.52300 45.65600
H  50.08100 51.16300 47.09700
H  52.45600 48.62400 48.01600
H  51.26600 49.90500 48.16500
H  52.78300 50.43800 47.92600
H  49.77600 52.81600 45.15000
H  51.12600 52.06100 44.41800
H  51.11500 54.23900 46.34700
H  52.51000 53.61100 45.63700
H  51.83000 52.88700 47.15900
H  45.74700 51.76500 45.35500
H  44.40400 51.38400 44.26200
H  45.86200 52.25800 43.73800
H  44.91000 47.56300 40.57000
H  40.87200 45.78700 41.69600
H  41.90600 44.53300 41.17800
H  40.97800 45.32700 39.95300

