158

Mg 9.33300 4.07500 28.04000
C  10.25700 2.18100 30.94900
C  7.02100 5.75800 29.96900
C  8.19200 5.53100 25.22900
C  10.85700 1.59500 26.09900
N  8.60300 3.84100 30.18600
C  9.40100 3.26400 31.18200
C  8.87800 3.61600 32.56600
C  7.82100 4.75600 32.26200
C  7.84500 4.79600 30.71900
C  6.44500 4.59800 32.81300
C  9.97000 3.78000 33.62300
C  9.77300 4.84800 34.69500
H  10.00700 4.49300 36.15000
N  7.92100 5.52400 27.67100
C  7.05000 6.06000 28.56800
C  6.27800 7.10900 27.95700
C  6.70500 7.22600 26.54300
C  7.62600 6.04800 26.40300
C  5.29300 7.98500 28.70600
C  6.30300 8.14300 25.48300
O  6.67200 8.11100 24.31800
C  5.31200 9.32800 25.76200
N  9.61000 3.74300 25.92800
C  9.04200 4.50100 25.01900
C  9.49000 4.05300 23.63100
C  10.35600 2.79100 23.89300
C  10.24200 2.67100 25.40100
C  8.37400 3.94300 22.51400
C  11.77400 2.91400 23.31500
C  12.35800 1.80600 22.35100
N  10.45300 2.31400 28.36900
C  10.97900 1.37900 27.49100
C  11.55900 0.31400 28.23100
C  11.45700 0.66300 29.53800
C  10.67100 1.83200 29.61900
C  12.23900 -0.87300 27.58200
C  11.78100 0.25100 30.86300
O  12.50200 -0.64600 31.28800
C  11.04700 1.23000 31.86000
C  10.15500 0.43300 32.68600
O  8.98500 0.05700 32.47100
O  10.65700 0.27400 33.95700
C  9.66000 -0.23100 34.95600
H  6.35200 6.37200 30.57500
H  7.81200 5.91500 24.28000
H  11.33600 0.96400 25.34700
H  8.35300 2.74000 32.94900
H  8.24800 5.72400 32.52500
H  5.61500 5.01300 32.24000
H  6.53100 5.04500 33.80400
H  6.17500 3.54500 32.88600
H  10.89000 3.90800 33.05200
H  10.13200 2.85900 34.18400
H  8.70300 5.05000 34.74300
H  10.37600 5.72300 34.45500
H  4.94200 7.61200 29.66900
H  4.43800 7.99400 28.03000
H  5.63200 9.01300 28.83200
H  5.63200 10.12500 25.09100
H  5.46800 9.70300 26.77400
H  4.25800 9.08500 25.62700
H  10.20400 4.74900 23.19200
H  9.90600 1.90100 23.45400
H  7.42500 4.34800 22.86400
H  8.26200 2.89100 22.25000
H  8.76300 4.51200 21.67000
H  12.51700 3.04400 24.10300
H  11.83300 3.81900 22.71000
H  12.12300 2.18000 21.35500
H  11.87800 0.83200 22.44300
H  13.44300 1.84500 22.44700
H  13.16200 -0.45000 27.18500
H  11.57400 -1.37800 26.88100
H  12.41200 -1.71100 28.25700
H  11.69200 1.69300 32.60600
H  9.00900 0.61500 35.17900
H  10.18400 -0.53700 35.86100
H  9.02500 -1.07800 34.69500
Mg 4.81600 54.45900 40.57900
C  4.67300 50.95800 41.13700
C  7.91300 53.99000 39.08200
C  4.82900 57.72100 39.81100
C  1.80400 54.77900 42.19800
N  5.98400 52.52300 39.84100
C  5.77500 51.22500 40.28100
C  6.84200 50.30500 39.75100
C  8.02400 51.33300 39.40900
C  7.33500 52.75700 39.48900
C  9.19800 51.33500 40.47200
C  6.31400 49.44600 38.63600
C  5.38300 50.11500 37.64000
H  5.76100 50.10700 36.15200
N  6.10300 55.63800 39.40700
C  7.38100 55.31900 38.97100
C  7.99100 56.48300 38.48000
C  7.05300 57.56300 38.57700
C  5.90700 56.98700 39.23300
C  9.40600 56.49900 37.85000
C  7.20500 58.95900 38.00000
O  8.25200 59.25000 37.49300
C  6.08600 59.92200 37.87200
N  3.31000 55.97200 40.67600
C  3.64500 57.27600 40.48100
C  2.57000 58.30100 40.95500
C  1.61800 57.35100 41.67200
C  2.25000 55.90500 41.45300
C  3.15100 59.46800 41.89500
C  0.09300 57.53500 41.23100
C  -0.94600 57.94900 42.38100
N  3.50800 53.18000 41.49700
C  2.34500 53.51700 42.21000
C  1.84100 52.30800 42.83900
C  2.77300 51.30600 42.49100
C  3.69600 51.87000 41.63000
C  0.64000 52.37900 43.73300
C  3.09700 49.88800 42.73800
O  2.51900 49.04800 43.45000
C  4.39800 49.62300 41.87200
C  3.82600 48.66800 40.88300
O  3.02000 48.98700 40.06000
O  4.50500 47.48100 40.93300
C  4.07100 46.41900 40.02200
H  8.96400 53.89700 38.80100
H  4.94500 58.80500 39.88000
H  0.93100 54.90700 42.84000
H  7.15300 49.83000 40.68200
H  8.36100 51.21900 38.37800
H  9.13000 50.44700 41.10000
H  9.20100 52.21300 41.11900
H  10.15700 51.37000 39.95300
H  5.91200 48.53700 39.08300
H  7.16500 49.20000 38.00100
H  4.88800 50.97700 38.08700
H  4.52800 49.44700 37.53600
H  9.59000 56.92400 36.86300
H  9.68900 55.45600 37.71400
H  10.05100 57.02800 38.55100
H  5.96900 60.39100 38.84900
H  5.12500 59.51200 37.56000
H  6.31900 60.81300 37.29000
H  2.03800 58.77600 40.13100
H  1.56900 57.55800 42.74100
H  4.19800 59.70800 41.71200
H  3.06800 59.07700 42.90900
H  2.51200 60.34400 41.77300
H  -0.28800 56.63700 40.74500
H  -0.02500 58.24200 40.40900
H  -1.73200 57.21700 42.19300
H  -1.50800 58.86000 42.17300
H  -0.58900 58.13500 43.39400
H  -0.19500 52.89400 43.25900
H  0.92700 52.92500 44.63300
H  0.33400 51.39100 44.07500
H  5.20500 49.16800 42.44600
H  4.69300 45.55300 40.24700
H  4.36200 46.80800 39.04600
H  3.00600 46.18900 39.99500

