158

Mg 0.40500 7.09400 26.31300
C  1.13600 8.99000 29.05100
C  0.57000 4.28400 28.26000
C  -0.28200 5.25800 23.53100
C  0.72900 9.89800 24.30300
N  0.91200 6.71000 28.42100
C  0.91100 7.60400 29.36200
C  0.67400 7.09700 30.72200
C  0.82000 5.62000 30.49100
C  0.77300 5.46900 28.99500
C  2.16900 5.07500 31.05200
C  -0.62500 7.60200 31.38000
C  -0.63200 8.15800 32.80700
H  0.50800 7.65900 33.71100
N  0.08300 5.06300 25.93500
C  0.13900 4.12100 26.89100
C  -0.29200 2.85800 26.35000
C  -0.53000 3.10700 24.99500
C  -0.23100 4.52100 24.77500
C  -0.40200 1.61000 27.08500
C  -1.06500 2.13500 24.00600
O  -1.13600 2.40600 22.81700
C  -1.42100 0.66100 24.33600
N  0.38000 7.41600 24.19400
C  0.01900 6.53600 23.25700
C  -0.15000 7.18900 21.80500
C  -0.04500 8.68900 22.15600
C  0.40600 8.69000 23.62100
C  0.88500 6.61400 20.79500
C  -1.44700 9.46300 22.06100
C  -1.49000 10.86200 21.50300
N  0.94800 9.09700 26.61800
C  0.96200 10.09000 25.69100
C  1.34200 11.25500 26.33900
C  1.43900 10.92900 27.71400
C  1.14700 9.54000 27.78800
C  1.57500 12.61400 25.67100
C  1.77700 11.47700 29.00300
O  2.24500 12.58700 29.27900
C  1.30600 10.24500 29.97300
C  2.29300 10.13000 31.04000
O  3.25100 9.36100 31.09100
O  1.87200 11.02100 32.00400
C  2.72500 11.09100 33.21900
H  0.63800 3.37400 28.85900
H  -0.81200 4.71500 22.74500
H  0.77700 10.73000 23.59700
H  1.55900 7.44900 31.25100
H  -0.02000 5.06600 30.91100
H  1.93700 4.36900 31.84900
H  2.88700 5.79000 31.45400
H  2.72600 4.62900 30.22800
H  -1.42400 6.87700 31.22800
H  -0.86400 8.42200 30.70200
H  -1.62700 7.97900 33.21500
H  -0.60800 9.24600 32.74300
H  -0.20500 1.76200 28.14700
H  0.24700 0.86200 26.63100
H  -1.42900 1.24600 27.12300
H  -2.19100 0.43200 25.07300
H  -0.49700 0.08500 24.36800
H  -1.88600 0.26700 23.43200
H  -1.14500 6.85700 21.50900
H  0.76400 9.13900 21.58000
H  1.59900 7.41400 20.60300
H  0.28000 6.42600 19.90700
H  1.36200 5.72100 21.20000
H  -1.91400 9.44400 23.04500
H  -2.19300 8.86400 21.53800
H  -2.53600 11.15400 21.41000
H  -0.96800 10.91400 20.54800
H  -1.02900 11.45100 22.29700
H  2.05600 13.36600 26.29600
H  0.63600 12.91000 25.20200
H  2.20600 12.40400 24.80800
H  0.35100 10.62200 30.33800
H  3.57600 10.41100 33.22300
H  2.02200 10.59000 33.88500
H  3.12900 12.05500 33.53100
Mg -6.07600 25.34700 25.61000
C  -4.22800 26.42500 28.25200
C  -7.31200 22.79400 27.79700
C  -7.70400 23.98200 23.01600
C  -4.06800 27.08800 23.40300
N  -5.85000 24.69500 27.74600
C  -5.12200 25.40900 28.59900
C  -5.35200 25.01900 30.00500
C  -6.06100 23.60600 29.79500
C  -6.37200 23.67200 28.33500
C  -5.36700 22.32600 30.19800
C  -6.15800 26.08700 30.81000
C  -6.69900 25.61900 32.18900
H  -5.77200 24.70100 33.06700
N  -7.46900 23.72900 25.47500
C  -7.76800 22.80000 26.44800
C  -8.77800 21.93700 25.87200
C  -9.08100 22.43000 24.52300
C  -8.08000 23.44800 24.28400
C  -9.39200 20.74700 26.62000
C  -10.19200 22.03200 23.58000
O  -10.36500 22.55700 22.51100
C  -11.23500 20.99300 24.01800
N  -5.90400 25.62300 23.44800
C  -6.70700 24.90300 22.63400
C  -6.41000 25.25500 21.11200
C  -5.37900 26.45200 21.31700
C  -5.10300 26.37800 22.78300
C  -5.98100 23.95900 20.25000
C  -5.99100 27.88600 20.92100
C  -6.08000 28.23100 19.40200
N  -4.55900 26.61200 25.73500
C  -3.77400 27.17900 24.79700
C  -2.65300 27.92800 25.46500
C  -2.82200 27.68900 26.82800
C  -3.97200 26.88500 26.95300
C  -1.55400 28.75600 24.70700
C  -2.26800 27.91600 28.15300
O  -1.30200 28.54800 28.60900
C  -3.23100 27.19100 29.10700
C  -2.37200 26.31800 30.03700
O  -1.68900 25.33700 29.67700
O  -2.39000 26.75800 31.34900
C  -1.66500 26.01600 32.36400
H  -7.71600 22.10000 28.53800
H  -8.12400 23.36200 22.22100
H  -3.43500 27.66400 22.72600
H  -4.33900 24.81200 30.35000
H  -7.04200 23.58900 30.27000
H  -5.37000 21.53600 29.44700
H  -5.87200 21.96200 31.09300
H  -4.38200 22.67100 30.51100
H  -7.00400 26.32200 30.16500
H  -5.75400 27.09900 30.79200
H  -7.55900 24.98600 31.97000
H  -7.22800 26.38500 32.75500
H  -9.48100 19.85300 26.00400
H  -10.38900 21.02700 26.96100
H  -8.92200 20.45900 27.56100
H  -10.70600 20.05100 23.87600
H  -12.09200 21.18700 23.37200
H  -11.43100 21.32400 25.03800
H  -7.33500 25.62800 20.67200
H  -4.45300 26.33200 20.75600
H  -4.89200 24.00500 20.23900
H  -6.53600 23.96200 19.31200
H  -6.35200 23.02600 20.67400
H  -5.36500 28.59800 21.45800
H  -7.03000 28.16000 21.10800
H  -6.19200 27.26900 18.90100
H  -5.21000 28.83200 19.14000
H  -7.00000 28.75000 19.13600
H  -1.17500 28.22900 23.83200
H  -0.83700 29.08300 25.46000
H  -2.05400 29.61600 24.26300
H  -3.71200 27.90700 29.77300
H  -2.40700 25.29100 32.69900
H  -1.41400 26.67500 33.19400
H  -0.83500 25.42400 31.97800

