158

Mg 47.21500 35.30700 27.59200
C  45.69000 33.45800 30.41400
C  47.62500 37.92800 29.88300
C  48.64600 36.95100 25.12800
C  46.77600 32.49700 25.59700
N  46.91300 35.54100 30.01800
C  46.25600 34.65900 30.83500
C  46.37400 35.17000 32.29400
C  46.66700 36.72500 32.03300
C  47.10300 36.75100 30.54900
C  45.49500 37.72700 32.23600
C  47.54800 34.40700 32.92800
C  47.65700 34.50400 34.47000
H  46.72700 35.35600 35.30400
N  47.98000 37.22700 27.51100
C  48.06400 38.12800 28.51800
C  48.65700 39.28100 27.92300
C  49.11700 39.02600 26.61300
C  48.59300 37.67400 26.36400
C  48.85300 40.55800 28.68600
C  49.92000 39.87000 25.69200
O  50.09800 39.55800 24.52500
C  50.38700 41.16100 26.06900
N  47.51800 34.82100 25.65900
C  48.09800 35.72900 24.80500
C  48.29100 35.10800 23.42400
C  48.08100 33.62400 23.68900
C  47.36600 33.63500 25.03200
C  47.36900 35.74800 22.29900
C  49.34700 32.64700 23.60100
C  49.36900 31.69700 22.36900
N  46.43900 33.43500 27.94900
C  46.39600 32.35800 27.00900
C  45.71700 31.20800 27.63900
C  45.35000 31.66800 28.86000
C  45.79500 32.99600 29.06300
C  45.31900 29.86100 27.02800
C  44.73300 31.21600 30.19600
O  44.16600 30.15100 30.51300
C  44.85300 32.46900 31.11400
C  45.36300 32.01800 32.43000
O  46.35300 31.28200 32.62100
O  44.53200 32.47500 33.40200
C  44.89800 32.00700 34.76000
H  47.77900 38.68300 30.65600
H  49.07700 37.49200 24.28300
H  46.81600 31.59100 24.98900
H  45.43400 35.03300 32.82800
H  47.55700 37.09100 32.54500
H  45.65100 38.42800 33.05600
H  44.55100 37.22700 32.45300
H  45.25700 38.29400 31.33600
H  48.45800 34.97300 32.73000
H  47.59300 33.36300 32.61500
H  48.65600 34.80600 34.78500
H  47.49400 33.48400 34.82000
H  48.88600 40.48800 29.77300
H  48.00800 41.17500 28.38100
H  49.75900 41.05100 28.33400
H  51.08300 41.06400 26.90200
H  49.65200 41.91100 26.36300
H  50.82400 41.58500 25.16500
H  49.27100 35.31100 22.99400
H  47.29400 33.35300 22.98600
H  46.40100 35.95100 22.75600
H  47.18600 35.06600 21.46900
H  47.78600 36.67300 21.90000
H  49.32600 31.97500 24.45900
H  50.30100 33.17000 23.66100
H  48.50200 31.97200 21.76900
H  49.33300 30.67300 22.74100
H  50.19900 31.98300 21.72400
H  45.81800 29.78900 26.06200
H  44.23900 29.92700 26.89800
H  45.61900 29.02400 27.66000
H  43.82700 32.77400 31.32000
H  44.46100 31.04400 35.02300
H  44.43000 32.76800 35.38500
H  45.97400 32.05100 34.92700
Mg 1.03200 42.71100 26.27300
C  3.40300 42.63300 28.98500
C  -1.51700 42.22800 28.48100
C  -1.07500 42.59100 23.58600
C  3.75100 42.85700 24.13400
N  1.05700 42.55700 28.47700
C  2.01000 42.55700 29.37500
C  1.39400 42.47500 30.80000
C  -0.10700 42.11900 30.60900
C  -0.21600 42.23900 29.08200
C  -0.76300 40.84600 31.19900
C  1.68900 43.78100 31.53700
C  1.24400 43.79500 33.06400
H  0.90900 42.44400 33.63000
N  -1.01200 42.44100 26.13800
C  -1.90200 42.41300 27.12100
C  -3.25000 42.36600 26.57400
C  -3.17000 42.40500 25.18400
C  -1.69000 42.49900 24.89500
C  -4.44000 42.31900 27.39400
C  -4.30000 42.57000 24.15700
O  -4.07600 42.94600 23.01900
C  -5.67700 42.35500 24.62600
N  1.33800 42.68500 24.22300
C  0.30200 42.56600 23.32600
C  0.71800 42.69600 21.89600
C  2.25000 42.72800 22.05400
C  2.48600 42.76900 23.54900
C  0.36300 41.44400 21.04800
C  2.86500 43.89000 21.30600
C  3.28900 45.14600 22.08200
N  3.25000 42.81700 26.48800
C  4.13000 42.85600 25.50300
C  5.52800 42.88800 26.06900
C  5.26200 42.77600 27.49800
C  3.86500 42.76300 27.62300
C  6.77800 43.04400 25.31700
C  5.86300 42.69100 28.78800
O  7.01700 42.59400 29.06300
C  4.65800 42.65200 29.84900
C  4.88800 41.53600 30.75200
O  4.85200 40.39100 30.31000
O  5.14000 41.98000 32.02300
C  5.41200 40.87800 32.93800
H  -2.35400 42.10900 29.17300
H  -1.73600 42.54600 22.71800
H  4.47200 43.03600 23.33400
H  1.89600 41.58500 31.17800
H  -0.71700 42.88500 31.08800
H  -1.17700 40.34700 30.32300
H  -1.54700 41.05700 31.92700
H  -0.02500 40.23800 31.72200
H  1.09200 44.57600 31.09000
H  2.75600 43.99300 31.46200
H  0.35500 44.41700 33.17100
H  2.10200 44.11400 33.65500
H  -5.12200 41.49900 27.16700
H  -5.07100 43.16900 27.13300
H  -4.38200 42.53200 28.46200
H  -6.23700 42.39000 23.69200
H  -6.07700 43.11800 25.29500
H  -5.82100 41.35900 25.04700
H  0.30300 43.62500 21.50600
H  2.58500 41.71900 21.81200
H  -0.13000 40.72500 21.70300
H  1.17100 40.94000 20.51800
H  -0.44200 41.78500 20.39700
H  2.14800 44.25500 20.57000
H  3.71900 43.44900 20.79300
H  2.77600 45.27600 23.03500
H  3.07900 46.01000 21.45200
H  4.37400 45.24500 22.11900
H  6.68100 43.97200 24.75300
H  6.88500 42.24500 24.58400
H  7.63700 43.02800 25.98800
H  4.61100 43.57000 30.43500
H  4.94800 41.07400 33.90400
H  6.49200 40.77200 33.04300
H  5.09000 39.90000 32.58200

