158

Mg 8.18000 3.03100 27.06200
C  9.36200 1.50300 30.13500
C  6.31700 5.04600 28.99700
C  6.52600 3.82700 24.36200
C  9.89700 0.53900 25.37300
N  7.72000 3.07600 29.37100
C  8.54600 2.59800 30.34200
C  8.13000 3.17100 31.70000
C  7.08900 4.28100 31.29000
C  6.95200 4.07200 29.77500
C  5.67200 4.32000 32.05600
C  9.39200 3.82200 32.45700
C  9.69800 3.36700 33.95100
H  10.11900 4.43300 35.01600
N  6.81000 4.47500 26.64600
C  6.17000 5.27100 27.57200
C  5.17400 6.07800 26.86000
C  5.18700 5.73300 25.53300
C  6.21100 4.72500 25.42200
C  4.34200 7.11600 27.53700
C  4.39200 6.23400 24.32000
O  4.51100 5.86100 23.17500
C  3.33600 7.27200 24.51600
N  8.34700 2.43300 25.10200
C  7.49100 2.86200 24.18100
C  7.70700 2.07600 22.82400
C  8.98600 1.21700 23.12500
C  9.08600 1.38000 24.64300
C  6.40400 1.24900 22.48900
C  10.28500 1.55500 22.25300
C  11.17100 0.35700 21.87600
N  9.28000 1.35100 27.54900
C  10.00200 0.46900 26.78900
C  10.88200 -0.39500 27.51900
C  10.59500 -0.05200 28.87900
C  9.64600 0.99700 28.85900
C  11.83300 -1.42500 26.98900
C  10.88300 -0.43000 30.22000
O  11.56300 -1.29700 30.71000
C  10.15100 0.66500 31.14600
C  9.30100 -0.09500 32.05200
O  8.20100 -0.57700 31.73700
O  9.75200 -0.05400 33.31600
C  8.81400 -0.53300 34.36300
H  5.72000 5.68800 29.64800
H  5.93400 4.13000 23.49600
H  10.41200 -0.24600 24.81600
H  7.56600 2.41900 32.25300
H  7.60900 5.23500 31.38000
H  4.88600 3.93700 31.40500
H  5.56000 5.36900 32.33200
H  5.68500 3.68200 32.93900
H  9.15700 4.87200 32.63500
H  10.29600 3.89300 31.85200
H  10.57700 2.72500 34.00000
H  8.91600 2.66000 34.22900
H  4.43000 7.13000 28.62300
H  3.34000 6.77300 27.27800
H  4.54600 8.08900 27.08900
H  2.79800 7.46600 23.58800
H  3.71500 8.24600 24.82600
H  2.52200 6.91600 25.14900
H  7.95900 2.79400 22.04400
H  8.76500 0.15100 23.16500
H  5.73500 1.32800 23.34500
H  6.81600 0.24100 22.43800
H  5.98700 1.56200 21.53200
H  10.90900 2.14000 22.92800
H  9.92300 2.15200 21.41500
H  11.14300 0.16400 20.80400
H  10.70000 -0.50600 22.34900
H  12.08500 0.39000 22.46800
H  12.68200 -0.80000 26.71100
H  11.41100 -1.97800 26.15000
H  12.10500 -2.11600 27.78600
H  10.90900 1.24400 31.67200
H  8.43900 -1.54800 34.23300
H  7.95000 0.13200 34.39900
H  9.38300 -0.53300 35.29300
Mg -13.15600 16.04800 41.70400
C  -10.23000 14.34400 41.07400
C  -11.74400 18.84800 40.16900
C  -16.10400 17.70800 41.96000
C  -14.77700 13.05300 42.47300
N  -11.13600 16.52000 40.82800
C  -10.12000 15.68600 40.64000
C  -8.97900 16.27100 39.85400
C  -9.44600 17.76700 39.86700
C  -10.89200 17.74700 40.35700
C  -8.61400 18.77400 40.67400
C  -8.63200 15.57100 38.46700
C  -7.11000 15.23800 38.16700
H  -6.48200 15.90100 36.91600
N  -13.82300 17.99100 41.21800
C  -13.12400 18.95100 40.52600
C  -13.98200 20.04400 40.28500
C  -15.19700 19.89800 40.92000
C  -15.12300 18.54200 41.42900
C  -13.48300 21.34100 39.57200
C  -16.29400 20.92700 40.95300
O  -16.10200 21.99600 40.42900
C  -17.58100 20.71700 41.73000
N  -15.18100 15.46700 42.05300
C  -16.17000 16.35700 42.34400
C  -17.41700 15.68700 42.92300
C  -16.88100 14.22300 43.23800
C  -15.48100 14.22900 42.60900
C  -18.24500 16.45300 43.99900
C  -17.88100 13.05300 42.86300
C  -18.43500 12.18400 43.99100
N  -12.65800 14.05900 41.84100
C  -13.40100 12.93600 42.08900
C  -12.55900 11.77000 42.02200
C  -11.23400 12.27100 41.67500
C  -11.39500 13.64100 41.49400
C  -12.96600 10.28800 41.99900
C  -9.85100 11.91500 41.46200
O  -9.29100 10.81700 41.57300
C  -9.14000 13.22000 40.92800
C  -7.92900 13.47600 41.66800
O  -7.84900 14.03200 42.71300
O  -6.81700 12.89500 41.12500
C  -5.59600 13.04400 41.97600
H  -11.22600 19.71000 39.74400
H  -17.04300 18.24900 42.09000
H  -15.26200 12.18600 42.92700
H  -8.06800 16.17100 40.44400
H  -9.62700 18.11100 38.84900
H  -9.25800 19.36500 41.32400
H  -8.05700 19.40100 39.97800
H  -7.89400 18.17900 41.23500
H  -8.92500 16.08900 37.55400
H  -9.23700 14.66400 38.47700
H  -7.18300 14.15000 38.15500
H  -6.59000 15.49600 39.09000
H  -13.54700 22.18000 40.26500
H  -14.02900 21.36200 38.62900
H  -12.47000 21.28200 39.17400
H  -18.16500 21.61600 41.53100
H  -17.37500 20.39600 42.75100
H  -18.02200 19.90200 41.15500
H  -18.05900 15.65300 42.04300
H  -16.68100 14.14300 44.30700
H  -17.71600 17.39600 44.14000
H  -18.21000 16.01200 44.99600
H  -19.29100 16.57800 43.72100
H  -17.34700 12.43600 42.14000
H  -18.80500 13.48600 42.48000
H  -19.46600 11.86100 43.84500
H  -18.27000 12.50500 45.02000
H  -17.80300 11.29700 43.95400
H  -12.19700 9.68800 42.48600
H  -13.07700 9.97900 40.96000
H  -13.93900 10.07700 42.44100
H  -8.75500 13.10900 39.91400
H  -5.29300 14.08900 41.90600
H  -4.76100 12.40500 41.69000
H  -5.77300 12.85700 43.03500

