158

Mg 47.02100 25.52200 28.11700
C  48.18300 27.79800 30.49700
C  46.26300 23.37300 30.66900
C  46.35200 23.30500 25.75900
C  48.69900 27.51900 25.61400
N  47.27500 25.54600 30.32100
C  47.48700 26.71500 30.99400
C  47.10400 26.57200 32.47600
C  46.46600 25.11400 32.53300
C  46.69000 24.61400 31.07100
C  47.09300 24.29300 33.63900
C  46.16900 27.71600 33.02500
C  45.35200 27.46500 34.22000
H  45.21100 28.58000 35.31500
N  46.22500 23.69700 28.22400
C  45.94400 22.98400 29.36500
C  45.34900 21.76600 28.89200
C  45.29400 21.73700 27.44900
C  45.98300 22.94600 27.08100
C  44.62400 20.86800 29.89800
C  44.65800 20.67300 26.56400
O  44.80200 20.64900 25.29800
C  44.04100 19.37700 27.03200
N  47.26300 25.54800 25.96400
C  46.84700 24.48300 25.22500
C  47.12000 24.77200 23.72200
C  47.79000 26.18600 23.69100
C  48.02000 26.43500 25.18200
C  48.03800 23.74300 23.04700
C  47.12200 27.37500 22.96700
C  47.98700 28.22900 22.08400
N  48.24200 27.41400 28.02200
C  48.91400 27.97900 26.98100
C  49.68600 29.00600 27.50900
C  49.37700 29.11300 28.84000
C  48.52800 27.99900 29.16200
C  50.63200 29.84600 26.68300
C  49.67900 29.75800 30.10500
O  50.44400 30.69300 30.35600
C  48.87900 28.99000 31.19000
C  49.90500 28.57900 32.18600
O  50.33400 27.43800 32.36800
O  49.96000 29.65300 33.10500
C  50.50600 29.39400 34.44900
H  46.03800 22.68600 31.48700
H  46.27500 22.51600 25.00800
H  49.23400 28.01500 24.80200
H  47.92300 26.60700 33.19500
H  45.39500 25.26200 32.67400
H  46.33300 24.17400 34.41100
H  47.93600 24.75000 34.15700
H  47.44900 23.31500 33.31600
H  45.51600 27.89400 32.17100
H  46.74400 28.63300 33.15000
H  45.74300 26.57400 34.71000
H  44.31900 27.19700 34.00000
H  43.58700 20.66000 29.63300
H  44.53900 21.36700 30.86300
H  45.21200 19.95700 30.00900
H  44.05900 18.74800 26.14300
H  42.98900 19.53200 27.27000
H  44.60800 18.87700 27.81700
H  46.17700 24.75600 23.17600
H  48.81100 26.01300 23.35300
H  48.41000 23.96800 22.04800
H  47.39500 22.86400 23.01000
H  48.87300 23.39700 23.65600
H  46.57700 28.09300 23.57900
H  46.42000 26.87300 22.30000
H  47.58500 28.15300 21.07300
H  49.04500 27.96800 22.05700
H  47.86700 29.24900 22.44900
H  51.65000 29.57200 26.96000
H  50.37300 30.87700 26.92700
H  50.32000 29.79000 25.64000
H  48.13400 29.70400 31.54100
H  50.69100 28.32000 34.47200
H  49.88100 29.69700 35.28900
H  51.46400 29.90500 34.54000
Mg 50.00000 46.31800 42.92400
C  46.59700 46.82600 41.75900
C  49.82900 43.22800 41.61900
C  53.32300 46.18000 43.43500
C  50.06300 49.74400 43.65900
N  48.39600 45.17800 41.73000
C  47.16000 45.57100 41.37200
C  46.38100 44.31900 40.90200
C  47.26000 43.08500 41.20400
C  48.60400 43.81800 41.58000
C  46.70100 42.23700 42.30900
C  46.02300 44.52100 39.36200
C  44.53300 44.26500 39.05500
H  44.07900 44.74100 37.65000
N  51.35700 44.83800 42.80300
C  51.06700 43.58000 42.24900
C  52.30800 42.73500 42.29000
C  53.27700 43.56400 42.95700
C  52.71000 44.95800 43.04400
C  52.38400 41.31100 41.92100
C  54.73200 43.05400 43.27600
O  55.11900 41.95200 42.86600
C  55.70100 43.80200 44.08400
N  51.54900 47.74200 43.43300
C  52.86100 47.47400 43.58100
C  53.62000 48.67900 44.16700
C  52.55000 49.80400 44.22600
C  51.26600 49.07300 43.65900
C  54.29300 48.46500 45.53900
C  52.88800 51.06100 43.41600
C  54.11200 51.91000 43.76600
N  48.62600 47.97000 42.77700
C  48.78300 49.24000 43.24100
C  47.49100 49.91700 43.07500
C  46.63700 48.99100 42.50400
C  47.37200 47.88700 42.36500
C  47.34400 51.32200 43.59500
C  45.27100 48.73800 42.00600
O  44.27200 49.42400 41.84900
C  45.21600 47.25600 41.66100
C  44.44000 46.68400 42.89200
O  44.38200 47.15500 44.04100
O  43.75100 45.56800 42.56300
C  43.12900 44.82000 43.68800
H  49.90400 42.24900 41.14200
H  54.38400 45.93500 43.52100
H  50.16100 50.77900 43.99300
H  45.37100 44.26400 41.30800
H  47.47500 42.47200 40.32900
H  45.94100 42.73300 42.91300
H  47.56300 41.98600 42.92800
H  46.27200 41.28100 42.00800
H  46.61700 43.82900 38.76500
H  46.28000 45.54900 39.10600
H  43.83300 44.80200 39.69600
H  44.41500 43.18400 39.13300
H  53.33200 41.18100 41.40000
H  51.75000 41.01500 41.08500
H  52.17900 40.67400 42.78100
H  55.23000 44.14900 45.00300
H  56.05700 44.64300 43.48800
H  56.55100 43.21400 44.42900
H  54.37500 49.05900 43.47900
H  52.42700 50.11800 45.26200
H  54.09800 47.46300 45.92000
H  53.95000 49.23800 46.22500
H  55.36600 48.64600 45.46800
H  52.10300 51.78100 43.64500
H  52.96500 50.70700 42.38800
H  54.49800 51.49500 44.69800
H  53.77900 52.88000 44.13500
H  54.81600 51.96700 42.93600
H  47.54000 52.07800 42.83500
H  47.87800 51.57200 44.51200
H  46.29600 51.15500 43.84300
H  44.72600 46.99800 40.72200
H  43.05700 43.78100 43.36900
H  42.09600 45.09600 43.90000
H  43.69500 44.87500 44.61800

