158

Mg 53.88400 23.42400 44.35300
C  51.21400 25.82400 43.18700
C  51.89600 21.07500 42.78000
C  56.46300 21.44000 44.24400
C  55.61600 26.15100 45.33100
N  51.81500 23.50400 43.11000
C  51.00400 24.53100 42.72900
C  49.95500 24.02600 41.76100
C  49.86200 22.57600 42.29400
C  51.22900 22.33300 42.83600
C  48.74100 22.28100 43.30500
C  50.52900 24.09500 40.25000
C  49.72100 24.99200 39.20200
H  50.51800 25.56800 37.94600
N  54.08600 21.49900 43.78500
C  53.17400 20.68900 43.21600
C  53.79700 19.34800 42.94100
C  55.12900 19.48200 43.41900
C  55.29200 20.83200 43.81500
C  53.14700 18.15900 42.37900
C  56.05000 18.24900 43.45100
O  55.69700 17.18300 43.02400
C  57.36700 18.29700 44.18900
N  55.90300 23.89600 44.33400
C  56.73000 22.80100 44.52500
C  58.12600 23.32000 45.04400
C  57.77100 24.76800 45.44500
C  56.37900 25.06300 44.93100
C  58.77500 22.48200 46.23800
C  58.65900 25.83100 44.76000
C  58.90300 27.13900 45.56800
N  53.50300 25.56600 44.41500
C  54.33300 26.49400 44.99000
C  53.63200 27.71500 45.08600
C  52.46700 27.49100 44.30400
C  52.39400 26.16100 43.96600
C  54.03400 28.99700 45.77400
C  51.32800 28.11500 43.74400
O  51.01700 29.29000 43.79800
C  50.41200 27.06500 43.03200
C  50.07300 27.53100 41.67600
O  50.88200 27.80800 40.80100
O  48.73000 27.78600 41.66600
C  48.22400 28.38600 40.38100
H  51.40100 20.17400 42.41100
H  57.34100 20.79800 44.34400
H  56.08900 26.94900 45.90700
H  49.00400 24.54700 41.87500
H  49.59200 21.98500 41.41900
H  49.37200 22.03500 44.15900
H  48.12500 21.44600 42.97100
H  48.12100 23.16700 43.44300
H  50.45700 23.09300 39.82700
H  51.57700 24.38300 40.33600
H  49.28500 25.81300 39.77200
H  48.86900 24.38600 38.89400
H  53.19800 17.33000 43.08500
H  53.78300 17.80600 41.56700
H  52.14200 18.32300 41.98800
H  57.08500 18.60500 45.19600
H  58.09500 18.96400 43.72900
H  57.71000 17.27200 44.32900
H  58.77600 23.25200 44.17200
H  57.79200 24.86200 46.53100
H  58.07400 21.65000 46.30300
H  58.89600 23.03400 47.17100
H  59.72100 22.03400 45.93300
H  58.20700 26.08000 43.80000
H  59.62200 25.34800 44.59700
H  58.37800 27.32600 46.50500
H  58.61700 27.93200 44.87800
H  59.92900 27.43000 45.79100
H  55.11300 29.08100 45.91100
H  53.71000 28.85900 46.80600
H  53.45400 29.76300 45.26000
H  49.49700 26.99300 43.61900
H  49.03900 28.90500 39.87800
H  47.42300 29.07600 40.64600
H  47.62300 27.69500 39.79000
Mg 7.54600 53.87400 41.60300
C  6.37700 50.61100 41.43800
C  10.60300 52.86600 40.64100
C  8.47500 57.15300 40.85700
C  4.25900 54.96500 41.73000
N  8.32800 51.97200 40.92000
C  7.74800 50.77500 41.06900
C  8.77100 49.57700 40.82200
C  10.11000 50.37200 40.67200
C  9.65500 51.82900 40.86900
C  11.17600 49.96900 41.74300
C  8.46000 48.72900 39.55900
C  8.42800 49.52400 38.19300
H  7.45800 49.14600 37.14800
N  9.31100 54.86400 41.04000
C  10.48000 54.23700 40.69600
C  11.52200 55.22700 40.47900
C  10.93800 56.51500 40.46700
C  9.55000 56.24800 40.82300
C  12.93600 54.87800 40.23500
C  11.72300 57.82400 40.03400
O  12.92000 57.81100 39.74100
C  11.02700 59.16900 40.12200
N  6.53500 55.72200 41.46900
C  7.10300 56.92600 41.24200
C  6.22800 58.08200 41.69800
C  4.82700 57.41700 41.63800
C  5.22600 55.92300 41.66400
C  6.58900 58.74900 43.05300
C  3.86200 57.80300 40.47500
C  3.94700 59.30900 40.05800
N  5.66900 53.04100 41.74100
C  4.44500 53.61400 41.86800
C  3.42400 52.61700 42.17900
C  4.14600 51.39900 41.97100
C  5.53000 51.72100 41.68700
C  1.90400 52.71500 42.26200
C  4.07200 49.94000 41.93700
O  3.14600 49.19200 42.13000
C  5.44700 49.35900 41.65700
C  5.17700 48.49800 40.45400
O  4.92800 48.86900 39.33300
O  5.23000 47.14900 40.79400
C  5.03700 46.18500 39.72900
H  11.61400 52.45600 40.59800
H  8.61500 58.22700 40.71300
H  3.19600 55.19000 41.83400
H  8.82500 48.81300 41.59800
H  10.51300 50.19700 39.67500
H  11.22900 50.72900 42.52300
H  12.17900 49.90700 41.32100
H  10.99700 49.05000 42.30000
H  7.55700 48.16600 39.79500
H  9.35700 48.11000 39.52800
H  9.43600 49.45600 37.78400
H  8.34800 50.58200 38.44500
H  13.21200 55.34000 39.28700
H  13.05400 53.79500 40.22800
H  13.53000 55.12700 41.11400
H  10.12600 59.23100 39.51200
H  11.76200 59.88800 39.76100
H  10.82600 59.39000 41.17000
H  6.38700 58.96100 41.07300
H  4.32000 57.66300 42.57000
H  7.33400 58.08000 43.48400
H  5.76000 59.02000 43.70600
H  7.10000 59.68500 42.82700
H  2.82900 57.45600 40.51000
H  4.18200 57.24100 39.59800
H  4.38400 59.86800 40.88500
H  2.97000 59.60300 39.67300
H  4.56600 59.42500 39.16900
H  1.42100 52.33100 41.36400
H  1.58700 53.73400 42.48400
H  1.56500 52.17500 43.14600
H  5.70700 48.79500 42.55300
H  5.91800 45.56800 39.55000
H  4.75900 46.50000 38.72200
H  4.30600 45.44200 40.04800

