158

Mg 46.87800 16.64700 28.31700
C  44.86700 16.25000 31.14600
C  49.20600 18.24500 30.25900
C  48.64300 17.26300 25.60900
C  44.40700 14.96900 26.42700
N  46.93900 17.22300 30.40400
C  46.08500 16.92900 31.40500
C  46.67600 17.29900 32.79400
C  47.89500 18.16000 32.39800
C  48.06500 17.84900 30.89800
C  47.71300 19.71600 32.69600
C  46.97500 16.05800 33.62600
C  46.27200 16.00400 35.06200
H  46.63900 17.19600 35.98600
N  48.70000 17.59000 27.94000
C  49.57800 17.98200 28.92000
C  50.71300 18.52700 28.30600
C  50.52000 18.38600 26.88800
C  49.20700 17.77500 26.71200
C  51.97300 19.15300 29.06100
C  51.35000 18.91000 25.71900
O  50.91500 18.91200 24.57900
C  52.72400 19.53600 25.95300
N  46.47400 16.49300 26.31200
C  47.40100 16.67600 25.34500
C  46.98900 16.18700 23.96300
C  45.70900 15.47500 24.29900
C  45.49300 15.65500 25.80000
C  46.85200 17.27100 22.85200
C  45.66800 14.05800 23.77500
C  46.52100 12.97100 24.63700
N  45.00800 15.79000 28.66400
C  44.13900 15.09800 27.83800
C  42.97700 14.58200 28.60500
C  43.27100 14.95500 29.90700
C  44.46100 15.77200 29.88300
C  41.81100 13.76200 28.15900
C  42.74300 14.98500 31.27600
O  41.71600 14.54200 31.76000
C  43.92000 15.73400 32.12100
C  43.22300 16.80800 32.88600
O  43.13000 17.99900 32.54200
O  42.93100 16.32200 34.11100
C  42.07200 17.10700 35.04700
H  50.01000 18.56600 30.92500
H  49.27300 17.12400 24.72800
H  43.70900 14.42500 25.78800
H  45.84800 17.83100 33.26300
H  48.76200 17.81800 32.96300
H  46.93300 19.98700 33.40700
H  47.33100 20.16100 31.77700
H  48.69000 20.14200 32.92400
H  48.05600 15.96900 33.73500
H  46.73100 15.19600 33.00500
H  46.76900 15.11700 35.45400
H  45.18500 15.92000 35.02900
H  52.88300 18.66200 28.71700
H  52.07300 18.94900 30.12700
H  52.07500 20.21000 28.81500
H  52.62900 20.40900 26.59900
H  53.11800 19.75300 24.96000
H  53.41300 18.76000 26.28500
H  47.69900 15.45800 23.57200
H  44.85000 15.84100 23.73700
H  45.93700 17.06000 22.29800
H  47.62900 17.20800 22.09000
H  46.76400 18.23400 23.35500
H  46.20900 14.03300 22.82800
H  44.63400 13.74600 23.63200
H  47.42200 13.38600 25.08700
H  46.84400 12.20500 23.93300
H  45.83800 12.60900 25.40600
H  41.90600 13.71900 27.07400
H  40.84200 14.26200 28.13800
H  41.82400 12.75100 28.56600
H  44.31400 14.97600 32.79700
H  42.60200 17.39200 35.95500
H  41.26800 16.47400 35.42400
H  41.69100 18.00400 34.55900
Mg -11.83900 16.73100 41.68000
C  -8.15900 16.33000 41.39700
C  -11.23500 20.02700 40.91400
C  -14.99200 16.89000 41.01300
C  -12.01800 13.14900 41.67700
N  -9.88100 17.95800 41.12900
C  -8.55900 17.64900 41.23900
C  -7.70200 18.91100 41.08800
C  -8.69600 20.07100 41.35100
C  -10.04100 19.30500 41.22000
C  -8.38100 20.74200 42.67800
C  -7.07100 19.02900 39.61800
C  -5.52100 18.82000 39.49400
H  -5.13800 17.92600 38.34200
N  -12.93100 18.35800 41.12800
C  -12.51000 19.59900 40.78900
C  -13.70500 20.37500 40.45100
C  -14.87600 19.54800 40.53100
C  -14.34700 18.20700 40.88700
C  -13.68100 21.87900 40.19100
C  -16.29400 19.94500 40.35500
O  -16.58600 21.10700 40.08500
C  -17.40000 18.95700 40.54500
N  -13.31800 15.21500 41.42900
C  -14.52200 15.59300 41.32900
C  -15.52900 14.38600 41.57800
C  -14.54700 13.16800 41.64500
C  -13.21600 13.87500 41.48000
C  -16.43800 14.60600 42.78900
C  -14.86600 12.11300 40.59400
C  -14.53800 10.66200 40.99100
N  -10.44600 15.15700 41.75200
C  -10.73100 13.77400 41.84800
C  -9.42900 13.11900 42.13600
C  -8.45800 14.06100 42.04500
C  -9.08300 15.29600 41.74800
C  -9.31000 11.69100 42.46000
C  -7.01400 14.22800 42.01400
O  -6.12500 13.43700 42.16900
C  -6.73800 15.77400 41.59700
C  -6.17100 16.41300 42.77800
O  -6.78100 16.73200 43.81800
O  -4.78900 16.51100 42.62500
C  -3.97000 17.15800 43.68300
H  -11.09100 21.08200 40.67300
H  -16.07600 17.01800 40.96800
H  -12.01300 12.06400 41.55400
H  -6.88500 18.82900 41.80400
H  -8.61800 20.86600 40.60800
H  -7.62200 21.51700 42.57600
H  -8.12600 19.94200 43.37200
H  -9.25700 21.26100 43.06800
H  -7.28100 20.07200 39.38500
H  -7.51400 18.34800 38.89100
H  -5.12400 18.36400 40.40100
H  -5.04000 19.77700 39.29300
H  -14.46900 22.21500 39.51600
H  -12.67800 22.01100 39.78500
H  -13.77100 22.45500 41.11300
H  -18.38300 19.41500 40.43900
H  -17.35200 18.56100 41.55900
H  -17.33400 18.11100 39.86100
H  -16.17500 14.55600 40.71700
H  -14.49900 12.69200 42.62500
H  -16.20700 15.58000 43.21900
H  -16.30500 13.89100 43.60100
H  -17.46300 14.61600 42.42000
H  -14.32100 12.39000 39.69200
H  -15.91000 12.23000 40.30500
H  -13.77600 10.58800 41.76600
H  -14.20100 10.09400 40.12400
H  -15.44500 10.29800 41.47400
H  -8.69800 11.25500 41.67000
H  -10.31900 11.27900 42.43800
H  -8.83300 11.48600 43.41900
H  -6.05200 15.86300 40.75500
H  -3.82000 16.35700 44.40700
H  -4.51800 17.95900 44.17800
H  -2.96100 17.43500 43.37900

