158

Mg 16.51600 51.90700 26.43900
C  18.59700 50.53800 29.10800
C  14.32000 52.98200 28.92100
C  14.40300 52.92000 24.08200
C  18.62600 50.48300 24.19700
N  16.38500 51.58600 28.75700
C  17.43700 51.22700 29.58600
C  17.10300 51.59200 31.07300
C  15.63800 52.09700 30.98600
C  15.43600 52.29000 29.48700
C  14.64700 51.17300 31.56700
C  18.13700 52.63000 31.59700
C  18.59000 52.43700 33.08900
H  17.75100 51.63700 34.12600
N  14.62700 52.92200 26.47800
C  13.91400 53.25100 27.57100
C  12.66700 53.99900 27.09300
C  12.78300 54.09100 25.66700
C  13.94000 53.28500 25.34400
C  11.63300 54.48600 28.05300
C  11.87300 54.73300 24.63300
O  12.08700 54.73700 23.38000
C  10.72900 55.54100 25.10800
N  16.51800 51.81100 24.41200
C  15.48100 52.24300 23.61800
C  15.71500 51.86300 22.09300
C  17.07400 51.10700 22.18400
C  17.50900 51.17800 23.70100
C  14.52000 51.10100 21.44200
C  18.12700 51.68800 21.11000
C  19.02600 52.88100 21.52300
N  18.22600 50.69900 26.55000
C  18.99000 50.22400 25.51500
C  20.15600 49.62000 26.08400
C  20.08000 49.65300 27.49200
C  18.85800 50.31900 27.72600
C  21.35200 48.96600 25.39400
C  20.65800 49.25200 28.77200
O  21.62600 48.56700 28.99200
C  19.71300 49.80400 29.90600
C  19.24500 48.74500 30.82900
O  18.51000 47.84300 30.47400
O  19.78500 48.92000 32.04500
C  19.45900 47.93400 33.05000
H  13.64800 53.33000 29.70800
H  13.65800 53.09300 23.30200
H  19.32900 50.11500 23.44700
H  17.14700 50.74100 31.75300
H  15.50800 52.97100 31.62300
H  14.24100 51.68600 32.43900
H  15.12200 50.24700 31.89300
H  13.81200 50.91300 30.91700
H  17.76800 53.64200 31.43500
H  18.95600 52.59800 30.87800
H  18.95300 53.37700 33.50400
H  19.53400 51.90400 32.97500
H  10.61600 54.31500 27.70200
H  11.82400 55.55100 28.18100
H  11.71000 54.06300 29.05500
H  10.08100 54.68800 25.31300
H  10.36900 56.16000 24.28600
H  11.08800 56.12300 25.95700
H  15.88200 52.80400 21.56900
H  16.86800 50.08300 21.87200
H  14.90400 50.33600 20.76800
H  13.81400 51.70100 20.86700
H  13.90200 50.56900 22.16500
H  17.46000 52.02200 20.31600
H  18.79000 50.86400 20.84900
H  20.05300 52.70200 21.20300
H  18.98400 53.02300 22.60300
H  18.71000 53.73900 20.93000
H  21.13300 47.97100 25.00600
H  22.18700 49.00600 26.09400
H  21.58600 49.53700 24.49600
H  20.30900 50.51400 30.47900
H  19.97000 46.99400 32.84200
H  18.38200 47.80100 33.15500
H  19.88800 48.35300 33.96000
Mg -10.82500 39.06900 40.97400
C  -9.62400 35.94800 40.03200
C  -7.99000 40.44600 39.56600
C  -12.25700 42.07400 41.26600
C  -13.87700 37.60600 41.66600
N  -9.03800 38.25900 39.82700
C  -8.67800 36.97300 39.77600
C  -7.34000 36.71600 39.07000
C  -6.72700 38.15100 39.21300
C  -7.97400 39.04400 39.51100
C  -5.80600 38.38200 40.42700
C  -7.39100 36.14600 37.66400
C  -6.20800 35.25300 37.25700
H  -5.57800 35.51300 35.92200
N  -10.15700 41.02000 40.50000
C  -8.98400 41.35800 39.96100
C  -8.89500 42.79700 39.91300
C  -10.11500 43.40900 40.42400
C  -10.91200 42.13600 40.76200
C  -7.66000 43.47700 39.37100
C  -10.37700 44.86800 40.56000
O  -9.59400 45.71000 40.24100
C  -11.72500 45.30700 40.99500
N  -12.81300 39.78500 41.32400
C  -13.11900 41.06900 41.56300
C  -14.52400 41.26200 42.15400
C  -15.13600 39.84100 42.10500
C  -13.88800 39.02300 41.62300
C  -14.57400 41.90000 43.52700
C  -16.36900 39.75400 41.20000
C  -17.32200 38.57900 41.47400
N  -11.67400 37.12500 40.87000
C  -12.89100 36.62400 41.26500
C  -12.85800 35.20300 41.23600
C  -11.53600 34.87400 40.77800
C  -10.89900 36.07800 40.54300
C  -13.92600 34.29000 41.58300
C  -10.65400 33.80300 40.52500
O  -10.72400 32.58500 40.65200
C  -9.42100 34.44100 40.02200
C  -8.23900 33.97700 40.73100
O  -7.41100 33.18800 40.32000
O  -8.14000 34.56500 41.98600
C  -6.89300 34.28000 42.84500
H  -7.12300 40.90700 39.08700
H  -12.67700 43.02800 41.59100
H  -14.85100 37.25800 42.01600
H  -6.76300 36.06700 39.72800
H  -6.13700 38.49500 38.36400
H  -5.18500 39.27800 40.39600
H  -5.18300 37.48800 40.46400
H  -6.34800 38.51600 41.36300
H  -7.45000 37.00200 36.99200
H  -8.27200 35.57600 37.37000
H  -6.57000 34.22600 37.22100
H  -5.49600 35.29900 38.08100
H  -7.69700 44.56500 39.31700
H  -7.41000 43.13900 38.36500
H  -6.82700 43.18400 40.01100
H  -12.51600 44.96100 40.33100
H  -11.73000 46.39200 40.89100
H  -11.98700 45.04600 42.02000
H  -15.16000 41.78300 41.43900
H  -15.43200 39.56700 43.11700
H  -15.55200 42.38200 43.51800
H  -13.87000 42.68300 43.81200
H  -14.56800 41.21200 44.37200
H  -16.01600 39.61100 40.17900
H  -16.93500 40.68400 41.25200
H  -18.26600 38.99900 41.82100
H  -16.90700 37.90100 42.22000
H  -17.56500 38.07800 40.53700
H  -14.64200 34.40500 40.77000
H  -14.53500 34.75200 42.36000
H  -13.58000 33.26300 41.70200
H  -9.30500 34.09600 38.99500
H  -5.99300 34.74900 42.44700
H  -6.62000 33.22600 42.89800
H  -6.97300 34.61500 43.87900

