158

Mg 45.19200 4.17700 47.14500
C  43.04600 6.91100 47.01100
C  42.56800 2.02500 46.72700
C  47.41900 1.73800 46.37700
C  47.97300 6.47800 47.26800
N  43.07500 4.44300 46.88700
C  42.37500 5.63600 46.95200
C  40.83800 5.33400 46.87700
C  40.75800 3.82200 46.86800
C  42.21600 3.39900 46.84800
C  39.93900 3.08800 48.01500
C  40.12700 6.11100 45.67800
C  40.86800 6.21200 44.32500
H  40.04500 6.40100 43.06100
N  45.02700 2.11100 46.67100
C  43.84200 1.43300 46.54000
C  44.19700 0.08500 46.36800
C  45.56300 -0.01700 46.08800
C  46.08000 1.31400 46.38700
C  43.25800 -1.03000 46.32800
C  46.26200 -1.25800 45.61700
O  45.60600 -2.30900 45.61000
C  47.67800 -1.36400 45.07500
N  47.44500 4.14900 46.98000
C  48.04700 3.00800 46.65500
C  49.61400 3.26400 46.45700
C  49.71900 4.71500 46.77100
C  48.30200 5.15700 47.07200
C  50.53400 2.30900 47.19800
C  50.37400 5.60700 45.64600
C  51.74500 5.09600 45.16700
N  45.47500 6.27500 47.17300
C  46.62800 7.04800 47.25600
C  46.13800 8.44900 47.21300
C  44.79400 8.40700 47.25300
C  44.42200 7.04700 47.19500
C  46.95400 9.60200 47.07400
C  43.62200 9.20000 47.26300
O  43.49100 10.42600 47.55500
C  42.45300 8.27300 47.11500
C  41.57800 8.44300 48.29600
O  41.58300 7.78000 49.31500
O  40.62400 9.40200 48.11400
C  39.64600 9.72800 49.17400
H  41.68100 1.38800 46.72300
H  48.08200 0.92600 46.07300
H  48.81600 7.17000 47.20700
H  40.29400 5.65400 47.76600
H  40.44900 3.45700 45.88800
H  39.21000 3.80400 48.39300
H  40.59000 2.84400 48.85400
H  39.36500 2.23100 47.66100
H  39.94300 7.13600 46.00200
H  39.16500 5.60000 45.63900
H  41.46900 5.30800 44.22400
H  41.61800 7.00200 44.35300
H  42.28700 -0.60600 46.58500
H  43.63300 -1.87600 46.90400
H  43.10600 -1.42600 45.32400
H  47.88400 -2.39100 44.77400
H  48.30800 -1.14200 45.93600
H  47.83600 -0.62100 44.29300
H  49.69000 3.11800 45.37900
H  50.28900 4.85100 47.69000
H  49.97400 1.80600 47.98700
H  51.33600 2.90000 47.63900
H  50.78200 1.46100 46.56000
H  50.49300 6.65000 45.94000
H  49.62000 5.63600 44.85900
H  52.46500 5.91300 45.19000
H  51.72100 4.66700 44.16500
H  52.15400 4.39400 45.89400
H  47.14300 10.13200 48.00700
H  46.45900 10.38000 46.49300
H  47.95200 9.44200 46.66500
H  42.01500 8.55000 46.15600
H  38.69200 10.10300 48.80500
H  40.00400 10.54100 49.80600
H  39.43600 8.91500 49.86900
Mg -12.19000 38.52100 42.18400
C  -9.94600 36.13300 41.23300
C  -10.27600 40.85300 40.46200
C  -14.62900 40.68500 42.80000
C  -14.30000 35.96800 43.44800
N  -10.35600 38.45200 40.98700
C  -9.53000 37.37700 40.80700
C  -8.19600 37.77900 40.04400
C  -8.27600 39.33500 39.90300
C  -9.73300 39.54900 40.45800
C  -7.20600 40.24800 40.62000
C  -7.81200 36.98900 38.71800
C  -6.60900 35.91900 38.63700
H  -5.69800 36.28300 37.50500
N  -12.41400 40.56800 41.71500
C  -11.54300 41.33600 41.07200
C  -12.09200 42.68700 41.10700
C  -13.33200 42.67300 41.73200
C  -13.50100 41.25100 42.14300
C  -11.40200 43.84400 40.40000
C  -14.18700 43.88700 41.98300
O  -13.93100 44.97800 41.54300
C  -15.29800 43.71700 42.86300
N  -14.23800 38.26200 42.85000
C  -15.01700 39.35800 43.06400
C  -16.36300 38.99200 43.61500
C  -16.28500 37.42500 43.74700
C  -14.85100 37.19300 43.40300
C  -16.75900 39.73600 44.97800
C  -17.27800 36.75000 42.77000
C  -18.70500 36.89200 43.32000
N  -12.17100 36.47800 42.26900
C  -13.03000 35.57800 42.94600
C  -12.41700 34.27400 42.97700
C  -11.22700 34.40700 42.28000
C  -11.15700 35.76700 41.86800
C  -12.91800 32.98600 43.70000
C  -10.02200 33.69500 41.82500
O  -9.65700 32.55000 42.03200
C  -9.18500 34.84900 41.08100
C  -7.82200 34.79600 41.72000
O  -7.04900 33.91500 41.44200
O  -7.64200 35.83000 42.65700
C  -6.28600 35.98300 43.24700
H  -9.61400 41.59300 40.00700
H  -15.43500 41.29900 43.20800
H  -14.92900 35.16900 43.84500
H  -7.34400 37.47000 40.64900
H  -8.21600 39.57800 38.84200
H  -7.50800 40.55700 41.62100
H  -7.30800 41.11100 39.96200
H  -6.17500 39.91900 40.49400
H  -7.59300 37.78400 38.00500
H  -8.57700 36.45100 38.15800
H  -7.18100 35.02400 38.39500
H  -6.01400 35.77400 39.53900
H  -11.84600 44.21900 39.47800
H  -10.42200 43.46900 40.10600
H  -11.31800 44.71500 41.05100
H  -15.62200 44.67300 43.27500
H  -15.02900 43.18300 43.77400
H  -16.12600 43.22700 42.35000
H  -17.04700 39.43000 42.88800
H  -16.43800 37.15200 44.79100
H  -15.87500 40.11700 45.49000
H  -17.48100 39.08400 45.47000
H  -17.27300 40.63800 44.64500
H  -17.06700 35.69600 42.58600
H  -17.26500 37.10300 41.73900
H  -19.41000 37.14500 42.52800
H  -18.63300 37.54900 44.18600
H  -18.86800 35.85600 43.61800
H  -13.12300 32.24700 42.92500
H  -13.83800 33.30400 44.19200
H  -12.12100 32.65900 44.36700
H  -9.07800 34.54200 40.04100
H  -5.63500 36.58900 42.61700
H  -5.83300 35.00600 43.41600
H  -6.42400 36.63300 44.11100

