158

Mg 44.58200 5.33900 47.23000
C  42.63600 8.22800 47.01300
C  41.82300 3.52700 46.36000
C  46.62900 2.71700 46.70800
C  47.40500 7.40200 47.57600
N  42.46200 5.82900 46.66900
C  41.89800 7.11800 46.66700
C  40.40600 7.10600 46.20800
C  40.11400 5.55000 46.35100
C  41.50400 4.85800 46.49900
C  39.21600 5.25300 47.63500
C  40.01700 7.89700 44.94900
C  41.11900 7.74700 43.82200
H  40.74400 8.11500 42.38300
N  44.29200 3.37500 46.70100
C  43.03300 2.76400 46.44800
C  43.23400 1.36600 46.04000
C  44.64200 1.15800 45.97800
C  45.26000 2.40300 46.46900
C  42.20200 0.34900 45.58700
C  45.30400 -0.13900 45.30700
O  44.55900 -1.00500 44.87900
C  46.83000 -0.25200 45.29000
N  46.73400 5.15900 47.07700
C  47.29500 3.92600 46.92200
C  48.83600 4.03500 46.89000
C  49.03200 5.55200 47.20600
C  47.64300 6.06400 47.31400
C  49.58200 3.21600 47.98900
C  49.89400 6.32800 46.14600
C  51.02100 7.19900 46.69400
N  45.02600 7.37300 47.31500
C  46.19800 8.08400 47.51100
C  45.91200 9.50100 47.52600
C  44.52200 9.60800 47.36400
C  44.04200 8.27200 47.23400
C  46.86900 10.66200 47.37800
C  43.39000 10.53700 47.14800
O  43.41700 11.77500 47.00000
C  42.09800 9.63100 47.21000
C  41.46700 9.82800 48.46000
O  41.66900 9.18200 49.45400
O  40.49600 10.83200 48.34900
C  39.53700 10.77200 49.45500
H  40.87600 3.04200 46.11400
H  47.21800 1.80300 46.60500
H  48.26800 8.07100 47.58700
H  39.77900 7.62300 46.93400
H  39.68500 5.16300 45.42600
H  39.05900 6.14100 48.24800
H  39.68600 4.49000 48.25600
H  38.31800 4.85900 47.16000
H  40.04400 8.94600 45.24400
H  39.07600 7.44900 44.62800
H  41.38700 6.69500 43.72500
H  41.96200 8.33300 44.18800
H  42.08500 -0.53500 46.21400
H  42.41400 0.08100 44.55200
H  41.25700 0.88600 45.66500
H  46.97600 -1.23900 44.85100
H  47.25200 -0.30900 46.29300
H  47.19900 0.60900 44.73400
H  49.15000 3.63800 45.92500
H  49.46300 5.68600 48.19800
H  49.19900 3.35000 49.00100
H  50.61600 3.51900 47.82700
H  49.49400 2.13400 47.88700
H  49.26300 7.07900 45.67000
H  50.30900 5.65600 45.39500
H  51.91400 7.04700 46.08700
H  51.17700 6.91800 47.73500
H  50.87500 8.27500 46.60400
H  47.51200 10.55700 46.50500
H  47.47000 10.62800 48.28700
H  46.43700 11.66300 47.39500
H  41.48400 10.00800 46.39200
H  38.98300 9.83400 49.49000
H  38.66900 11.40300 49.26300
H  39.92500 10.89200 50.46700
Mg 26.84000 50.35000 26.49700
C  24.56600 51.36300 29.01600
C  29.14100 49.34000 28.79700
C  28.76700 49.46700 23.91500
C  24.68200 52.08700 24.19100
N  26.90200 50.46500 28.62200
C  25.82900 50.76100 29.48300
C  26.16000 50.24400 30.91500
C  27.59400 49.73300 30.76800
C  27.97000 49.86600 29.32700
C  28.65700 50.37800 31.77700
C  25.13600 49.14600 31.27400
C  24.26800 49.47300 32.51100
H  24.44500 48.72000 33.82900
N  28.65400 49.46200 26.40600
C  29.45500 49.05200 27.46100
C  30.56500 48.31600 26.89400
C  30.39700 48.28100 25.44700
C  29.23500 49.14300 25.20900
C  31.54700 47.66000 27.85900
C  31.13800 47.57400 24.37900
O  30.77200 47.46600 23.22400
C  32.27600 46.84700 24.95500
N  26.74300 50.67400 24.40800
C  27.68700 50.17900 23.53200
C  27.42200 50.48500 22.05400
C  26.01700 51.11800 22.18300
C  25.78000 51.34100 23.69800
C  28.50300 51.36800 21.35300
C  24.93600 50.27500 21.46700
C  24.15500 49.18800 22.23000
N  25.04000 51.53500 26.54300
C  24.38900 52.21400 25.56300
C  23.31700 52.94900 26.16100
C  23.21900 52.52700 27.48300
C  24.34000 51.70400 27.66600
C  22.34600 53.84700 25.40700
C  22.46400 52.66000 28.76600
O  21.50300 53.31200 29.14000
C  23.27400 51.78400 29.77000
C  23.37700 52.59800 31.05700
O  24.16900 53.50900 31.28400
O  22.31900 52.25100 31.86700
C  22.19800 53.15000 33.06400
H  29.76900 48.77200 29.48700
H  29.34300 49.09400 23.06500
H  24.10600 52.61400 23.42700
H  26.10900 51.02700 31.67100
H  27.59800 48.64300 30.75300
H  29.60500 49.84600 31.69100
H  28.24700 50.21200 32.77300
H  28.76800 51.45400 31.64400
H  25.65100 48.19800 31.43300
H  24.42000 49.04200 30.45900
H  23.25000 49.32400 32.15400
H  24.30700 50.53300 32.76100
H  31.50800 46.57100 27.88800
H  31.48700 48.07500 28.86500
H  32.60700 47.83900 27.68300
H  31.92700 46.06600 25.63000
H  32.86600 47.61700 25.45200
H  32.65400 46.22600 24.14200
H  27.46200 49.59600 21.42500
H  26.05500 52.08300 21.67700
H  29.39800 51.31400 21.97400
H  28.25300 52.42500 21.27100
H  28.69300 50.92800 20.37400
H  25.46800 49.75800 20.66800
H  24.24600 50.93200 20.93800
H  24.40000 49.16500 23.29200
H  24.41500 48.18400 21.89200
H  23.07100 49.29600 22.18500
H  21.94800 53.35200 24.52100
H  22.87400 54.71600 25.01400
H  21.54400 54.20400 26.05200
H  22.77900 50.85600 30.05800
H  21.11400 53.25500 33.09900
H  22.52200 54.18200 32.92500
H  22.59800 52.76300 34.00100

