158

Mg 25.53100 -8.06700 47.36700
C  27.49400 -5.42600 46.58300
C  23.29700 -7.15100 44.85800
C  23.65700 -10.72700 48.13200
C  28.23200 -9.53100 49.35200
N  25.47300 -6.58800 45.84900
C  26.48800 -5.65300 45.66400
C  26.01300 -4.59400 44.52400
C  24.64400 -5.15400 44.08800
C  24.42900 -6.38100 44.97300
C  23.39400 -4.15300 44.21700
C  27.09100 -4.59400 43.51000
C  27.49000 -3.11000 43.07400
H  27.17500 -2.69000 41.63300
N  23.70500 -8.85800 46.59700
C  22.93600 -8.30100 45.57500
C  21.78500 -9.13700 45.42100
C  21.87500 -10.24000 46.35500
C  23.09100 -9.94500 47.14200
C  20.73100 -8.92900 44.37200
C  20.83600 -11.40800 46.43100
O  19.78500 -11.40300 45.78300
C  21.12500 -12.61300 47.18400
N  25.90800 -9.93100 48.54900
C  24.90700 -10.78500 48.79900
C  25.29900 -11.88700 49.78300
C  26.88700 -11.69300 49.83200
C  27.05400 -10.34700 49.22100
C  24.52800 -11.69400 51.15000
C  27.65500 -12.70700 49.03500
C  29.16600 -12.85700 49.42400
N  27.42700 -7.62100 47.90800
C  28.39000 -8.26400 48.65400
C  29.60300 -7.42600 48.70400
C  29.25300 -6.19500 48.03700
C  27.94900 -6.41300 47.48800
C  30.95700 -7.73200 49.32400
C  29.67300 -4.84100 47.66100
O  30.71500 -4.24100 47.84900
C  28.50800 -4.28000 46.74300
C  27.76600 -3.24500 47.47900
O  27.00300 -3.45600 48.45600
O  27.98800 -2.02000 46.85900
C  27.18500 -0.89600 47.42100
H  22.63300 -6.78900 44.07000
H  23.06400 -11.51900 48.59400
H  29.02300 -9.96800 49.96500
H  25.81400 -3.64200 45.01500
H  24.65000 -5.58300 43.08600
H  23.77800 -3.14000 44.09800
H  23.08400 -4.09500 45.26100
H  22.62200 -4.31600 43.46500
H  26.86300 -5.08200 42.56200
H  27.96400 -5.11400 43.90300
H  28.56300 -2.98100 43.21600
H  26.98400 -2.37800 43.70300
H  21.09000 -9.34100 43.42900
H  20.60600 -7.87400 44.13100
H  19.76300 -9.38900 44.57100
H  20.97400 -12.40300 48.24300
H  22.19500 -12.79800 47.08600
H  20.50500 -13.43300 46.82400
H  24.96900 -12.82100 49.32800
H  27.11200 -11.84800 50.88700
H  23.86800 -12.53900 51.34400
H  23.89600 -10.80700 51.10800
H  25.23200 -11.48900 51.95600
H  27.37100 -12.59600 47.98800
H  27.22100 -13.62300 49.43500
H  29.68900 -12.28700 48.65700
H  29.61300 -13.85000 49.36400
H  29.59000 -12.44200 50.33900
H  30.77400 -8.54800 50.02400
H  31.39600 -6.84800 49.78500
H  31.68000 -8.08000 48.58600
H  29.00700 -3.88500 45.85800
H  27.26000 0.07900 46.94000
H  27.35400 -0.79100 48.49300
H  26.14300 -1.20200 47.51600
Mg 47.16000 34.97400 28.30800
C  45.25100 33.04100 30.72200
C  47.39300 37.37100 30.65000
C  48.50800 36.85400 25.86500
C  46.68400 32.32300 26.01100
N  46.32700 35.10600 30.43400
C  45.81600 34.21400 31.26400
C  45.82600 34.68200 32.72500
C  46.19400 36.13300 32.59300
C  46.68700 36.22900 31.12700
C  45.03300 37.09900 32.79500
C  46.86100 33.74700 33.49300
C  46.92800 33.65000 35.05500
H  46.00800 34.59600 35.90700
N  47.93300 36.80100 28.32300
C  47.99300 37.66800 29.38200
C  48.76100 38.83300 29.01000
C  49.15200 38.70200 27.66600
C  48.60000 37.37000 27.22000
C  48.72400 40.02000 29.89400
C  49.76200 39.71400 26.78200
O  50.09000 39.48400 25.62500
C  50.06400 41.12300 27.28200
N  47.67400 34.61600 26.23100
C  48.02400 35.60600 25.37500
C  47.92700 35.20800 23.90900
C  47.69100 33.63700 24.05100
C  47.34600 33.50400 25.52900
C  46.78700 35.91300 23.15000
C  48.95900 32.68300 23.66200
C  50.34400 32.81500 24.45400
N  46.14900 33.13900 28.35400
C  46.01700 32.20800 27.27900
C  45.22700 31.05400 27.64800
C  44.87000 31.39400 28.99700
C  45.48700 32.63800 29.37200
C  44.96400 29.82900 26.82900
C  44.14600 30.90100 30.18100
O  43.61200 29.79300 30.36200
C  44.23900 31.98400 31.28400
C  44.50700 31.53000 32.65600
O  45.43500 30.84800 33.01200
O  43.41500 31.97900 33.42700
C  43.44300 31.57200 34.83900
H  47.61700 38.06800 31.46000
H  48.70400 37.58400 25.07600
H  46.37100 31.56500 25.28900
H  44.80100 34.52300 33.06100
H  47.00400 36.30500 33.30100
H  44.99100 37.86600 32.02300
H  45.19800 37.59900 33.75000
H  44.08900 36.55600 32.83100
H  47.77500 34.17100 33.07800
H  46.84800 32.72900 33.10400
H  47.92200 33.92300 35.40800
H  46.87900 32.59700 35.33400
H  48.16200 40.79900 29.38000
H  49.74400 40.40400 29.87300
H  48.33800 39.86100 30.90100
H  50.30600 41.62800 26.34700
H  50.87100 41.11100 28.01400
H  49.20100 41.56400 27.78200
H  48.88000 35.53200 23.49100
H  46.79600 33.26900 23.55000
H  47.18900 36.34100 22.23200
H  46.44300 36.73300 23.78200
H  45.95900 35.23600 22.94500
H  49.09800 32.96500 22.61800
H  48.56700 31.66600 23.68000
H  50.28700 33.55100 25.25700
H  51.11800 33.09200 23.73900
H  50.61600 31.86400 24.91200
H  45.70800 29.05000 26.99300
H  45.03000 30.11200 25.77900
H  43.98700 29.39400 27.03900
H  43.35000 32.59600 31.43500
H  44.06700 30.72700 35.13000
H  42.41900 31.25100 35.03300
H  43.74400 32.41200 35.46500

