158

Mg 1.58000 8.83500 27.05200
C  2.23500 10.86000 29.68800
C  1.47800 6.08500 29.24600
C  1.19500 6.65100 24.41100
C  1.80900 11.44100 24.94200
N  1.82900 8.52700 29.25600
C  2.10000 9.49600 30.11900
C  1.88100 9.04200 31.51600
C  1.74500 7.42900 31.34300
C  1.61000 7.30700 29.81100
C  2.91500 6.61800 31.90100
C  0.59700 9.73600 32.13100
C  0.02400 9.15100 33.41300
H  0.91800 8.64700 34.50500
N  1.41100 6.67900 26.78800
C  1.37600 5.76300 27.85300
C  1.27300 4.44000 27.36200
C  1.37900 4.57600 25.95000
C  1.29000 6.03600 25.65900
C  1.41400 3.12300 28.15900
C  1.48300 3.51300 24.86500
O  1.51900 3.76300 23.66000
C  1.66100 2.03600 25.21600
N  1.45400 8.95600 24.98700
C  1.27700 8.01600 24.09700
C  1.14900 8.52400 22.75700
C  0.90800 10.07400 22.98700
C  1.44200 10.19300 24.42700
C  2.37700 8.33100 21.85400
C  -0.56700 10.45600 22.80900
C  -0.94200 11.67600 21.91000
N  2.08600 10.77900 27.25200
C  2.18500 11.72100 26.29500
C  2.38600 12.99400 26.92400
C  2.43700 12.65200 28.23400
C  2.22500 11.30400 28.37400
C  2.31600 14.31700 26.28800
C  2.61100 13.23300 29.56400
O  2.61800 14.40300 29.94400
C  2.33200 12.10500 30.53200
C  3.31700 12.13800 31.60900
O  4.39000 11.56400 31.71400
O  2.65000 12.70600 32.68100
C  3.06700 12.41000 34.09900
H  1.44700 5.29400 29.99800
H  1.01300 6.01300 23.54400
H  1.62800 12.26600 24.25100
H  2.78400 9.26100 32.08700
H  0.83300 7.09500 31.83900
H  3.43800 6.08500 31.10800
H  2.56500 5.82500 32.56200
H  3.54800 7.26500 32.50900
H  -0.25000 9.73300 31.44500
H  0.84100 10.74100 32.47400
H  -0.54700 8.28200 33.08700
H  -0.73500 9.80000 33.84900
H  2.35700 2.67900 27.83900
H  0.59800 2.40500 28.08100
H  1.32000 3.17300 29.24400
H  2.57000 1.93700 25.81000
H  1.86700 1.61000 24.23300
H  0.75600 1.58000 25.61700
H  0.30100 8.06100 22.25100
H  1.54900 10.67600 22.34300
H  2.14800 7.50900 21.17500
H  3.24000 8.00600 22.43500
H  2.68600 9.19700 21.26800
H  -0.95700 10.69700 23.79800
H  -1.09300 9.55600 22.49200
H  -1.40600 12.42000 22.55800
H  -1.72400 11.31800 21.24000
H  -0.09300 12.16400 21.43000
H  1.34100 14.68200 26.61000
H  2.17400 14.21400 25.21200
H  3.13700 14.95500 26.61400
H  1.31700 12.23300 30.90800
H  3.54100 11.43300 34.19200
H  2.32100 12.54500 34.88100
H  3.92200 13.04200 34.33700
Mg 6.89500 54.43500 41.22200
C  5.80000 51.18500 41.27400
C  9.89000 53.40600 40.00400
C  7.63300 57.71300 40.52500
C  3.81400 55.54000 42.32500
N  7.67400 52.48700 40.61800
C  7.07200 51.29300 40.69700
C  8.02400 50.23100 40.12500
C  9.45400 50.89500 40.28200
C  8.96000 52.33900 40.23500
C  10.35000 50.63300 41.54200
C  7.67100 49.59300 38.69600
C  6.73300 50.36700 37.75300
H  7.42000 50.83700 36.40400
N  8.56800 55.45200 40.35900
C  9.74100 54.83400 40.07900
C  10.72400 55.83700 39.77600
C  10.08200 57.12600 39.80900
C  8.70500 56.80200 40.25600
C  12.17600 55.58400 39.40600
C  10.70000 58.41100 39.50300
O  11.93400 58.47300 39.43400
C  9.90000 59.71500 39.28600
N  5.82700 56.36800 41.39300
C  6.35600 57.52200 41.03100
C  5.37100 58.73300 41.33600
C  4.33000 58.05100 42.24700
C  4.65700 56.55400 42.06100
C  5.99300 59.98500 42.07600
C  2.90300 58.44400 41.70100
C  2.46800 59.92300 42.00900
N  5.10100 53.58300 41.62700
C  3.92200 54.14300 42.17800
C  2.95200 53.06700 42.51400
C  3.66500 51.92800 42.22700
C  4.98200 52.26900 41.65200
C  1.56000 53.22500 43.07400
C  3.66700 50.49900 42.23300
O  2.84900 49.61200 42.54800
C  4.99400 49.94100 41.68500
C  4.62600 49.01300 40.57100
O  4.08100 49.33400 39.54200
O  5.04400 47.71500 40.74900
C  4.65600 46.70500 39.68200
H  10.89400 53.17000 39.64800
H  7.91200 58.76800 40.56100
H  2.79000 55.75200 42.64000
H  7.86100 49.45000 40.86700
H  9.99700 50.69900 39.35700
H  9.75900 50.01600 42.21900
H  10.49900 51.56500 42.08700
H  11.34600 50.24100 41.33800
H  7.38500 48.57700 38.96600
H  8.58600 49.45500 38.11900
H  6.43500 51.23800 38.33600
H  5.83700 49.78100 37.54800
H  12.34200 55.80600 38.35200
H  12.40700 54.52200 39.49000
H  12.93500 56.09600 39.99600
H  9.07300 59.61700 38.58300
H  10.44400 60.52400 38.80000
H  9.55300 60.04800 40.26400
H  4.97700 59.04800 40.37000
H  4.45700 58.28800 43.30400
H  5.55600 60.22600 43.04500
H  5.87100 60.81100 41.37500
H  7.05200 59.87700 42.30700
H  2.21000 57.74200 42.16400
H  2.78700 58.32200 40.62400
H  1.48200 59.95200 42.47300
H  2.41200 60.60300 41.15900
H  3.15900 60.42000 42.68900
H  1.72400 53.89800 43.91600
H  1.25000 52.27600 43.51100
H  0.95000 53.70100 42.30600
H  5.40900 49.22800 42.39800
H  5.36900 45.91000 39.90300
H  5.02400 47.07600 38.72500
H  3.59000 46.48100 39.66300

