158

Mg 43.34500 41.70500 26.10700
C  42.70100 44.10500 28.47600
C  44.13200 39.52400 28.90900
C  44.37600 39.37900 23.99900
C  43.10900 44.02900 23.61800
N  43.31100 41.81100 28.50000
C  43.00900 42.91500 29.20000
C  43.04900 42.67100 30.67000
C  43.58300 41.16400 30.79100
C  43.70700 40.77600 29.36400
C  44.79200 40.80500 31.74200
C  41.65900 43.04800 31.33300
C  41.02600 42.20000 32.52600
H  40.43200 42.82500 33.79000
N  44.06000 39.70500 26.34700
C  44.29900 39.03200 27.59200
C  44.79900 37.69600 27.19600
C  44.79200 37.54800 25.76900
C  44.39900 38.90600 25.34600
C  45.29500 36.69800 28.20600
C  44.98400 36.26500 24.95200
O  44.93200 36.32500 23.68500
C  45.18300 34.91200 25.52800
N  43.63500 41.76200 24.16500
C  43.96100 40.58900 23.52500
C  43.87300 40.79600 21.94600
C  43.61400 42.31800 21.80600
C  43.39000 42.75500 23.26300
C  45.00700 40.32600 21.08900
C  42.42200 42.67500 20.88300
C  42.69700 42.74800 19.38900
N  43.01400 43.59800 26.06100
C  42.88400 44.47200 24.96000
C  42.43900 45.76600 25.42500
C  42.35300 45.65700 26.76300
C  42.74600 44.35800 27.11900
C  42.08700 46.93300 24.63400
C  41.98400 46.40600 27.99900
O  41.59500 47.51800 28.21700
C  42.32900 45.41200 29.12800
C  43.35600 46.13400 30.03300
O  44.51000 46.40000 29.61700
O  42.79300 46.52800 31.23200
C  43.80300 46.95000 32.25400
H  44.24500 38.86300 29.77000
H  44.82300 38.75600 23.22100
H  42.94700 44.72900 22.79600
H  43.75800 43.38200 31.09300
H  42.84800 40.51800 31.27100
H  45.63900 40.41200 31.18000
H  44.48400 40.07100 32.48700
H  45.17900 41.70800 32.21500
H  40.92900 43.02100 30.52400
H  41.71500 44.05800 31.74000
H  41.60300 41.29800 32.72900
H  40.15300 41.91200 31.94000
H  46.34600 36.54000 27.96500
H  44.81300 35.73000 28.06400
H  45.26900 36.99100 29.25500
H  46.16000 34.94300 26.01200
H  45.24600 34.16600 24.73600
H  44.42000 34.61400 26.24700
H  42.95600 40.27100 21.67700
H  44.49200 42.85800 21.45300
H  44.80200 39.29900 20.78600
H  45.92200 40.52700 21.64700
H  45.15800 40.94500 20.20500
H  41.93600 43.62600 21.10100
H  41.65600 41.90400 20.97200
H  42.63200 43.73500 18.93100
H  42.06300 42.07100 18.81700
H  43.72100 42.37500 19.38200
H  41.88000 47.83200 25.21400
H  41.32000 46.76100 23.87900
H  43.00100 47.15300 24.08200
H  41.33800 45.25700 29.55400
H  44.68300 47.43500 31.83200
H  44.12000 46.13000 32.89900
H  43.30400 47.73900 32.81600
Mg 0.32700 41.78700 25.16500
C  1.35200 41.98900 28.51300
C  -2.49800 40.17500 26.26300
C  -0.59900 41.46600 21.96100
C  3.56500 42.72300 24.13800
N  -0.48800 41.29600 27.16700
C  0.07500 41.47200 28.35300
C  -0.80800 41.03600 29.50700
C  -1.99200 40.28800 28.82000
C  -1.64400 40.57700 27.29300
C  -2.13700 38.82700 29.21900
C  -1.31600 42.22600 30.45500
C  -1.00000 41.96400 31.92900
H  -1.64800 40.66300 32.64100
N  -1.36900 41.04100 24.25600
C  -2.35800 40.37200 24.88100
C  -3.46400 40.17900 23.90300
C  -2.88500 40.49500 22.65500
C  -1.57800 41.08400 22.92400
C  -4.84900 39.76300 24.25400
C  -3.57000 40.39300 21.28700
O  -3.11200 40.86800 20.29100
C  -4.92000 39.59000 21.21500
N  1.38100 41.96900 23.35500
C  0.72100 41.67400 22.15100
C  1.72000 41.79400 20.96500
C  3.03800 42.21000 21.58400
C  2.63300 42.37700 23.07700
C  1.69900 40.37200 20.24000
C  3.55600 43.49000 21.06600
C  2.73700 44.76100 21.21500
N  2.13000 42.27700 26.10900
C  3.31000 42.76500 25.52300
C  4.19100 43.04200 26.65900
C  3.46300 42.73200 27.87100
C  2.21300 42.32400 27.45400
C  5.60100 43.68800 26.60000
C  3.47900 42.68400 29.31800
O  4.35900 42.96900 30.11500
C  2.17500 42.10700 29.76700
C  2.53300 40.75300 30.24700
O  3.08900 39.90800 29.58900
O  2.37800 40.76300 31.55900
C  2.48700 39.52600 32.32900
H  -3.34000 39.54300 26.55400
H  -0.78800 41.35500 20.89100
H  4.58600 42.94500 23.82100
H  -0.26300 40.32600 30.12900
H  -2.90200 40.81100 29.11300
H  -1.48500 38.55600 30.04900
H  -1.75900 38.19000 28.41900
H  -3.19800 38.67300 29.41100
H  -2.37900 42.45600 30.38600
H  -0.85200 43.17500 30.18800
H  -1.33600 42.80000 32.54200
H  0.07900 41.86200 32.05000
H  -5.45000 40.65900 24.10400
H  -4.91500 39.58100 25.32600
H  -5.22200 38.92200 23.66900
H  -5.61600 40.10700 21.87600
H  -4.56100 38.57600 21.39100
H  -5.25900 39.70000 20.18500
H  1.31600 42.51100 20.25000
H  3.77900 41.41200 21.53300
H  1.38100 40.65700 19.23700
H  0.93600 39.68900 20.61400
H  2.71300 39.97300 20.22700
H  3.71100 43.29900 20.00400
H  4.57100 43.49000 21.46500
H  2.71600 45.29100 20.26300
H  3.34600 45.40800 21.84700
H  1.76900 44.61900 21.69400
H  5.67400 44.12600 25.60400
H  6.34400 42.89200 26.66000
H  5.56600 44.45500 27.37300
H  1.73000 42.76900 30.51100
H  3.46400 39.32700 32.77000
H  2.33400 38.63100 31.72600
H  1.76500 39.57000 33.14400

