158

Mg 25.93800 -6.13500 47.19200
C  27.34300 -3.14700 46.05200
C  23.27300 -5.52200 44.97500
C  24.83900 -9.21100 47.88000
C  29.05000 -6.75600 48.84700
N  25.46800 -4.52200 45.60300
C  26.11700 -3.39700 45.31900
C  25.44900 -2.50600 44.21500
C  23.99600 -3.20900 44.24800
C  24.29600 -4.52200 44.92200
C  22.85200 -2.40600 44.89600
C  26.19700 -2.78300 42.87600
C  26.71700 -1.64900 41.96000
H  25.87000 -1.35600 40.72300
N  24.30900 -7.26800 46.47200
C  23.30200 -6.80900 45.68300
C  22.22600 -7.73200 45.73200
C  22.63200 -8.77200 46.52900
C  23.99200 -8.47600 46.98900
C  20.82400 -7.47000 45.06900
C  21.60300 -9.94900 46.77700
O  20.51400 -10.09400 46.34000
C  22.06300 -11.00800 47.63300
N  26.76800 -7.65900 48.30100
C  26.11000 -8.90100 48.41800
C  26.90600 -9.94500 49.26100
C  28.24600 -9.11400 49.61500
C  28.05600 -7.78200 48.78200
C  26.19900 -10.54700 50.50400
C  29.57400 -9.85500 49.12700
C  30.77300 -9.84000 50.20000
N  27.84100 -5.15800 47.40700
C  28.95800 -5.49500 48.12200
C  29.86300 -4.38400 48.13900
C  29.24500 -3.44900 47.36700
C  28.02600 -3.98600 46.92600
C  31.19100 -4.53900 48.74500
C  29.33200 -2.10800 46.96800
O  30.16400 -1.22400 47.21900
C  28.15600 -1.85000 45.89200
C  27.43200 -0.57100 46.22200
O  27.34200 0.37600 45.46900
O  26.86600 -0.65500 47.44700
C  25.92100 0.36300 47.83600
H  22.39600 -5.43000 44.33000
H  24.46700 -10.21600 48.08800
H  29.98600 -7.03200 49.33700
H  25.35800 -1.44700 44.45700
H  23.52400 -3.42500 43.28900
H  22.42600 -2.88800 45.77600
H  22.07600 -2.41300 44.13100
H  23.23800 -1.42500 45.17100
H  25.48800 -3.38600 42.30800
H  27.02100 -3.46200 43.09600
H  27.72400 -1.82100 41.58100
H  26.92800 -0.67700 42.40700
H  20.13800 -7.41700 45.91500
H  20.64100 -8.29400 44.38000
H  20.92400 -6.56100 44.47700
H  23.04100 -11.24700 47.21600
H  21.41400 -11.87200 47.49000
H  22.23400 -10.86500 48.70000
H  27.11600 -10.74000 48.54600
H  28.27400 -8.84200 50.67000
H  26.18700 -11.63400 50.57300
H  25.12900 -10.34700 50.46500
H  26.49600 -10.03100 51.41700
H  29.86600 -9.41300 48.17400
H  29.32400 -10.87600 48.83800
H  31.68100 -10.09100 49.65200
H  30.62800 -10.61500 50.95300
H  30.94100 -8.85800 50.64200
H  31.93600 -4.76900 47.98300
H  31.23700 -5.26700 49.55400
H  31.51100 -3.53500 49.02200
H  28.54900 -1.71100 44.88400
H  26.12400 0.52900 48.89400
H  24.90200 -0.01700 47.91100
H  25.96300 1.26700 47.22800
Mg 35.80200 0.63500 28.85200
C  33.73000 1.85300 31.28800
C  38.38000 0.36900 31.24600
C  37.97900 -0.02300 26.37000
C  33.42300 1.54100 26.33800
N  36.02700 1.20200 30.98300
C  34.98100 1.55100 31.78500
C  35.38700 1.51500 33.26300
C  36.93400 1.35400 33.18300
C  37.15600 0.92000 31.75100
C  37.81600 2.50700 33.71200
C  34.59800 0.53600 34.22200
C  34.34900 1.01900 35.63800
H  34.87000 2.41000 36.13900
N  37.91000 0.11200 28.84500
C  38.75400 0.02500 29.93300
C  40.06700 -0.49300 29.47900
C  39.95500 -0.57300 27.98500
C  38.56400 -0.14600 27.69500
C  41.20800 -0.86000 30.37700
C  41.04900 -0.90400 27.03700
O  40.89200 -0.94600 25.85300
C  42.31500 -1.38400 27.59400
N  35.62100 0.42000 26.66300
C  36.69200 0.22400 25.89200
C  36.26000 0.28300 24.37000
C  34.77700 0.48400 24.51200
C  34.54400 0.83300 25.91700
C  37.06600 1.38400 23.63500
C  33.87800 -0.76700 24.12100
C  32.61700 -0.40300 23.40200
N  33.97400 1.52600 28.76100
C  33.08400 1.80900 27.65300
C  31.99700 2.41500 28.17200
C  32.06100 2.40100 29.62600
C  33.35100 1.88900 29.85100
C  30.83500 2.87100 27.39300
C  31.39000 2.72000 30.91100
O  30.33300 3.31600 31.10600
C  32.43500 2.36000 32.00900
C  32.74400 3.62800 32.79200
O  33.52300 4.50600 32.48900
O  31.74300 3.73700 33.80900
C  31.78300 5.02800 34.54300
H  39.21900 0.29900 31.94200
H  38.69700 -0.20500 25.56800
H  32.83300 1.87500 25.48200
H  35.14100 2.53100 33.57300
H  37.26900 0.57000 33.86400
H  37.20300 3.33000 34.08000
H  38.39100 2.84300 32.84900
H  38.41900 2.21800 34.57200
H  35.12900 -0.40900 34.33500
H  33.65500 0.37500 33.70100
H  34.81500 0.26300 36.27000
H  33.30300 0.94500 35.93600
H  41.03600 -0.51300 31.39600
H  41.93400 -0.16900 29.94600
H  41.48100 -1.91400 30.43300
H  42.88000 -0.58100 28.06700
H  42.91400 -1.77300 26.77000
H  42.07100 -2.21700 28.25400
H  36.53600 -0.66100 23.90200
H  34.58800 1.41700 23.98200
H  37.52700 2.13400 24.27700
H  36.38100 1.96200 23.01400
H  37.84000 0.93500 23.01200
H  33.54600 -1.29200 25.01700
H  34.37000 -1.41600 23.39700
H  32.79000 -0.85300 22.42500
H  32.48900 0.67700 23.32600
H  31.76900 -0.84400 23.92700
H  30.28900 2.01600 26.99200
H  31.19200 3.49800 26.57700
H  30.09100 3.45800 27.93100
H  32.07600 1.56200 32.65900
H  32.53700 4.87000 35.31400
H  30.85200 5.20500 35.08100
H  31.89700 6.00700 34.07700

