158

Mg 2.80400 -0.41100 43.73600
C  6.13500 0.00300 42.94200
C  2.09800 2.18200 41.64800
C  -0.43800 -1.45000 43.72800
C  3.73300 -3.25900 45.60200
N  3.99400 1.00400 42.56200
C  5.31500 0.96100 42.35000
C  5.83200 2.10000 41.48800
C  4.53200 3.01200 41.51400
C  3.43600 2.04100 41.94500
C  4.63200 4.21100 42.49900
C  6.20900 1.57400 40.04600
C  7.13100 2.55300 39.32400
H  6.74900 2.89500 37.87700
N  1.02900 0.35200 42.93400
C  0.96100 1.42500 42.04400
C  -0.34600 1.75700 41.64600
C  -1.15400 0.76300 42.30500
C  -0.18900 -0.23300 42.97100
C  -0.76000 2.94100 40.73500
C  -2.62300 0.64800 42.14100
O  -3.24400 1.30400 41.38400
C  -3.31500 -0.29300 42.97300
N  1.77200 -2.38700 44.25300
C  0.42400 -2.36400 44.33000
C  0.01200 -3.60900 45.11400
C  1.27200 -4.03900 45.91400
C  2.35100 -3.23000 45.24100
C  -1.26100 -3.44200 45.99800
C  1.54400 -5.50200 45.94000
C  1.50800 -6.24700 47.30600
N  4.59200 -1.42400 44.20700
C  4.80400 -2.55800 44.96600
C  6.30100 -2.76200 45.04500
C  6.84000 -1.73900 44.27400
C  5.75900 -1.02300 43.80600
C  6.94800 -3.77400 45.93200
C  8.08600 -1.14200 43.79900
O  9.24700 -1.33900 44.12600
C  7.66400 0.03100 42.84900
C  8.23400 1.26900 43.45800
O  7.79500 1.72700 44.52200
O  9.07900 1.88600 42.53400
C  9.35500 3.25300 43.01600
H  1.94600 3.00300 40.94500
H  -1.47200 -1.73400 43.93700
H  3.97100 -4.04300 46.32500
H  6.69600 2.63900 41.87800
H  4.47100 3.44200 40.51400
H  5.51400 4.18600 43.13900
H  3.73200 4.36700 43.09300
H  4.57500 5.07400 41.83500
H  5.36100 1.35600 39.39800
H  6.66400 0.58600 40.12600
H  8.19300 2.32300 39.23400
H  7.15800 3.45800 39.93100
H  -1.37700 3.58300 41.36300
H  -1.31700 2.62300 39.85400
H  0.06500 3.56900 40.39800
H  -4.38800 -0.16000 42.83400
H  -3.13900 -0.20800 44.04600
H  -2.93500 -1.25300 42.62400
H  -0.24200 -4.40600 44.41500
H  1.34100 -3.68800 46.94400
H  -2.14200 -3.85800 45.50800
H  -1.35100 -2.41000 46.33500
H  -1.07700 -3.99200 46.92100
H  2.50800 -5.68000 45.46300
H  0.82000 -5.97300 45.27600
H  1.23900 -5.62300 48.15800
H  2.43600 -6.78600 47.49700
H  0.76300 -7.03600 47.20400
H  8.03800 -3.77200 45.91000
H  6.63800 -4.79400 45.70600
H  6.63900 -3.55700 46.95500
H  8.13800 -0.20600 41.89600
H  9.68400 3.02000 44.02900
H  8.43000 3.82400 43.09700
H  10.16400 3.77500 42.50500
Mg 47.23500 24.96700 29.00100
C  47.88100 27.24900 31.50900
C  46.56900 22.58300 31.55500
C  46.93200 22.43600 26.68400
C  48.11000 27.12800 26.62600
N  47.31900 24.89900 31.25300
C  47.43100 26.06900 31.99800
C  47.12300 25.79500 33.50000
C  46.88600 24.23500 33.53600
C  46.87000 23.85500 32.02700
C  48.00600 23.55800 34.28400
C  45.95400 26.59300 34.09300
C  46.25600 27.25500 35.52300
H  45.16100 27.19000 36.56700
N  46.63700 22.86100 29.12100
C  46.52600 22.08600 30.20800
C  46.20100 20.75400 29.88500
C  46.29500 20.63100 28.51000
C  46.67300 21.97200 28.02800
C  45.61000 19.71600 30.85800
C  46.04200 19.40500 27.59600
O  46.07400 19.47700 26.35400
C  45.83000 18.03500 28.28600
N  47.64500 24.74000 27.00300
C  47.23200 23.70400 26.23500
C  47.46800 23.94200 24.76600
C  47.50700 25.50400 24.76000
C  47.66500 25.86800 26.19100
C  48.83700 23.36900 24.29900
C  46.33300 26.18300 24.11900
C  45.35600 26.92000 25.05000
N  48.05000 26.77400 29.05400
C  48.30400 27.59800 27.97500
C  48.76700 28.82500 28.43700
C  48.52900 28.77800 29.85600
C  48.12300 27.51700 30.15500
C  49.16200 29.99200 27.60800
C  48.65900 29.56700 31.13700
O  49.11200 30.70200 31.38300
C  48.11200 28.61500 32.20500
C  49.00000 28.60000 33.35400
O  49.92600 27.84200 33.47900
O  48.62200 29.60000 34.22500
C  49.43300 29.71200 35.43200
H  46.22000 21.94100 32.36600
H  46.84800 21.66500 25.91400
H  48.14200 27.77300 25.74500
H  47.93600 26.05900 34.17700
H  45.96500 23.78100 33.90200
H  48.62700 22.95500 33.62200
H  47.52500 22.84400 34.95300
H  48.70200 24.19800 34.82700
H  45.20100 25.83300 34.30300
H  45.67300 27.42500 33.44700
H  46.25700 28.33000 35.34200
H  47.24500 27.05400 35.93400
H  44.63900 19.41400 30.46500
H  45.65200 19.90300 31.93100
H  46.28600 18.86400 30.78700
H  46.61800 17.75600 28.98500
H  45.84700 17.32200 27.46100
H  44.80600 18.10000 28.65500
H  46.64300 23.54500 24.17600
H  48.43300 25.89800 24.33900
H  49.31700 22.79800 25.09400
H  49.57200 24.13000 24.03500
H  48.68500 22.65700 23.48900
H  45.84300 25.44400 23.48600
H  46.79800 26.91200 23.45600
H  45.53700 27.98900 24.94400
H  45.22300 26.53300 26.06100
H  44.33300 26.90900 24.67700
H  48.39200 30.22600 26.87400
H  50.14900 29.81900 27.17900
H  49.33100 30.80600 28.31300
H  47.12200 29.03400 32.38800
H  49.23100 28.92900 36.16300
H  49.28100 30.62700 36.00500
H  50.51100 29.59800 35.31300

