158

Mg 41.64700 40.95700 26.96500
C  40.55300 43.27100 29.27900
C  42.69900 38.92500 29.61900
C  42.87500 38.64100 24.71900
C  41.14800 43.27200 24.41100
N  41.70700 41.10700 29.13400
C  41.06200 42.08500 29.83700
C  40.99900 41.70800 31.39700
C  42.02100 40.53500 31.46700
C  42.18800 40.17600 30.02400
C  43.33400 40.86100 32.15300
C  39.49700 41.36100 31.77100
C  38.92600 42.12600 32.90300
H  38.39100 41.27200 34.14100
N  42.70900 39.04800 27.14900
C  42.86300 38.33600 28.30000
C  43.29900 36.93700 27.98300
C  43.47200 36.89200 26.62500
C  42.99800 38.26600 26.13900
C  43.60100 35.89900 29.04800
C  43.86400 35.81200 25.70300
O  44.16000 35.98200 24.48600
C  44.12700 34.49500 26.27000
N  42.09800 40.98800 24.85300
C  42.44200 39.86600 24.15300
C  42.52800 40.19400 22.63900
C  42.13900 41.69200 22.56000
C  41.74300 42.01900 24.02500
C  43.95000 39.95100 22.05100
C  41.08000 42.04000 21.57600
C  39.66600 41.53000 21.81700
N  41.00500 42.92600 26.82500
C  40.79600 43.67200 25.70800
C  40.21900 44.89300 26.12500
C  40.07500 44.83000 27.54700
C  40.53600 43.58100 27.90800
C  39.88600 45.93500 25.13500
C  39.63500 45.39400 28.73100
O  39.03300 46.39500 28.93300
C  39.96900 44.45800 29.89400
C  40.89800 45.21600 30.78500
O  41.95000 45.72400 30.46000
O  40.39700 45.20500 32.10200
C  41.12500 45.93400 33.13100
H  42.88600 38.19600 30.41000
H  43.27700 37.97400 23.95300
H  40.96800 43.99900 23.61600
H  41.48200 42.51500 31.94800
H  41.62900 39.70900 32.06200
H  43.21700 41.64400 32.90300
H  44.11200 41.16300 31.45300
H  43.68300 39.96700 32.66900
H  39.38800 40.29800 31.98600
H  38.91500 41.61200 30.88400
H  38.19400 42.88000 32.61600
H  39.72400 42.76500 33.28200
H  42.90100 35.06300 29.04600
H  43.51100 36.26900 30.06900
H  44.61300 35.51100 28.93500
H  43.32400 34.24800 26.96400
H  45.06400 34.66800 26.79800
H  44.20800 33.73700 25.49100
H  41.81500 39.62700 22.04000
H  43.06700 42.25400 22.44700
H  43.92500 38.89100 21.79800
H  44.73200 40.05700 22.80300
H  44.15400 40.65600 21.24500
H  41.42000 41.58000 20.64800
H  41.05200 43.11500 21.39600
H  39.70200 40.76100 22.58900
H  39.34800 41.02000 20.90700
H  39.00800 42.32500 22.16800
H  39.19400 45.48600 24.42200
H  40.83600 46.19000 24.66500
H  39.40800 46.77400 25.64000
H  39.11900 44.25100 30.54400
H  40.89000 45.62700 34.15000
H  40.86700 46.98700 33.01900
H  42.19200 45.92700 32.90600
Mg -11.24000 40.66500 43.32100
C  -10.80900 37.32100 42.11200
C  -8.28800 41.48800 41.67700
C  -12.10700 43.83400 43.62500
C  -14.55300 39.72000 44.07700
N  -9.74200 39.50200 41.94900
C  -9.83500 38.17500 41.56800
C  -8.53000 37.75400 40.75500
C  -7.55500 38.97700 41.11000
C  -8.57100 40.08600 41.63400
C  -6.27500 38.74100 41.92700
C  -8.73100 37.51400 39.27300
C  -7.98400 36.27400 38.61200
H  -6.95400 36.42300 37.47500
N  -10.31500 42.42700 42.74000
C  -9.07700 42.56300 42.17200
C  -8.69900 43.93000 42.13900
C  -9.84700 44.64000 42.67200
C  -10.80400 43.65100 43.03800
C  -7.54300 44.39600 41.49500
C  -10.01100 46.15600 42.74800
O  -9.01500 46.84700 42.57900
C  -11.16000 46.90000 43.21400
N  -13.10400 41.68400 43.82900
C  -13.13700 42.99400 43.94100
C  -14.57000 43.51100 44.31400
C  -15.34400 42.12600 44.51100
C  -14.30600 41.10500 44.08400
C  -14.76000 44.45100 45.50800
C  -16.71000 42.09600 43.75100
C  -17.95800 42.29400 44.60700
N  -12.42800 38.86900 43.32400
C  -13.68700 38.64800 43.73700
C  -14.03500 37.20900 43.61000
C  -12.83800 36.66700 43.04300
C  -11.92400 37.71800 42.84700
C  -15.39400 36.63400 43.90600
C  -12.23200 35.42300 42.61400
O  -12.65000 34.26800 42.65400
C  -10.97600 35.83100 41.83300
C  -9.88000 34.90800 42.21200
O  -9.21700 35.00900 43.26900
O  -9.63800 34.01400 41.22200
C  -8.42800 33.19800 41.45500
H  -7.31000 41.67400 41.22700
H  -12.31900 44.87700 43.86900
H  -15.52000 39.46100 44.51300
H  -8.07600 36.85800 41.17800
H  -7.19700 39.40700 40.17500
H  -6.19700 37.65400 41.93700
H  -6.34200 39.15900 42.93200
H  -5.48300 39.17900 41.31900
H  -8.28000 38.34000 38.72400
H  -9.77600 37.41900 38.98000
H  -8.76300 35.63900 38.19100
H  -7.36600 35.80300 39.37700
H  -7.67300 45.29000 40.88400
H  -7.05600 43.64000 40.87800
H  -6.73800 44.55900 42.21100
H  -12.03800 46.68600 42.60600
H  -10.83300 47.93800 43.14500
H  -11.14800 46.61000 44.26400
H  -14.97500 44.04000 43.45100
H  -15.47200 41.98100 45.58300
H  -15.18000 43.95700 46.38400
H  -15.20800 45.38300 45.16100
H  -13.75200 44.61800 45.88700
H  -16.77400 41.09000 43.33600
H  -16.74900 42.78300 42.90600
H  -18.65900 43.01900 44.19300
H  -17.70300 42.57000 45.63100
H  -18.43600 41.31700 44.66600
H  -16.05300 36.86900 43.07000
H  -15.88800 37.02700 44.79400
H  -15.42200 35.54900 43.99700
H  -11.33100 35.57300 40.83500
H  -7.57400 33.79200 41.12800
H  -8.52000 32.27400 40.88500
H  -8.20000 32.84200 42.46000

