158

Mg 0.64200 7.18500 25.33000
C  1.29100 8.99900 28.25800
C  0.98800 4.30100 27.12500
C  0.37300 5.42900 22.38100
C  0.61000 10.17700 23.51700
N  1.15500 6.75500 27.43100
C  1.21500 7.60200 28.45500
C  1.13800 6.99900 29.75400
C  1.36800 5.47400 29.39400
C  1.12300 5.48600 27.86100
C  2.73800 4.92800 29.89900
C  -0.14700 7.24900 30.60100
C  0.01900 7.90200 31.98100
H  1.20100 7.39200 32.79100
N  0.82600 5.18800 24.85500
C  0.81500 4.12400 25.73200
C  0.82400 2.89100 25.06700
C  0.66100 3.15700 23.65900
C  0.57100 4.65600 23.55900
C  0.88400 1.57200 25.81700
C  0.42600 2.22400 22.49500
O  0.47400 2.59500 21.32800
C  0.33800 0.79000 22.75700
N  0.39400 7.71300 23.28300
C  0.26100 6.77200 22.25400
C  0.03500 7.50700 20.90600
C  -0.01500 9.03100 21.36000
C  0.31500 9.00800 22.83600
C  1.26200 7.31600 19.92500
C  -1.44800 9.62500 21.03900
C  -2.60200 9.11000 21.97100
N  0.72600 9.22600 25.75300
C  0.79700 10.32400 24.87800
C  1.17500 11.52800 25.66400
C  1.31300 11.00900 26.98500
C  1.11300 9.57900 27.00500
C  1.20100 12.94300 25.36200
C  1.52900 11.47800 28.36900
O  1.72100 12.59300 28.84100
C  1.53100 10.14900 29.19000
C  2.89200 9.96700 29.91500
O  3.79900 9.23400 29.57300
O  2.84700 10.75400 31.00300
C  3.82500 10.66000 32.15400
H  0.92600 3.39500 27.73200
H  0.45900 4.82600 21.47500
H  0.55300 11.08400 22.91100
H  1.94600 7.42300 30.35000
H  0.53600 4.96300 29.87800
H  3.05300 4.47100 28.96100
H  2.56400 4.11000 30.59900
H  3.48500 5.62400 30.28000
H  -0.82900 6.39900 30.60600
H  -0.73100 8.00200 30.07300
H  -0.86400 7.91200 32.62000
H  0.23100 8.95900 31.82500
H  0.47700 1.64200 26.82600
H  1.93300 1.27700 25.85200
H  0.32800 0.77700 25.31900
H  0.42000 0.29800 21.78800
H  -0.49200 0.29200 23.25900
H  1.20000 0.45800 23.33500
H  -0.89800 7.11300 20.50300
H  0.67500 9.73900 20.90000
H  2.05900 6.74300 20.39800
H  1.72100 8.24100 19.57700
H  0.93200 6.65200 19.12500
H  -1.55900 9.17800 20.05100
H  -1.37900 10.70900 20.94700
H  -3.36100 8.81700 21.24700
H  -2.97000 9.96600 22.53700
H  -2.30600 8.38800 22.73300
H  0.69600 13.16100 24.42000
H  2.23000 13.30000 25.34300
H  0.78600 13.50500 26.19800
H  0.70300 10.26200 29.88900
H  4.66800 11.35000 32.10100
H  4.21800 9.64500 32.10400
H  3.32300 10.59900 33.11900
Mg -5.27000 25.00500 26.80600
C  -3.75700 26.51100 29.56800
C  -6.97300 22.88000 28.81000
C  -6.45500 23.61700 23.99200
C  -3.17000 27.13300 24.78000
N  -5.30600 24.74200 28.93500
C  -4.67800 25.48000 29.88600
C  -5.17700 25.03800 31.23300
C  -5.84900 23.67400 30.96200
C  -6.10400 23.71400 29.48200
C  -5.04400 22.46800 31.46800
C  -6.13800 26.11100 31.78600
C  -6.01100 26.37100 33.22800
H  -5.41100 25.29700 34.14400
N  -6.57300 23.49600 26.46900
C  -7.29100 22.77200 27.40000
C  -8.19300 21.90400 26.74300
C  -8.04600 22.14700 25.36900
C  -6.94900 23.11100 25.19200
C  -9.28600 21.13100 27.52300
C  -8.88900 21.48500 24.21000
O  -8.67100 21.74200 23.06300
C  -9.98800 20.48000 24.41900
N  -4.87600 25.34200 24.73000
C  -5.51900 24.57900 23.76200
C  -5.25100 25.14400 22.40400
C  -4.27100 26.39700 22.68800
C  -4.05200 26.27300 24.15000
C  -4.75700 24.09700 21.22700
C  -4.85800 27.81800 22.18500
C  -3.86900 28.55500 21.26200
N  -3.71200 26.44900 27.01100
C  -2.97900 27.15300 26.10800
C  -1.95500 27.93500 26.93600
C  -2.33700 27.82000 28.24800
C  -3.37000 26.90700 28.23100
C  -0.90100 28.88000 26.44800
C  -1.96100 28.23200 29.57500
O  -1.18600 29.05100 30.00400
C  -2.96500 27.40700 30.53500
C  -2.02800 26.67700 31.37100
O  -1.54300 25.62500 31.09000
O  -1.85000 27.35000 32.60000
C  -0.99300 26.75600 33.63300
H  -7.49200 22.23900 29.52600
H  -6.63800 23.10100 23.04700
H  -2.51800 27.78300 24.19200
H  -4.27100 24.83700 31.80400
H  -6.83500 23.74300 31.42100
H  -4.03200 22.67100 31.82000
H  -4.99100 21.79000 30.61600
H  -5.63600 21.97600 32.23800
H  -7.16900 25.78400 31.65500
H  -6.07100 27.06800 31.26800
H  -7.03000 26.45100 33.60800
H  -5.49900 27.28300 33.53200
H  -10.29200 21.35800 27.17000
H  -9.16100 21.17200 28.60500
H  -9.08100 20.09500 27.25400
H  -9.96700 19.89500 23.49900
H  -10.97500 20.90500 24.60300
H  -9.70900 19.78700 25.21300
H  -6.19700 25.55600 22.04900
H  -3.36000 26.12300 22.15600
H  -5.44900 24.07600 20.38500
H  -5.03500 23.15000 21.68900
H  -3.72300 24.17200 20.89000
H  -5.11700 28.44900 23.03400
H  -5.71200 27.74100 21.51200
H  -3.66000 29.53000 21.70400
H  -4.38500 28.84000 20.34500
H  -2.99800 27.93200 21.05900
H  -0.62100 28.59200 25.43400
H  0.02600 28.72200 26.99900
H  -1.26600 29.90500 26.37900
H  -3.37600 28.19100 31.17200
H  0.00600 26.67100 33.20600
H  -1.50900 25.81500 33.82300
H  -0.93700 27.26700 34.59500

