158

Mg -2.25200 35.44700 26.34300
C  -3.85500 33.42700 28.74900
C  -1.30800 37.57100 29.03700
C  -0.73600 37.49200 24.08600
C  -3.45000 33.50400 23.91200
N  -2.70000 35.53200 28.64700
C  -3.16600 34.48500 29.40600
C  -2.90700 34.73500 30.91800
C  -2.32500 36.20800 30.87400
C  -2.17500 36.53900 29.47000
C  -3.04800 37.24700 31.66300
C  -2.05800 33.62600 31.69600
C  -2.65600 33.03700 33.04100
H  -1.73800 33.07900 34.31500
N  -1.06800 37.22100 26.54400
C  -0.77300 37.83300 27.72400
C  0.04300 38.96700 27.36900
C  0.35500 39.04200 25.95800
C  -0.50200 37.86600 25.43100
C  0.45300 39.84200 28.49100
C  1.18300 39.93500 25.12000
O  1.20500 39.92200 23.89000
C  1.99100 40.97800 25.76300
N  -2.01500 35.38600 24.35000
C  -1.37500 36.35800 23.58000
C  -1.85500 36.17500 22.15900
C  -1.97500 34.62600 22.10600
C  -2.53000 34.44100 23.55400
C  -3.03600 36.97300 21.63000
C  -0.65700 33.87200 21.94300
C  -0.52900 33.12000 20.59900
N  -3.56500 33.94200 26.34300
C  -3.97800 33.24500 25.24600
C  -4.89200 32.15800 25.64500
C  -4.80200 32.19900 27.06600
C  -4.04400 33.37800 27.41800
C  -5.61600 31.14500 24.79000
C  -5.21100 31.53200 28.28000
O  -5.98100 30.56700 28.44800
C  -4.57500 32.28300 29.41600
C  -5.54700 32.64400 30.45000
O  -6.42200 33.55200 30.33100
O  -5.34300 31.89300 31.61400
C  -6.19800 32.13400 32.76100
H  -0.91900 38.14900 29.87800
H  -0.35900 38.15700 23.30700
H  -3.71800 32.82900 23.09800
H  -3.89200 34.83700 31.37400
H  -1.37300 36.21000 31.40400
H  -3.69600 37.81100 30.99200
H  -2.31300 37.83500 32.21300
H  -3.80900 36.91400 32.36800
H  -1.06100 33.97600 31.96600
H  -1.88900 32.78000 31.03000
H  -2.89300 31.98100 32.90500
H  -3.58200 33.55000 33.29700
H  0.56100 39.33200 29.44800
H  -0.36100 40.56300 28.56300
H  1.37100 40.42400 28.40600
H  2.63400 41.54500 25.09000
H  2.59300 40.51500 26.54500
H  1.30500 41.74800 26.11800
H  -0.95400 36.49300 21.63500
H  -2.66600 34.25700 21.34900
H  -3.65700 37.34100 22.44700
H  -3.69400 36.43000 20.95200
H  -2.66800 37.82700 21.06200
H  -0.62400 33.18300 22.78700
H  0.16800 34.57200 22.07400
H  -0.74400 32.05800 20.71700
H  0.53600 33.09000 20.36700
H  -1.01700 33.57400 19.73700
H  -6.64800 31.40700 24.55500
H  -5.70900 30.28100 25.44700
H  -5.08600 30.85500 23.88300
H  -3.83000 31.68600 29.94200
H  -6.15700 31.25300 33.40200
H  -7.24700 32.21100 32.47400
H  -5.82200 32.95900 33.36600
Mg -5.55300 26.18100 25.61000
C  -3.81200 27.59900 28.33300
C  -7.12700 24.04100 27.76900
C  -6.63500 24.59900 22.95000
C  -3.69900 28.44100 23.46700
N  -5.52800 25.95700 27.78900
C  -4.72200 26.60500 28.69200
C  -5.14600 26.30400 30.09800
C  -5.96800 24.94200 29.92700
C  -6.29400 25.01600 28.40900
C  -5.20900 23.62900 30.27300
C  -6.09000 27.37800 30.65400
C  -5.70600 27.92800 32.06200
H  -4.97000 27.06400 33.08700
N  -6.65900 24.49000 25.41800
C  -7.28500 23.79900 26.38400
C  -8.10600 22.71500 25.83700
C  -7.96800 22.83600 24.42700
C  -7.07400 24.01300 24.20400
C  -8.96000 21.74900 26.65700
C  -8.65000 22.00000 23.35400
O  -8.44500 22.23500 22.18400
C  -9.64700 20.88900 23.66900
N  -5.15700 26.49400 23.46400
C  -5.83300 25.72900 22.58000
C  -5.56800 26.17300 21.07800
C  -4.70300 27.43400 21.33900
C  -4.52500 27.51000 22.82500
C  -4.83600 25.04500 20.34300
C  -5.29500 28.74000 20.67200
C  -4.37000 29.49500 19.72700
N  -3.97700 27.64900 25.82900
C  -3.37600 28.47900 24.81900
C  -2.46400 29.45000 25.46800
C  -2.55200 29.07200 26.82600
C  -3.50800 28.05100 27.02200
C  -1.67000 30.52200 24.74100
C  -2.01800 29.34000 28.14900
O  -1.22200 30.16300 28.59800
C  -2.80000 28.38900 29.16500
C  -1.75200 27.55000 29.80700
O  -1.26200 26.50900 29.38600
O  -1.24500 28.18600 30.90000
C  -0.40100 27.43000 31.74100
H  -7.75000 23.48900 28.47600
H  -7.15400 24.19800 22.07700
H  -3.32800 29.16500 22.73900
H  -4.27000 26.16000 30.73200
H  -6.89400 24.99100 30.50000
H  -4.21300 23.91900 30.61000
H  -5.17600 22.93600 29.43200
H  -5.73000 23.05200 31.03700
H  -7.14500 27.13400 30.78200
H  -6.01200 28.21700 29.96300
H  -6.56200 28.40600 32.53900
H  -5.16500 28.86700 31.94800
H  -8.62300 20.79200 26.25900
H  -10.02500 21.87800 26.46300
H  -8.78300 21.84800 27.72800
H  -10.23500 20.52200 22.82800
H  -10.38300 21.31900 24.34800
H  -9.09600 20.10100 24.18300
H  -6.49700 26.42300 20.56600
H  -3.73200 27.22500 20.89200
H  -4.39600 24.22100 20.90400
H  -4.14200 25.36500 19.56600
H  -5.68300 24.65300 19.77900
H  -5.61100 29.46700 21.42000
H  -6.21900 28.59000 20.11500
H  -5.00600 30.21300 19.20800
H  -3.90200 28.90900 18.93600
H  -3.60800 30.02800 20.29600
H  -2.02400 30.61900 23.71500
H  -0.60200 30.30800 24.71400
H  -1.71300 31.56000 25.07200
H  -3.36600 28.90600 29.94000
H  -0.42200 26.36000 31.53500
H  -0.75600 27.54300 32.76500
H  0.61100 27.76200 31.50900

