158

Mg 54.06900 23.99500 44.06600
C  51.38400 26.18100 43.25600
C  52.15000 21.39500 42.82900
C  56.77000 22.15800 43.90300
C  55.69400 26.71700 45.45400
N  52.17400 23.92400 42.88000
C  51.25900 24.86700 42.69800
C  50.05100 24.31100 41.92300
C  50.08100 22.77500 42.27700
C  51.53400 22.67500 42.75400
C  49.00700 22.07300 43.10000
C  50.01100 24.67800 40.39500
C  51.35300 24.89500 39.57400
H  51.22900 25.85600 38.42500
N  54.35000 21.99100 43.67700
C  53.43000 21.09100 43.20000
C  54.00200 19.76800 43.21500
C  55.36400 19.94400 43.58500
C  55.57900 21.38800 43.69400
C  53.31200 18.59900 42.63500
C  56.37300 18.83400 43.72200
O  56.06000 17.69700 43.44100
C  57.81700 19.08400 44.20100
N  56.00000 24.42700 44.31900
C  57.08000 23.50900 44.26000
C  58.36000 24.05900 44.89200
C  57.91600 25.39500 45.47200
C  56.42300 25.53200 45.16500
C  59.00400 23.20000 46.02800
C  58.65700 26.70400 44.97000
C  58.13600 27.41500 43.72900
N  53.78600 26.12100 44.23900
C  54.43900 27.05700 44.91600
C  53.65400 28.29300 45.05000
C  52.48000 28.01000 44.36100
C  52.54200 26.68400 43.88700
C  54.07400 29.58000 45.68500
C  51.22700 28.58300 43.92300
O  50.74600 29.66400 44.13200
C  50.46000 27.40300 43.32100
C  49.88800 27.82400 42.03000
O  50.47000 27.78800 40.99100
O  48.65200 28.15600 42.17100
C  47.94200 28.34100 40.92000
H  51.42800 20.59800 42.63800
H  57.71500 21.61700 43.97700
H  56.29400 27.45400 45.99200
H  49.25400 24.91900 42.35100
H  50.09100 22.26400 41.31400
H  48.09200 22.40200 42.61000
H  49.03900 22.46800 44.11600
H  48.99900 20.98400 43.14400
H  49.34900 25.53400 40.26300
H  49.48600 23.88800 39.85800
H  51.83300 23.96300 39.27500
H  52.04300 25.41600 40.23800
H  53.99700 18.11000 41.94200
H  52.51300 18.84200 41.93500
H  52.83000 17.92300 43.34100
H  57.67200 19.55000 45.17600
H  58.34900 19.76800 43.54000
H  58.41200 18.17900 44.32400
H  59.13800 24.18900 44.14000
H  58.02200 25.50200 46.55100
H  58.41600 22.32700 46.31100
H  59.24900 23.78900 46.91200
H  59.89100 22.71800 45.61700
H  59.71000 26.51500 44.76500
H  58.69300 27.43600 45.77700
H  57.94600 28.47400 43.90300
H  57.37200 26.88300 43.16200
H  58.89100 27.48900 42.94600
H  55.03800 29.33100 46.12900
H  53.31500 29.82300 46.42800
H  54.27100 30.37800 44.96900
H  49.70400 27.14900 44.06400
H  48.04900 27.53100 40.19900
H  48.21500 29.30500 40.49200
H  46.88700 28.33500 41.19500
Mg 46.74400 24.93300 28.20400
C  47.72700 27.25300 30.68000
C  45.61000 22.82300 30.62000
C  46.34200 22.61800 25.72200
C  48.35100 27.03600 25.83500
N  46.64900 25.12700 30.41600
C  46.96300 26.21800 31.24600
C  46.52900 25.92100 32.73100
C  45.98600 24.45900 32.63600
C  46.06000 24.12600 31.10800
C  46.63700 23.36100 33.46500
C  45.47700 26.97300 33.27700
C  44.64200 26.75400 34.55400
H  45.49500 26.57600 35.89300
N  45.91700 23.05900 28.13600
C  45.60600 22.34100 29.27300
C  45.07600 21.01600 28.81700
C  45.24500 20.96800 27.41700
C  45.85200 22.26700 26.98100
C  44.51600 20.07700 29.83300
C  44.72400 19.95800 26.36500
O  45.01200 19.98000 25.16300
C  43.79600 18.99400 26.89100
N  47.18100 24.94400 26.06300
C  46.98800 23.80200 25.28600
C  47.68600 23.92700 23.87700
C  48.21000 25.37200 23.93600
C  47.85000 25.83800 25.37100
C  48.60900 22.74300 23.50000
C  47.85600 26.38900 22.74100
C  48.94100 27.38500 22.32600
N  47.69000 26.82700 28.19300
C  48.37400 27.51200 27.17100
C  49.03600 28.73300 27.66000
C  48.69300 28.68600 29.05700
C  47.93800 27.49400 29.35700
C  49.83000 29.75000 26.93000
C  48.77500 29.53500 30.27500
O  49.07600 30.71700 30.44000
C  48.17000 28.50000 31.43000
C  49.30700 28.16200 32.33500
O  50.39700 27.73100 32.01400
O  48.99100 28.60400 33.60900
C  50.17700 28.80300 34.41000
H  45.23100 22.07200 31.31600
H  46.30100 21.83100 24.96600
H  48.80400 27.70100 25.09600
H  47.40400 26.06900 33.36500
H  44.92700 24.44600 32.89400
H  47.41700 23.78600 34.09600
H  47.18900 22.66400 32.83500
H  45.96700 22.77500 34.09300
H  44.89500 27.21400 32.38700
H  45.95800 27.92100 33.52000
H  44.03400 25.85800 34.42500
H  43.98300 27.61300 34.68200
H  45.13900 19.18600 29.75700
H  43.49900 19.81300 29.54300
H  44.53000 20.40500 30.87200
H  43.32300 18.45900 26.06700
H  42.94000 19.51100 27.32300
H  44.36900 18.31300 27.52100
H  46.91700 23.88500 23.10500
H  49.29700 25.31100 23.90400
H  49.14800 22.31200 24.34400
H  49.17600 22.97800 22.60000
H  47.99000 21.87400 23.27300
H  46.98500 27.00700 22.95700
H  47.63700 25.75200 21.88400
H  49.65800 27.54600 23.13200
H  48.46100 28.36300 22.29200
H  49.42700 27.15600 21.37800
H  50.31900 29.54600 25.97800
H  50.52600 30.11800 27.68400
H  49.00300 30.44300 26.77500
H  47.29500 28.97600 31.87400
H  49.90300 28.89100 35.46100
H  50.60600 29.77800 34.17900
H  51.04400 28.16200 34.25300

