158

Mg -2.15500 16.90900 25.68800
C  -2.60600 14.84300 28.15900
C  -2.68500 19.63200 27.71400
C  -1.63300 18.98500 23.00400
C  -2.00000 14.21100 23.32900
N  -2.58100 17.23500 27.71300
C  -2.64100 16.16500 28.57700
C  -2.95400 16.67300 30.01800
C  -3.07100 18.24700 29.80200
C  -2.72900 18.38600 28.32500
C  -4.34900 18.87500 30.33300
C  -1.82600 16.39000 31.06900
C  -1.82800 17.27200 32.34800
H  -1.48400 16.45900 33.65800
N  -2.11500 18.98200 25.39100
C  -2.35800 19.97800 26.38300
C  -2.35200 21.25500 25.77900
C  -1.80600 21.08300 24.42000
C  -1.88700 19.65100 24.16200
C  -2.78900 22.47400 26.48700
C  -1.49000 22.14900 23.46400
O  -1.36100 21.97700 22.23300
C  -1.16400 23.54900 24.02100
N  -1.98100 16.62000 23.49300
C  -1.74500 17.65600 22.67100
C  -1.72300 17.16700 21.22400
C  -1.99700 15.67100 21.31100
C  -1.84500 15.47700 22.82100
C  -2.73400 17.87600 20.22900
C  -1.06300 14.78300 20.43400
C  -1.72400 13.74500 19.45900
N  -2.20600 14.86800 25.64600
C  -2.09000 13.86600 24.68100
C  -2.14000 12.60000 25.39400
C  -2.45900 12.95900 26.74000
C  -2.39900 14.31500 26.84900
C  -1.90900 11.28800 24.67900
C  -2.79300 12.35800 28.08200
O  -2.97400 11.24300 28.46600
C  -2.71300 13.59600 29.06500
C  -1.51100 13.37800 29.89400
O  -0.34700 13.72300 29.69700
O  -1.94300 12.74800 31.05100
C  -0.97600 12.08600 31.91300
H  -2.76400 20.46000 28.42100
H  -1.33600 19.67600 22.21300
H  -2.08200 13.33600 22.68000
H  -3.87600 16.19900 30.35400
H  -2.27100 18.77400 30.32200
H  -4.90300 19.25300 29.47300
H  -4.11200 19.69700 31.00800
H  -4.91600 18.07900 30.81600
H  -0.85400 16.46700 30.58200
H  -2.00100 15.39500 31.47800
H  -2.69600 17.86300 32.64300
H  -0.93800 17.87200 32.15600
H  -3.20000 23.25500 25.84700
H  -2.17600 22.97200 27.23800
H  -3.64900 22.17800 27.08800
H  -0.48100 24.09700 23.37100
H  -0.57000 23.24300 24.88100
H  -2.04200 24.16800 24.20500
H  -0.67700 17.25800 20.93200
H  -3.00200 15.42300 20.97000
H  -3.14300 18.78700 20.66700
H  -3.60500 17.25600 20.02000
H  -2.25100 18.05200 19.26800
H  -0.40700 14.16800 21.04900
H  -0.51500 15.42300 19.74300
H  -2.78700 13.98700 19.46800
H  -1.65200 12.72800 19.84400
H  -1.34000 13.75900 18.43900
H  -1.84700 10.45000 25.37300
H  -1.00300 11.36100 24.07600
H  -2.72000 11.09100 23.97800
H  -3.63400 13.54500 29.64600
H  -1.54100 11.75000 32.78300
H  -0.14500 12.73500 32.18600
H  -0.53800 11.22300 31.41100
Mg 7.02900 53.33200 41.18300
C  5.82000 50.04100 40.97100
C  10.09200 52.18500 40.24300
C  7.97600 56.57100 40.46700
C  3.82100 54.48500 41.82600
N  7.78600 51.32800 40.54500
C  7.16000 50.13500 40.65400
C  8.15100 48.91900 40.62400
C  9.57100 49.70900 40.62700
C  9.10000 51.19300 40.48300
C  10.50000 49.55500 41.84100
C  8.02900 47.87000 39.53200
C  8.50800 48.22200 38.09800
H  7.63700 47.65700 36.93400
N  8.82400 54.24700 40.36900
C  10.00500 53.57900 40.10400
C  11.02400 54.54400 39.83100
C  10.41400 55.85500 39.82100
C  8.98600 55.60000 40.23700
C  12.46200 54.15600 39.56400
C  11.13700 57.18400 39.39600
O  12.33300 57.19800 39.00300
C  10.34400 58.40900 39.17300
N  6.06900 55.27300 41.21200
C  6.67800 56.43800 40.87900
C  5.83600 57.68500 41.30000
C  4.49700 56.98100 41.72700
C  4.76800 55.49100 41.53300
C  6.42600 58.64100 42.28300
C  3.16300 57.51700 41.00200
C  2.81300 59.03100 41.10100
N  5.17200 52.50100 41.37400
C  3.91300 53.08800 41.57200
C  2.91600 52.11500 41.55000
C  3.63200 50.90300 41.37400
C  4.99600 51.18600 41.25300
C  1.38100 52.24600 41.82500
C  3.43500 49.48700 41.30500
O  2.43000 48.81900 41.38200
C  4.87100 48.82800 40.99800
C  4.72300 47.93000 39.70700
O  4.57800 48.34200 38.55600
O  4.69800 46.58300 40.00900
C  4.82100 45.64000 38.86100
H  11.10500 51.83000 40.03700
H  8.36400 57.58200 40.32700
H  2.82600 54.74400 42.19400
H  8.06900 48.42900 41.59500
H  10.10100 49.48900 39.70100
H  10.44000 50.46500 42.43700
H  11.51000 49.39400 41.46300
H  10.36200 48.66000 42.44800
H  7.11500 47.28600 39.62900
H  8.67700 47.04100 39.81800
H  9.54700 47.99700 37.85600
H  8.41400 49.30000 37.96700
H  12.55300 53.19800 39.05300
H  13.03200 53.99200 40.47900
H  13.04100 54.88000 38.99100
H  9.48600 58.09900 38.57500
H  10.86100 59.10700 38.51500
H  10.14000 58.94600 40.09900
H  5.77900 58.30700 40.40700
H  4.52600 57.22400 42.79000
H  7.34500 58.19900 42.66800
H  5.73000 58.79700 43.10600
H  6.76800 59.51600 41.73000
H  2.29300 56.90200 41.23300
H  3.35500 57.25300 39.96200
H  3.60500 59.46600 41.71100
H  1.85300 59.20300 41.58700
H  2.72300 59.45300 40.10000
H  0.79300 51.46600 41.34300
H  1.10400 53.23900 41.47300
H  1.23100 52.14400 42.90000
H  5.24100 48.17900 41.79200
H  5.37400 46.07800 38.03000
H  3.85800 45.19100 38.61700
H  5.42600 44.82600 39.26100

