158

Mg -10.91800 40.41500 39.62900
C  -9.56000 37.31400 38.60500
C  -7.85500 41.84600 38.77600
C  -12.27400 43.39900 40.06000
C  -14.06000 38.87200 39.66900
N  -8.99000 39.69500 38.73300
C  -8.64100 38.38500 38.50600
C  -7.20200 38.25700 38.01000
C  -6.59500 39.64900 38.28700
C  -7.86000 40.42600 38.66500
C  -5.57700 39.80100 39.43600
C  -7.21000 37.91600 36.49900
C  -6.15800 37.04100 35.87900
H  -6.65900 36.20800 34.67500
N  -10.20300 42.37300 39.32400
C  -8.87000 42.79500 39.06800
C  -8.79200 44.20500 39.19800
C  -10.05700 44.69800 39.48100
C  -10.94000 43.47700 39.64800
C  -7.54300 45.09100 38.98300
C  -10.47000 46.16800 39.52100
O  -9.55900 46.99800 39.43000
C  -11.92200 46.60300 39.55600
N  -12.92000 40.97600 39.75900
C  -13.16800 42.33000 39.96000
C  -14.65200 42.56600 40.26100
C  -15.26700 41.16900 40.11200
C  -14.00900 40.25400 39.80600
C  -15.01500 43.09900 41.69800
C  -16.34500 41.13600 38.86300
C  -17.68700 41.76100 39.32200
N  -11.72400 38.41400 39.39400
C  -12.98400 37.97400 39.41800
C  -13.00000 36.54500 39.24500
C  -11.66300 36.23100 38.93700
C  -10.92900 37.45700 39.00900
C  -14.18600 35.60100 39.36500
C  -10.73900 35.17100 38.52100
O  -10.89300 33.98700 38.32900
C  -9.32200 35.82100 38.25500
C  -8.39500 35.12500 39.14400
O  -8.66000 34.76100 40.27200
O  -7.33800 34.69900 38.36600
C  -6.41400 33.78800 39.06800
H  -6.85300 42.26100 38.64800
H  -12.63300 44.34800 40.46400
H  -15.09300 38.58400 39.87300
H  -6.62700 37.49300 38.53400
H  -6.06800 40.10600 37.45000
H  -5.12100 40.77600 39.26600
H  -4.73200 39.11700 39.35500
H  -5.98700 39.81400 40.44600
H  -7.10700 38.83900 35.92900
H  -8.17900 37.52600 36.18700
H  -5.69100 36.40000 36.62600
H  -5.42200 37.69700 35.41500
H  -7.53600 45.47800 37.96400
H  -6.65700 44.45800 38.92800
H  -7.35000 45.81800 39.77200
H  -11.95300 47.45600 38.87800
H  -12.36500 46.77300 40.53700
H  -12.50500 45.87600 38.99000
H  -15.13100 43.27600 39.58600
H  -15.82000 40.84200 40.99300
H  -14.13000 43.50000 42.19300
H  -15.52700 42.53100 42.47400
H  -15.64100 43.95200 41.43700
H  -16.56800 40.22300 38.31000
H  -15.87500 41.80200 38.14000
H  -17.44100 42.65400 39.89700
H  -18.10300 40.98200 39.96100
H  -18.34600 42.03300 38.49800
H  -14.28500 35.01900 38.44900
H  -15.11700 36.16500 39.42600
H  -14.12200 34.84800 40.14900
H  -9.01100 35.66700 37.22200
H  -5.37100 34.03700 38.87300
H  -6.72400 32.74500 39.00100
H  -6.45200 33.92000 40.15000
Mg -1.99600 34.91400 26.23100
C  -4.07400 33.20700 28.38600
C  -1.39000 37.15700 28.56100
C  -0.19700 36.67100 23.90100
C  -3.22600 32.82200 23.64700
N  -2.74300 35.08700 28.18500
C  -3.44500 34.24600 28.99500
C  -3.31400 34.55900 30.50100
C  -2.74900 36.00600 30.45800
C  -2.22500 36.06800 29.03400
C  -3.74300 37.11800 30.77400
C  -2.39400 33.55200 31.33400
C  -3.00500 33.14900 32.74600
H  -3.35300 34.25400 33.78900
N  -0.83100 36.56600 26.28900
C  -0.72300 37.38400 27.32900
C  0.03900 38.57100 26.97400
C  0.46600 38.43200 25.66100
C  -0.12400 37.16600 25.26200
C  0.38100 39.64100 28.05100
C  1.40600 39.30300 24.85600
O  1.65400 38.98300 23.69300
C  1.98700 40.45900 25.42200
N  -1.61900 34.67300 24.21300
C  -0.88000 35.54500 23.42600
C  -0.77500 34.96700 22.01500
C  -1.39400 33.57800 22.08600
C  -2.16200 33.72100 23.38700
C  -1.45900 35.84900 20.78700
C  -0.39500 32.38700 22.14900
C  0.50700 32.12200 23.36500
N  -3.50000 33.44700 25.98000
C  -3.87900 32.64800 24.88500
C  -4.74700 31.61300 25.33600
C  -4.92000 31.83200 26.69800
C  -4.10200 32.89300 27.03500
C  -5.50700 30.61800 24.45500
C  -5.63400 31.44900 27.92100
O  -6.41200 30.59100 28.08000
C  -5.02800 32.15300 29.02200
C  -6.06500 32.96800 29.80800
O  -6.44800 34.03600 29.50200
O  -6.42900 32.24700 30.94500
C  -7.43900 32.85900 31.85400
H  -1.25200 37.85200 29.39200
H  0.27500 37.27100 23.11900
H  -3.41000 32.12100 22.83000
H  -4.31000 34.65600 30.93400
H  -1.97800 36.00300 31.22900
H  -4.69700 36.83600 30.32800
H  -3.53500 38.07100 30.28800
H  -3.92500 37.15100 31.84800
H  -1.34600 33.80300 31.50000
H  -2.45600 32.56100 30.88400
H  -2.29000 32.48200 33.22800
H  -3.96300 32.62900 32.71900
H  -0.42200 40.35700 28.22600
H  1.26100 40.25300 27.85400
H  0.52700 39.21200 29.04200
H  2.75900 40.72700 24.70200
H  2.60100 40.05100 26.22500
H  1.30600 41.22900 25.78400
H  0.28600 34.85300 21.79000
H  -2.06900 33.36800 21.25600
H  -0.56600 36.08500 20.20800
H  -1.93500 36.72700 21.22300
H  -2.16700 35.26200 20.20100
H  0.23500 32.46300 21.26300
H  -0.93500 31.45700 21.97200
H  0.19900 32.84400 24.12100
H  1.55700 32.37100 23.21500
H  0.45300 31.07300 23.65800
H  -5.16700 29.59900 24.64100
H  -5.35900 30.75100 23.38300
H  -6.58900 30.67500 24.56900
H  -4.53100 31.43800 29.67700
H  -8.29100 33.14100 31.23600
H  -7.14900 33.74200 32.42300
H  -7.80900 32.05700 32.49300

