158

Mg 8.68400 3.39100 27.33100
C  10.24100 1.96200 30.11100
C  7.14200 5.65100 29.52700
C  6.67700 4.58400 24.74400
C  9.86900 0.88900 25.31900
N  8.54500 3.60700 29.61600
C  9.42400 3.02100 30.53400
C  9.17800 3.57200 31.92600
C  8.13500 4.78700 31.73400
C  7.92000 4.68700 30.15600
C  6.84500 4.70400 32.67300
C  10.53200 4.08100 32.56800
C  10.36000 4.98100 33.80200
H  11.19700 4.54700 34.99900
N  7.22000 4.97100 27.13400
C  6.80900 5.85600 28.16100
C  5.90400 6.83300 27.58800
C  5.78200 6.54400 26.18400
C  6.60500 5.35100 25.92600
C  5.24800 7.95600 28.39000
C  4.86000 7.21100 25.18200
O  4.47200 6.62200 24.17400
C  4.16200 8.47900 25.42600
N  8.30600 2.87100 25.32000
C  7.46400 3.49600 24.42000
C  7.61200 2.94700 22.97500
C  8.69700 1.81400 23.21800
C  8.94000 1.76900 24.74500
C  6.20000 2.49900 22.39300
C  10.06100 2.03600 22.43100
C  10.24000 1.18400 21.23200
N  9.78300 1.76200 27.51600
C  10.31400 0.88800 26.61500
C  11.37700 0.10000 27.16400
C  11.31000 0.45400 28.54000
C  10.31800 1.44800 28.72100
C  12.21000 -0.93200 26.55200
C  11.93200 0.13900 29.80500
O  12.77700 -0.75000 30.11800
C  11.29600 1.14600 30.85500
C  10.66900 0.55300 32.05000
O  9.57300 -0.01600 32.00500
O  11.38900 0.86600 33.16900
C  10.76000 0.60500 34.48200
H  6.80400 6.35200 30.29400
H  6.15000 4.88500 23.83600
H  10.39200 0.25900 24.59700
H  8.69500 2.71500 32.39500
H  8.60700 5.74700 31.94100
H  7.22300 4.18200 33.55300
H  6.13900 4.03400 32.18200
H  6.48300 5.68400 32.98200
H  11.10400 4.57100 31.78000
H  10.98000 3.12900 32.85200
H  9.36500 5.07000 34.23800
H  10.66800 5.99200 33.53700
H  4.17300 7.78600 28.34000
H  5.48800 8.95700 28.03100
H  5.64500 7.73200 29.38000
H  4.74100 9.26000 25.91900
H  3.39900 8.09100 26.10100
H  3.69300 8.98900 24.58500
H  8.05400 3.73800 22.36900
H  8.31100 0.81200 23.02900
H  6.21500 1.70200 21.65000
H  5.78400 3.40400 21.95300
H  5.61200 2.10700 23.22300
H  10.94500 1.86600 23.04600
H  10.17400 3.08800 22.16700
H  11.19300 0.67400 21.37600
H  10.42900 1.83100 20.37500
H  9.44700 0.44800 21.10000
H  13.14400 -1.20800 27.04100
H  12.51400 -0.62700 25.55000
H  11.47300 -1.73500 26.59100
H  12.11000 1.82900 31.09700
H  9.72600 0.29800 34.32600
H  10.80600 1.52500 35.06500
H  11.35700 -0.13600 35.01300
Mg 6.70100 56.63600 40.98300
C  5.50400 53.53900 40.96900
C  9.60400 55.59600 39.41100
C  7.54600 59.90700 40.25500
C  3.64700 57.78200 42.39900
N  7.50900 54.79000 40.42500
C  6.81700 53.57600 40.45200
C  7.61600 52.45600 39.86400
C  9.04600 53.06700 39.84900
C  8.73100 54.58200 39.86600
C  10.01700 52.72100 41.14200
C  7.04600 52.09500 38.41900
C  7.43400 50.66100 38.06400
H  7.61600 50.31500 36.52800
N  8.34200 57.61000 39.98600
C  9.48600 56.99700 39.46800
C  10.32900 57.94700 38.85400
C  9.80900 59.25100 39.17400
C  8.49300 58.95200 39.80300
C  11.62300 57.62300 38.19100
C  10.47900 60.63900 39.01500
O  11.53600 60.74400 38.40900
C  9.89500 61.88500 39.52200
N  5.57600 58.50200 41.09100
C  6.27300 59.73500 40.87200
C  5.45300 60.95300 41.27500
C  4.18500 60.25800 41.94900
C  4.46100 58.75400 41.79600
C  6.17700 62.07100 42.10800
C  2.84000 60.79600 41.46300
C  1.76800 60.94900 42.67200
N  4.93600 55.79800 41.71800
C  3.82500 56.37400 42.23400
C  2.89600 55.38300 42.63900
C  3.56600 54.20200 42.24000
C  4.70000 54.54400 41.53700
C  1.50300 55.63300 43.19000
C  3.48200 52.72400 42.11800
O  2.57800 51.94100 42.47000
C  4.68800 52.25100 41.26200
C  4.18700 51.64600 40.04900
O  3.40000 52.18500 39.34200
O  4.64800 50.40300 39.89300
C  4.09700 49.82500 38.68200
H  10.47900 55.11900 38.96400
H  7.77900 60.95500 40.05200
H  2.76800 58.22900 42.86700
H  7.48200 51.53500 40.43100
H  9.53800 52.80700 38.91100
H  9.59000 51.85900 41.65500
H  10.15000 53.58800 41.78800
H  11.00800 52.57600 40.71300
H  7.45600 52.73600 37.63800
H  5.95900 52.17300 38.41000
H  6.64800 49.99400 38.41900
H  8.32200 50.31100 38.59000
H  12.48900 58.16200 38.57500
H  11.55600 58.01400 37.17600
H  11.77200 56.55200 38.06200
H  9.54800 61.79800 40.55100
H  9.07100 62.14900 38.85800
H  10.65300 62.66800 39.48900
H  5.16500 61.40700 40.32700
H  4.36100 60.38600 43.01700
H  7.22800 61.89500 42.33500
H  5.62700 62.24500 43.03400
H  6.10800 63.05800 41.65100
H  2.47000 60.14900 40.66800
H  2.83200 61.80900 41.06000
H  1.42300 61.95500 42.91000
H  2.18200 60.51600 43.58300
H  0.92900 60.27300 42.50600
H  1.00500 56.42500 42.63000
H  1.52100 55.97600 44.22400
H  0.91000 54.71800 43.18200
H  5.35600 51.49600 41.67600
H  4.64300 48.89400 38.52800
H  4.17500 50.43000 37.77900
H  3.05000 49.60000 38.88500

