158

Mg 36.24100 0.96500 29.84700
C  34.24200 2.14300 32.58800
C  38.81400 0.71700 31.97500
C  37.96500 -0.06900 27.29100
C  33.43300 1.54500 27.77600
N  36.46100 1.31900 32.08200
C  35.45200 1.70200 33.05600
C  36.08200 1.67300 34.35700
C  37.59700 1.52900 34.14000
C  37.69000 1.13300 32.67000
C  38.39300 2.73600 34.59700
C  35.41300 0.52100 35.15900
C  35.08200 0.86700 36.60000
H  36.05000 1.76200 37.32700
N  38.20800 0.51500 29.67400
C  39.14800 0.40800 30.64900
C  40.38300 -0.15000 30.08800
C  40.11100 -0.29400 28.63500
C  38.67800 0.04800 28.47600
C  41.60900 -0.36000 30.96700
C  41.04500 -0.69200 27.43600
O  40.65900 -0.92800 26.27600
C  42.43100 -0.98100 27.75000
N  35.71400 0.78000 27.82700
C  36.65000 0.26700 27.01900
C  36.12100 0.39800 25.53200
C  34.65900 0.68400 25.73700
C  34.57600 1.05800 27.16800
C  37.02400 1.33900 24.62400
C  33.56700 -0.29400 25.13800
C  32.29300 0.24200 24.62400
N  34.27000 1.71500 30.03300
C  33.21300 1.81600 29.12600
C  32.05200 2.25400 29.80000
C  32.40900 2.26800 31.17900
C  33.77300 2.03500 31.25200
C  30.75800 2.59700 29.13100
C  31.87900 2.74900 32.43300
O  30.82300 3.26200 32.77400
C  33.07300 2.55400 33.40400
C  33.34700 3.75200 34.20500
O  33.55400 4.89800 33.78300
O  33.29800 3.35600 35.49800
C  33.54800 4.48100 36.44900
H  39.63600 0.63500 32.68900
H  38.54600 -0.47400 26.46000
H  32.68100 1.81900 27.03300
H  35.81900 2.59300 34.87800
H  37.86000 0.69300 34.78800
H  37.98300 3.39200 35.36500
H  38.50400 3.40900 33.74800
H  39.35900 2.37600 34.95300
H  35.99600 -0.40000 35.18200
H  34.52900 0.19500 34.61200
H  34.85700 -0.04800 37.14900
H  34.12200 1.38300 36.58000
H  42.17200 0.57100 31.04100
H  42.21000 -1.21600 30.66100
H  41.27000 -0.69500 31.94700
H  43.00300 -0.90000 26.82500
H  42.35100 -1.97700 28.18600
H  42.74500 -0.31000 28.55000
H  36.08300 -0.55000 24.99300
H  34.45700 1.69200 25.37400
H  37.83300 1.72500 25.24400
H  36.50500 2.23200 24.27500
H  37.45600 0.72800 23.83100
H  33.36700 -0.97400 25.96600
H  34.08000 -0.70400 24.26900
H  32.45300 0.06300 23.56100
H  32.14700 1.31700 24.72400
H  31.43200 -0.19300 25.13200
H  29.86200 2.47300 29.73800
H  30.55400 2.05200 28.20900
H  30.73700 3.65500 28.87100
H  32.73200 1.78600 34.09700
H  34.47200 5.00800 36.21100
H  33.39800 4.06800 37.44600
H  32.66800 5.11200 36.33100
Mg -9.71800 40.17200 42.54100
C  -8.48400 37.11500 41.37700
C  -7.02500 41.66100 41.03300
C  -11.24700 43.03300 42.91800
C  -12.76500 38.44100 43.10900
N  -7.89900 39.49400 41.30100
C  -7.65700 38.20400 41.05300
C  -6.25600 38.02700 40.34600
C  -5.62700 39.53700 40.37000
C  -6.91700 40.27000 40.87700
C  -4.53700 39.69000 41.44300
C  -6.39100 37.49600 38.91300
C  -5.66200 36.21100 38.57900
H  -4.77000 36.04800 37.36200
N  -9.10100 42.03100 42.29600
C  -7.95900 42.49500 41.67700
C  -7.99300 43.94800 41.57200
C  -9.19700 44.39800 42.23700
C  -9.95600 43.15700 42.49100
C  -7.01000 44.87200 40.87200
C  -9.56400 45.81200 42.49700
O  -8.77600 46.68700 42.10000
C  -10.90900 46.27200 43.13300
N  -11.69500 40.67400 42.91000
C  -12.08000 41.94100 43.04000
C  -13.59200 42.07700 43.12100
C  -14.09100 40.60900 43.31500
C  -12.78400 39.82100 43.10400
C  -14.05500 43.03800 44.30600
C  -15.16500 40.19000 42.19900
C  -16.40400 41.12100 42.13100
N  -10.50800 38.18200 42.42700
C  -11.73400 37.63700 42.73600
C  -11.64200 36.18100 42.63200
C  -10.44100 36.00000 42.11600
C  -9.74800 37.16200 41.97400
C  -12.61700 35.24400 43.15200
C  -9.47300 34.95700 41.72000
O  -9.57000 33.77800 41.78000
C  -8.21600 35.65800 41.19500
C  -7.11200 35.10200 41.91700
O  -6.77200 35.52200 43.01300
O  -6.33300 34.25700 41.17700
C  -5.04700 33.83300 41.70600
H  -6.10700 42.13100 40.67300
H  -11.78400 43.98100 42.84300
H  -13.68200 37.86600 43.25200
H  -5.78000 37.30000 41.00300
H  -5.39400 40.00100 39.41100
H  -3.61100 39.81600 40.88200
H  -4.59500 38.75700 42.00500
H  -4.55900 40.53500 42.13100
H  -6.04100 38.21900 38.17600
H  -7.44900 37.29800 38.74100
H  -6.40100 35.41500 38.48900
H  -4.95700 36.15000 39.40900
H  -7.52100 45.18800 39.96200
H  -6.20600 44.18500 40.60700
H  -6.48100 45.66400 41.40200
H  -11.05200 47.28600 43.50600
H  -11.23500 45.72100 44.01500
H  -11.67900 46.14500 42.37200
H  -13.86500 42.45600 42.13700
H  -14.50500 40.53400 44.32100
H  -13.25400 43.64800 44.72300
H  -14.50500 42.49600 45.13800
H  -14.81500 43.62900 43.79500
H  -15.42300 39.13800 42.32800
H  -14.51600 40.37900 41.34500
H  -16.48000 41.51200 41.11700
H  -16.40200 41.99600 42.78100
H  -17.24500 40.45100 42.30800
H  -13.64800 35.50200 42.91200
H  -12.54800 35.27400 44.24000
H  -12.49200 34.22700 42.78000
H  -7.98900 35.42400 40.15500
H  -4.51300 33.33900 40.89400
H  -5.25500 33.07000 42.45600
H  -4.44100 34.65800 42.08000

