158

Mg 47.89500 15.28900 27.79800
C  46.10600 15.19600 30.67800
C  50.11500 17.61600 29.28200
C  49.52300 15.56100 24.89000
C  45.15400 13.95200 26.18800
N  48.16700 16.21500 29.75100
C  47.33500 15.92600 30.78800
C  47.97400 16.34500 32.10500
C  49.24600 17.24400 31.70900
C  49.08800 17.07900 30.18100
C  49.21600 18.76500 32.15100
C  48.32400 15.18300 33.08000
C  48.25100 15.50600 34.58400
H  48.54800 16.90300 35.07100
N  49.71800 16.31300 27.18800
C  50.47100 17.21300 27.92600
C  51.59600 17.66200 27.09200
C  51.49200 17.01500 25.87600
C  50.24000 16.24400 25.94900
C  52.63100 18.75900 27.49100
C  52.44700 17.08700 24.70100
O  52.21500 16.44300 23.68200
C  53.88300 17.70500 24.81700
N  47.45500 14.76400 25.80500
C  48.27000 14.96900 24.76100
C  47.45500 14.83900 23.39100
C  46.12800 14.18000 23.81900
C  46.22600 14.27900 25.34900
C  47.28900 16.15500 22.54800
C  45.89200 12.67300 23.43400
C  46.41900 11.51300 24.39400
N  46.10300 14.60800 28.28500
C  45.06200 14.11000 27.55100
C  43.89000 13.90600 28.32200
C  44.25300 14.28500 29.63300
C  45.59700 14.67900 29.51700
C  42.55200 13.34700 27.80800
C  43.87300 14.41300 31.05900
O  42.80700 14.19500 31.57800
C  45.04300 14.94900 31.77300
C  44.69200 16.17300 32.47300
O  44.64900 17.27000 31.99000
O  44.37000 15.84100 33.77300
C  43.76100 16.86500 34.59900
H  50.87400 18.17400 29.83400
H  50.02300 15.52800 23.92000
H  44.26400 13.64300 25.63400
H  47.22300 16.98800 32.56400
H  50.15800 16.71500 31.98700
H  48.24900 19.06800 32.55200
H  49.35000 19.53500 31.39200
H  50.04000 18.88900 32.85400
H  49.32100 14.89300 32.74700
H  47.58300 14.44300 32.77800
H  48.98700 14.81000 34.98400
H  47.35900 15.24700 35.15500
H  53.49600 18.39600 28.04700
H  52.17800 19.46900 28.18200
H  53.14500 19.22700 26.65100
H  53.93300 18.79000 24.72500
H  54.45000 17.36100 23.95200
H  54.43600 17.25200 25.64000
H  48.04200 14.24400 22.69000
H  45.34600 14.81700 23.40600
H  47.46600 17.00600 23.20600
H  46.24100 16.26700 22.27300
H  48.02600 16.05000 21.75100
H  46.24000 12.28400 22.47800
H  44.80900 12.62100 23.32500
H  45.59400 11.17500 25.02000
H  47.28000 11.80400 24.99700
H  46.61400 10.65800 23.74600
H  42.77600 12.35500 27.41500
H  42.24900 13.89000 26.91200
H  41.79200 13.21600 28.57800
H  45.19100 14.13100 32.47900
H  43.40600 17.70100 33.99700
H  44.63300 17.13600 35.19500
H  43.02200 16.33300 35.19900
Mg 0.35600 44.08100 25.59000
C  2.39000 43.70100 28.38400
C  -2.37800 43.19200 27.54200
C  -1.64500 43.76600 22.71200
C  3.07900 44.32100 23.58200
N  0.03500 43.54400 27.70800
C  0.99300 43.57600 28.75000
C  0.43500 43.32400 30.18100
C  -1.05500 42.90500 29.78700
C  -1.18300 43.25100 28.26400
C  -1.41400 41.41200 30.16600
C  0.42600 44.63800 31.07900
C  0.85500 44.44000 32.48500
H  0.72200 43.06600 33.14800
N  -1.73500 43.78500 25.27200
C  -2.67400 43.51000 26.21800
C  -3.97700 43.49300 25.55700
C  -3.75400 43.62800 24.14300
C  -2.31100 43.73400 23.99500
C  -5.26500 43.36000 26.33400
C  -4.77900 43.55500 23.07700
O  -4.51900 43.58800 21.87300
C  -6.29100 43.41000 23.34600
N  0.69300 43.74100 23.40200
C  -0.26700 43.83500 22.43100
C  0.36700 43.94000 21.08700
C  1.81000 44.42700 21.40200
C  1.89700 44.14300 22.85900
C  0.14600 42.68300 20.27300
C  1.92300 45.95200 21.15800
C  3.07200 46.45600 20.40100
N  2.35200 43.97800 25.86500
C  3.36300 44.22300 24.93400
C  4.58600 44.36200 25.65200
C  4.28100 44.06000 27.03500
C  2.89200 43.81700 27.10300
C  5.96600 44.67900 25.04200
C  4.82400 44.06200 28.38500
O  5.98200 44.18600 28.79200
C  3.59800 43.79600 29.28100
C  3.77400 42.60300 30.11100
O  3.45400 41.44300 29.86100
O  4.37900 42.95800 31.26000
C  4.74000 41.99200 32.19900
H  -3.32000 42.98400 28.05300
H  -2.21000 43.67900 21.78200
H  3.91500 44.61000 22.94200
H  1.08300 42.51100 30.51100
H  -1.74700 43.60500 30.25500
H  -2.28300 41.47900 30.82000
H  -0.62800 41.02300 30.81300
H  -1.55700 40.78200 29.28800
H  -0.53200 45.15700 31.05700
H  1.14300 45.30300 30.59600
H  0.08900 45.02400 32.99500
H  1.83800 44.85900 32.69800
H  -6.04500 44.06900 26.05700
H  -5.17500 43.63600 27.38500
H  -5.65200 42.34100 26.30500
H  -6.90700 43.23600 22.46400
H  -6.68100 44.33200 23.77600
H  -6.37800 42.53400 23.98900
H  -0.12300 44.74000 20.53200
H  2.64200 43.92300 20.91000
H  -0.39400 41.94700 20.86800
H  1.13900 42.30200 20.03500
H  -0.46000 42.88100 19.38900
H  1.99300 46.51000 22.09200
H  1.07400 46.44400 20.68200
H  3.64500 47.12800 21.03900
H  2.79200 46.96000 19.47600
H  3.76100 45.69200 20.04100
H  6.39300 45.62600 25.37200
H  5.92100 44.76400 23.95700
H  6.59400 43.84800 25.36500
H  3.53700 44.69000 29.90100
H  4.73700 42.37500 33.21900
H  5.68600 41.49800 31.97700
H  3.90700 41.28900 32.23600

