158

Mg 0.38300 8.06100 27.24800
C  0.97700 10.14500 30.01800
C  0.67600 5.36400 29.37100
C  0.02400 6.12000 24.62300
C  0.77000 10.89600 25.28200
N  0.86600 7.81900 29.42800
C  0.91700 8.79300 30.38300
C  0.74300 8.25600 31.86000
C  0.83500 6.72800 31.59500
C  0.76600 6.56600 30.05700
C  1.95500 6.01700 32.30100
C  -0.60500 8.80300 32.51600
C  -1.00800 8.15600 33.85900
H  -0.01100 7.87600 35.04600
N  0.29300 5.97600 27.03800
C  0.47200 4.98000 27.97800
C  0.27000 3.68300 27.38100
C  -0.13500 3.97900 26.03100
C  0.03800 5.40100 25.86000
C  0.38700 2.48600 28.26800
C  -0.60400 3.00100 24.99900
O  -0.90400 3.28800 23.87700
C  -0.85800 1.51800 25.35800
N  0.43200 8.46400 25.24000
C  0.29500 7.45300 24.29500
C  0.43300 8.07200 22.87500
C  0.28700 9.57000 23.14200
C  0.53900 9.69700 24.66700
C  1.72400 7.63800 22.05800
C  -1.11800 10.05700 22.83800
C  -1.38000 11.09300 21.77600
N  0.99000 10.04000 27.52800
C  1.06900 11.09200 26.60800
C  1.29100 12.41500 27.34000
C  1.24200 12.04600 28.65000
C  1.05000 10.59700 28.73900
C  1.48100 13.76400 26.64800
C  1.36300 12.61200 29.95900
O  1.60300 13.74200 30.25500
C  1.05100 11.42000 30.95600
C  1.99700 11.30900 32.07300
O  3.06000 10.67400 31.98000
O  1.52500 11.99500 33.20200
C  2.44700 11.93700 34.33800
H  0.59700 4.45100 29.96500
H  -0.07900 5.50000 23.72900
H  0.89000 11.69600 24.54800
H  1.55700 8.58200 32.50700
H  -0.10800 6.25900 31.87800
H  2.65500 5.72800 31.51700
H  1.52100 5.08300 32.65700
H  2.52300 6.63900 32.99300
H  -1.32700 8.38700 31.81400
H  -0.66400 9.89100 32.54000
H  -1.58000 7.26500 33.60200
H  -1.60000 8.95600 34.30200
H  1.38400 2.05100 28.20500
H  -0.42100 1.81200 27.98400
H  0.05400 2.66900 29.29000
H  0.20900 1.32700 25.46600
H  -1.21600 0.86200 24.56400
H  -1.41300 1.43200 26.29200
H  -0.46600 7.67300 22.40500
H  0.99600 10.19000 22.59400
H  2.24000 6.74300 22.40400
H  2.40100 8.45800 21.81600
H  1.41100 7.36200 21.05100
H  -1.50600 10.57500 23.71500
H  -1.76300 9.19100 22.68500
H  -0.69500 10.72900 21.01100
H  -1.14300 12.07500 22.18400
H  -2.43300 11.06200 21.49500
H  0.60700 14.36900 26.89000
H  1.61700 13.59000 25.58100
H  2.39900 14.16500 27.07600
H  0.10800 11.69600 31.42800
H  2.65900 10.89400 34.57200
H  2.00200 12.47900 35.17400
H  3.45700 12.29800 34.14600
Mg 10.05000 47.62700 26.28300
C  8.22300 47.76000 29.21500
C  12.81800 48.96900 27.92200
C  11.66900 47.25000 23.50600
C  7.08200 46.38500 24.77100
N  10.46600 48.35500 28.28700
C  9.57600 48.21100 29.40300
C  10.34100 48.70900 30.64200
C  11.57700 49.49800 30.08400
C  11.67500 48.88000 28.67300
C  11.43300 51.05700 30.00800
C  10.63900 47.55600 31.68100
C  9.88500 47.64300 33.03900
H  9.95400 46.41400 33.90000
N  12.00100 48.11400 25.75200
C  13.01300 48.58400 26.52800
C  14.17000 48.67600 25.72100
C  13.83500 48.28400 24.42100
C  12.44600 47.81100 24.51200
C  15.55800 49.15200 26.24900
C  14.56000 48.35400 23.13200
O  13.96500 48.17600 22.08800
C  15.96500 48.77400 23.03100
N  9.49200 47.06000 24.44900
C  10.34600 46.85600 23.44500
C  9.74800 46.16100 22.15100
C  8.30000 45.95600 22.56700
C  8.26500 46.49700 24.03200
C  9.96900 47.01700 20.85300
C  7.86000 44.43700 22.47200
C  8.55500 43.63600 23.63700
N  7.94900 47.26800 26.81500
C  6.86400 46.80100 26.07900
C  5.72200 46.86400 26.89800
C  6.20200 47.24200 28.20300
C  7.56900 47.35700 28.07400
C  4.34400 46.50700 26.51400
C  5.83400 47.54800 29.57200
O  4.71400 47.56300 30.13100
C  7.25900 47.72900 30.29500
C  7.32800 46.45700 31.14600
O  7.89900 45.43200 30.86700
O  6.49400 46.71100 32.23500
C  6.35000 45.65800 33.25400
H  13.73700 49.24600 28.44200
H  12.17300 47.03300 22.56200
H  6.27100 45.86000 24.26200
H  9.62900 49.42400 31.05500
H  12.46900 49.26600 30.66600
H  10.56900 51.33300 30.61300
H  11.32400 51.38500 28.97400
H  12.24800 51.57600 30.51200
H  11.70500 47.63400 31.89400
H  10.34500 46.54800 31.38900
H  8.82700 47.86800 32.90500
H  10.39000 48.50600 33.47300
H  16.28000 48.40000 25.93200
H  15.48600 49.29300 27.32700
H  15.87600 49.99900 25.64100
H  16.02200 49.78500 23.43600
H  16.26100 48.73400 21.98300
H  16.46400 47.95500 23.54900
H  10.33200 45.25700 21.97800
H  7.57400 46.48200 21.94700
H  10.71100 46.53500 20.21700
H  10.28900 48.01000 21.16700
H  9.01700 47.12100 20.33200
H  8.11800 44.11100 21.46400
H  6.78100 44.31900 22.56800
H  7.82100 43.38700 24.40300
H  9.42800 43.95100 24.20900
H  8.85600 42.71600 23.13600
H  4.27300 45.45500 26.23700
H  4.13500 47.09600 25.62100
H  3.69700 46.75100 27.35700
H  7.15500 48.69600 30.78600
H  6.36400 46.17600 34.21300
H  7.13600 44.90300 33.22800
H  5.37300 45.22000 33.04700

