158

Mg 40.48100 9.64600 28.59100
C  42.19700 10.58200 31.53700
C  38.24300 7.89300 30.86200
C  38.68100 8.70700 25.96800
C  43.14400 10.69600 26.57200
N  40.26600 9.21300 31.00500
C  41.05900 9.79800 31.90700
C  40.57600 9.38300 33.32900
C  39.62600 8.19600 33.09600
C  39.36200 8.46600 31.59300
C  40.22900 6.80100 33.38500
C  39.99000 10.58500 34.11400
C  40.46100 10.70900 35.55600
H  40.88300 12.13600 35.89600
N  38.74200 8.57700 28.44700
C  38.02500 7.86800 29.40600
C  36.80800 7.28700 28.81200
C  36.80500 7.56300 27.39300
C  38.12100 8.34600 27.25700
C  35.79300 6.54200 29.65000
C  35.79300 7.26300 26.29600
O  35.94500 7.50100 25.08800
C  34.45300 6.75900 26.74600
N  40.96200 9.66400 26.53700
C  39.95200 9.36600 25.69200
C  40.43100 9.59500 24.19700
C  41.76100 10.33000 24.36600
C  42.03500 10.24100 25.88200
C  40.46900 8.31100 23.30300
C  41.93700 11.70700 23.72900
C  41.23800 12.89600 24.24400
N  42.35800 10.44500 28.93400
C  43.33700 10.83800 28.00600
C  44.31800 11.55200 28.81400
C  43.90300 11.52100 30.17700
C  42.71000 10.78200 30.22800
C  45.53500 12.14700 28.22200
C  44.22800 12.02400 31.55900
O  45.14900 12.72300 32.01900
C  43.16200 11.39200 32.46100
C  43.77100 10.39800 33.47000
O  44.27000 9.31000 33.22100
O  43.77600 10.94700 34.73000
C  44.18900 10.08000 35.84500
H  37.64100 7.21200 31.46800
H  38.03900 8.54900 25.09900
H  43.83000 11.11300 25.83200
H  41.45500 8.97800 33.83100
H  38.76100 8.25400 33.75700
H  41.28100 6.95500 33.62600
H  40.29700 6.28500 32.42700
H  39.72800 6.17700 34.12500
H  38.91400 10.42400 34.18400
H  40.21900 11.52300 33.60900
H  41.26400 10.04300 35.87200
H  39.57500 10.54000 36.16700
H  35.97200 6.36100 30.71000
H  35.63000 5.58300 29.15800
H  34.87500 7.11900 29.75500
H  33.95100 6.47600 25.82100
H  33.82000 7.57700 27.08900
H  34.54600 5.97200 27.49400
H  39.69500 10.28600 23.78600
H  42.56300 9.70900 23.96500
H  39.40400 8.22100 23.09000
H  40.65600 7.38900 23.85400
H  41.13100 8.38500 22.44100
H  41.75000 11.53800 22.66900
H  43.00000 11.89300 23.87800
H  40.59600 13.23700 23.43200
H  41.90300 13.71900 24.50700
H  40.56800 12.69700 25.08100
H  45.65000 13.05800 28.81000
H  45.40000 12.38300 27.16700
H  46.34300 11.41600 28.26400
H  42.72500 12.14700 33.11400
H  43.81600 10.51100 36.77400
H  45.27500 10.13400 35.92500
H  44.01300 9.00800 35.76100
Mg -1.17800 33.95800 26.32200
C  -2.91800 32.41800 28.82800
C  0.34700 36.03200 28.72500
C  0.42800 35.43600 23.89800
C  -2.84100 31.88700 23.97500
N  -1.19700 34.17400 28.53700
C  -1.99800 33.37600 29.28600
C  -1.77200 33.79200 30.76700
C  -0.91500 35.07100 30.75500
C  -0.55000 35.14100 29.25300
C  -1.64800 36.35100 31.28000
C  -1.15000 32.58300 31.61000
C  -1.97800 32.18200 32.83300
H  -1.16600 31.93700 34.10900
N  0.24700 35.49200 26.26000
C  0.71200 36.26300 27.33000
C  1.77600 37.17200 26.84400
C  1.98100 36.83400 25.44200
C  0.90800 35.87000 25.16500
C  2.56000 38.10000 27.75000
C  2.99600 37.15700 24.38000
O  3.00300 36.72800 23.24600
C  4.11100 38.01300 24.72600
N  -1.37400 33.79700 24.22000
C  -0.61500 34.53300 23.43800
C  -0.86600 34.20400 21.94400
C  -1.76000 32.98200 21.96500
C  -1.99900 32.84700 23.48300
C  -1.36600 35.42100 21.11300
C  -1.20500 31.81300 21.23800
C  -0.53600 30.70900 22.09800
N  -2.71300 32.62900 26.32100
C  -3.24900 31.79600 25.31300
C  -4.16300 30.80300 25.84100
C  -4.04800 31.04800 27.24900
C  -3.19100 32.14100 27.47500
C  -4.93500 29.77600 25.02900
C  -4.64800 30.59500 28.49600
O  -5.51700 29.77800 28.65800
C  -3.85000 31.45100 29.61300
C  -4.82400 32.26000 30.37100
O  -5.46900 33.18300 29.87800
O  -4.97800 31.74200 31.70300
C  -6.12100 32.37700 32.36500
H  0.92700 36.53900 29.49900
H  0.91700 35.76600 22.97900
H  -3.30500 31.27700 23.19700
H  -2.80600 33.99100 31.05000
H  -0.03400 34.92100 31.38000
H  -1.81000 37.07400 30.48000
H  -0.99700 36.78600 32.03800
H  -2.60800 36.14600 31.75400
H  -0.07700 32.60400 31.79800
H  -1.16200 31.72600 30.93600
H  -2.43100 31.23000 32.55600
H  -2.70900 32.95900 33.05700
H  2.13600 38.20100 28.74900
H  2.54600 39.10800 27.33500
H  3.60200 37.79600 27.85100
H  3.86900 38.62700 25.59300
H  4.37200 38.63500 23.86900
H  5.02200 37.45900 24.94800
H  0.11800 33.94800 21.54900
H  -2.70500 33.02600 21.42500
H  -1.30600 36.35400 21.67200
H  -2.42500 35.18600 21.00200
H  -0.82600 35.43700 20.16600
H  -0.54900 32.15000 20.43500
H  -1.98800 31.27500 20.70400
H  -1.19200 29.85000 22.23900
H  -0.27400 31.11100 23.07600
H  0.34400 30.39600 21.53500
H  -4.30900 29.31000 24.26900
H  -5.64700 30.41200 24.50200
H  -5.49900 29.02800 25.58500
H  -3.39200 30.86000 30.40600
H  -5.65800 33.25400 32.81700
H  -6.61800 31.81500 33.15600
H  -6.84500 32.80200 31.66900

