158

Mg 50.62500 45.46500 41.43400
C  47.61600 46.46700 40.18200
C  49.80700 42.24500 40.78000
C  53.94600 44.77900 41.88700
C  51.44900 48.98700 41.58900
N  48.88400 44.51100 40.55700
C  47.74300 45.08500 40.08500
C  46.68500 44.01100 39.58700
C  47.36100 42.72600 40.18800
C  48.79800 43.16400 40.50800
C  46.72900 41.95100 41.38600
C  46.49000 44.09800 38.10800
C  45.05100 44.11200 37.62700
H  44.77400 42.90500 36.66900
N  51.73500 43.75100 41.33500
C  51.17200 42.48600 41.14900
C  52.19800 41.51500 41.07000
C  53.39600 42.19200 41.35900
C  53.06300 43.67800 41.62900
C  51.91000 40.03100 40.78400
C  54.72000 41.61900 41.29400
O  54.95400 40.46600 41.04100
C  56.07500 42.42000 41.52300
N  52.44900 46.66200 41.53200
C  53.66100 46.11900 41.79900
C  54.70100 47.19600 42.06000
C  53.90800 48.51000 42.08900
C  52.46400 48.03900 41.72600
C  55.66500 47.05800 43.30400
C  54.48500 49.58400 41.13700
C  54.64700 50.96400 41.76900
N  49.69700 47.39700 41.10700
C  50.09700 48.64700 41.26500
C  49.03500 49.57700 40.93700
C  48.04400 48.77400 40.40100
C  48.50000 47.41000 40.58100
C  48.96600 51.05000 41.07200
C  46.68800 48.81200 39.85300
O  45.93800 49.76500 39.66100
C  46.41200 47.30900 39.68400
C  45.18800 47.13400 40.53200
O  45.18900 46.66100 41.68800
O  43.98100 47.41000 39.88800
C  42.75300 47.18000 40.61100
H  49.48600 41.24200 40.49100
H  55.00400 44.54700 42.03000
H  51.55300 50.06300 41.74000
H  45.73900 44.16100 40.10800
H  47.44700 41.92800 39.45000
H  47.41100 41.99800 42.23600
H  46.77100 40.88100 41.18400
H  45.72200 42.23900 41.68700
H  46.84400 43.17200 37.65500
H  46.98800 44.97100 37.68700
H  44.85600 45.07500 37.15500
H  44.40200 44.03600 38.49900
H  51.31000 39.71800 41.63900
H  52.82900 39.44500 40.78100
H  51.34500 39.91600 39.85900
H  56.27400 42.77700 42.53300
H  56.12700 43.24400 40.81100
H  56.83900 41.67000 41.32300
H  55.26800 47.18600 41.13000
H  53.79300 48.90400 43.09900
H  56.21700 47.99000 43.42500
H  56.36500 46.28200 42.99600
H  55.07000 46.68800 44.13900
H  53.90000 49.70900 40.22600
H  55.50600 49.40100 40.80200
H  55.58200 51.48900 41.57200
H  54.50100 51.02500 42.84700
H  53.94900 51.71300 41.39400
H  48.00100 51.29500 40.62800
H  49.80400 51.57600 40.61400
H  48.90400 51.34400 42.11900
H  46.08100 47.13400 38.66000
H  42.31900 48.17900 40.56900
H  42.78500 46.84200 41.64700
H  42.07600 46.52400 40.06300
Mg 35.50900 48.36200 25.36200
C  35.84000 46.32600 28.18200
C  34.44700 51.05000 27.47700
C  34.53900 49.97900 22.78500
C  36.02000 45.44400 23.51100
N  35.25700 48.64300 27.59100
C  35.37300 47.66700 28.48700
C  35.02100 48.14000 29.93200
C  34.52400 49.60000 29.68200
C  34.80200 49.78100 28.16300
C  33.01800 49.81600 29.92700
C  36.16400 48.12400 30.98200
C  35.78400 47.78300 32.39300
H  35.52100 48.84700 33.44700
N  34.61500 50.31100 25.17800
C  34.28900 51.29100 26.07000
C  33.92500 52.51600 25.41600
C  33.94100 52.26400 24.03900
C  34.39900 50.85200 23.89100
C  33.47400 53.76500 26.15200
C  33.69800 53.21500 22.77700
O  33.94500 52.85500 21.61600
C  33.21200 54.60200 22.97700
N  35.26600 47.73700 23.43500
C  34.98100 48.63100 22.54500
C  34.80600 47.95000 21.10600
C  35.49200 46.62700 21.33400
C  35.63500 46.59000 22.85900
C  33.28900 47.91200 20.76700
C  36.86100 46.48500 20.51800
C  38.16700 47.21300 21.01600
N  36.09000 46.33100 25.70600
C  36.28100 45.25300 24.86100
C  36.63000 44.11100 25.55700
C  36.42300 44.44900 26.85600
C  36.13300 45.85000 26.88700
C  36.82800 42.73500 24.89000
C  36.48800 43.95500 28.26600
O  36.77600 42.86700 28.73700
C  36.13300 45.16100 29.13000
C  34.96700 44.80000 29.95200
O  33.84000 44.70800 29.57400
O  35.36900 44.57900 31.26400
C  34.27400 44.27900 32.13400
H  34.20900 51.85600 28.17400
H  34.34600 50.49500 21.84200
H  36.10200 44.59800 22.82700
H  34.29300 47.38200 30.22100
H  35.11400 50.34400 30.21700
H  32.77100 50.70600 30.50500
H  32.65700 48.89200 30.37900
H  32.55800 49.95300 28.94900
H  36.55500 49.14200 30.97800
H  36.99500 47.48500 30.68400
H  36.56800 47.15200 32.81100
H  34.82400 47.26700 32.41500
H  34.08900 54.61900 25.86900
H  33.59900 53.55400 27.21400
H  32.41300 54.00600 26.21500
H  33.04900 54.96400 21.96200
H  33.98500 55.15200 23.51400
H  32.27600 54.47300 23.52100
H  35.33700 48.57800 20.39000
H  34.92000 45.75700 21.01100
H  32.96900 46.96100 20.34100
H  33.02500 48.67600 20.03600
H  32.71800 48.07000 21.68100
H  36.56400 46.77100 19.50900
H  37.12000 45.42600 20.54000
H  38.86000 46.40900 21.26500
H  37.89900 47.89100 21.82600
H  38.57200 47.82300 20.20800
H  35.97800 42.08100 25.08300
H  37.65400 42.19900 25.35700
H  36.92100 42.89700 23.81600
H  37.00200 45.29500 29.77500
H  33.78900 43.31600 31.97600
H  33.58700 45.12500 32.09400
H  34.83100 44.37400 33.06600

