158

Mg 25.92600 -0.74300 29.72700
C  27.55600 -1.24600 32.68300
C  23.00500 -0.37400 31.47100
C  24.40100 -0.45300 26.85500
C  28.94500 -1.58200 27.97800
N  25.30900 -0.81000 31.83300
C  26.19800 -0.78900 32.91900
C  25.59700 -0.38600 34.24600
C  24.05700 -0.52000 33.83100
C  24.12700 -0.59900 32.28100
C  23.38000 -1.86600 34.30800
C  26.20000 1.02600 34.65000
C  27.08900 1.03500 35.89500
H  26.59200 1.90500 37.04600
N  23.93800 -0.51000 29.28000
C  22.85800 -0.34800 30.07100
C  21.63300 -0.12800 29.29300
C  21.99200 -0.27400 27.95000
C  23.48200 -0.39600 27.98300
C  20.22500 0.33500 29.86500
C  21.16600 -0.23300 26.67200
O  21.56100 -0.62900 25.56900
C  19.74000 0.31200 26.78600
N  26.56800 -1.19600 27.60400
C  25.76600 -0.68600 26.68300
C  26.41700 -0.52100 25.34900
C  27.94700 -0.81900 25.70700
C  27.84700 -1.19800 27.20200
C  25.85200 -1.38000 24.12700
C  28.99900 0.25900 25.32200
C  30.09100 -0.12200 24.33000
N  27.84600 -1.38900 30.16800
C  28.90800 -1.71400 29.39500
C  30.05700 -1.92800 30.21100
C  29.59300 -1.80500 31.52500
C  28.23500 -1.48500 31.44100
C  31.36900 -2.33500 29.79500
C  29.94700 -1.77800 32.97700
O  31.07100 -1.93900 33.53900
C  28.60600 -1.40800 33.72100
C  28.45300 -2.48500 34.71400
O  27.90000 -3.55500 34.48000
O  29.24200 -2.25000 35.86200
C  29.01000 -3.25100 36.84600
H  22.03600 -0.32900 31.97200
H  23.75100 -0.14900 26.03100
H  29.94500 -1.68300 27.55100
H  25.96400 -1.10800 34.97500
H  23.42600 0.28400 34.21000
H  23.01600 -1.74900 35.32900
H  24.16600 -2.61900 34.25800
H  22.46400 -2.13500 33.78200
H  25.39900 1.76000 34.73700
H  26.85500 1.41900 33.87300
H  28.04300 1.36400 35.48400
H  27.27900 0.03600 36.28900
H  20.25900 0.71000 30.88800
H  19.42700 -0.38100 29.66800
H  19.97200 1.19700 29.24800
H  19.87200 1.37600 26.98200
H  19.29300 -0.15800 27.66200
H  19.12900 0.17300 25.89400
H  26.27200 0.55400 25.24400
H  28.20100 -1.72000 25.14900
H  24.94800 -1.90100 24.44100
H  26.57400 -2.15100 23.85800
H  25.68100 -0.73900 23.26200
H  29.48300 0.60600 26.23500
H  28.42200 1.01000 24.78200
H  31.02200 0.27000 24.74000
H  30.00500 0.41900 23.38800
H  30.14100 -1.19600 24.15600
H  32.05400 -2.40900 30.64000
H  31.71000 -1.55000 29.11900
H  31.34600 -3.29800 29.28600
H  28.71200 -0.39800 34.11600
H  29.56600 -4.15300 36.58500
H  27.96400 -3.47600 37.05100
H  29.52300 -3.05900 37.78800
Mg 46.09400 44.87000 42.56900
C  42.63200 44.03300 42.36000
C  46.92600 41.67100 41.78100
C  49.30200 45.74400 42.35000
C  45.10900 48.15800 42.65600
N  44.86300 43.09400 42.04000
C  43.49100 42.93700 42.02200
C  43.08600 41.47100 41.97000
C  44.49700 40.78100 41.76700
C  45.51900 41.93100 41.84300
C  44.75800 39.63500 42.80700
C  42.00000 41.12000 40.85900
C  42.04400 41.93000 39.52700
H  41.81800 41.19600 38.11200
N  47.86600 43.89500 42.23000
C  48.00800 42.52600 41.97300
C  49.40400 42.11800 41.90400
C  50.18300 43.34400 42.02800
C  49.13700 44.43300 42.17200
C  49.95500 40.69000 41.83000
C  51.71400 43.40300 41.96700
O  52.40500 42.39700 41.87700
C  52.39200 44.73700 42.07300
N  47.05000 46.73400 42.22700
C  48.40500 46.82600 42.41600
C  48.85000 48.30400 42.55900
C  47.39400 49.00600 42.56500
C  46.47900 47.87200 42.57800
C  49.83600 48.72900 43.73300
C  47.11900 49.97600 41.40000
C  46.97200 51.47300 41.82500
N  44.25700 45.95600 42.67800
C  44.00000 47.29100 42.70500
C  42.63700 47.60100 42.77400
C  42.00300 46.37700 42.64700
C  43.06800 45.39200 42.55500
C  41.96800 48.97600 43.17100
C  40.75500 45.65500 42.56700
O  39.59400 46.02000 42.51900
C  41.12800 44.10200 42.42100
C  40.68600 43.40800 43.64900
O  40.40300 42.24300 43.68200
O  40.71200 44.11900 44.84200
C  40.90000 43.38200 46.15700
H  47.19100 40.63300 41.57100
H  50.31900 46.13200 42.43900
H  44.81800 49.19000 42.85800
H  42.76400 41.33800 43.00300
H  44.61800 40.34400 40.77600
H  45.51300 39.92300 43.53900
H  45.06300 38.77800 42.20600
H  43.87300 39.36700 43.38400
H  41.00600 41.13600 41.30700
H  42.31200 40.08600 40.71100
H  43.01400 42.42300 39.46500
H  41.31500 42.73400 39.42500
H  50.70900 40.67600 41.04300
H  49.19200 39.94600 41.60200
H  50.47400 40.50200 42.77000
H  51.98300 45.34300 41.26400
H  53.47300 44.68500 41.94100
H  52.13000 45.13100 43.05500
H  49.34600 48.74200 41.69300
H  47.28900 49.48100 43.54000
H  49.29000 49.37900 44.41600
H  50.72600 49.17800 43.29200
H  50.20900 47.77600 44.10800
H  46.23000 49.62700 40.87500
H  47.95100 50.01000 40.69700
H  47.63500 52.06100 41.19100
H  47.38700 51.56800 42.82800
H  45.96900 51.88300 41.70200
H  41.30300 48.82400 44.02200
H  41.33700 49.31700 42.35100
H  42.68200 49.77200 43.38500
H  40.64900 43.67400 41.54000
H  40.67200 44.04100 46.99500
H  41.98200 43.25300 46.13300
H  40.27800 42.48700 46.17900

