158

Mg 25.14800 -4.87500 45.75500
C  26.69600 -2.14700 44.19000
C  22.36200 -4.08500 43.63500
C  24.09500 -7.95700 46.14100
C  28.30300 -5.71900 47.18400
N  24.65200 -3.27000 44.13500
C  25.44600 -2.30800 43.59800
C  24.76700 -1.43200 42.52100
C  23.32500 -1.97500 42.52300
C  23.43200 -3.16000 43.53600
C  22.18700 -0.90600 42.65900
C  25.46400 -1.40200 41.20400
C  24.74200 -0.69500 39.98000
H  25.34500 -0.98700 38.60100
N  23.44000 -5.90700 45.00700
C  22.42300 -5.37000 44.23100
C  21.35600 -6.39400 44.22300
C  21.76000 -7.54300 44.99100
C  23.16000 -7.16900 45.41500
C  19.99400 -6.08300 43.60800
C  20.88000 -8.73700 45.18900
O  19.77400 -8.80500 44.75500
C  21.45100 -9.98000 45.99200
N  25.98300 -6.54700 46.60400
C  25.29500 -7.70000 46.74000
C  26.19400 -8.77200 47.38000
C  27.55700 -8.08900 47.63000
C  27.31600 -6.70500 47.03300
C  25.55900 -9.43100 48.63900
C  28.76500 -8.84700 46.87200
C  30.09700 -9.00000 47.64200
N  27.16400 -4.12700 45.83300
C  28.26900 -4.50600 46.50500
C  29.18600 -3.42500 46.47500
C  28.67800 -2.52600 45.50900
C  27.39100 -2.98400 45.16000
C  30.49000 -3.38200 47.24400
C  28.96200 -1.28700 44.82800
O  29.88800 -0.51500 44.90100
C  27.74100 -1.08900 43.89700
C  27.21800 0.20900 44.17300
O  26.65000 0.54700 45.18300
O  27.19500 1.03800 43.10300
C  26.65200 2.40000 43.19400
H  21.47900 -3.86500 43.03200
H  23.72400 -8.95900 46.37000
H  29.24700 -5.94900 47.68200
H  24.92200 -0.41700 42.88700
H  23.15400 -2.39000 41.53000
H  21.55600 -0.77500 41.78100
H  22.62800 0.04300 42.96700
H  21.56400 -1.26500 43.47800
H  25.56500 -2.46700 40.99600
H  26.47600 -1.00500 41.28400
H  24.88300 0.37200 40.14900
H  23.67400 -0.91300 39.94600
H  20.01000 -6.31600 42.54300
H  19.85700 -5.01300 43.76300
H  19.14000 -6.65300 43.97300
H  20.67000 -10.73600 46.07600
H  21.70400 -9.63000 46.99300
H  22.25600 -10.49500 45.46700
H  26.24500 -9.61800 46.69500
H  27.68600 -8.00000 48.70900
H  26.14800 -9.23700 49.53600
H  25.53000 -10.51200 48.50300
H  24.53100 -9.10900 48.80600
H  28.96200 -8.25100 45.98100
H  28.45800 -9.85200 46.58300
H  30.19600 -10.01400 48.03000
H  30.13400 -8.32700 48.49800
H  31.05600 -8.78100 47.17200
H  31.32700 -3.07100 46.61800
H  30.74000 -4.40300 47.53000
H  30.44700 -2.65100 48.05200
H  28.06300 -1.04100 42.85600
H  25.96500 2.58900 42.36800
H  27.45300 3.13700 43.24200
H  26.02600 2.49500 44.08100
Mg -5.88500 24.31200 25.76400
C  -4.78500 25.95700 28.60300
C  -7.48900 22.06800 27.70100
C  -6.41400 22.45300 22.96200
C  -3.62400 26.37400 23.80600
N  -6.19800 24.15200 27.87000
C  -5.67300 24.96000 28.84000
C  -6.01300 24.43200 30.27400
C  -6.85000 23.09600 29.95200
C  -6.83300 23.07200 28.39700
C  -6.10700 21.83100 30.59400
C  -6.85600 25.41800 31.14000
C  -6.84700 25.26000 32.71300
H  -6.19400 23.94900 33.33700
N  -6.97500 22.55100 25.34900
C  -7.57100 21.80500 26.31800
C  -8.33300 20.68300 25.73300
C  -7.98400 20.74800 24.37100
C  -7.04600 21.92400 24.11800
C  -9.31800 19.87600 26.48700
C  -8.41400 19.89100 23.24000
O  -8.10700 20.05600 22.02700
C  -9.40900 18.72200 23.55300
N  -4.86600 24.15100 23.74900
C  -5.40500 23.35000 22.81300
C  -4.69500 23.62200 21.48600
C  -3.88300 24.93300 21.71500
C  -4.14900 25.25300 23.17300
C  -3.85500 22.46400 20.99400
C  -4.17100 26.09400 20.77600
C  -3.13500 26.50400 19.75800
N  -4.56600 25.83500 26.11800
C  -3.77700 26.64200 25.20700
C  -3.16600 27.72000 25.92900
C  -3.49600 27.50300 27.31700
C  -4.34700 26.38000 27.34300
C  -2.29700 28.67300 25.25200
C  -3.23600 27.88900 28.67200
O  -2.54500 28.75900 29.20000
C  -4.06900 26.91600 29.58300
C  -3.18200 26.19100 30.53100
O  -2.24100 25.43600 30.26200
O  -3.45700 26.53000 31.84400
C  -2.58300 25.98600 32.94500
H  -7.94500 21.31300 28.34500
H  -6.57000 21.89700 22.03600
H  -3.05000 27.10400 23.23100
H  -5.10800 24.22400 30.84500
H  -7.89800 23.15500 30.24700
H  -5.19700 22.16400 31.09200
H  -5.84400 21.11800 29.81300
H  -6.70400 21.19500 31.24800
H  -7.89300 25.39900 30.80500
H  -6.54000 26.41700 30.84000
H  -7.84400 25.31100 33.15000
H  -6.14000 25.99900 33.09000
H  -8.98500 18.84400 26.37600
H  -10.34900 19.89800 26.13400
H  -9.22700 20.16900 27.53300
H  -9.54100 18.05800 22.69900
H  -10.41600 19.04300 23.81800
H  -9.03800 18.05800 24.33400
H  -5.44400 23.74200 20.70400
H  -2.82700 24.66500 21.76100
H  -2.79900 22.72300 20.92400
H  -4.18200 22.19200 19.99000
H  -3.95700 21.70100 21.76700
H  -4.67600 26.91000 21.29300
H  -4.86600 25.56800 20.12200
H  -2.13500 26.07500 19.81700
H  -2.89200 27.56500 19.81100
H  -3.52100 26.25600 18.76900
H  -2.86900 29.45800 24.75600
H  -1.49700 28.29000 24.61900
H  -1.76400 29.23700 26.01700
H  -4.70500 27.56300 30.18800
H  -1.69900 25.46200 32.58100
H  -3.07800 25.46600 33.76500
H  -2.13800 26.90200 33.33500

