158

Mg 7.61000 2.40600 28.34300
C  9.32100 0.95400 31.09600
C  5.69000 4.10800 30.49400
C  5.92400 3.37900 25.74800
C  9.35700 0.01600 26.31000
N  7.52900 2.46700 30.60600
C  8.35400 1.89800 31.51100
C  8.07300 2.36300 32.94900
C  6.78400 3.28000 32.72600
C  6.64400 3.32500 31.20500
C  5.54600 3.00100 33.51300
C  9.38600 2.97000 33.47600
C  9.84300 2.47100 34.85300
H  10.36500 3.54400 35.81800
N  6.12900 3.71100 28.14300
C  5.40100 4.27800 29.11200
C  4.33200 5.12600 28.54600
C  4.48400 5.07300 27.19700
C  5.54100 3.95600 26.94100
C  3.48300 6.03200 29.34800
C  3.85300 5.89300 26.10100
O  4.18600 5.67100 24.94300
C  2.79900 6.92600 26.43900
N  7.54300 1.69000 26.31000
C  6.83800 2.42000 25.39600
C  7.07800 1.86900 23.98200
C  8.28000 0.88900 24.20200
C  8.43000 0.80600 25.68600
C  5.77500 1.16500 23.20000
C  9.66500 1.30100 23.54800
C  10.70600 2.08700 24.34700
N  8.90000 0.70300 28.65800
C  9.54600 -0.11100 27.72800
C  10.47300 -1.01600 28.35100
C  10.40600 -0.64200 29.71500
C  9.47000 0.42600 29.83300
C  11.39900 -1.96000 27.65500
C  10.94500 -0.88900 31.01500
O  11.80700 -1.68600 31.41600
C  10.23000 0.03600 32.02200
C  9.54700 -0.78100 33.10800
O  8.42100 -1.22100 33.06800
O  10.31200 -0.85000 34.21600
C  9.60200 -1.08800 35.49400
H  5.10400 4.59800 31.27500
H  5.27000 3.67500 24.92500
H  9.92600 -0.60900 25.61900
H  7.69500 1.45700 33.42300
H  7.04800 4.25500 33.13800
H  5.47900 3.70200 34.34500
H  5.49100 2.02500 33.99600
H  4.68600 3.16000 32.86300
H  9.24200 4.05000 33.51400
H  10.13500 2.87400 32.69100
H  10.64200 1.75800 34.65000
H  9.03600 1.98000 35.39800
H  2.44300 6.01300 29.02200
H  3.77000 7.08000 29.26500
H  3.45800 5.71900 30.39200
H  3.23600 7.54800 27.22000
H  1.85200 6.48100 26.74300
H  2.68000 7.62400 25.61000
H  7.32900 2.65200 23.26700
H  7.95000 -0.07600 23.81800
H  4.84400 1.37000 23.72900
H  5.86900 0.09100 23.35500
H  5.70600 1.41000 22.14000
H  9.38100 1.93400 22.70700
H  10.07700 0.39500 23.10400
H  11.64200 1.53100 24.39200
H  10.22800 2.35100 25.29100
H  11.04200 2.88400 23.68500
H  11.59800 -1.50000 26.68700
H  10.89700 -2.91100 27.47800
H  12.29900 -2.14800 28.24100
H  10.92400 0.65400 32.59100
H  10.18300 -0.96900 36.40800
H  9.23900 -2.11300 35.57800
H  8.70300 -0.47800 35.57700
Mg 54.52400 23.73600 44.06600
C  52.01400 26.01700 43.35500
C  52.36800 21.19500 43.37100
C  57.22000 21.71700 43.76400
C  56.69200 26.46900 44.72100
N  52.39500 23.61600 43.21600
C  51.53900 24.69000 42.99800
C  50.07500 24.22400 42.73600
C  50.24800 22.66200 43.09900
C  51.77100 22.42100 43.25800
C  49.54400 22.02000 44.28900
C  49.35600 24.56700 41.41200
C  50.29400 24.63100 40.13700
H  49.71200 25.40200 38.94200
N  54.78900 21.72400 43.69400
C  53.75600 20.83800 43.49000
C  54.30300 19.54400 43.27000
C  55.69200 19.63600 43.62800
C  55.96800 21.07800 43.67500
C  53.43200 18.33500 43.02400
C  56.61000 18.51600 43.96300
O  56.28800 17.32700 43.82500
C  58.02200 18.78400 44.57400
N  56.62300 24.12100 44.11800
C  57.51200 23.10600 44.00200
C  59.00900 23.50400 44.27600
C  58.83800 25.02700 44.32000
C  57.28500 25.21600 44.46100
C  59.64300 22.88400 45.54000
C  59.58400 25.83600 43.21200
C  58.79700 25.81800 41.86400
N  54.46900 25.79400 44.16700
C  55.34100 26.77000 44.55100
C  54.69700 28.05700 44.55800
C  53.32100 27.84900 44.23200
C  53.28800 26.43400 43.85600
C  55.30800 29.37200 44.86200
C  51.91000 28.39000 44.05400
O  51.45900 29.53500 44.22700
C  51.12800 27.23800 43.40900
C  50.72200 27.68000 42.02900
O  51.44600 27.56600 41.04000
O  49.43100 28.17600 42.02600
C  49.02200 28.69000 40.72600
H  51.74400 20.31900 43.18400
H  58.03800 21.02800 43.54400
H  57.35600 27.29400 44.98700
H  49.48500 24.62200 43.56200
H  49.95000 22.05000 42.24800
H  49.06700 21.10300 43.94300
H  48.86500 22.68600 44.82200
H  50.27400 21.63900 45.00300
H  48.88400 25.53100 41.60000
H  48.50000 23.91700 41.22800
H  50.32500 23.63600 39.69300
H  51.30700 24.83000 40.48600
H  54.03100 17.45400 42.79200
H  52.81200 18.43600 42.13200
H  52.84400 18.13200 43.91900
H  58.75500 18.82400 43.76800
H  58.19900 17.85700 45.11900
H  58.18800 19.56600 45.31500
H  59.51200 23.09000 43.40200
H  59.20100 25.40900 45.27400
H  58.92200 22.21500 46.00900
H  59.85700 23.74500 46.17300
H  60.52300 22.28500 45.31000
H  60.57600 25.40500 43.07900
H  59.72500 26.72600 43.82600
H  58.15800 24.93500 41.87900
H  59.49700 25.75200 41.03000
H  58.06900 26.62700 41.82400
H  55.78900 29.84400 44.00500
H  56.13700 29.25400 45.55900
H  54.55600 30.03900 45.28500
H  50.25100 27.09100 44.03900
H  48.18100 29.36800 40.86900
H  48.65900 27.97200 39.99100
H  49.77600 29.28700 40.21200

