158

Mg 35.16800 2.81700 30.41200
C  32.73400 3.81200 32.74700
C  37.51700 3.29100 32.91400
C  37.63800 2.48400 28.12600
C  32.87900 3.10000 27.88800
N  35.13200 3.49900 32.53900
C  33.99200 3.62600 33.30600
C  34.34900 3.78100 34.77000
C  35.94800 3.98200 34.85700
C  36.22600 3.51000 33.35500
C  36.56900 5.39900 35.20500
C  33.79600 2.69000 35.66100
C  33.88600 2.79700 37.19600
H  34.19300 4.10700 37.92600
N  37.27300 2.78400 30.54800
C  38.02200 2.95000 31.68300
C  39.43600 2.77900 31.30700
C  39.49800 2.39500 29.95700
C  38.07100 2.56100 29.46000
C  40.52400 2.89900 32.38500
C  40.65000 1.91800 29.08400
O  40.46700 1.42300 28.00800
C  42.05400 2.09400 29.60500
N  35.27000 2.74200 28.26900
C  36.35500 2.62700 27.56800
C  36.08200 2.38800 26.05700
C  34.54400 2.50400 26.04400
C  34.22100 2.87500 27.46700
C  36.76600 3.39000 25.08200
C  33.93600 1.14900 25.59500
C  32.58500 1.30600 24.88600
N  33.16300 3.30100 30.34200
C  32.41000 3.40600 29.17000
C  31.07500 3.81700 29.56900
C  31.09300 4.02100 30.96100
C  32.44000 3.77100 31.36900
C  29.84700 3.91300 28.71200
C  30.33400 4.37500 32.23100
O  29.26400 4.90200 32.37700
C  31.34100 4.13000 33.43000
C  31.40700 5.38200 34.13500
O  32.13000 6.34900 33.84000
O  30.60500 5.37300 35.24600
C  30.61200 6.46600 36.13600
H  38.28000 3.44500 33.68000
H  38.37900 2.35900 27.33400
H  32.06700 3.16700 27.16100
H  33.91900 4.72800 35.09500
H  36.38400 3.30500 35.59100
H  35.89700 5.85400 35.93200
H  36.53000 6.07700 34.35200
H  37.58700 5.27600 35.57500
H  34.32300 1.74900 35.50300
H  32.77000 2.54700 35.32100
H  34.51400 2.02500 37.64000
H  32.85700 2.55400 37.46100
H  40.31900 2.50500 33.38100
H  40.55400 3.97300 32.56900
H  41.58100 2.78600 32.14200
H  42.65300 1.96700 28.70400
H  42.32000 1.30000 30.30200
H  42.18700 3.06600 30.08000
H  36.46400 1.42300 25.72300
H  34.12500 3.29800 25.42500
H  36.80100 4.42700 25.41800
H  36.46900 3.40100 24.03300
H  37.80700 3.06700 25.09800
H  33.80200 0.49000 26.45300
H  34.55200 0.65900 24.84100
H  32.36800 2.31700 24.54200
H  31.74900 0.99100 25.51100
H  32.55700 0.56200 24.08900
H  29.05300 3.52800 29.35200
H  29.98700 3.23600 27.86900
H  29.64600 4.89400 28.28300
H  30.94600 3.32700 34.05200
H  30.24000 7.35900 35.63300
H  31.59500 6.64700 36.57200
H  29.99500 6.10000 36.95600
Mg 47.43200 25.92200 28.51000
C  48.18500 28.12000 31.16700
C  46.61900 23.61000 30.89400
C  46.57900 23.84500 26.03800
C  48.87400 28.16700 26.20400
N  47.38700 25.88000 30.80700
C  47.66500 26.96100 31.69600
C  47.38400 26.64600 33.19600
C  46.90800 25.17100 33.03300
C  46.96900 24.80600 31.50700
C  47.69400 24.10300 33.90200
C  46.44900 27.65300 34.01200
C  46.98900 28.36700 35.22500
H  45.89100 28.67700 36.15300
N  46.76100 23.93600 28.44700
C  46.44200 23.14900 29.53900
C  45.90700 21.93600 29.04800
C  45.80300 22.01900 27.62600
C  46.32700 23.31400 27.28500
C  45.55700 20.73300 29.87300
C  45.24200 21.06500 26.58000
O  45.10100 21.36000 25.35600
C  44.88000 19.70600 26.99500
N  47.91500 25.89700 26.47600
C  47.35400 24.95100 25.63900
C  47.69200 25.25900 24.17200
C  48.40500 26.62600 24.17100
C  48.49800 26.91900 25.74600
C  48.45700 24.20600 23.41800
C  47.65400 27.71500 23.39600
C  48.50800 28.95700 22.90200
N  48.37400 27.68100 28.63800
C  48.84300 28.51000 27.64200
C  49.41400 29.71300 28.26500
C  49.20700 29.56700 29.57000
C  48.48000 28.32300 29.78400
C  50.13400 30.79000 27.47100
C  49.42800 30.25500 30.82500
O  49.95000 31.28100 31.18100
C  48.83600 29.27900 31.92000
C  49.96000 28.84200 32.90700
O  50.69500 27.85000 32.85200
O  50.00300 29.73100 33.95400
C  51.05400 29.33500 34.87900
H  46.22500 22.91600 31.63900
H  46.22500 23.22800 25.20900
H  49.20800 28.96700 25.54000
H  48.36700 26.55300 33.65700
H  45.85600 25.23600 33.31000
H  48.39400 24.67300 34.51300
H  48.16000 23.34900 33.26800
H  46.98300 23.52200 34.48900
H  45.45200 27.23500 34.15200
H  46.30700 28.49700 33.33700
H  47.35300 29.38600 35.09100
H  47.82600 27.77000 35.58700
H  44.50800 20.50900 29.67500
H  45.74800 20.80400 30.94400
H  46.11400 19.91700 29.41400
H  45.56800 19.16200 27.64300
H  44.88700 19.11700 26.07800
H  43.88100 19.75700 27.42800
H  46.72000 25.36500 23.69100
H  49.43300 26.54800 23.81900
H  48.41900 24.51800 22.37400
H  48.15300 23.18700 23.65400
H  49.46600 24.38900 23.78900
H  46.84100 28.19500 23.94000
H  47.26900 27.29800 22.46500
H  49.51600 28.57400 23.06300
H  48.11500 29.78900 23.48600
H  48.19000 29.25800 21.90400
H  51.20700 30.71400 27.64400
H  49.91000 31.82600 27.72700
H  49.97300 30.60200 26.40900
H  48.08100 29.85800 32.45100
H  51.35500 30.14800 35.54000
H  52.04100 29.17500 34.44600
H  50.74700 28.51800 35.53200

