158

Mg 43.36700 3.79000 48.23100
C  41.29200 6.46400 47.35100
C  40.53600 1.65700 48.00000
C  45.37000 1.17100 48.27500
C  46.13900 5.93800 47.55200
N  41.10900 4.06400 47.70100
C  40.54100 5.26300 47.37700
C  39.01100 5.07000 47.20300
C  38.78300 3.53300 47.76800
C  40.22700 3.02100 47.89600
C  37.97000 3.47700 49.13300
C  38.51600 5.20400 45.76500
C  37.45400 6.33000 45.55600
H  36.77100 6.37400 44.14300
N  42.99300 1.75300 48.07700
C  41.79700 1.05200 48.01600
C  42.04500 -0.35100 48.11900
C  43.44100 -0.51600 48.06500
C  44.00900 0.78600 48.14000
C  41.03400 -1.49300 48.16700
C  44.15800 -1.84400 48.00900
O  43.46100 -2.92100 48.19400
C  45.60500 -1.96200 47.56100
N  45.45700 3.57000 47.68600
C  46.04700 2.40900 48.05000
C  47.59300 2.54100 48.11900
C  47.85400 4.01400 47.59200
C  46.39400 4.53600 47.60400
C  47.99200 2.44000 49.64500
C  48.42200 4.11800 46.13900
C  49.49500 5.11200 45.97100
N  43.66400 5.84200 47.88900
C  44.82000 6.55400 47.56900
C  44.48400 7.93700 47.37500
C  43.08700 7.96000 47.43700
C  42.61900 6.61800 47.56800
C  45.41500 9.11900 47.22800
C  41.87800 8.81500 47.44000
O  41.79400 10.06000 47.50200
C  40.71400 7.88900 47.24500
C  39.74200 8.25600 48.38100
O  39.85800 7.98500 49.53900
O  38.76700 9.09800 47.86300
C  37.86000 9.69000 48.84800
H  39.69000 1.00900 48.24200
H  46.01400 0.34300 48.57800
H  47.01600 6.58200 47.47000
H  38.47300 5.68600 47.92400
H  38.38900 2.87100 46.99600
H  37.43700 4.36800 49.46500
H  38.76100 3.19600 49.82900
H  37.42000 2.53600 49.12200
H  37.82400 4.37200 45.63400
H  39.28900 5.32300 45.00500
H  37.85000 7.33800 45.67300
H  36.69000 6.20200 46.32300
H  40.02600 -1.07900 48.19600
H  41.18800 -2.14600 49.02700
H  41.10400 -2.17000 47.31500
H  46.30900 -2.00300 48.39300
H  45.78000 -1.11900 46.89400
H  45.68900 -2.87000 46.96400
H  48.08100 1.78900 47.49900
H  48.55300 4.53700 48.24500
H  47.45600 1.58700 50.06200
H  47.65700 3.33700 50.16700
H  49.07600 2.38600 49.74500
H  47.68200 4.36800 45.37900
H  48.77500 3.13300 45.83100
H  49.18600 5.75100 45.14400
H  50.37800 4.53900 45.69100
H  49.76100 5.59800 46.91000
H  44.92600 9.86300 46.59900
H  46.28000 8.73600 46.68700
H  45.64300 9.44600 48.24200
H  40.21300 8.06500 46.29200
H  36.88600 9.22900 48.68800
H  37.71300 10.75400 48.66300
H  38.13600 9.50200 49.88500
Mg 26.50400 50.93600 26.76100
C  24.21400 51.85100 29.42300
C  28.70400 50.10500 29.06500
C  28.74800 50.38600 24.13200
C  24.37500 52.34800 24.63800
N  26.53800 51.21000 29.04600
C  25.48300 51.39300 29.90400
C  25.90900 51.33700 31.36700
C  27.48300 51.03400 31.25900
C  27.58800 50.72200 29.72400
C  28.49000 52.13200 31.69100
C  25.11300 50.13200 32.11700
C  24.62400 50.31700 33.61900
H  25.58700 50.53800 34.83400
N  28.47500 50.27300 26.62700
C  29.25900 49.95500 27.71900
C  30.57300 49.50100 27.25500
C  30.52600 49.64500 25.88300
C  29.22400 50.14200 25.46000
C  31.60800 49.02700 28.27500
C  31.66300 49.26100 24.92800
O  31.55400 49.46900 23.73700
C  32.97500 48.67700 25.51400
N  26.60500 51.25100 24.69300
C  27.49700 50.91500 23.83400
C  27.06800 51.20500 22.38400
C  25.62600 51.63400 22.53400
C  25.57600 51.81400 24.05900
C  28.03000 52.23000 21.57500
C  24.47900 50.68600 22.18100
C  23.29800 51.31400 21.50200
N  24.74400 51.90000 26.92200
C  24.00500 52.48700 25.93600
C  22.73500 53.00300 26.38200
C  22.84200 52.80300 27.78100
C  24.03500 52.09300 28.08500
C  21.61800 53.41700 25.52600
C  22.12100 52.91000 29.01800
O  20.99000 53.26900 29.23300
C  22.93200 52.21900 30.03800
C  23.13900 53.16600 31.13000
O  23.74900 54.20700 30.99000
O  22.37100 52.89100 32.27400
C  22.44600 53.84300 33.40700
H  29.37200 49.83200 29.88500
H  29.44600 50.20100 23.31300
H  23.64900 52.73100 23.91800
H  25.65400 52.25100 31.90300
H  27.72900 50.09800 31.76100
H  28.00200 52.66500 32.50700
H  28.78400 52.79900 30.88100
H  29.28600 51.46200 32.01600
H  25.71400 49.22300 32.15300
H  24.27400 49.86200 31.47600
H  24.12800 49.38100 33.87700
H  23.86700 51.08900 33.75700
H  32.62200 49.39000 28.10600
H  31.75100 47.94800 28.22900
H  31.26500 49.26800 29.28100
H  33.71000 48.48600 24.73200
H  32.76800 47.66800 25.86900
H  33.34400 49.39900 26.24200
H  27.05500 50.20100 21.96100
H  25.45800 52.48700 21.87600
H  28.93900 52.58500 22.06100
H  27.48700 53.11400 21.24100
H  28.39700 51.69300 20.70000
H  24.11300 50.12400 23.04000
H  24.85100 49.92000 21.50000
H  23.07300 50.67800 20.64600
H  23.41800 52.37600 21.29000
H  22.38700 51.26500 22.09700
H  20.82700 53.83900 26.14600
H  21.28900 52.57500 24.91600
H  21.97300 54.24300 24.91000
H  22.39500 51.34600 30.40900
H  23.42200 53.73500 33.88000
H  21.63000 53.69300 34.11500
H  22.30600 54.87700 33.09300

