158

Mg 34.75900 2.50600 29.29900
C  32.87400 3.50800 31.94500
C  37.46700 1.89800 31.48600
C  36.86800 1.88700 26.68000
C  32.33200 3.60200 27.06100
N  35.13800 2.76300 31.51200
C  34.17400 3.20900 32.42300
C  34.82000 3.11000 33.82900
C  36.33200 2.67200 33.57800
C  36.36800 2.44700 32.11900
C  37.40900 3.61800 34.14400
C  34.04600 2.20700 34.77700
C  33.93700 2.72400 36.21500
H  35.04600 3.76300 36.73100
N  36.87400 1.81600 29.14300
C  37.73800 1.70800 30.18800
C  38.98900 1.23800 29.57400
C  38.86200 1.21500 28.15800
C  37.48000 1.64500 27.94300
C  40.22300 1.18500 30.37500
C  39.89000 0.70600 27.10600
O  39.61900 0.63400 25.92300
C  41.25800 0.20900 27.54400
N  34.56900 2.57500 27.17400
C  35.57800 2.28500 26.33100
C  35.15900 2.74300 24.90100
C  33.65200 3.14000 24.99100
C  33.47200 3.14400 26.49000
C  36.05000 3.83700 24.34000
C  32.58300 2.19100 24.34700
C  32.10600 0.87500 25.04800
N  32.96700 3.33800 29.43900
C  31.99000 3.62500 28.43400
C  30.77800 4.07900 29.05800
C  31.04500 4.04900 30.42200
C  32.40400 3.63100 30.67100
C  29.51200 4.49400 28.41700
C  30.51600 4.29400 31.78800
O  29.36500 4.54700 32.15600
C  31.64800 4.00800 32.79900
C  31.97200 5.31000 33.46900
O  32.64800 6.22600 32.95100
O  31.45800 5.27100 34.73400
C  31.51200 6.55500 35.51100
H  38.19500 1.53600 32.21600
H  37.50900 1.64500 25.83000
H  31.47000 3.85900 26.44200
H  34.76200 4.16500 34.10000
H  36.51000 1.70300 34.04500
H  37.99400 4.03900 33.32600
H  38.02800 3.04400 34.83400
H  37.07400 4.52500 34.64700
H  34.48100 1.22900 34.57200
H  33.07700 2.01000 34.31900
H  34.05600 1.88800 36.90400
H  32.96800 3.19500 36.37800
H  40.95900 1.78900 29.84400
H  40.60500 0.16500 30.34100
H  40.07000 1.63300 31.35700
H  41.17500 -0.68300 28.16500
H  41.92100 0.95200 27.98700
H  41.76300 0.09400 26.58500
H  35.07900 1.89900 24.21600
H  33.40100 4.09700 24.53400
H  36.95800 4.00600 24.91900
H  35.56500 4.81000 24.25600
H  36.50700 3.58200 23.38400
H  32.95900 1.86700 23.37700
H  31.69000 2.71900 24.01300
H  32.89500 0.35400 25.59100
H  31.83900 0.16700 24.26400
H  31.27300 1.01800 25.73700
H  29.71300 5.03500 27.49200
H  29.08300 5.22300 29.10500
H  28.87100 3.63100 28.23700
H  31.45100 3.27300 33.57900
H  31.57900 6.20800 36.54200
H  30.56800 7.03000 35.24600
H  32.43600 7.10800 35.34200
Mg 6.92600 55.56100 40.31500
C  4.34400 53.18700 39.88600
C  9.22200 52.99500 39.82900
C  9.29300 57.77400 40.14000
C  4.50100 57.99100 41.07300
N  6.75300 53.34300 39.50700
C  5.60600 52.60200 39.53700
C  5.94400 51.21800 38.99300
C  7.48900 51.14000 39.30800
C  7.85500 52.56600 39.61100
C  7.98600 50.33300 40.49900
C  5.49400 51.02900 37.49500
C  4.56100 49.83300 37.19300
H  4.77500 48.95900 35.92400
N  8.98400 55.43000 39.86600
C  9.75100 54.23700 39.81600
C  11.08400 54.58500 39.65800
C  11.16900 55.97500 39.58000
C  9.79900 56.44500 39.82700
C  12.28800 53.59600 39.46300
C  12.40200 56.77400 39.33900
O  13.44000 56.15300 39.13700
C  12.44400 58.27600 39.38800
N  6.82900 57.63200 40.44800
C  8.03800 58.27100 40.50200
C  7.88400 59.60500 41.08500
C  6.28900 59.87400 41.02400
C  5.76100 58.40500 40.82300
C  8.40900 59.71000 42.54700
C  5.95100 60.79400 39.81800
C  5.33500 62.16700 40.19900
N  4.88000 55.68600 40.46600
C  4.02800 56.70200 40.81800
C  2.69600 56.23100 40.96700
C  2.79600 54.82300 40.72800
C  4.08600 54.56300 40.23600
C  1.47600 56.98700 41.42800
C  2.06900 53.62100 40.73500
O  0.91100 53.33800 41.03900
C  2.99800 52.50200 40.12000
C  2.39500 52.08400 38.90100
O  2.66000 52.58300 37.83600
O  1.52600 51.04500 39.25500
C  0.74000 50.54600 38.21200
H  9.92100 52.17800 39.63900
H  10.09900 58.49200 40.30300
H  3.84300 58.76000 41.48200
H  5.47700 50.46900 39.63200
H  7.98300 51.00300 38.34600
H  9.01500 50.04300 40.28700
H  7.44400 49.38800 40.53000
H  7.90600 50.86900 41.44500
H  6.36300 51.06800 36.83800
H  5.02700 51.94300 37.12900
H  3.62000 50.27900 36.87200
H  4.42900 49.15300 38.03500
H  12.77200 53.66000 38.48800
H  12.23000 52.52500 39.65800
H  13.08300 54.03200 40.06800
H  11.98600 58.74100 38.51500
H  13.52100 58.44500 39.38800
H  12.18600 58.64700 40.38000
H  8.58800 60.19600 40.50000
H  5.98900 60.23100 42.00900
H  7.63400 60.05300 43.23300
H  9.36000 60.24000 42.59800
H  8.70000 58.73700 42.94300
H  5.31800 60.28600 39.09100
H  6.83500 61.01700 39.22100
H  4.74200 62.12700 41.11300
H  4.51000 62.21200 39.48900
H  5.98400 63.03600 40.30900
H  0.71400 56.21500 41.53700
H  1.06400 57.65000 40.66700
H  1.62500 57.51800 42.36800
H  3.07100 51.66800 40.81800
H  0.20300 49.66800 38.57000
H  1.28000 50.21800 37.32400
H  0.01600 51.26800 37.83400

