158

Mg 54.96200 23.91500 44.64700
C  52.35000 26.10300 43.32000
C  53.51800 21.40000 42.84200
C  57.63900 22.15400 45.36300
C  56.47000 26.81600 46.01500
N  53.19000 23.86700 43.10700
C  52.27500 24.81000 42.76500
C  51.24000 24.32400 41.74500
C  51.53900 22.75300 41.80800
C  52.80400 22.62500 42.65200
C  50.33200 21.91200 42.34800
C  51.45400 24.92000 40.31900
C  50.24600 25.15400 39.37200
H  50.53800 25.85300 38.05700
N  55.47200 21.99300 44.24400
C  54.70200 21.10100 43.53300
C  55.43300 19.87800 43.47400
C  56.58600 19.99300 44.28000
C  56.61500 21.42400 44.74100
C  54.94800 18.60000 42.74200
C  57.57300 18.85800 44.65000
O  57.51900 17.85800 43.97900
C  58.75500 19.01900 45.69400
N  56.78200 24.47600 45.43800
C  57.75100 23.46900 45.68700
C  59.01400 24.13200 46.37100
C  58.67800 25.67900 46.38800
C  57.25700 25.70600 45.87500
C  59.19000 23.66500 47.83200
C  59.57300 26.58500 45.47600
C  61.11600 26.37800 45.50800
N  54.44300 26.00700 44.79200
C  55.10400 27.01000 45.51100
C  54.28800 28.19700 45.64000
C  53.16900 27.90500 44.76900
C  53.33700 26.55300 44.22000
C  54.61600 29.42600 46.48600
C  51.93900 28.42600 44.25000
O  51.45000 29.51900 44.46600
C  51.32000 27.27300 43.34000
C  50.99300 27.84900 42.02400
O  51.69900 28.63900 41.38000
O  49.67900 27.61800 41.80500
C  48.83600 28.45300 40.94700
H  53.06600 20.51200 42.39600
H  58.50700 21.58500 45.70200
H  57.03400 27.62300 46.48800
H  50.21400 24.57400 42.01400
H  51.77600 22.32400 40.83400
H  49.98900 21.32000 41.49900
H  49.43600 22.43500 42.68100
H  50.68900 21.35900 43.21700
H  52.16000 24.30700 39.75900
H  51.89200 25.91800 40.32500
H  49.47300 25.62000 39.98300
H  49.85700 24.15000 39.20000
H  55.64700 17.87300 42.32900
H  54.34700 18.94200 41.89900
H  54.17100 18.15000 43.36100
H  58.52900 19.43100 46.67800
H  59.52800 19.58600 45.17700
H  58.92900 17.94600 45.77600
H  59.84400 23.93100 45.69400
H  58.69100 26.17600 47.35800
H  60.06200 23.01400 47.89700
H  58.29900 23.14500 48.18300
H  59.39700 24.47400 48.53200
H  59.34600 27.61800 45.74000
H  59.19800 26.44800 44.46200
H  61.66800 27.20600 45.95300
H  61.55700 26.15500 44.53600
H  61.34400 25.55200 46.18200
H  55.00800 29.15400 47.46600
H  53.69300 29.95600 46.72100
H  55.25200 30.08600 45.89600
H  50.46100 26.77500 43.79000
H  49.16200 29.48000 41.11300
H  47.79200 28.29500 41.22000
H  48.86700 28.23200 39.88000
Mg 9.68100 47.75800 25.78900
C  7.71500 48.11500 28.48100
C  12.40000 49.09600 27.69000
C  11.84800 47.51000 23.20100
C  6.99800 47.54500 23.62500
N  10.01000 48.67500 27.80400
C  9.04500 48.51900 28.78100
C  9.50800 49.06400 30.16500
C  10.97400 49.58700 29.81200
C  11.13600 49.13500 28.32800
C  11.15100 51.13800 29.97800
C  9.21500 48.15300 31.44600
C  9.77800 48.58200 32.72800
H  8.96600 48.29400 33.98100
N  11.82900 48.13000 25.57000
C  12.72400 48.62900 26.42300
C  14.09600 48.36400 26.00000
C  13.94300 47.78900 24.69900
C  12.51100 47.78500 24.39600
C  15.35000 48.61500 26.79100
C  14.97300 47.30900 23.77000
O  14.69400 46.91300 22.69200
C  16.37700 47.44200 24.13200
N  9.49500 47.46500 23.75500
C  10.56600 47.50800 22.90900
C  10.06100 47.30000 21.45200
C  8.49200 47.22400 21.64300
C  8.27700 47.45100 23.09500
C  10.48800 48.36000 20.42600
C  7.86000 45.82200 21.12400
C  7.45900 45.74000 19.63500
N  7.70900 47.78500 25.96900
C  6.70300 47.62500 25.06400
C  5.43700 47.57800 25.77900
C  5.77500 47.61600 27.11000
C  7.17100 47.89100 27.17400
C  4.11600 47.26800 25.16800
C  5.22900 47.54400 28.51400
O  4.15400 47.44000 29.02800
C  6.54700 47.86300 29.40100
C  6.72200 46.65900 30.30900
O  7.59900 45.76700 30.12400
O  5.89800 46.71400 31.37500
C  6.08100 45.64200 32.41200
H  13.10400 49.59500 28.36000
H  12.43200 47.49300 22.27800
H  6.23400 47.38300 22.86100
H  8.90100 49.95800 30.31000
H  11.60800 49.00500 30.48100
H  11.90000 51.36900 30.73600
H  10.28300 51.75100 30.22000
H  11.53000 51.42200 28.99600
H  9.26200 47.08300 31.24600
H  8.18900 48.44200 31.67300
H  9.87600 49.66200 32.61600
H  10.74900 48.09200 32.79800
H  15.38400 48.97800 27.81800
H  15.90400 49.35100 26.20900
H  15.89500 47.67100 26.80900
H  16.51300 46.81800 25.01600
H  16.58100 48.47400 24.41900
H  17.07300 47.13500 23.35200
H  10.45100 46.30400 21.24300
H  8.09800 48.10800 21.14000
H  9.70000 48.59600 19.71100
H  11.41000 48.03900 19.94100
H  10.77600 49.30800 20.88000
H  7.01300 45.60100 21.77300
H  8.61100 45.05700 21.32200
H  7.79800 46.69100 19.22300
H  6.37500 45.62100 19.62100
H  7.97900 44.87100 19.23200
H  3.72300 48.10700 24.59400
H  3.46200 47.15500 26.03300
H  4.23400 46.35300 24.58700
H  6.30800 48.70800 30.04500
H  6.49300 46.11200 33.30500
H  6.73700 44.81200 32.15000
H  5.11400 45.14500 32.48400

