158

Mg 47.50800 24.95600 27.91600
C  48.32700 27.05200 30.78700
C  46.71800 22.48000 30.20000
C  46.94200 23.02600 25.41100
C  48.78300 27.46200 25.85600
N  47.60100 24.74100 30.27900
C  47.86800 25.76500 31.21900
C  47.69500 25.29400 32.68100
C  47.09500 23.82100 32.50700
C  47.15800 23.65800 30.93600
C  47.97500 22.67200 33.12300
C  46.68000 26.17500 33.47600
C  46.16800 25.60600 34.82800
H  45.93200 26.56600 35.95700
N  46.86200 22.98000 27.82500
C  46.59500 22.14400 28.84600
C  46.11200 20.88400 28.27700
C  46.03400 21.05900 26.85100
C  46.55900 22.43900 26.61300
C  45.84200 19.59600 29.04700
C  45.51900 20.10100 25.79100
O  45.49000 20.30800 24.57700
C  44.87000 18.80800 26.24300
N  47.69800 25.29200 25.91500
C  47.45400 24.25200 25.08400
C  47.65200 24.67400 23.64800
C  47.96700 26.20800 23.78400
C  48.27600 26.32300 25.23400
C  48.75400 23.93800 22.86500
C  46.71800 27.06200 23.41300
C  46.91700 28.24500 22.50300
N  48.48000 26.82000 28.22800
C  48.80700 27.73300 27.24600
C  49.24400 28.95000 27.91500
C  49.02300 28.74700 29.25600
C  48.49300 27.42800 29.45300
C  49.71400 30.14300 27.09200
C  49.07500 29.39100 30.53900
O  49.55000 30.43700 30.89800
C  48.52400 28.40300 31.65500
C  49.46000 28.28500 32.79100
O  50.44400 27.60200 32.84500
O  49.11600 29.25300 33.70200
C  49.63000 28.98500 35.08000
H  46.42400 21.71600 30.92300
H  46.81200 22.41000 24.51900
H  49.18200 28.21300 25.17100
H  48.63000 25.24500 33.24000
H  46.05100 23.80100 32.82200
H  48.68800 23.02700 33.86600
H  48.62500 22.28600 32.33800
H  47.33100 21.96600 33.64700
H  45.83000 26.33600 32.81300
H  47.25500 27.08700 33.63900
H  46.82100 24.80000 35.16400
H  45.19000 25.16400 34.63900
H  44.77300 19.41400 29.15400
H  46.33100 19.58400 30.02100
H  46.39300 18.78100 28.57700
H  45.47200 18.08900 26.80000
H  44.58100 18.21100 25.37900
H  43.99900 18.97900 26.87600
H  46.74700 24.47700 23.07400
H  48.82600 26.53200 23.19700
H  49.58400 24.54800 22.50800
H  48.24700 23.46700 22.02400
H  49.13300 23.10300 23.45400
H  46.31600 27.40300 24.36700
H  45.99000 26.40800 22.93300
H  46.51400 28.08600 21.50300
H  47.99200 28.41500 22.43800
H  46.39400 29.15300 22.80400
H  50.65000 29.83300 26.62700
H  49.85400 30.96500 27.79400
H  49.00100 30.41200 26.31200
H  47.56100 28.77200 32.00800
H  50.07200 29.92300 35.41600
H  50.43700 28.25400 35.08900
H  48.89900 28.62200 35.80300
Mg 50.50800 45.62000 42.30300
C  47.49100 47.05000 41.04100
C  49.54300 42.59600 41.23400
C  53.70200 44.62700 42.78300
C  51.62300 48.96800 42.82000
N  48.84200 44.99200 41.13600
C  47.71100 45.69600 40.83300
C  46.63500 44.73100 40.31900
C  47.19100 43.38200 40.53500
C  48.62200 43.64900 41.06900
C  46.33200 42.43100 41.50900
C  46.39200 45.05800 38.81000
C  44.91200 45.11800 38.37400
H  44.29500 43.91000 37.59700
N  51.53000 43.77500 42.03500
C  50.88500 42.64000 41.67800
C  51.87600 41.57800 41.70100
C  53.12500 42.15200 42.09100
C  52.85100 43.59200 42.30500
C  51.52600 40.14300 41.30700
C  54.43800 41.42700 42.25700
O  54.48800 40.20800 42.22000
C  55.74500 42.12500 42.46200
N  52.37200 46.75200 42.65000
C  53.48500 46.03200 42.95700
C  54.65300 46.87300 43.46500
C  54.00800 48.20400 43.36800
C  52.51200 48.00200 43.09000
C  55.29800 46.56900 44.89200
C  54.66900 49.30800 42.42500
C  55.64300 50.32200 42.99800
N  49.72400 47.58500 42.04900
C  50.30600 48.86100 42.30200
C  49.36900 49.95600 42.01900
C  48.21700 49.24000 41.66900
C  48.49400 47.83900 41.63100
C  49.61100 51.40600 42.15300
C  46.80200 49.41500 41.34300
O  46.06700 50.38200 41.28400
C  46.37800 48.04100 40.80400
C  45.10300 47.63400 41.55600
O  44.96400 47.44900 42.74500
O  44.11600 47.41600 40.58800
C  42.86700 47.16500 41.21100
H  48.98900 41.71800 40.89400
H  54.71300 44.40800 43.13200
H  52.07600 49.88000 43.21400
H  45.81000 44.84300 41.02300
H  47.41600 42.83200 39.62200
H  45.44200 42.92700 41.89500
H  46.97100 42.05900 42.31000
H  45.95100 41.61900 40.88900
H  46.94200 44.27700 38.28600
H  46.75700 46.04600 38.52800
H  44.73800 46.13900 38.03400
H  44.33800 45.01900 39.29500
H  52.09400 39.78100 40.45000
H  50.48100 39.94900 41.06900
H  51.79300 39.48800 42.13700
H  55.93300 42.57700 43.43600
H  55.84200 42.96300 41.77300
H  56.55800 41.42700 42.26000
H  55.34400 46.63800 42.65500
H  53.90500 48.58100 44.38600
H  56.30000 46.21600 44.65100
H  54.76100 45.64900 45.12400
H  55.14700 47.36100 45.62600
H  53.93100 49.77100 41.77000
H  55.30000 48.72100 41.75700
H  56.61700 50.14700 42.54000
H  55.78000 50.15000 44.06600
H  55.17700 51.28800 42.80300
H  48.72800 52.01300 41.95500
H  50.40500 51.71000 41.47100
H  49.96500 51.67000 43.15000
H  46.07600 48.15200 39.76200
H  42.66700 47.79300 42.07800
H  42.66600 46.12300 41.45900
H  42.16600 47.42600 40.41800

