158

Mg 8.07600 2.91000 27.45300
C  9.49200 1.35500 30.26500
C  6.27100 5.01900 29.45900
C  6.73800 4.11100 24.71900
C  9.70400 0.34000 25.49500
N  7.66200 2.96600 29.70900
C  8.59500 2.42900 30.58700
C  8.37100 3.08800 32.00000
C  7.01000 3.95900 31.77300
C  7.00800 4.06300 30.19500
C  5.72700 3.53700 32.48100
C  9.51200 3.84800 32.67500
C  9.93100 3.36300 34.09900
H  10.40900 4.39000 35.17800
N  6.80800 4.50700 27.11000
C  6.15000 5.30600 28.07900
C  5.42800 6.35300 27.42100
C  5.44100 6.03100 26.05800
C  6.40100 4.86700 25.88900
C  4.80200 7.57000 28.11100
C  4.80600 6.67100 24.91300
O  4.92900 6.19200 23.80900
C  4.00800 7.95700 25.06600
N  8.09700 2.13400 25.48400
C  7.43900 2.90300 24.51300
C  7.68600 2.40300 23.10600
C  8.86000 1.30200 23.36500
C  8.88000 1.29000 24.89800
C  6.38300 1.88800 22.47100
C  10.24500 1.60700 22.73200
C  10.85700 0.51400 21.84400
N  9.11800 1.01700 27.78000
C  9.79800 0.18500 26.88200
C  10.65900 -0.74800 27.66000
C  10.59400 -0.28700 28.97400
C  9.61400 0.73500 28.98900
C  11.53400 -1.79000 27.14200
C  11.12600 -0.35700 30.32400
O  12.01400 -1.07300 30.69900
C  10.43400 0.70800 31.23700
C  9.78100 -0.16700 32.29400
O  9.09200 -1.13700 32.00900
O  10.29500 0.23600 33.50400
C  9.86000 -0.56200 34.71000
H  5.79900 5.74600 30.12300
H  6.38000 4.42200 23.73500
H  10.37200 -0.30300 24.91800
H  8.14800 2.24600 32.65500
H  7.19600 4.99800 32.04400
H  5.24100 4.40300 32.93100
H  5.96800 2.72200 33.16300
H  4.97300 3.21500 31.76200
H  9.31300 4.91400 32.78300
H  10.36000 3.74500 31.99700
H  10.78600 2.70200 33.95500
H  9.09300 2.87400 34.59400
H  5.38800 8.39300 27.70300
H  4.85000 7.46700 29.19600
H  3.73700 7.55900 27.87900
H  3.51800 8.04700 24.09600
H  4.75300 8.71500 25.30900
H  3.27600 7.75000 25.84600
H  7.92200 3.29500 22.52600
H  8.50900 0.33100 23.01500
H  6.38800 2.32100 21.47100
H  5.48400 2.27300 22.95200
H  6.55100 0.81200 22.42700
H  10.93800 1.82200 23.54500
H  10.23700 2.51100 22.12300
H  11.93300 0.39900 21.97700
H  10.63700 0.70400 20.79300
H  10.40200 -0.45000 22.07000
H  12.60000 -1.69900 27.35100
H  11.49200 -1.90900 26.06000
H  11.22700 -2.74500 27.56700
H  11.25900 1.31600 31.60900
H  9.45800 -1.56400 34.55600
H  9.44700 0.21500 35.35300
H  10.80900 -0.76800 35.20500
Mg 43.40400 42.10100 26.21700
C  42.55000 44.34500 28.87800
C  44.86600 40.02700 28.47700
C  44.13000 40.14000 23.63400
C  42.27200 44.74200 24.03800
N  43.66400 42.21800 28.35900
C  43.17000 43.13000 29.26000
C  43.43000 42.60100 30.69500
C  44.40700 41.37400 30.55000
C  44.21000 41.13600 29.02500
C  45.88400 41.59800 31.00600
C  42.22000 42.35300 31.56700
C  42.13000 42.99600 32.94100
H  40.74500 43.37600 33.40900
N  44.32400 40.25300 26.10100
C  44.87800 39.56500 27.13400
C  45.41200 38.29400 26.62800
C  45.13200 38.28300 25.20700
C  44.48900 39.60100 24.92600
C  46.07700 37.27700 27.53600
C  45.60700 37.23500 24.15900
O  45.40500 37.36200 22.93500
C  46.21500 35.88500 24.54000
N  43.33400 42.44000 24.16600
C  43.61700 41.38600 23.26200
C  43.33900 41.84100 21.85600
C  42.48800 43.13200 22.01600
C  42.77400 43.50000 23.52000
C  44.53600 42.08700 20.90600
C  40.99700 42.90000 21.79900
C  40.43300 41.71000 22.52600
N  42.69200 44.20000 26.31300
C  42.22700 45.14700 25.37900
C  41.75400 46.30400 25.99100
C  41.85000 46.04600 27.38500
C  42.41700 44.73100 27.53100
C  41.28900 47.45200 25.35700
C  41.55400 46.54900 28.68200
O  41.03400 47.66200 28.96400
C  41.83200 45.41800 29.72600
C  42.79200 46.01600 30.68400
O  43.96300 46.20300 30.47400
O  42.10300 46.37900 31.86700
C  42.99400 47.02300 32.82700
H  45.33100 39.38000 29.22400
H  44.37400 39.55700 22.74400
H  41.78700 45.30500 23.23800
H  44.03900 43.37900 31.15400
H  44.11000 40.55100 31.20000
H  46.04400 42.67500 31.03900
H  46.57300 40.96100 30.45200
H  45.80100 41.15800 31.99900
H  42.06500 41.27600 31.63500
H  41.36400 42.67000 30.97100
H  42.78300 43.86700 32.89400
H  42.69900 42.27200 33.52300
H  45.44500 36.39000 27.51300
H  46.08300 37.60700 28.57500
H  47.10900 37.03000 27.28400
H  46.26100 35.16900 23.72000
H  45.47600 35.49100 25.23800
H  47.19800 35.91900 25.01000
H  42.73000 41.07500 21.37600
H  42.84700 43.86400 21.29200
H  45.44800 41.68500 21.34700
H  44.65800 43.15500 20.73100
H  44.37400 41.58000 19.95500
H  40.81000 42.85600 20.72600
H  40.44300 43.80000 22.06400
H  41.11100 40.91000 22.82300
H  39.49700 41.32900 22.11900
H  40.19200 41.92600 23.56800
H  42.13100 47.96100 24.88800
H  40.75100 48.10100 26.04800
H  40.62900 47.18800 24.53100
H  40.93400 45.11100 30.26100
H  43.73400 46.30900 33.18900
H  42.35100 47.35900 33.64100
H  43.57200 47.81100 32.34500

