158

Mg 27.21400 50.68900 26.02700
C  25.00700 51.62700 28.80800
C  29.22400 49.30200 28.37300
C  29.28100 50.10600 23.52200
C  24.88700 52.17200 23.94800
N  27.09400 50.50100 28.39500
C  26.15500 50.93600 29.27500
C  26.46000 50.58400 30.76400
C  27.94000 49.96300 30.56000
C  28.15000 49.91300 28.99900
C  29.08100 50.67300 31.31200
C  25.33500 49.54100 31.38100
C  24.60700 50.04300 32.57800
H  25.44200 50.43100 33.74100
N  28.98500 49.73200 25.94800
C  29.76200 49.30000 27.06200
C  30.93900 48.77200 26.59000
C  31.02500 49.03000 25.19200
C  29.78200 49.69000 24.79500
C  32.04300 48.19900 27.52400
C  32.23600 48.74100 24.22900
O  32.08600 49.05300 23.07000
C  33.53300 47.95100 24.73900
N  27.00900 50.99400 24.08900
C  28.02000 50.76400 23.23500
C  27.64200 51.00200 21.80000
C  26.07500 51.38600 21.94400
C  25.97100 51.47900 23.40700
C  28.48700 52.15200 21.23100
C  25.12500 50.30500 21.41600
C  24.36100 50.70500 20.14700
N  25.37400 51.75000 26.29900
C  24.54300 52.25300 25.33500
C  23.39400 52.77700 25.87800
C  23.53500 52.55200 27.27500
C  24.78100 51.93300 27.45000
C  22.32400 53.36100 25.08400
C  22.92700 52.75200 28.59700
O  21.94000 53.41800 28.95200
C  23.87100 52.16800 29.62800
C  24.31100 53.24000 30.65300
O  25.35900 53.81300 30.67500
O  23.39500 53.25500 31.68900
C  23.77700 53.97200 32.91200
H  29.91600 48.76000 29.02100
H  29.84000 49.96400 22.59500
H  24.08400 52.54400 23.30800
H  26.52300 51.48800 31.37000
H  27.98500 48.94400 30.94600
H  28.60600 51.56000 31.73000
H  29.79700 50.99000 30.55400
H  29.70600 50.02800 31.93000
H  25.92400 48.68400 31.70800
H  24.64400 49.25900 30.58700
H  24.00000 49.16700 32.80700
H  24.01700 50.91900 32.30700
H  32.28600 47.18200 27.21600
H  31.78300 48.19300 28.58300
H  32.94000 48.76000 27.26100
H  34.21400 48.63300 25.24800
H  33.99900 47.60900 23.81500
H  33.29200 47.02800 25.26700
H  27.77900 50.06100 21.26600
H  25.83800 52.34700 21.48700
H  29.27300 52.24600 21.98000
H  28.06500 53.09200 20.87500
H  28.98700 51.68100 20.38400
H  24.43700 49.93200 22.17400
H  25.60000 49.35100 21.18600
H  24.46400 49.95000 19.36800
H  24.74300 51.67000 19.81300
H  23.32400 50.88700 20.42800
H  22.22600 52.68300 24.23600
H  22.63800 54.31500 24.66000
H  21.46000 53.57800 25.71200
H  23.31100 51.40500 30.16900
H  23.27800 53.35500 33.66000
H  23.34200 54.96300 32.78900
H  24.83200 54.03000 33.18300
Mg -12.33200 15.97400 41.78700
C  -9.32300 14.24700 41.40600
C  -11.12500 18.62300 40.18200
C  -15.44300 17.16200 41.70600
C  -13.72600 12.81600 42.87300
N  -10.44300 16.29100 40.76500
C  -9.32800 15.52300 40.83900
C  -8.17800 16.15800 40.13500
C  -8.56600 17.66800 40.11400
C  -10.18500 17.55000 40.38600
C  -7.88200 18.59600 41.23800
C  -7.58700 15.53800 38.83300
C  -6.04800 15.74900 38.75600
H  -5.42500 16.29200 37.55900
N  -13.11100 17.79300 41.15700
C  -12.48000 18.78500 40.52600
C  -13.43300 19.80700 40.32200
C  -14.65600 19.44200 40.75400
C  -14.44800 18.05100 41.22100
C  -12.97200 21.12200 39.71100
C  -15.91400 20.28000 40.72300
O  -15.78800 21.45000 40.36800
C  -17.30200 19.81100 41.17500
N  -14.33900 15.09500 42.27900
C  -15.45200 15.82000 42.23200
C  -16.74400 14.97800 42.45100
C  -16.16500 13.50900 42.72400
C  -14.64200 13.81200 42.64300
C  -17.79900 15.40300 43.51400
C  -16.68800 12.47500 41.69300
C  -17.27500 11.11300 42.23300
N  -11.59200 14.00300 42.44500
C  -12.29400 12.86100 42.76900
C  -11.35700 11.70900 42.75000
C  -10.17400 12.26100 42.42400
C  -10.40200 13.57200 42.11700
C  -11.61600 10.32000 43.08400
C  -8.77800 11.96100 42.19800
O  -8.15700 10.95600 42.32200
C  -8.15700 13.24500 41.61000
C  -7.08400 13.58900 42.65400
O  -7.26100 14.01900 43.79200
O  -5.78900 13.44800 42.22900
C  -4.67500 13.94700 43.00800
H  -10.59000 19.44200 39.69600
H  -16.47300 17.52000 41.65400
H  -14.12500 11.83300 43.13000
H  -7.45000 16.00500 40.93200
H  -8.42300 18.05900 39.10700
H  -8.52200 19.05100 41.99400
H  -7.53600 19.48000 40.70300
H  -7.00100 18.20800 41.74800
H  -8.12100 16.07100 38.04700
H  -7.82700 14.47700 38.76600
H  -5.53800 14.79000 38.85300
H  -5.62200 16.35900 39.55300
H  -13.06500 21.02300 38.62900
H  -11.89100 21.20700 39.81500
H  -13.40000 22.07200 40.03300
H  -17.72000 19.04800 40.51800
H  -18.01900 20.63100 41.21500
H  -17.10100 19.40400 42.16500
H  -17.43100 15.04800 41.60800
H  -16.28900 13.13300 43.73900
H  -18.77900 15.56800 43.06500
H  -17.49000 16.38000 43.88700
H  -17.84900 14.70500 44.35000
H  -15.87700 12.23800 41.00400
H  -17.47700 12.89300 41.06800
H  -16.70700 10.37300 41.66900
H  -18.34100 11.05200 42.01400
H  -17.11900 11.03900 43.30900
H  -10.97200 9.55300 42.65400
H  -12.55400 10.05800 42.59500
H  -11.71300 10.17400 44.15900
H  -7.57500 13.06400 40.70700
H  -3.90100 14.29600 42.32400
H  -4.20800 13.09300 43.50000
H  -4.88000 14.75700 43.70700

