158

Mg 40.88400 8.22600 29.81800
C  42.59900 9.79800 32.48600
C  38.40300 7.35500 32.14000
C  39.60200 6.13600 27.50600
C  43.70000 8.57500 27.92700
N  40.50400 8.57200 32.14800
C  41.39900 9.21700 32.97500
C  40.80400 9.31200 34.41600
C  39.36400 8.58200 34.26300
C  39.40600 8.04800 32.74200
C  39.13800 7.32400 35.16900
C  40.81000 10.65000 35.20700
C  39.56800 11.01100 36.06000
H  39.95900 12.09400 37.17600
N  39.24400 7.03100 29.82400
C  38.30000 6.89800 30.77400
C  37.14800 6.23600 30.24500
C  37.36200 6.07200 28.86500
C  38.82800 6.39100 28.67900
C  35.95100 5.92400 31.10400
C  36.36600 5.64500 27.82800
O  36.63400 5.45500 26.62900
C  35.01000 5.25100 28.21400
N  41.53700 7.54700 27.85700
C  40.85300 6.62300 27.13400
C  41.59200 6.30800 25.84100
C  42.87300 7.27200 25.93000
C  42.74800 7.87100 27.31700
C  41.99300 4.83100 25.80500
C  43.18900 8.41100 24.90000
C  42.06500 9.43400 24.65800
N  42.70400 9.14100 30.02300
C  43.72600 9.27800 29.14100
C  44.89200 9.91000 29.79800
C  44.40700 10.23900 31.05100
C  43.08300 9.65100 31.19100
C  46.22300 10.17700 29.12500
C  44.76000 10.89200 32.33700
O  45.77100 11.59700 32.66200
C  43.62700 10.49500 33.30700
C  44.20700 9.69000 34.44300
O  44.59400 8.52800 34.34400
O  44.28500 10.54200 35.54900
C  44.74800 9.86800 36.76100
H  37.48500 7.13200 32.68800
H  39.10000 5.63800 26.67400
H  44.56600 8.89600 27.34400
H  41.43400 8.65300 35.01400
H  38.54100 9.29700 34.23900
H  39.32900 6.49400 34.48900
H  38.12200 7.41300 35.55500
H  39.83900 7.27800 36.00300
H  40.94700 11.46400 34.49600
H  41.65100 10.59300 35.89900
H  39.12400 10.15800 36.57400
H  38.69500 11.27800 35.46400
H  36.41400 5.53200 32.00900
H  35.21700 5.20600 30.74000
H  35.48300 6.80500 31.54500
H  34.53600 5.91200 28.94000
H  35.12500 4.22200 28.55300
H  34.30000 5.22800 27.38800
H  41.08500 6.46800 24.88900
H  43.76900 6.65100 25.94400
H  41.04100 4.30400 25.87700
H  42.59400 4.53800 26.66600
H  42.55100 4.75100 24.87200
H  43.52500 8.03200 23.93500
H  44.01600 8.95800 25.35400
H  41.12100 9.27900 25.18000
H  41.87200 9.39500 23.58500
H  42.42900 10.44100 24.85800
H  46.54200 11.20600 29.29000
H  46.19500 10.02000 28.04600
H  46.99300 9.66700 29.70300
H  43.24600 11.41700 33.74700
H  45.58100 10.47400 37.11800
H  45.06100 8.82700 36.67900
H  44.03700 9.95200 37.58400
Mg 47.64200 43.77800 42.32600
C  44.23900 42.72000 42.20400
C  48.56900 40.36600 42.24300
C  50.73700 44.76000 42.22200
C  46.48200 47.03100 41.94100
N  46.50800 41.80000 42.24300
C  45.15100 41.63300 42.24000
C  44.73200 40.11300 42.23100
C  46.19700 39.43500 42.40400
C  47.14500 40.56200 42.26500
C  46.33300 38.52600 43.63200
C  43.82600 39.57400 41.11200
C  43.98900 40.26300 39.72000
H  43.97500 39.32500 38.50700
N  49.43500 42.73100 42.24800
C  49.59600 41.36900 42.14400
C  51.01500 41.14000 42.07100
C  51.70700 42.35800 41.89700
C  50.64000 43.35000 42.14600
C  51.63300 39.78500 42.12200
C  53.17000 42.52600 41.73400
O  53.86900 41.51900 41.59000
C  53.88400 43.86400 41.61700
N  48.49400 45.64400 42.10400
C  49.76800 45.71600 42.36400
C  50.26800 47.22200 42.29700
C  48.88500 48.04200 42.18400
C  47.89300 46.87900 42.00400
C  51.06000 47.64600 43.61400
C  48.80500 49.17400 41.15900
C  48.10900 50.42500 41.66400
N  45.77700 44.75500 41.99500
C  45.48800 46.07000 41.91800
C  44.03200 46.32500 41.93900
C  43.52900 45.02300 42.09200
C  44.60800 44.08500 42.10300
C  43.40000 47.74200 41.88600
C  42.29900 44.22200 42.32200
O  41.12800 44.60900 42.48700
C  42.78300 42.71800 42.43400
C  42.26500 42.26800 43.77600
O  41.35000 41.46600 43.97100
O  42.98200 42.88200 44.83000
C  42.73700 42.36900 46.17900
H  48.71800 39.28800 42.14900
H  51.78400 45.06200 42.14000
H  46.15200 48.07200 41.96100
H  44.22800 40.07700 43.19700
H  46.37500 38.73300 41.59000
H  47.22300 38.82200 44.18800
H  46.47400 37.55700 43.15500
H  45.44000 38.53500 44.25800
H  42.77400 39.59100 41.39900
H  43.92400 38.49000 41.04000
H  44.88200 40.88900 39.71400
H  43.21100 41.02500 39.75500
H  52.40200 39.91000 42.88500
H  52.17900 39.51900 41.21800
H  50.90800 38.98100 42.24900
H  53.41900 44.55900 40.91800
H  54.86300 43.53800 41.26400
H  54.01400 44.35900 42.57900
H  50.86700 47.45700 41.41800
H  48.59200 48.53700 43.11000
H  51.94400 48.24300 43.39100
H  51.49500 46.73200 44.01700
H  50.52200 48.24000 44.35300
H  48.13200 48.79000 40.39300
H  49.82900 49.30900 40.81200
H  47.71400 50.84000 40.73600
H  48.81500 51.17600 42.01800
H  47.26700 50.24100 42.33200
H  42.31300 47.75200 41.96500
H  43.59000 48.14100 40.89000
H  43.84300 48.39700 42.63700
H  42.27500 42.23700 41.59900
H  43.22200 41.44100 46.48000
H  41.72700 42.32900 46.58700
H  43.26900 43.11600 46.76900

