158

Mg 52.38800 24.06800 44.34600
C  49.45300 26.02400 43.77300
C  50.85600 21.33100 43.54700
C  55.49800 22.58300 44.35200
C  54.03100 27.12100 44.87000
N  50.35100 23.74000 43.56600
C  49.31000 24.65900 43.43100
C  47.97900 23.83400 43.32100
C  48.55700 22.35600 43.08000
C  50.01400 22.43100 43.45100
C  47.83200 21.15400 43.82200
C  47.04500 24.29700 42.14400
C  47.74900 24.56900 40.81300
H  47.33600 23.82100 39.52400
N  53.07800 22.19800 43.98600
C  52.20400 21.11300 43.87900
C  52.92200 19.86500 43.85900
C  54.31000 20.20500 44.10400
C  54.38400 21.70400 44.12000
C  52.18900 18.53600 43.82400
C  55.47400 19.28800 44.25400
O  55.23700 18.13700 44.07500
C  56.88900 19.76600 44.63700
N  54.49100 24.85800 44.35900
C  55.54200 23.99900 44.35900
C  56.84300 24.80400 44.66200
C  56.40700 26.28000 44.62400
C  54.92600 26.08300 44.51600
C  57.54300 24.47700 45.97000
C  57.05400 27.19800 43.45900
C  56.38200 27.10200 42.11300
N  51.88600 26.16800 44.50200
C  52.64900 27.26700 44.79000
C  51.80900 28.41900 45.03300
C  50.48900 27.97200 44.58600
C  50.60900 26.57900 44.25800
C  52.23300 29.78700 45.60300
C  49.08700 28.31400 44.51400
O  48.44600 29.31600 44.82000
C  48.36900 27.02500 43.80600
C  47.93100 27.44300 42.45200
O  48.63500 27.65300 41.44600
O  46.59600 27.78600 42.60100
C  45.95800 28.37100 41.42300
H  50.28300 20.42600 43.33500
H  56.49300 22.21500 44.61100
H  54.59500 28.03000 45.09100
H  47.34700 23.83200 44.20900
H  48.57000 22.19000 42.00200
H  47.41600 20.42400 43.12800
H  46.94700 21.60400 44.27100
H  48.39700 20.61900 44.58600
H  46.42100 25.08300 42.56900
H  46.24400 23.60700 41.87800
H  48.83400 24.53000 40.91000
H  47.49200 25.58800 40.52400
H  52.19000 18.37300 42.74600
H  51.13200 18.68600 44.04400
H  52.64800 17.73000 44.39600
H  57.40800 18.84600 44.90400
H  56.95700 20.22700 45.62200
H  57.47400 20.36400 43.93700
H  57.55600 24.59700 43.86400
H  56.60800 26.68600 45.61500
H  58.61300 24.43800 45.76400
H  57.25400 23.46400 46.25000
H  57.36100 25.07300 46.86400
H  58.12500 27.07700 43.29700
H  56.81300 28.20300 43.80500
H  55.36000 26.73100 42.04000
H  57.10100 26.46400 41.59800
H  56.44200 28.10000 41.67900
H  51.61600 29.81800 46.50100
H  52.06300 30.65400 44.96400
H  53.28900 29.64700 45.83400
H  47.63200 26.82200 44.58300
H  46.44100 29.32000 41.19100
H  44.93800 28.68200 41.65100
H  45.90900 27.67900 40.58300
Mg 30.12200 58.97000 40.89100
C  27.16300 57.36300 39.76000
C  31.79100 56.22300 39.88300
C  32.99000 60.85100 40.94300
C  28.13700 61.82600 41.49200
N  29.51000 57.09100 39.63700
C  28.24500 56.62300 39.43800
C  28.22600 55.20900 38.90800
C  29.64100 54.74600 39.39800
C  30.42600 56.09300 39.66900
C  29.56000 53.77400 40.68800
C  27.97400 55.14200 37.37500
C  26.69400 54.38200 36.96000
H  25.98900 54.83000 35.67500
N  32.16200 58.55500 40.57300
C  32.70300 57.31500 40.15400
C  34.06400 57.39200 40.23200
C  34.45300 58.67600 40.60800
C  33.17600 59.48300 40.65100
C  34.92500 56.20100 39.96700
C  35.87500 59.02700 40.97400
O  36.74100 58.18700 40.99400
C  36.23400 60.44700 41.40900
N  30.50900 60.97900 41.24300
C  31.75000 61.51100 41.20900
C  31.74100 62.98000 41.75800
C  30.24300 63.21400 42.09900
C  29.59400 61.91700 41.59400
C  32.82100 63.46300 42.80200
C  29.59800 64.53600 41.51600
C  28.46500 65.14400 42.35100
N  28.03800 59.53200 40.90400
C  27.40000 60.70000 41.12600
C  25.94400 60.59400 40.87000
C  25.83700 59.27400 40.35300
C  27.14000 58.70000 40.42500
C  24.88300 61.74300 41.05400
C  24.91800 58.23700 39.95000
O  23.69700 58.27100 39.82000
C  25.67100 56.86000 39.74100
C  25.16700 55.93600 40.85600
O  25.78400 55.57800 41.87300
O  23.91100 55.59900 40.50300
C  23.06700 55.00000 41.58000
H  32.18200 55.22800 39.66100
H  33.87100 61.46700 41.13600
H  27.46400 62.63100 41.79500
H  27.44200 54.62500 39.39000
H  30.26400 54.21800 38.67600
H  28.57100 53.52500 41.07300
H  30.17600 54.24300 41.45500
H  30.02400 52.86500 40.30600
H  28.91900 54.78000 36.96900
H  27.78500 56.16700 37.05800
H  26.02700 54.25600 37.81300
H  27.07700 53.38200 36.75600
H  35.56400 56.25800 39.08500
H  34.35200 55.28300 40.09500
H  35.70200 56.05200 40.71700
H  35.81200 61.08200 40.63100
H  37.30200 60.36900 41.20600
H  35.92800 60.67000 42.43100
H  31.99700 63.57100 40.87900
H  30.07900 63.23500 43.17600
H  32.14600 63.65300 43.63700
H  33.30000 64.37200 42.43800
H  33.50000 62.62700 42.97100
H  29.26200 64.29900 40.50600
H  30.49400 65.15400 41.47600
H  28.55000 66.22500 42.46300
H  28.41000 64.72800 43.35700
H  27.51500 64.97500 41.84400
H  25.07800 62.33400 41.94900
H  23.90400 61.26700 41.12400
H  24.92700 62.31300 40.12600
H  25.54400 56.40500 38.75900
H  23.39800 55.19500 42.60000
H  23.13200 53.91300 41.63500
H  22.05600 55.29700 41.30000

