158

Mg 34.95400 4.08400 30.17800
C  32.39600 4.98100 32.75100
C  37.14200 4.04900 32.86800
C  37.23300 3.07500 28.07700
C  32.48600 4.15300 27.78300
N  34.71300 4.42600 32.54600
C  33.63700 4.76900 33.32400
C  33.96600 4.97000 34.76900
C  35.57000 4.86500 34.78400
C  35.82300 4.37800 33.31100
C  36.42400 6.08300 35.31400
C  33.19100 3.95300 35.64300
C  33.38100 3.98300 37.19700
H  34.05100 5.23100 37.82400
N  36.87900 3.73600 30.35000
C  37.68100 3.85400 31.50700
C  39.02600 3.49600 31.23900
C  39.10700 3.22800 29.87100
C  37.69900 3.34000 29.36500
C  40.09700 3.51800 32.29400
C  40.27500 2.81400 29.03100
O  40.18700 2.58200 27.77100
C  41.57100 2.48200 29.70600
N  34.92000 3.65200 28.14600
C  35.97500 3.25200 27.42600
C  35.64800 2.94600 25.94000
C  34.15800 3.40200 25.92500
C  33.80600 3.72600 27.38000
C  36.60100 3.63400 24.94800
C  33.08400 2.48100 25.22700
C  32.88800 1.18700 25.91200
N  32.93400 4.47700 30.24000
C  32.11900 4.51200 29.04300
C  30.74800 4.95800 29.53400
C  30.82900 5.12500 30.91700
C  32.16100 4.84800 31.34800
C  29.52000 5.06600 28.66300
C  30.04200 5.39800 32.09400
O  28.84600 5.75400 32.20800
C  31.09200 5.44000 33.30300
C  31.05500 6.77500 33.91300
O  31.61300 7.75300 33.51100
O  30.49300 6.69900 35.18600
C  30.76200 7.76000 36.17900
H  37.80100 4.02600 33.73800
H  37.97200 2.71600 27.35700
H  31.74000 4.20800 26.98800
H  33.52100 5.93600 35.00900
H  35.81200 3.98500 35.38000
H  37.23300 5.63600 35.89200
H  35.89000 6.75300 35.98800
H  36.81200 6.62500 34.45200
H  33.32400 2.96600 35.20000
H  32.13200 4.19500 35.55900
H  34.02700 3.14600 37.46300
H  32.42600 3.81700 37.69600
H  39.68300 4.10200 33.11600
H  40.93600 4.02200 31.81300
H  40.38800 2.54600 32.69000
H  41.51400 1.60300 30.34700
H  41.88000 3.28900 30.37100
H  42.32300 2.38000 28.92300
H  35.80200 1.88300 25.75500
H  34.08200 4.40400 25.50300
H  37.19000 4.41800 25.42300
H  35.99100 4.06600 24.15400
H  37.18700 2.83400 24.49400
H  33.51300 2.21400 24.26200
H  32.16200 3.05400 25.12700
H  31.90000 1.22600 26.37200
H  33.62400 1.16700 26.71500
H  33.10800 0.34900 25.25000
H  29.64900 4.57300 27.69900
H  29.20500 6.09500 28.48800
H  28.72100 4.68400 29.29800
H  30.93900 4.63400 34.02100
H  29.91200 8.43700 36.26500
H  31.66100 8.36400 36.05500
H  30.78600 7.35400 37.19000
Mg 49.52900 46.03100 42.52000
C  46.14700 46.95200 41.47400
C  48.86500 42.85600 40.93300
C  52.78900 45.54500 42.28100
C  50.09100 49.45800 42.96300
N  47.64500 45.00100 41.50800
C  46.43000 45.62700 41.15100
C  45.62000 44.82500 40.12700
C  46.49900 43.49700 39.99600
C  47.72000 43.76000 40.82600
C  45.74700 42.21300 40.37700
C  45.36400 45.62900 38.78900
C  43.91300 45.74700 38.20700
H  43.67600 45.44800 36.73300
N  50.64000 44.36300 42.01900
C  50.16500 43.15500 41.41700
C  51.34000 42.26800 41.36400
C  52.49200 42.96100 41.79800
C  52.04500 44.33500 42.09600
C  51.33100 40.88900 40.74900
C  53.94900 42.40300 41.76200
O  54.21700 41.26400 41.32800
C  55.18900 43.22300 42.25300
N  51.21300 47.24800 42.42300
C  52.43200 46.84100 42.47800
C  53.45300 47.84400 43.00100
C  52.52600 49.10800 43.24000
C  51.18200 48.58300 42.88300
C  54.43100 47.49800 44.16100
C  52.86800 50.49800 42.53300
C  53.10800 51.79000 43.44900
N  48.33500 47.87200 42.45100
C  48.72200 49.20200 42.62800
C  47.54800 50.01100 42.70700
C  46.50800 49.19700 42.23300
C  47.04200 47.88300 42.08600
C  47.53500 51.48000 43.14800
C  45.05900 49.05100 42.06300
O  44.22100 49.83200 42.39300
C  44.82800 47.68100 41.41500
C  43.72200 46.96300 42.04700
O  43.71500 46.51400 43.20500
O  42.70400 46.69600 41.11000
C  41.70800 45.64800 41.46400
H  48.80400 41.89200 40.42400
H  53.87600 45.44100 42.26400
H  50.34500 50.39300 43.46700
H  44.64100 44.61100 40.55700
H  47.03800 43.34200 39.06100
H  46.20800 41.70400 41.22300
H  45.78500 41.61000 39.46900
H  44.67000 42.35300 40.46300
H  46.09100 45.21900 38.08800
H  45.69000 46.66700 38.85100
H  43.64900 46.78200 38.42600
H  43.10600 45.23000 38.72600
H  52.15900 40.82300 40.04300
H  50.44400 40.64200 40.16500
H  51.19300 40.18600 41.57100
H  55.64400 43.75900 41.42000
H  55.96400 42.52800 42.57500
H  54.80100 43.88500 43.02700
H  54.03800 47.89600 42.08200
H  52.50700 49.20600 44.32600
H  55.44500 47.87800 44.04200
H  54.47700 46.41000 44.21800
H  54.02100 47.76400 45.13500
H  52.07000 50.63100 41.80200
H  53.82900 50.38700 42.03000
H  54.16400 51.97700 43.25200
H  52.88600 51.49300 44.47400
H  52.57800 52.71500 43.22300
H  48.22900 51.67700 43.96600
H  46.51900 51.79400 43.38500
H  47.76400 52.18600 42.35000
H  44.66500 47.91300 40.36300
H  40.76200 46.13800 41.69400
H  42.04900 45.10700 42.34600
H  41.62900 44.86900 40.70600

