158

Mg 8.31500 2.76300 27.27300
C  9.81200 1.05900 30.05500
C  7.00300 4.94900 29.44700
C  6.46400 3.78600 24.74600
C  9.68100 0.21300 25.25100
N  8.32200 2.86200 29.55100
C  9.09200 2.16600 30.43100
C  8.92600 2.77700 31.83100
C  7.88800 3.94900 31.62600
C  7.79100 4.00900 30.13100
C  6.56800 3.71800 32.40500
C  10.28300 3.29900 32.39200
C  10.13700 3.92900 33.79500
H  11.09900 3.47400 34.91500
N  7.02200 4.26400 27.04700
C  6.62900 5.06800 28.08900
C  5.79700 6.18000 27.50800
C  5.54400 5.83800 26.11300
C  6.33100 4.59900 25.91000
C  5.49500 7.39000 28.29000
C  4.78500 6.50700 25.06200
O  4.63000 5.92200 23.96300
C  3.96400 7.69400 25.28200
N  8.02300 2.14100 25.29500
C  7.15800 2.65400 24.39700
C  7.14200 2.06600 23.03700
C  8.33400 1.06900 23.11500
C  8.72600 1.13300 24.62300
C  5.77400 1.56400 22.61000
C  9.49200 1.48300 22.15100
C  10.23900 0.31100 21.58800
N  9.51000 1.13700 27.51800
C  9.97200 0.14400 26.59000
C  10.84200 -0.78400 27.31700
C  10.80600 -0.44500 28.62800
C  9.96200 0.67000 28.73600
C  11.60900 -1.99100 26.83600
C  11.26100 -0.84100 29.96600
O  11.98600 -1.81300 30.33400
C  10.62200 0.16200 30.96800
C  10.02500 -0.57800 32.15000
O  8.96800 -1.14100 32.11500
O  10.91900 -0.49600 33.26600
C  10.30200 -1.16100 34.42000
H  6.74400 5.79600 30.08600
H  5.81600 3.92000 23.87800
H  10.04400 -0.60500 24.62500
H  8.49200 2.00800 32.47000
H  8.28500 4.94700 31.81100
H  5.77400 3.47700 31.69900
H  6.22900 4.61500 32.92300
H  6.67000 2.97800 33.19900
H  10.84400 3.97700 31.74900
H  11.02700 2.51300 32.52200
H  9.07900 3.75100 33.98500
H  10.42300 4.97700 33.70300
H  6.03900 7.47200 29.23100
H  4.43200 7.41700 28.53200
H  5.77000 8.15400 27.56200
H  3.02400 7.59400 24.73900
H  4.44000 8.66200 25.12600
H  3.74900 7.67800 26.35000
H  7.46200 2.83200 22.33200
H  7.92600 0.09000 22.86200
H  5.33800 2.30900 21.94400
H  5.09300 1.40500 23.44600
H  5.86700 0.63900 22.04000
H  10.17200 2.12200 22.71400
H  9.19300 2.14500 21.33800
H  10.47600 0.48700 20.53900
H  9.71700 -0.62200 21.80000
H  11.21000 0.29000 22.08400
H  11.44700 -2.76100 27.59000
H  12.64000 -1.64600 26.75500
H  11.11600 -2.31000 25.91700
H  11.43800 0.79700 31.31200
H  10.09700 -2.22900 34.34100
H  9.44400 -0.56500 34.73100
H  10.90900 -1.14300 35.32600
Mg 24.64700 -8.55400 46.98000
C  27.07400 -6.16400 46.03700
C  22.58200 -7.56500 44.39400
C  22.72600 -11.23700 47.62300
C  27.21700 -9.95700 49.17200
N  24.95000 -7.05000 45.38900
C  25.93500 -6.19000 45.17800
C  25.57200 -5.22400 44.09200
C  24.17000 -5.58100 43.70000
C  23.87000 -6.86400 44.57600
C  22.99900 -4.52100 43.73100
C  26.64900 -5.15300 42.93000
C  27.18800 -3.71300 42.56900
H  27.09200 -3.15800 41.18100
N  22.82300 -9.26900 46.20500
C  22.13000 -8.68900 45.15400
C  20.94500 -9.40600 44.94200
C  20.86000 -10.46800 45.82400
C  22.19200 -10.41400 46.61200
C  20.03700 -8.95600 43.81900
C  19.76200 -11.54500 45.92600
O  18.75700 -11.52400 45.19900
C  19.98900 -12.82500 46.78900
N  25.09200 -10.37200 48.10200
C  23.99900 -11.23100 48.27300
C  24.44700 -12.48400 49.16800
C  25.88000 -12.08700 49.64500
C  26.09900 -10.75400 48.90700
C  23.47400 -12.68100 50.43200
C  27.01000 -13.10900 49.43300
C  27.43300 -14.04500 50.52100
N  26.66700 -8.08900 47.61000
C  27.58700 -8.75100 48.52100
C  28.84200 -8.02600 48.63500
C  28.64600 -6.96100 47.70600
C  27.36500 -7.09200 47.08400
C  29.95200 -8.40400 49.47200
C  29.17500 -5.72800 47.20100
O  30.27800 -5.27200 47.50800
C  28.19700 -5.20700 46.12900
C  27.76200 -3.82400 46.38000
O  26.95700 -3.49900 47.26000
O  28.19500 -2.98600 45.39700
C  28.01300 -1.56600 45.66700
H  21.97300 -7.02200 43.66900
H  22.16100 -12.15900 47.77800
H  27.96800 -10.31700 49.87800
H  25.42100 -4.24700 44.55100
H  24.26200 -5.94600 42.67700
H  23.43900 -3.53500 43.87700
H  22.20900 -4.68500 44.46400
H  22.57500 -4.58900 42.72900
H  26.11300 -5.31900 41.99600
H  27.46600 -5.84700 43.12800
H  28.24700 -3.80100 42.81100
H  26.63800 -3.16400 43.33300
H  20.20000 -7.92400 43.50900
H  19.01800 -9.09300 44.18100
H  20.08700 -9.62400 42.95900
H  20.97700 -13.16000 46.47100
H  19.19600 -13.46100 46.39700
H  19.79700 -12.33600 47.74400
H  24.59400 -13.42700 48.64200
H  25.90800 -11.77200 50.68800
H  22.57000 -13.13400 50.02500
H  23.12100 -11.69900 50.74500
H  23.83100 -13.35800 51.20800
H  27.91700 -12.53600 49.24100
H  26.83400 -13.64900 48.50300
H  26.69500 -13.92200 51.31400
H  28.42500 -13.75100 50.86600
H  27.50300 -15.08200 50.19300
H  30.50300 -9.29000 49.15400
H  29.61700 -8.64900 50.48000
H  30.62500 -7.55300 49.57500
H  28.78100 -5.13100 45.21200
H  28.50700 -1.43300 46.62900
H  26.94600 -1.34600 45.70000
H  28.46600 -0.92700 44.90900

