158

Mg 47.66300 24.78800 28.32500
C  48.69300 27.10600 30.96700
C  46.49900 22.70000 30.78400
C  47.15600 22.65200 25.91600
C  49.19100 27.13100 26.06000
N  47.58600 24.93400 30.54400
C  47.91900 25.96400 31.33000
C  47.41200 25.80200 32.83400
C  46.99800 24.25900 32.80400
C  46.96000 23.90900 31.28700
C  47.98100 23.24100 33.57300
C  46.21100 26.75200 33.33000
C  46.48700 27.62800 34.63400
H  46.76400 26.83900 35.87300
N  46.84200 22.94200 28.31800
C  46.40400 22.26600 29.44500
C  45.89200 21.00200 28.95800
C  46.05600 20.97300 27.54900
C  46.69800 22.19700 27.18000
C  45.39900 19.98800 29.89600
C  45.69300 19.91700 26.52700
O  46.03200 20.04100 25.36700
C  45.01900 18.69800 27.03300
N  48.23800 24.84800 26.35800
C  47.78700 23.85500 25.53200
C  48.18300 24.11600 24.04700
C  48.57800 25.61200 24.10500
C  48.74000 25.90200 25.55300
C  49.40000 23.18100 23.55000
C  47.51400 26.54900 23.37400
C  46.14500 26.45200 23.88300
N  48.85600 26.74200 28.43400
C  49.26700 27.53700 27.38800
C  49.83900 28.76300 27.92700
C  49.66500 28.59300 29.32400
C  49.07900 27.36400 29.56500
C  50.59000 29.86700 27.08600
C  49.87400 29.23800 30.57700
O  50.40800 30.33400 30.77300
C  49.20200 28.32000 31.65300
C  50.08500 28.16100 32.85300
O  51.04100 27.41300 32.88800
O  49.68700 28.99600 33.81500
C  50.31000 28.98800 35.11600
H  46.13400 22.02200 31.55900
H  46.98500 22.02500 25.03700
H  49.53400 27.83900 25.30300
H  48.29500 25.97700 33.45000
H  45.97700 24.06700 33.13400
H  48.95000 23.15900 33.08200
H  47.51400 22.28000 33.79200
H  48.18200 23.65100 34.56300
H  45.34100 26.12700 33.53400
H  45.66900 27.39500 32.63700
H  45.60700 28.23000 34.85900
H  47.37100 28.25100 34.50000
H  46.25900 19.41200 30.23900
H  44.57600 19.34300 29.59000
H  44.96600 20.61700 30.67400
H  45.47900 18.28300 27.93000
H  45.17700 17.89700 26.31000
H  43.96800 18.95900 27.15900
H  47.30100 23.89900 23.44500
H  49.58500 25.70200 23.69700
H  50.34700 23.71500 23.62500
H  49.16400 22.92900 22.51700
H  49.51000 22.30300 24.18800
H  47.50900 26.19500 22.34300
H  47.96800 27.53600 23.46300
H  45.85300 27.35000 24.42800
H  46.00200 25.57500 24.51500
H  45.46100 26.21600 23.06800
H  51.24500 29.38700 26.35900
H  51.37300 30.36700 27.65600
H  49.92800 30.60600 26.63400
H  48.33300 28.88700 31.98800
H  50.42200 30.05100 35.32900
H  51.28100 28.49300 35.11800
H  49.64600 28.63100 35.90400
Mg -11.66400 38.91700 41.92800
C  -9.65700 36.08200 40.69100
C  -9.34800 40.92400 40.25900
C  -13.83200 41.41100 42.24600
C  -13.88800 36.53000 43.17100
N  -9.79800 38.50500 40.55100
C  -9.16600 37.33100 40.18900
C  -7.96900 37.56800 39.30200
C  -7.84100 39.19500 39.24000
C  -9.01700 39.55800 40.10700
C  -6.43900 39.60800 39.69700
C  -8.09300 36.85600 37.91400
C  -6.83700 35.88300 37.65100
H  -5.76900 36.43100 36.60300
N  -11.55400 40.96800 41.39300
C  -10.50100 41.61200 40.78400
C  -10.77400 42.99400 40.80500
C  -12.14300 43.17500 41.26200
C  -12.58800 41.83600 41.69200
C  -9.86700 44.00900 40.34300
C  -12.95600 44.50900 41.20800
O  -12.41100 45.55100 40.74400
C  -14.36900 44.62400 41.76600
N  -13.68500 38.97500 42.36700
C  -14.29400 40.14200 42.65400
C  -15.56700 39.92100 43.50400
C  -15.47500 38.38100 43.79500
C  -14.28800 37.89900 43.05900
C  -15.61300 40.74300 44.79400
C  -16.79200 37.56800 43.52600
C  -17.99300 37.91800 44.43400
N  -11.72700 36.83700 41.99100
C  -12.62700 35.99800 42.66300
C  -12.21700 34.66600 42.55100
C  -11.02800 34.69700 41.80000
C  -10.80900 36.01300 41.43300
C  -12.90700 33.49800 43.32600
C  -10.02600 33.82700 41.18600
O  -9.92800 32.55500 41.19000
C  -8.92000 34.78200 40.68000
C  -7.92000 34.76700 41.75400
O  -8.01600 35.29500 42.85700
O  -6.89800 33.85700 41.51500
C  -5.96500 33.37300 42.54600
H  -8.69500 41.61000 39.71600
H  -14.49700 42.24500 42.47900
H  -14.47700 35.82300 43.75800
H  -7.13600 37.21100 39.90700
H  -7.97000 39.63700 38.25200
H  -6.38800 39.53900 40.78400
H  -6.18400 40.55800 39.22800
H  -5.71300 38.93900 39.23500
H  -7.99100 37.55300 37.08300
H  -9.01600 36.27900 37.95900
H  -7.22500 34.98400 37.17200
H  -6.24000 35.71900 38.54900
H  -9.76000 44.86100 41.01500
H  -10.32300 44.30800 39.40000
H  -8.88600 43.59000 40.12200
H  -15.04400 43.97900 41.20300
H  -14.66300 45.66700 41.65300
H  -14.48400 44.25000 42.78300
H  -16.36200 40.17400 42.80200
H  -15.08300 38.16000 44.78800
H  -16.41600 41.47700 44.73900
H  -14.70000 41.32300 44.93100
H  -15.55900 40.09700 45.66900
H  -16.66800 36.49800 43.69400
H  -17.12200 37.67700 42.49300
H  -18.91000 37.99700 43.85100
H  -17.89600 38.83600 45.01300
H  -18.02500 37.02700 45.06100
H  -13.75900 33.71200 43.97100
H  -12.12000 33.13800 43.98800
H  -13.20700 32.85700 42.49700
H  -8.51100 34.39300 39.74700
H  -5.71300 32.32400 42.39100
H  -6.38300 33.34800 43.55200
H  -5.07900 34.00800 42.55900

