158

Mg 46.65500 24.41000 28.57600
C  47.21600 26.98900 30.88000
C  45.63300 22.33500 31.04800
C  46.57600 22.10700 26.26900
C  47.82900 26.68900 26.06800
N  46.34400 24.69900 30.72100
C  46.61300 25.83300 31.49200
C  46.32800 25.52400 32.96500
C  45.55600 24.10200 32.89900
C  45.89700 23.66900 31.47200
C  45.88700 23.02900 33.92300
C  45.55600 26.65500 33.73000
C  44.50500 26.17400 34.82400
H  44.34400 26.87800 36.21100
N  46.14500 22.46400 28.61200
C  45.79100 21.78600 29.72400
C  45.70400 20.38300 29.35400
C  46.00600 20.20700 28.02500
C  46.25600 21.63600 27.53200
C  45.34700 19.40400 30.50400
C  45.94300 19.03400 27.08200
O  46.19000 19.04500 25.90300
C  45.48200 17.72100 27.65100
N  46.93800 24.49900 26.42800
C  46.80100 23.32500 25.72100
C  47.13300 23.53700 24.26200
C  47.44500 25.08100 24.26000
C  47.44900 25.47200 25.65300
C  48.28800 22.71300 23.67000
C  46.33000 25.90300 23.43900
C  44.95400 25.91400 24.13800
N  47.34500 26.41300 28.45500
C  47.85900 27.16500 27.37600
C  48.40500 28.37100 27.84000
C  48.20000 28.35200 29.22500
C  47.55700 27.12700 29.55800
C  49.13900 29.40300 27.13500
C  48.39700 29.04300 30.44300
O  48.95100 30.09900 30.61500
C  47.72200 28.20200 31.55900
C  48.63900 27.99800 32.64800
O  49.48300 27.12000 32.78800
O  48.34500 28.89700 33.58400
C  48.96100 28.75900 34.91100
H  45.08000 21.72300 31.76400
H  46.66300 21.34700 25.49000
H  48.20200 27.32600 25.26400
H  47.28000 25.47700 33.49200
H  44.49100 24.32100 32.96700
H  46.70700 22.35700 33.66800
H  45.08600 22.41000 34.32800
H  46.24900 23.60200 34.77600
H  45.21900 27.49100 33.11700
H  46.39800 27.04100 34.30300
H  44.68600 25.11700 35.02200
H  43.53700 26.12700 34.32700
H  44.32300 19.50800 30.86200
H  46.11300 19.48400 31.27600
H  45.35500 18.39000 30.10400
H  45.19000 16.96800 26.92000
H  44.60200 17.98300 28.23900
H  46.27300 17.31900 28.28400
H  46.19400 23.47300 23.71200
H  48.46400 25.31300 23.95000
H  47.94000 22.10500 22.83500
H  48.59500 22.08000 24.50200
H  49.21400 23.19300 23.35200
H  46.21200 25.35200 22.50500
H  46.70300 26.91200 23.26300
H  44.99700 26.54400 25.02600
H  44.77200 24.88100 24.43500
H  44.16700 26.43200 23.59100
H  48.69200 29.63800 26.16900
H  50.14400 28.99800 27.01700
H  49.21800 30.20200 27.87100
H  46.86200 28.74100 31.95800
H  49.96800 29.16200 34.80300
H  48.89400 27.74100 35.29500
H  48.49600 29.42000 35.64200
Mg 41.97800 41.21000 26.92900
C  40.65400 43.43900 29.13500
C  42.11000 38.80100 29.44800
C  43.58600 39.07700 24.83600
C  42.00600 43.65600 24.47500
N  41.36900 41.11800 28.99100
C  40.85300 42.18900 29.71100
C  40.80400 41.94000 31.27300
C  41.22900 40.46400 31.31200
C  41.63800 40.06600 29.83000
C  42.32200 40.13300 32.32700
C  39.41000 42.15300 31.94100
C  39.30700 42.64200 33.43100
H  38.53300 41.80700 34.49000
N  42.71400 39.21400 27.10200
C  42.55100 38.38200 28.17200
C  43.01900 37.02300 27.78600
C  43.43400 37.11800 26.42100
C  43.22800 38.51300 26.08900
C  42.96600 35.76600 28.76400
C  43.94600 36.01800 25.45600
O  44.15500 36.11500 24.23800
C  43.98000 34.54100 25.95700
N  42.57600 41.33400 24.84100
C  43.20200 40.30800 24.17100
C  43.68100 40.70900 22.79000
C  42.94900 42.06500 22.58200
C  42.51800 42.44500 24.07200
C  45.22100 40.81900 22.68900
C  41.71300 42.04300 21.60300
C  40.40800 41.36100 22.05800
N  41.43100 43.20300 26.80600
C  41.55400 44.06300 25.74700
C  41.15600 45.34300 26.17500
C  40.65700 45.17500 27.52200
C  40.94100 43.84600 27.87000
C  41.31600 46.60800 25.33900
C  40.14800 45.78600 28.71400
O  39.81500 46.96700 28.88600
C  40.20800 44.74300 29.85500
C  41.23500 45.34600 30.76500
O  42.34200 45.66500 30.51800
O  40.68900 45.69500 32.01600
C  41.57800 46.28100 33.00800
H  42.05700 38.08800 30.27300
H  44.15300 38.46000 24.13600
H  42.12600 44.40100 23.68600
H  41.52400 42.59000 31.77000
H  40.36900 39.82000 31.50100
H  42.50200 40.89400 33.08700
H  43.30800 40.07200 31.86500
H  42.11100 39.17800 32.80800
H  38.90400 41.18900 32.00200
H  38.82500 42.78500 31.27300
H  38.68900 43.52900 33.29800
H  40.30800 42.92100 33.75900
H  42.61700 34.96700 28.11000
H  42.25200 35.97100 29.56200
H  43.88700 35.71000 29.34500
H  44.52800 33.92600 25.24300
H  42.92900 34.25400 25.99000
H  44.56400 34.50100 26.87700
H  43.34200 40.06600 21.97800
H  43.64900 42.85600 22.31000
H  45.64800 41.79000 22.43800
H  45.57800 40.17900 21.88200
H  45.68200 40.50200 23.62400
H  41.99000 41.44100 20.73800
H  41.62200 43.07500 21.26600
H  40.60300 40.46600 22.64900
H  39.81700 41.03800 21.20100
H  39.80600 42.11300 22.56700
H  40.44100 46.62300 24.69000
H  42.27400 46.77000 24.84500
H  41.21200 47.46300 26.00800
H  39.29800 44.67700 30.45100
H  42.07200 45.47100 33.54500
H  41.04800 46.80600 33.80200
H  42.26500 47.05000 32.65300

