158

Mg 8.02500 2.77300 27.51600
C  9.54600 1.09700 30.25100
C  6.32500 4.51700 29.59100
C  6.30500 3.56300 24.80300
C  9.93100 0.33300 25.43500
N  7.98500 2.71000 29.66600
C  8.71600 2.06700 30.62500
C  8.65900 2.81100 31.99500
C  7.47800 3.77400 31.76300
C  7.23300 3.65800 30.23400
C  6.20800 3.27200 32.56200
C  10.04400 3.52600 32.44300
C  10.75100 3.09300 33.71200
H  10.68000 4.05100 34.92400
N  6.55200 4.04000 27.20900
C  5.87900 4.68600 28.25000
C  4.83500 5.54500 27.68400
C  4.79200 5.19100 26.28100
C  5.95600 4.24500 25.98300
C  3.93200 6.52900 28.62000
C  3.79200 5.69300 25.30000
O  3.78600 5.39800 24.09400
C  2.63200 6.59900 25.82100
N  8.22700 2.11900 25.38200
C  7.32800 2.59800 24.50800
C  7.65600 1.96400 23.11500
C  9.00600 1.26400 23.25000
C  9.06400 1.23700 24.74600
C  6.40400 1.15500 22.70500
C  10.23800 2.06300 22.56100
C  11.41400 1.13800 22.20900
N  9.40900 1.05700 27.72500
C  10.05300 0.20000 26.84200
C  10.78000 -0.81400 27.53000
C  10.70200 -0.45300 28.87800
C  9.82700 0.63400 28.94100
C  11.69000 -1.92300 26.92100
C  11.20500 -0.80700 30.16900
O  11.94300 -1.64000 30.64900
C  10.47900 0.20300 31.15300
C  9.56200 -0.48800 32.12400
O  8.46000 -1.06000 31.89500
O  10.13200 -0.41400 33.39000
C  9.42200 -0.92100 34.66000
H  5.93700 5.34400 30.18900
H  5.71700 3.91900 23.95500
H  10.48200 -0.33800 24.77300
H  8.37200 2.00000 32.66400
H  7.72100 4.77800 32.11200
H  5.40200 2.83500 31.97400
H  5.83700 4.14200 33.10400
H  6.44800 2.61500 33.39900
H  9.77300 4.55400 32.68400
H  10.74500 3.50100 31.60800
H  11.78300 2.80700 33.51200
H  10.15900 2.22300 33.99700
H  4.03600 7.50500 28.14500
H  4.20200 6.60900 29.67300
H  2.90600 6.17100 28.54200
H  1.93200 6.71300 24.99300
H  2.96400 7.47000 26.38500
H  2.09100 5.94600 26.50600
H  7.80100 2.76500 22.38900
H  8.86400 0.22900 22.93800
H  5.66600 1.12400 23.50700
H  6.63700 0.12100 22.45000
H  5.92800 1.59700 21.83000
H  10.49600 2.83600 23.28400
H  9.88700 2.50900 21.63000
H  11.46600 0.98600 21.13000
H  11.33400 0.22200 22.79400
H  12.33400 1.70600 22.34600
H  11.19700 -2.33800 26.04200
H  11.73300 -2.68200 27.70300
H  12.68300 -1.52700 26.70600
H  11.14600 0.80400 31.77200
H  8.68500 -1.68100 34.39800
H  9.06800 0.01000 35.10200
H  10.15400 -1.31700 35.36300
Mg 35.06400 3.26400 29.22300
C  32.89700 4.13700 31.82400
C  37.63100 3.26000 31.44100
C  37.03600 2.10800 26.68100
C  32.42800 3.68800 26.99500
N  35.23000 3.59400 31.40200
C  34.18800 3.91900 32.27700
C  34.68700 3.81000 33.69600
C  36.26200 3.90900 33.53900
C  36.43200 3.61100 32.01500
C  36.92800 5.32500 33.97200
C  34.29400 2.54900 34.43900
C  33.61600 2.89700 35.80900
H  34.21400 4.01900 36.69000
N  37.09500 2.73700 29.05600
C  37.99400 2.75700 30.19200
C  39.23800 2.17800 29.77900
C  39.10900 1.83600 28.37100
C  37.73100 2.21000 27.95000
C  40.44600 2.12600 30.68000
C  40.10700 1.27800 27.32900
O  39.89800 0.95200 26.17300
C  41.52400 0.97100 27.82300
N  34.82400 3.07200 27.20500
C  35.76100 2.54500 26.30500
C  35.33200 2.66500 24.85300
C  33.86100 2.98800 25.05300
C  33.66000 3.25600 26.53500
C  36.17600 3.84600 24.05100
C  32.85600 1.90900 24.43200
C  32.25600 0.82000 25.31500
N  33.18100 3.91500 29.32700
C  32.16300 3.98500 28.35200
C  30.90600 4.32600 28.88900
C  31.07600 4.33700 30.28400
C  32.52200 4.10000 30.46900
C  29.63300 4.64600 28.15300
C  30.48900 4.46300 31.61200
O  29.32700 4.72900 31.91400
C  31.69300 4.39200 32.59200
C  31.71200 5.65700 33.29600
O  32.03300 6.78800 32.92900
O  31.33100 5.43600 34.67200
C  30.97000 6.64600 35.43100
H  38.33500 3.27600 32.27600
H  37.61100 1.78600 25.81000
H  31.70400 3.83100 26.19100
H  34.31800 4.73100 34.14800
H  36.77900 3.11500 34.07700
H  36.19900 5.97800 34.45300
H  37.35400 5.93100 33.17300
H  37.69100 5.12200 34.72400
H  35.16500 1.89800 34.51900
H  33.58400 1.96500 33.85400
H  33.61600 2.06000 36.50800
H  32.64000 3.23900 35.46600
H  40.78600 1.11000 30.88200
H  40.24000 2.55000 31.66300
H  41.17800 2.77100 30.19500
H  42.08700 1.85500 28.12000
H  42.13000 0.66800 26.97000
H  41.54200 0.05000 28.40700
H  35.44600 1.76700 24.24700
H  33.70800 3.90200 24.48000
H  35.66000 4.80500 24.00800
H  36.43800 3.45900 23.06600
H  37.12800 4.09300 24.52100
H  33.22900 1.38200 23.55400
H  32.01300 2.52800 24.12400
H  32.98500 0.39800 26.00700
H  32.03100 -0.02500 24.66400
H  31.32500 1.17600 25.75600
H  28.88400 4.58200 28.94300
H  29.48000 3.87400 27.39900
H  29.68300 5.60400 27.63500
H  31.57000 3.53700 33.25700
H  30.08100 7.19200 35.11700
H  31.77900 7.37400 35.49600
H  30.84100 6.26300 36.44400

