158

Mg 54.29500 24.59900 44.29200
C  51.57600 26.90700 43.73800
C  52.29000 22.23000 43.44400
C  57.01400 22.59400 44.10300
C  56.25000 27.45400 44.69900
N  52.16600 24.62600 43.57600
C  51.21100 25.54600 43.46200
C  49.87700 24.97500 42.93600
C  50.10200 23.48300 43.17100
C  51.61100 23.40300 43.44800
C  49.29800 22.73100 44.30500
C  49.69100 25.21200 41.42700
C  48.16500 25.14900 40.99000
H  47.95400 24.71100 39.55900
N  54.61200 22.65900 43.86000
C  53.64300 21.78500 43.55900
C  54.14800 20.47300 43.46500
C  55.55600 20.63000 43.58000
C  55.83000 22.03100 43.81400
C  53.26000 19.23500 43.24200
C  56.59800 19.49900 43.48300
O  56.21800 18.36500 43.26500
C  58.14400 19.63400 43.59700
N  56.42500 25.00600 44.30800
C  57.33700 23.96000 44.39100
C  58.76200 24.49400 44.54700
C  58.40300 26.06500 44.80100
C  56.92000 26.21500 44.60700
C  59.44200 23.84200 45.77900
C  59.16100 27.05100 43.85500
C  59.77600 28.30500 44.59400
N  54.04400 26.78200 44.30700
C  54.92700 27.73400 44.48900
C  54.33600 29.04400 44.42200
C  53.00700 28.74100 44.14300
C  52.90800 27.38700 44.06600
C  54.86700 30.36700 44.69700
C  51.67700 29.30500 43.95300
O  51.24600 30.43700 44.04500
C  50.69000 28.20000 43.79500
C  50.08400 28.54400 42.50700
O  50.69500 28.39600 41.44100
O  48.78000 28.88200 42.58400
C  48.21600 29.49700 41.38900
H  51.67900 21.32600 43.45900
H  57.84300 21.89300 44.21800
H  56.94400 28.27200 44.90500
H  49.00300 25.44600 43.38700
H  49.96600 22.94100 42.23500
H  49.88200 22.23500 45.08100
H  48.65700 22.03500 43.76300
H  48.69900 23.44500 44.87000
H  50.17800 24.43100 40.84400
H  50.13300 26.14700 41.08100
H  47.85600 26.18400 41.13400
H  47.61200 24.39600 41.55200
H  53.02500 19.09500 42.18600
H  52.34600 19.36800 43.82000
H  53.82200 18.39000 43.63800
H  58.45500 20.37900 42.86500
H  58.59500 18.66000 43.40600
H  58.39600 19.85800 44.63300
H  59.21700 24.42300 43.55900
H  58.66800 26.22100 45.84600
H  58.75500 23.08400 46.15300
H  59.54900 24.58300 46.57200
H  60.38300 23.34600 45.54000
H  58.49900 27.44300 43.08300
H  59.98100 26.47600 43.42400
H  59.45100 29.20200 44.06700
H  60.84900 28.18000 44.44700
H  59.60300 28.26500 45.67000
H  55.19300 30.59500 45.71200
H  54.06600 31.06900 44.46400
H  55.72000 30.58700 44.05500
H  50.00200 28.18800 44.64000
H  47.25500 29.94000 41.65000
H  48.04100 28.69800 40.66800
H  48.87000 30.25900 40.96600
Mg 9.79400 47.98500 25.80500
C  7.38600 47.88400 28.35800
C  12.12600 49.08000 27.99800
C  11.79100 48.79700 23.20300
C  7.21100 47.30600 23.48000
N  9.72800 48.35600 27.89500
C  8.66900 48.34000 28.77100
C  9.18500 48.60600 30.25600
C  10.52100 49.36700 29.95200
C  10.87900 48.81800 28.54500
C  10.46400 50.98800 30.05000
C  9.50400 47.29400 30.99500
C  9.12700 47.47700 32.49700
H  9.23000 46.17800 33.34300
N  11.78000 48.54200 25.59300
C  12.60800 48.97700 26.60800
C  13.94500 49.33300 26.09000
C  13.89600 48.97900 24.67100
C  12.46300 48.84000 24.40200
C  15.18000 49.74700 26.93000
C  14.96700 48.86200 23.67600
O  14.80000 48.50900 22.49300
C  16.35900 49.00600 24.19600
N  9.42900 48.12900 23.71300
C  10.45900 48.41700 22.92800
C  10.09400 48.14700 21.44400
C  8.79800 47.38900 21.55000
C  8.44400 47.62200 23.00200
C  10.05200 49.46200 20.55800
C  8.75600 45.92400 21.07300
C  7.91900 45.72700 19.77500
N  7.64400 47.69000 25.89700
C  6.75600 47.40400 24.83700
C  5.39300 47.17000 25.41500
C  5.64300 47.30400 26.82300
C  6.95800 47.59500 27.03200
C  4.09700 46.86500 24.55900
C  4.95100 47.24900 28.08000
O  3.83500 46.97800 28.45400
C  6.12800 47.64900 29.17400
C  6.25300 46.43100 29.94100
O  6.80300 45.38300 29.64500
O  5.46700 46.58900 30.97400
C  5.36600 45.46000 31.92200
H  12.96200 49.38700 28.63000
H  12.46800 49.14500 22.42000
H  6.49300 46.98200 22.72300
H  8.61100 49.24400 30.92700
H  11.33300 49.03000 30.59600
H  10.60900 51.35500 29.03300
H  11.07900 51.27400 30.90400
H  9.41800 51.18900 30.28200
H  10.56400 47.05100 30.92200
H  9.08800 46.41000 30.51200
H  8.07300 47.74300 32.57700
H  9.80100 48.23600 32.89500
H  14.72200 50.03800 27.87500
H  15.64900 50.64300 26.52100
H  15.96800 49.01100 27.09000
H  16.53700 50.00300 24.59900
H  16.99700 48.74600 23.35200
H  16.47600 48.29600 25.01500
H  10.84500 47.49500 20.99600
H  8.01700 47.98300 21.07700
H  9.07900 49.57700 20.08000
H  10.76100 49.26800 19.75400
H  10.43000 50.34300 21.07800
H  8.33900 45.21900 21.79300
H  9.81100 45.68000 20.95100
H  7.21700 44.90000 19.87700
H  8.61100 45.57600 18.94700
H  7.34100 46.59000 19.44400
H  3.81700 45.84200 24.80900
H  4.31400 46.86900 23.49100
H  3.43600 47.68200 24.84800
H  6.00800 48.52000 29.81800
H  5.03800 45.93000 32.84900
H  6.28300 44.91100 32.13400
H  4.59200 44.77200 31.58000

