158

Mg 46.50700 25.68800 28.64600
C  47.88300 27.78300 31.24200
C  45.57900 23.47100 31.21100
C  45.95500 23.49600 26.29800
C  48.09200 27.81300 26.34600
N  46.78900 25.65300 30.97900
C  47.16000 26.71600 31.74000
C  46.80300 26.43200 33.27100
C  46.40300 24.88700 33.18800
C  46.17100 24.67900 31.69500
C  47.41000 23.93300 33.84200
C  45.75200 27.49900 33.84000
C  46.21600 28.25900 35.13500
H  45.31200 28.02700 36.37100
N  45.75100 23.75300 28.74300
C  45.44000 23.00900 29.79900
C  44.89300 21.79100 29.29100
C  45.07600 21.72400 27.89200
C  45.66000 22.98500 27.59200
C  44.38800 20.60600 30.19400
C  44.56800 20.68400 26.87600
O  44.71500 20.96200 25.67700
C  43.85100 19.36400 27.28200
N  46.99700 25.68100 26.54600
C  46.61100 24.60900 25.81500
C  47.16700 24.81600 24.30600
C  47.52900 26.30100 24.31000
C  47.59900 26.65500 25.81800
C  48.27500 23.77600 23.84700
C  46.61700 27.17300 23.32400
C  47.33300 27.69100 22.04500
N  47.58700 27.47100 28.70200
C  48.14400 28.22600 27.72600
C  48.80500 29.41800 28.18800
C  48.79200 29.26400 29.61300
C  48.03400 28.09100 29.87100
C  49.47500 30.38200 27.22400
C  49.21100 29.91600 30.86700
O  49.88600 30.89300 31.05600
C  48.52000 28.92800 31.94900
C  49.51700 28.47500 33.04100
O  50.30800 27.56900 32.86100
O  49.30900 29.18500 34.21000
C  50.08700 28.64400 35.42700
H  45.25700 22.77800 31.99100
H  45.80900 22.89400 25.39900
H  48.39500 28.50700 25.56000
H  47.67900 26.52400 33.91200
H  45.46200 24.91600 33.73700
H  48.39700 24.28900 33.54600
H  47.29100 22.89600 33.53000
H  47.35600 24.03000 34.92600
H  44.84600 26.93000 34.04800
H  45.51500 28.26500 33.10200
H  46.27900 29.28800 34.78200
H  47.17000 27.95200 35.56200
H  43.41400 20.33500 29.78600
H  44.38100 20.86400 31.25300
H  44.97400 19.68900 30.12300
H  44.50700 18.81100 27.95400
H  43.84800 18.75100 26.38100
H  42.79200 19.46200 27.52400
H  46.40300 24.74200 23.53200
H  48.57800 26.46300 24.05900
H  47.71100 23.11700 23.18700
H  48.70000 23.30200 24.73200
H  49.09700 24.38600 23.47200
H  46.20300 27.98200 23.92700
H  45.81700 26.51100 22.99300
H  48.40300 27.49900 22.12300
H  47.21500 28.77200 22.11600
H  46.86500 27.40800 21.10200
H  49.68900 31.31900 27.73700
H  48.77000 30.57600 26.41600
H  50.28200 29.79800 26.78100
H  47.67600 29.41700 32.43400
H  50.64700 27.72600 35.24800
H  49.38900 28.38800 36.22500
H  50.73200 29.50000 35.62400
Mg 48.46800 35.59600 27.46800
C  46.58000 34.11200 30.08200
C  48.92200 38.30900 29.60300
C  50.12700 37.24100 25.03700
C  47.67200 33.05400 25.31600
N  47.72200 36.11600 29.63000
C  47.27100 35.23700 30.55100
C  47.43200 35.72500 31.95400
C  47.69700 37.27100 31.59700
C  48.20500 37.26600 30.17600
C  46.42200 38.13400 31.71000
C  48.65100 35.02200 32.58600
C  48.70500 34.98600 34.09900
H  47.62600 35.69500 34.83100
N  49.47000 37.47600 27.36900
C  49.52600 38.43900 28.28800
C  50.26700 39.50100 27.83700
C  50.84000 39.10300 26.59000
C  50.10500 37.94700 26.24100
C  50.47500 40.81100 28.60700
C  51.79400 39.81300 25.68900
O  52.22300 39.36400 24.65900
C  52.58400 40.98200 26.28900
N  49.06700 35.08500 25.48500
C  49.64100 35.95600 24.70500
C  49.59900 35.48600 23.23400
C  48.98400 34.09100 23.32100
C  48.54500 34.04400 24.81900
C  48.93200 36.48900 22.24200
C  50.01800 32.92700 23.15400
C  50.04000 32.11400 21.86600
N  47.35400 33.86800 27.61300
C  47.07800 32.95200 26.64500
C  46.19200 31.96000 27.22600
C  45.91500 32.37600 28.53100
C  46.70100 33.52800 28.74100
C  45.62400 30.86200 26.39900
C  45.24500 32.05300 29.75400
O  44.54800 31.08200 30.08900
C  45.55200 33.24400 30.77700
C  45.91200 32.68000 32.13200
O  46.89700 31.91200 32.38900
O  44.95300 33.06200 33.06000
C  45.08200 32.52900 34.45600
H  49.13400 39.18500 30.21900
H  50.50600 37.82300 24.19400
H  47.36900 32.28300 24.60500
H  46.52400 35.50200 32.51400
H  48.45900 37.61800 32.29500
H  45.53700 37.58600 32.03300
H  46.32300 38.66100 30.76000
H  46.71900 38.86000 32.46700
H  49.57200 35.34800 32.10200
H  48.56200 34.00900 32.19300
H  49.51800 35.60500 34.48100
H  48.84200 33.95700 34.43300
H  50.46500 41.60800 27.86400
H  51.43200 40.84900 29.12700
H  49.63600 40.93600 29.29300
H  51.90300 41.83000 26.36500
H  53.32200 41.48300 25.66200
H  53.01100 40.73900 27.26200
H  50.63800 35.43600 22.90700
H  48.04000 33.86500 22.82400
H  48.14800 36.02100 21.64700
H  49.67300 36.80600 21.50700
H  48.57400 37.34700 22.80900
H  49.96800 32.27500 24.02600
H  50.99300 33.40900 23.23000
H  49.30100 32.53200 21.18300
H  49.77600 31.06600 22.00900
H  51.02700 32.24300 21.42200
H  46.33400 30.32300 25.77200
H  44.85500 31.26600 25.74100
H  45.05000 30.18200 27.02900
H  44.64600 33.84500 30.86000
H  44.43900 31.66900 34.64400
H  44.69200 33.30900 35.10900
H  46.11300 32.35100 34.76200

