158

Mg 0.23600 7.31100 26.34400
C  1.10100 9.32800 29.03900
C  -0.00200 4.52200 28.49400
C  -0.40100 5.39100 23.69000
C  0.62400 10.10900 24.26000
N  0.54100 7.05500 28.47500
C  0.84100 8.01500 29.43400
C  0.81900 7.40400 30.78800
C  0.73100 5.90200 30.56400
C  0.31700 5.81200 29.06000
C  2.06800 5.12500 30.84800
C  -0.47300 7.93400 31.56400
C  -0.48500 7.82400 33.16700
H  0.72900 7.15900 33.77000
N  -0.06700 5.20000 26.08800
C  -0.15100 4.25800 27.05600
C  -0.41500 2.94900 26.44000
C  -0.45000 3.20300 25.07800
C  -0.27400 4.62600 24.87700
C  -0.58800 1.60400 27.17600
C  -0.64800 2.19500 23.88400
O  -0.55800 2.51900 22.71100
C  -0.92800 0.73600 24.24800
N  0.29500 7.65800 24.30900
C  -0.21000 6.75800 23.46700
C  -0.40100 7.28500 22.02500
C  -0.41000 8.80300 22.31200
C  0.18100 8.89500 23.69100
C  0.87600 6.82800 21.14800
C  -1.85200 9.43800 22.20400
C  -2.00900 10.30800 20.92600
N  0.78000 9.34900 26.52600
C  0.96900 10.33400 25.60700
C  1.33500 11.55000 26.26900
C  1.48400 11.22600 27.60600
C  1.03800 9.83700 27.71200
C  1.57600 12.88400 25.59100
C  1.72900 11.72300 28.93700
O  1.92500 12.88900 29.29300
C  1.47000 10.47000 29.94600
C  2.79900 10.18400 30.60000
O  3.59700 9.35400 30.23800
O  2.78300 10.81500 31.85900
C  3.74500 10.24400 32.85200
H  0.02400 3.66300 29.16800
H  -0.50100 4.79200 22.78200
H  0.69200 10.95200 23.56900
H  1.66100 7.80000 31.35500
H  -0.01700 5.44200 31.20800
H  2.73600 5.77200 31.41600
H  2.59200 4.97000 29.90400
H  1.88900 4.15600 31.31200
H  -1.33500 7.46100 31.09400
H  -0.60800 9.00300 31.39900
H  -1.44100 7.34300 33.37400
H  -0.58300 8.89400 33.34900
H  0.12000 0.83100 26.87700
H  -1.61900 1.26600 27.07000
H  -0.40800 1.69700 28.24700
H  -1.84500 0.69600 24.83700
H  -0.10800 0.17300 24.69300
H  -1.16000 0.20800 23.32300
H  -1.30800 6.93000 21.53600
H  0.23700 9.29300 21.58500
H  1.77700 6.77900 21.75900
H  0.94000 7.49800 20.29100
H  0.69100 5.79800 20.84300
H  -2.01800 10.12700 23.03200
H  -2.66900 8.71700 22.19300
H  -1.16000 10.14900 20.26200
H  -2.01500 11.35500 21.23200
H  -2.93000 10.05600 20.40100
H  0.70400 13.49800 25.81700
H  1.55000 12.76100 24.50900
H  2.35600 13.48200 26.06200
H  0.74200 10.88400 30.64500
H  3.75400 9.15800 32.95100
H  3.56000 10.64700 33.84800
H  4.79600 10.43800 32.63500
Mg 16.43500 -2.11900 28.26200
C  15.45900 0.06000 30.73900
C  18.21900 -4.01100 30.59800
C  17.74000 -4.00000 25.73100
C  15.02400 0.01600 25.84900
N  16.86200 -2.00100 30.34300
C  16.29300 -1.01400 31.13100
C  16.82300 -1.13500 32.57900
C  17.84200 -2.32300 32.47200
C  17.62800 -2.82000 31.00600
C  19.32300 -1.97300 32.65000
C  15.67800 -1.42700 33.57100
C  15.88800 -0.76900 34.96300
H  17.31500 -0.20900 35.34000
N  17.72100 -3.83800 28.22900
C  18.27800 -4.54500 29.26700
C  18.97600 -5.76700 28.82200
C  18.86900 -5.64500 27.36600
C  18.10100 -4.44500 27.01400
C  19.45500 -6.82000 29.77600
C  19.40500 -6.66100 26.37200
O  19.31900 -6.52300 25.14900
C  20.27800 -7.78900 26.83500
N  16.44600 -1.93700 26.08500
C  17.03800 -2.83600 25.35500
C  16.71100 -2.58300 23.83500
C  15.82300 -1.31000 23.85300
C  15.71500 -1.05000 25.32200
C  18.11700 -2.40400 23.13200
C  14.42100 -1.58000 23.11800
C  14.60900 -2.00600 21.66900
N  15.23500 -0.38100 28.24800
C  14.74100 0.38700 27.21600
C  14.11500 1.54700 27.83200
C  14.30600 1.41200 29.15900
C  15.05500 0.25800 29.37600
C  13.55400 2.70700 27.09200
C  14.04600 1.99600 30.50600
O  13.27000 2.91400 30.88500
C  14.84100 1.15400 31.60100
C  15.82500 2.07100 32.40400
O  16.86500 2.58800 32.00200
O  15.25800 2.44100 33.55600
C  15.93900 3.50200 34.27900
H  18.83700 -4.60400 31.27500
H  18.04400 -4.51300 24.81700
H  14.50700 0.53100 25.03600
H  17.36800 -0.24700 32.89700
H  17.55400 -3.14900 33.12300
H  19.92600 -2.22200 31.77700
H  19.71000 -2.45000 33.55000
H  19.48400 -0.92900 32.91900
H  15.53600 -2.50600 33.62500
H  14.77400 -1.00200 33.13600
H  15.53600 -1.47700 35.71300
H  15.25200 0.08500 35.19700
H  19.97200 -7.68800 29.36500
H  18.60100 -7.08000 30.40100
H  20.06800 -6.35600 30.54900
H  20.75400 -8.31000 26.00400
H  19.61000 -8.50900 27.30700
H  21.12400 -7.48500 27.45200
H  16.28900 -3.48900 23.40000
H  16.35000 -0.56000 23.26400
H  18.23800 -3.19000 22.38700
H  18.89100 -2.31400 23.89500
H  18.14400 -1.41600 22.67200
H  13.87200 -0.63900 23.16300
H  13.82100 -2.31400 23.65700
H  13.88500 -1.44100 21.08100
H  14.58000 -3.08400 21.51000
H  15.64600 -1.73600 21.47000
H  13.90500 3.64000 27.53200
H  12.47400 2.83100 27.00500
H  14.04000 2.85700 26.12800
H  14.02700 0.77800 32.22100
H  16.02700 4.30300 33.54500
H  16.88700 3.21200 34.73400
H  15.24900 3.78200 35.07500

