158

Mg 9.08900 3.98000 27.68800
C  10.40100 2.25600 30.47500
C  7.27200 5.79000 29.87800
C  7.41600 5.29000 25.09800
C  10.55000 1.69800 25.58800
N  9.01900 4.12100 29.94100
C  9.64200 3.33100 30.88600
C  9.42300 3.82700 32.29100
C  8.21900 4.80500 32.05100
C  8.07900 4.88900 30.50800
C  6.83000 4.51300 32.71700
C  10.68800 4.55100 32.83100
C  11.08200 4.06800 34.28000
H  10.93600 5.09200 35.46500
N  7.50500 5.36500 27.52700
C  6.89400 6.03200 28.52500
C  5.98300 7.06600 28.01000
C  6.14400 6.93300 26.57800
C  7.03600 5.80200 26.33700
C  5.03600 7.86100 28.89600
C  5.46300 7.80700 25.50800
O  5.67500 7.59000 24.31000
C  4.46500 8.90200 25.92400
N  8.82700 3.43100 25.51200
C  8.23400 4.24100 24.67700
C  8.58500 3.94700 23.24500
C  9.68700 2.76600 23.36500
C  9.69800 2.66200 24.91800
C  7.43400 3.74000 22.32700
C  11.08900 3.10800 22.77200
C  11.78500 1.94500 21.98300
N  10.22800 2.28600 27.93000
C  10.80300 1.47400 26.97000
C  11.54600 0.39900 27.69400
C  11.41600 0.66600 29.07300
C  10.58200 1.75800 29.14200
C  12.29100 -0.68500 27.12700
C  11.74000 0.27800 30.38100
O  12.30300 -0.68200 30.84300
C  11.07600 1.31500 31.43200
C  10.22000 0.58400 32.42300
O  9.10700 0.15000 32.15100
O  10.86900 0.55700 33.66000
C  10.11800 -0.16400 34.74800
H  6.75700 6.47500 30.55500
H  7.01300 5.74700 24.19200
H  11.11400 1.00800 24.95700
H  9.02000 3.07900 32.97300
H  8.60600 5.74700 32.43900
H  6.75200 4.76300 33.77500
H  6.70600 3.44000 32.57100
H  5.99000 5.00400 32.22400
H  10.55800 5.62700 32.94700
H  11.57000 4.43400 32.20100
H  12.10400 3.70300 34.17600
H  10.50700 3.20400 34.61100
H  4.04500 7.81700 28.44400
H  5.38300 8.88400 28.75400
H  5.08800 7.55400 29.94000
H  3.45400 8.49800 25.98300
H  4.40600 9.56100 25.05800
H  4.83100 9.52000 26.74400
H  9.05600 4.78700 22.73400
H  9.22400 1.85100 22.99300
H  8.04000 3.42100 21.47800
H  6.85900 4.64800 22.14500
H  6.72500 2.97500 22.64300
H  11.58800 3.53600 23.64200
H  10.97900 3.94900 22.08700
H  11.06900 1.14400 22.16900
H  12.80000 1.68400 22.28000
H  11.88600 2.32900 20.96800
H  12.83000 -0.32100 26.25300
H  11.65200 -1.46800 26.72000
H  13.17900 -1.06400 27.63400
H  11.92500 1.83800 31.87100
H  9.36000 -0.85400 34.37900
H  9.55600 0.57000 35.32600
H  10.93600 -0.62700 35.30000
Mg 42.39700 41.69400 26.14000
C  41.79000 44.03300 28.62000
C  43.59100 39.51500 28.54700
C  43.24600 39.62800 23.55400
C  41.55900 44.12700 23.70100
N  42.44600 41.72100 28.35800
C  42.26700 42.80200 29.18200
C  42.34900 42.41900 30.67500
C  43.28200 41.16700 30.57500
C  43.01100 40.72800 29.06400
C  44.74100 41.25700 30.99500
C  40.99500 42.27300 31.48000
C  40.60000 43.34700 32.48400
H  41.50300 43.61800 33.71600
N  43.24500 39.81200 26.13000
C  43.66100 39.10100 27.18000
C  44.10200 37.82500 26.66800
C  43.97600 37.79600 25.26500
C  43.43200 39.12100 24.86300
C  44.63100 36.74000 27.58400
C  44.33500 36.69400 24.27600
O  44.07000 36.74000 23.04900
C  45.03900 35.39700 24.70600
N  42.25900 41.77700 24.01800
C  42.70000 40.84200 23.16800
C  42.67000 41.30700 21.70500
C  41.78500 42.54000 21.80400
C  41.82100 42.83900 23.32600
C  44.06700 41.54900 21.05300
C  40.29500 42.34400 21.46800
C  39.60200 41.16500 22.09500
N  41.78300 43.60800 26.15400
C  41.60100 44.49800 25.05700
C  41.30700 45.82000 25.59500
C  41.28400 45.59900 27.00900
C  41.64700 44.27200 27.28200
C  41.04000 47.10100 24.85700
C  41.06500 46.31600 28.27700
O  40.67600 47.46300 28.49600
C  41.32900 45.32300 29.40100
C  42.36100 45.87800 30.34500
O  43.52300 45.53400 30.39700
O  41.81500 46.92600 31.08600
C  42.79800 47.50900 32.02200
H  43.92600 38.77100 29.27200
H  43.55700 39.05200 22.68000
H  41.20200 44.89300 23.01000
H  42.93900 43.17400 31.19400
H  42.94700 40.32600 31.18200
H  45.03800 42.28200 31.21600
H  45.31700 40.74500 30.22400
H  44.89700 40.66300 31.89500
H  40.76000 41.32100 31.95500
H  40.32800 42.32900 30.61900
H  39.57700 43.11900 32.78400
H  40.63200 44.32400 32.00200
H  45.72000 36.70700 27.58200
H  44.28300 35.78800 27.18300
H  44.43900 36.86400 28.64900
H  45.26800 34.91200 23.75600
H  44.43800 34.65400 25.23000
H  45.93200 35.80500 25.17900
H  42.07100 40.49900 21.28800
H  42.23500 43.40000 21.31000
H  44.30200 42.49600 20.56800
H  44.12700 40.75400 20.31000
H  44.87900 41.24600 21.71500
H  40.20000 42.26600 20.38500
H  39.70600 43.23300 21.69600
H  38.65600 41.51100 22.51300
H  40.17200 40.68100 22.88800
H  39.37100 40.44300 21.31200
H  41.44900 47.13700 23.84700
H  41.37900 47.96600 25.42700
H  39.95200 47.16200 24.84000
H  40.37400 45.20300 29.91300
H  43.22600 46.77300 32.70200
H  42.11400 48.11000 32.62100
H  43.58700 48.02100 31.47100

