158

Mg 8.68700 3.48500 27.77700
C  10.18200 2.31700 30.74300
C  6.67800 5.55400 29.83300
C  7.12600 4.26600 25.04300
C  10.67300 1.12300 26.11200
N  8.44800 3.77500 30.05300
C  9.21700 3.22900 31.04900
C  8.76000 3.74700 32.49200
C  7.50800 4.61300 32.20100
C  7.48700 4.63700 30.59500
C  6.11800 4.17000 32.81800
C  9.91200 4.54000 33.28700
C  10.13400 4.10600 34.75200
H  10.74900 5.06000 35.73000
N  7.16000 4.73000 27.49300
C  6.47000 5.55800 28.40100
C  5.52700 6.36200 27.63700
C  5.63400 5.96600 26.26800
C  6.61400 4.94000 26.20400
C  4.61900 7.30200 28.47000
C  4.85200 6.53200 25.06300
O  4.89500 6.17500 23.90000
C  3.78800 7.60600 25.28000
N  8.90400 2.81300 25.81900
C  8.12500 3.32800 24.86300
C  8.40700 2.65100 23.54600
C  9.62900 1.77000 23.86400
C  9.78300 1.90700 25.34300
C  7.27400 1.90200 22.83000
C  11.03800 2.06100 23.14800
C  11.92800 3.21400 23.67600
N  10.21500 2.02200 28.25600
C  10.87400 1.16200 27.46900
C  11.74100 0.31700 28.31300
C  11.61700 0.82400 29.57400
C  10.57700 1.77200 29.51400
C  12.73600 -0.77300 27.74400
C  11.98000 0.67900 30.97300
O  12.81200 -0.04900 31.48200
C  11.09500 1.64500 31.74500
C  10.31100 0.91700 32.77300
O  9.18000 0.46700 32.54600
O  11.03000 0.75500 33.93100
C  10.22400 0.02600 34.87200
H  6.08700 6.28800 30.38500
H  6.70900 4.56300 24.07900
H  11.32600 0.41400 25.59900
H  8.39800 2.88400 33.05100
H  7.63700 5.55600 32.73400
H  6.15600 3.31700 33.49600
H  5.28900 3.93800 32.14900
H  5.67000 4.98300 33.39000
H  9.54900 5.56500 33.20900
H  10.80200 4.51400 32.65900
H  10.77400 3.24700 34.55200
H  9.23800 3.68700 35.21200
H  4.06500 7.96100 27.80200
H  5.18800 8.05100 29.02000
H  3.89200 6.72600 29.04300
H  3.13600 7.37800 26.12300
H  3.21000 7.77600 24.37100
H  4.36300 8.52900 25.35600
H  8.89200 3.41600 22.93900
H  9.41700 0.72800 23.62300
H  6.74000 1.27100 23.54100
H  7.68500 1.17400 22.13100
H  6.56600 2.62700 22.42700
H  10.77900 2.32500 22.12300
H  11.64600 1.15600 23.14900
H  11.47700 3.81800 24.46400
H  12.26800 3.78800 22.81500
H  12.88400 2.86100 24.06300
H  13.34200 -0.31900 26.96000
H  12.09100 -1.54200 27.31800
H  13.39700 -1.21200 28.49000
H  11.76000 2.36300 32.22400
H  10.82700 -0.11600 35.76900
H  9.97600 -0.92800 34.40500
H  9.27800 0.53600 35.05100
Mg 46.42300 16.36900 28.78500
C  44.19500 15.97000 31.48600
C  48.52000 17.96800 30.83100
C  48.23800 17.19200 26.02000
C  43.82000 15.12100 26.60900
N  46.33600 16.72800 30.85400
C  45.37300 16.54800 31.80500
C  45.75900 17.10400 33.21200
C  47.07500 17.90200 32.90300
C  47.34600 17.51800 31.41700
C  47.22900 19.37300 33.42000
C  45.91500 15.88900 34.10100
C  45.48000 16.03000 35.61900
H  45.24600 17.46400 36.23900
N  48.14200 17.39300 28.46700
C  48.98500 17.90900 29.46900
C  50.12900 18.50000 28.85100
C  49.98500 18.38100 27.39500
C  48.77400 17.55800 27.26600
C  51.17000 19.35700 29.52300
C  50.83100 18.94800 26.21200
O  50.46300 18.97500 25.05400
C  52.13800 19.53800 26.56300
N  46.00100 16.33700 26.59900
C  46.97400 16.68700 25.67500
C  46.36100 16.56800 24.24300
C  45.14100 15.57300 24.41100
C  44.99900 15.60200 25.97900
C  46.11600 17.97300 23.55600
C  45.28500 14.03100 23.97400
C  44.34100 13.60000 22.93200
N  44.44400 15.64700 28.93000
C  43.58700 15.11400 28.04100
C  42.32200 14.75700 28.64800
C  42.54500 14.96900 30.07100
C  43.81600 15.59400 30.16700
C  41.02600 14.32900 27.94800
C  41.98400 14.99900 31.38500
O  40.87300 14.69800 31.73200
C  43.07600 15.49400 32.37100
C  42.45000 16.67700 32.94500
O  42.41500 17.76700 32.43600
O  42.06800 16.50500 34.20600
C  41.35700 17.65300 34.86200
H  49.09200 18.56700 31.54200
H  48.85900 17.34400 25.13500
H  43.06400 14.61600 26.00300
H  44.98900 17.77700 33.59200
H  47.84000 17.41100 33.50500
H  47.89500 19.41000 34.28300
H  46.26800 19.86800 33.56500
H  47.88100 19.85100 32.68900
H  46.97300 15.65900 34.22100
H  45.47300 14.99000 33.67000
H  46.25900 15.46000 36.12400
H  44.53000 15.50700 35.73100
H  52.00500 18.65700 29.54700
H  50.91800 19.64600 30.54400
H  51.36700 20.30700 29.02700
H  51.95500 20.43600 27.15400
H  52.62000 19.77300 25.61400
H  52.71700 18.75500 27.05300
H  47.17000 16.02900 23.74900
H  44.29700 16.09700 23.96200
H  46.61400 18.81500 24.03800
H  45.04400 18.16500 23.58800
H  46.37600 17.94000 22.49800
H  45.18400 13.29600 24.77300
H  46.33300 13.94600 23.68800
H  43.70700 12.78400 23.27800
H  44.84000 13.11000 22.09600
H  43.65900 14.36300 22.55800
H  40.73600 15.10000 27.23500
H  40.20000 14.30500 28.65900
H  41.08600 13.31100 27.56300
H  43.28300 14.71500 33.10500
H  40.39300 17.82600 34.38300
H  41.83800 18.63000 34.82000
H  41.10900 17.36700 35.88400

