158

Mg 36.78100 49.65600 24.95100
C  37.25700 47.64900 27.94900
C  35.49500 51.97900 27.05800
C  36.40600 51.46100 22.30400
C  38.02600 46.89300 23.11300
N  36.28700 49.69700 27.22100
C  36.67200 48.83800 28.23700
C  36.22700 49.39300 29.57600
C  35.77800 50.80900 29.25900
C  35.86300 50.81300 27.74800
C  34.31700 51.22600 29.72800
C  37.22200 49.18200 30.78500
C  37.35500 50.27800 31.86800
H  36.26300 50.38300 32.98500
N  35.99400 51.42100 24.68800
C  35.56800 52.29200 25.70000
C  35.16500 53.52100 25.19400
C  35.35800 53.42000 23.76600
C  35.98200 52.08400 23.48000
C  34.84700 54.76400 26.03600
C  35.09100 54.37200 22.66600
O  35.14200 54.08500 21.49500
C  34.72700 55.83700 22.91200
N  36.89900 49.11900 23.06300
C  36.81500 50.14000 22.14900
C  37.02700 49.58500 20.72900
C  37.70000 48.23000 20.95300
C  37.57800 48.06700 22.50500
C  35.78500 49.66600 19.78000
C  39.25300 48.26500 20.53700
C  40.30700 49.00500 21.31800
N  37.59800 47.66000 25.32400
C  38.02600 46.68200 24.47200
C  38.50800 45.54100 25.26600
C  38.26600 45.93500 26.64900
C  37.63600 47.20800 26.63900
C  39.04700 44.32700 24.66500
C  38.26900 45.39400 28.02500
O  38.67900 44.36600 28.50500
C  37.66900 46.53400 28.91700
C  36.54000 46.09900 29.77400
O  35.42200 45.93800 29.39200
O  37.02100 45.92700 31.09200
C  36.03100 45.39800 32.04200
H  35.14100 52.75700 27.73800
H  36.33300 51.98900 21.35100
H  38.46200 46.13100 22.46500
H  35.32100 48.86600 29.87500
H  36.41800 51.62100 29.60400
H  33.73400 51.31800 28.81100
H  34.26500 52.22400 30.16300
H  33.74000 50.48900 30.28800
H  38.23700 48.96300 30.45600
H  36.87000 48.36300 31.41300
H  37.24100 51.26000 31.41100
H  38.39000 50.21100 32.20300
H  35.33200 55.60100 25.53500
H  35.33800 54.73900 27.00900
H  33.77400 54.82300 26.22000
H  34.01100 55.90100 23.73200
H  34.09900 56.25100 22.12300
H  35.62400 56.42400 23.10800
H  37.72000 50.27200 20.24300
H  37.14600 47.39100 20.53200
H  35.08300 50.37100 20.22600
H  35.34700 48.66800 19.78600
H  36.01100 49.96300 18.75600
H  39.21700 48.67600 19.52800
H  39.63200 47.24700 20.45000
H  41.09200 48.32900 21.65800
H  39.65100 49.40200 22.09300
H  40.74500 49.85600 20.79600
H  39.84800 44.52600 23.95400
H  38.31700 43.62500 24.26200
H  39.55300 43.71900 25.41500
H  38.48600 46.92700 29.52100
H  35.43300 44.59500 31.61000
H  35.46400 46.21600 32.48500
H  36.43000 44.84500 32.89300
Mg -12.78800 16.61300 42.16500
C  -9.94600 14.68900 41.36100
C  -11.35600 19.23000 40.81600
C  -15.95100 18.02900 42.31300
C  -14.37300 13.45400 42.96400
N  -10.87900 16.88300 40.95900
C  -9.89400 15.95800 40.80700
C  -8.64900 16.58600 40.13100
C  -9.03700 18.02700 40.17300
C  -10.52800 18.14000 40.74400
C  -8.10700 18.95200 40.92300
C  -8.14700 15.95100 38.79600
C  -6.68600 15.30100 38.78800
H  -5.77700 15.68600 37.60400
N  -13.51600 18.39400 41.63200
C  -12.76500 19.40700 41.13800
C  -13.61100 20.60100 40.98100
C  -14.91600 20.27900 41.45300
C  -14.86300 18.84500 41.82300
C  -13.05300 21.88400 40.36700
C  -16.07200 21.21700 41.42200
O  -15.97500 22.37200 41.01000
C  -17.40000 20.91200 42.00300
N  -14.88000 15.84200 42.63300
C  -15.95600 16.68600 42.62100
C  -17.22100 15.95000 42.81200
C  -16.75100 14.45100 43.09000
C  -15.24500 14.54200 42.83900
C  -17.99600 16.62400 43.98900
C  -17.36800 13.28700 42.17900
C  -18.40200 12.33500 42.88000
N  -12.24600 14.53900 42.39700
C  -13.01100 13.40000 42.71200
C  -12.07900 12.26400 42.85900
C  -10.85500 12.73700 42.38200
C  -11.03100 14.09300 42.05600
C  -12.40900 10.89800 43.35300
C  -9.46700 12.39800 42.13500
O  -8.84900 11.34500 42.39900
C  -8.83300 13.58300 41.35200
C  -7.55200 14.00700 42.04700
O  -7.37200 14.48700 43.13800
O  -6.47600 13.34100 41.39800
C  -5.20600 13.34100 41.99800
H  -10.78700 20.09200 40.46100
H  -16.93000 18.51300 42.27700
H  -14.79900 12.46200 43.12600
H  -7.87800 16.47400 40.89400
H  -9.08300 18.37800 39.14200
H  -8.65600 19.12000 41.85000
H  -8.03900 19.93500 40.45600
H  -7.11000 18.52000 41.00300
H  -8.15400 16.73700 38.04100
H  -8.88300 15.20000 38.51000
H  -6.97100 14.24900 38.76400
H  -6.21400 15.50600 39.74900
H  -13.63000 22.37800 39.58600
H  -12.09200 21.61400 39.93000
H  -12.77500 22.56100 41.17500
H  -17.36500 20.55300 43.03200
H  -17.81600 20.15900 41.33500
H  -18.01900 21.80500 41.91500
H  -17.81400 16.06900 41.90500
H  -16.92100 14.13100 44.11800
H  -17.56700 17.56700 44.32700
H  -18.11900 15.92400 44.81600
H  -18.97500 17.01700 43.71500
H  -16.57900 12.75100 41.65200
H  -17.92000 13.77800 41.37700
H  -18.05500 11.30300 42.93000
H  -19.40000 12.46600 42.46100
H  -18.43100 12.61100 43.93400
H  -11.48200 10.33200 43.26400
H  -13.21500 10.46300 42.76100
H  -12.64500 10.86200 44.41600
H  -8.59400 13.22200 40.35200
H  -5.11000 13.89300 42.93300
H  -4.54100 13.70700 41.21600
H  -4.80200 12.34300 42.16800

