158

Mg 45.27200 4.78900 46.93300
C  43.64700 7.75400 46.29200
C  42.29500 3.10900 46.44700
C  46.91700 1.77900 47.53100
C  48.29900 6.46500 47.11200
N  43.26500 5.28300 46.24700
C  42.80600 6.60600 46.13900
C  41.39600 6.62300 45.59200
C  40.89600 5.25500 45.99700
C  42.21800 4.50800 46.29600
C  39.78300 5.25200 47.08100
C  41.39400 6.80100 44.00400
C  40.61500 8.13100 43.52800
H  40.89300 8.72600 42.10200
N  44.69800 2.72300 46.93000
C  43.42100 2.27200 46.78900
C  43.38300 0.87400 46.79700
C  44.70500 0.45500 47.07300
C  45.54000 1.62100 47.21700
C  42.24100 0.01100 46.44700
C  45.12100 -1.05100 47.09800
O  44.40000 -1.99900 46.79100
C  46.48600 -1.50700 47.52200
N  47.30600 4.18200 47.08300
C  47.72400 2.93100 47.38500
C  49.19900 2.88700 47.83200
C  49.73900 4.32800 47.55200
C  48.33300 5.04400 47.29900
C  49.57800 2.45000 49.29500
C  50.79000 4.55500 46.40100
C  51.94100 5.53800 46.78000
N  45.90100 6.77000 46.68700
C  47.22300 7.28200 46.81000
C  47.01200 8.72100 46.71600
C  45.62400 8.98000 46.54200
C  45.03100 7.75400 46.46900
C  48.00500 9.75200 47.02500
C  44.62200 9.98800 46.52500
O  44.60500 11.16900 46.71000
C  43.24900 9.20100 46.22000
C  42.15400 9.68900 47.16500
O  41.71200 9.02400 48.13400
O  41.70700 10.89200 46.72100
C  40.53500 11.49500 47.38400
H  41.28700 2.70400 46.33500
H  47.46900 0.90700 47.88600
H  49.16000 7.07300 47.39700
H  40.90000 7.48200 46.04400
H  40.50700 4.64400 45.18200
H  39.57100 6.29100 47.33300
H  40.23900 4.75800 47.93900
H  39.04000 4.56000 46.68300
H  40.82100 5.99600 43.54400
H  42.41900 6.89800 43.64700
H  40.77000 9.00600 44.16000
H  39.54200 7.94000 43.55700
H  41.27600 0.37700 46.79500
H  42.22800 -0.97600 46.91100
H  42.17800 -0.12800 45.36700
H  46.66000 -1.00200 48.47200
H  47.15400 -1.05200 46.79000
H  46.56300 -2.58600 47.66200
H  49.70400 2.19500 47.15900
H  50.04300 4.74700 48.51100
H  49.67100 1.36400 49.29200
H  48.83800 2.48600 50.09500
H  50.56800 2.80300 49.58400
H  50.31900 5.10900 45.58900
H  51.07300 3.60000 45.95900
H  51.57000 6.54700 46.60100
H  52.68000 5.17900 46.06400
H  52.19500 5.54400 47.84000
H  48.88900 9.43200 47.57600
H  47.50000 10.59200 47.50200
H  48.28100 10.20900 46.07400
H  43.01200 9.57000 45.22200
H  39.80400 10.71600 47.59800
H  40.06200 12.26900 46.77900
H  40.85800 12.02800 48.27800
Mg -1.04000 33.89400 27.17200
C  -2.95300 32.38800 29.66300
C  0.21800 35.93900 29.75400
C  0.18300 35.98200 24.89200
C  -2.74300 32.26000 24.83200
N  -1.42500 34.15500 29.39100
C  -2.17300 33.36700 30.23500
C  -2.08200 33.70800 31.76400
C  -1.19000 35.00700 31.62200
C  -0.85100 35.11800 30.14700
C  -1.82400 36.42400 32.13300
C  -1.77500 32.53700 32.77000
C  -0.80500 32.84600 33.89400
H  -1.12100 32.21400 35.25500
N  0.22400 35.56200 27.29700
C  0.68800 36.19100 28.41500
C  1.60400 37.26600 27.99200
C  1.57000 37.37200 26.59100
C  0.59800 36.29400 26.15700
C  2.24900 38.15500 28.97700
C  2.32200 38.23100 25.63600
O  2.30100 38.21000 24.42000
C  3.39700 39.07400 26.25800
N  -1.27000 34.11600 25.19800
C  -0.59500 34.97000 24.37400
C  -0.81300 34.72800 22.91300
C  -1.69800 33.43000 22.86200
C  -1.92200 33.18200 24.38900
C  -1.46900 35.89200 22.19100
C  -0.95000 32.29500 22.17300
C  0.01500 31.39000 22.96400
N  -2.53300 32.51300 27.19000
C  -3.11300 31.91800 26.10600
C  -4.06600 30.99400 26.53500
C  -4.02900 31.05400 27.94500
C  -3.11400 32.06600 28.33000
C  -4.99500 30.11300 25.70500
C  -4.60100 30.56700 29.19600
O  -5.52100 29.73400 29.41400
C  -3.76600 31.30500 30.35700
C  -4.86300 31.77800 31.25400
O  -5.43700 32.84700 31.08500
O  -5.01200 30.86600 32.35700
C  -5.93000 31.37400 33.35800
H  0.61100 36.52000 30.59100
H  0.45800 36.64800 24.07100
H  -3.13600 31.55200 24.09900
H  -3.07500 34.08000 32.01600
H  -0.21500 34.81100 32.06900
H  -2.78500 36.22400 32.60700
H  -1.84500 36.99500 31.20500
H  -1.18600 36.84400 32.91000
H  -1.29600 31.77500 32.15500
H  -2.67900 32.10800 33.20300
H  -0.80600 33.92600 34.03800
H  0.19400 32.56300 33.56300
H  2.31500 39.22400 28.77800
H  3.23700 37.71700 29.12100
H  1.85700 38.05000 29.98900
H  4.09900 38.44200 26.80300
H  2.74900 39.65700 26.91200
H  3.92200 39.79700 25.63400
H  0.17000 34.52000 22.49200
H  -2.63000 33.59100 22.32000
H  -1.46600 36.85300 22.70500
H  -2.50500 35.75700 21.87900
H  -0.91300 36.06300 21.26900
H  -0.33500 32.70400 21.37200
H  -1.78000 31.71400 21.76800
H  0.12900 31.68200 24.00800
H  0.91800 31.38200 22.35400
H  -0.41800 30.39000 22.99300
H  -5.98700 30.49000 25.95200
H  -4.89000 29.05500 25.94900
H  -4.74400 30.26700 24.65500
H  -3.12100 30.58400 30.85800
H  -6.84800 31.77200 32.92500
H  -5.42700 32.20900 33.84500
H  -6.27400 30.54000 33.97100

