158

Mg 24.45200 2.95100 29.38500
C  26.90000 2.74900 32.02900
C  22.01900 3.18100 31.62300
C  22.40500 2.82000 26.78000
C  27.19300 2.36800 27.05700
N  24.50500 2.93200 31.59300
C  25.55300 2.97700 32.41900
C  25.09500 3.06600 33.92000
C  23.52300 3.25200 33.77700
C  23.29700 3.12300 32.20400
C  22.72600 2.30600 34.61500
C  25.78500 4.25200 34.67800
C  26.19400 3.92500 36.12000
H  25.26500 4.71000 37.08700
N  22.52300 2.85800 29.21100
C  21.65300 3.00600 30.26500
C  20.26400 3.02700 29.82400
C  20.38500 2.83400 28.41600
C  21.82700 2.81300 28.08800
C  18.97300 3.22700 30.67700
C  19.27800 2.82800 27.43400
O  19.39700 2.82700 26.21200
C  17.94900 2.53700 28.02500
N  24.75500 2.67400 27.07800
C  23.72600 2.87900 26.25000
C  24.25300 3.15900 24.83400
C  25.82500 3.05200 25.02800
C  25.94800 2.72900 26.46700
C  23.72800 2.25800 23.64900
C  26.67700 4.23800 24.67400
C  26.60000 5.52200 25.68400
N  26.55500 2.63500 29.48500
C  27.47700 2.23500 28.46700
C  28.78600 2.03700 29.07800
C  28.58300 2.20500 30.47000
C  27.29500 2.60100 30.69800
C  30.06900 1.55400 28.45600
C  29.24500 2.19900 31.72400
O  30.39900 1.99900 32.08400
C  28.10800 2.52700 32.80600
C  28.02500 1.36300 33.83000
O  27.39100 0.30500 33.83100
O  28.72800 1.80300 34.99600
C  28.89600 0.79200 36.10100
H  21.19200 3.49700 32.26300
H  21.59300 2.97400 26.06600
H  28.11800 2.44500 26.48100
H  25.29300 2.06500 34.30400
H  23.21300 4.25800 34.05700
H  22.61500 1.37900 34.05100
H  21.81400 2.78200 34.97600
H  23.16700 1.97600 35.55600
H  25.14200 5.13100 34.63500
H  26.67400 4.53800 34.11500
H  27.19900 4.26500 36.37200
H  26.01200 2.86800 36.31000
H  18.32500 4.02800 30.32100
H  19.19200 3.53900 31.69800
H  18.41200 2.29200 30.65800
H  17.93400 1.63000 28.63000
H  17.31200 2.32500 27.16600
H  17.38300 3.39200 28.39500
H  24.12100 4.17400 24.45900
H  26.18700 2.18700 24.47200
H  24.33300 1.35300 23.58900
H  23.73900 2.87400 22.75000
H  22.71300 1.92200 23.86400
H  26.47400 4.48900 23.63200
H  27.71300 3.90100 24.69000
H  26.33900 5.19700 26.69100
H  25.88000 6.15400 25.16300
H  27.56300 6.01800 25.80800
H  30.81600 1.74300 29.22700
H  30.36800 2.19200 27.62400
H  30.11500 0.49900 28.18600
H  28.39900 3.47100 33.26600
H  29.25800 -0.16400 35.72200
H  28.04400 0.47600 36.70300
H  29.53800 1.23500 36.86200
Mg 2.00700 41.89500 24.97900
C  3.84300 41.86200 27.89700
C  -0.89900 41.32900 26.85800
C  0.31800 41.36900 22.07300
C  4.87800 42.35300 23.20600
N  1.54800 41.77300 27.16400
C  2.46100 41.86800 28.15300
C  1.75400 41.75000 29.52000
C  0.26000 41.52800 29.16800
C  0.28300 41.53800 27.65100
C  -0.24200 40.21000 29.76300
C  2.14300 43.06800 30.31700
C  2.57000 42.93800 31.77100
H  1.58900 43.04600 32.93900
N  -0.04300 41.40100 24.56300
C  -1.01800 41.20500 25.43900
C  -2.22800 40.88700 24.68300
C  -1.92500 40.93100 23.30100
C  -0.48200 41.20000 23.24900
C  -3.48600 40.31900 25.40200
C  -2.88300 40.73400 22.09600
O  -2.51600 40.80000 20.93400
C  -4.33900 40.69700 22.32700
N  2.51500 41.77400 22.96000
C  1.70300 41.58400 21.90900
C  2.45100 41.66300 20.57800
C  3.65100 42.47500 20.99800
C  3.72300 42.22300 22.51800
C  2.90000 40.20500 20.08400
C  3.55300 44.05300 20.90700
C  4.13200 44.64800 19.63300
N  3.95300 41.99700 25.36400
C  5.01800 42.29700 24.56600
C  6.26100 42.27600 25.38900
C  5.77700 42.01600 26.67200
C  4.40900 42.05000 26.64200
C  7.68500 42.35100 24.91700
C  6.25100 41.90300 27.94300
O  7.38400 41.77200 28.38200
C  5.07300 41.87700 28.83700
C  5.14300 40.72600 29.69200
O  4.66600 39.60600 29.56900
O  5.80200 41.08500 30.87200
C  5.71100 40.14100 31.96300
H  -1.83500 41.31600 27.42000
H  -0.20600 41.22700 21.12600
H  5.67600 42.60500 22.50400
H  2.11100 40.87500 30.06400
H  -0.33800 42.36200 29.53400
H  -0.43500 39.51000 28.95000
H  -1.12900 40.47500 30.33900
H  0.45800 39.78100 30.47900
H  1.19100 43.57100 30.48700
H  2.73800 43.74500 29.70400
H  3.24100 43.78400 31.91900
H  3.06600 41.97100 31.84000
H  -3.89200 39.41300 24.95300
H  -4.27600 41.06300 25.30000
H  -3.17300 40.11700 26.42700
H  -4.86000 40.67700 21.37000
H  -4.55600 41.57200 22.94000
H  -4.45600 39.78700 22.91500
H  1.92100 42.21500 19.80200
H  4.55500 42.16400 20.47500
H  2.50000 40.01000 19.08900
H  2.58100 39.49700 20.84800
H  3.98200 40.15800 20.20200
H  4.12700 44.45800 21.74000
H  2.50300 44.28300 21.09300
H  3.57300 45.55700 19.41400
H  4.00300 43.90500 18.84500
H  5.19800 44.81600 19.78700
H  8.17700 43.20900 25.37500
H  7.74300 42.40700 23.83000
H  8.14100 41.41600 25.24200
H  4.99600 42.78400 29.43500
H  5.47300 39.11800 31.67100
H  4.85200 40.34100 32.60400
H  6.55300 40.12800 32.65400

