158

Mg 50.24700 45.58100 41.30900
C  46.98400 46.47400 40.48600
C  49.53800 42.46600 40.11500
C  53.51100 44.80300 41.64500
C  51.11000 48.98600 41.72900
N  48.47300 44.63100 40.28500
C  47.24600 45.17400 40.09600
C  46.28800 44.24800 39.38400
C  47.11800 42.92500 39.37800
C  48.47100 43.31300 40.03000
C  46.35600 41.73900 40.10900
C  46.02700 44.64700 37.93700
C  44.57100 44.37900 37.37100
H  44.40500 43.56000 36.11400
N  51.35600 43.83100 41.03500
C  50.85100 42.65400 40.54800
C  51.93900 41.71200 40.44000
C  53.17100 42.40100 40.79800
C  52.73700 43.77000 41.21100
C  51.76300 40.27700 40.00800
C  54.58400 41.81600 40.80400
O  54.71700 40.62700 40.48800
C  55.85700 42.50500 41.23100
N  52.02500 46.79200 41.48600
C  53.20700 46.14600 41.78000
C  54.27700 47.20200 42.02000
C  53.56900 48.59300 42.18700
C  52.16400 48.14900 41.68400
C  55.24100 46.95500 43.15700
C  54.16400 49.70400 41.24300
C  54.12800 51.10900 41.80000
N  49.25200 47.43700 41.30600
C  49.69600 48.69700 41.54500
C  48.57400 49.59100 41.36000
C  47.54300 48.79700 40.91600
C  47.92800 47.45300 40.90600
C  48.70400 51.05600 41.48800
C  46.17300 48.85400 40.46200
O  45.40500 49.78300 40.38200
C  45.70800 47.38100 40.25300
C  44.46000 47.11900 40.99700
O  44.29700 47.16900 42.24100
O  43.45600 46.79200 40.09000
C  42.19000 46.50500 40.70100
H  49.31600 41.53800 39.58400
H  54.56500 44.59500 41.83800
H  51.34800 50.01200 42.01800
H  45.35400 44.05800 39.91400
H  47.44000 42.57400 38.39800
H  45.27500 41.60700 40.05500
H  46.61100 41.70900 41.16800
H  46.83600 40.86100 39.67600
H  46.70400 44.14700 37.24400
H  46.30200 45.69700 37.83100
H  44.23200 45.38300 37.11400
H  43.97400 44.04700 38.21900
H  52.57400 39.90100 39.38400
H  50.97300 40.18800 39.26100
H  51.76500 39.62100 40.87900
H  55.70100 42.82700 42.26100
H  55.66700 43.33900 40.55600
H  56.73300 42.01200 40.81100
H  54.96400 47.20500 41.17300
H  53.59700 48.95700 43.21400
H  56.24900 46.65500 42.87300
H  54.82400 46.13100 43.73600
H  55.37800 47.83700 43.78200
H  53.57400 49.61500 40.33000
H  55.17600 49.45200 40.92800
H  53.46600 51.65200 41.12500
H  55.14800 51.49300 41.80700
H  53.67100 51.09100 42.78900
H  48.30900 51.54100 40.59500
H  49.77300 51.26500 41.45200
H  48.24700 51.38100 42.42300
H  45.41100 47.39500 39.20500
H  41.55100 46.42100 39.82200
H  41.73200 47.24400 41.35900
H  42.23800 45.50900 41.14100
Mg 42.07900 40.71300 26.39100
C  41.57600 43.26900 28.80900
C  42.98300 38.61600 28.80500
C  42.71400 38.51300 23.92900
C  41.48500 43.20900 23.81700
N  42.49100 41.03200 28.60800
C  41.99300 42.03600 29.35900
C  42.11000 41.69600 30.86200
C  42.90300 40.34900 30.79000
C  42.75700 39.91800 29.29700
C  44.41000 40.55600 31.27600
C  40.66400 41.43500 31.59500
C  40.60800 42.14000 32.92300
H  39.87200 41.38500 34.02900
N  42.79000 38.76000 26.42100
C  43.12100 37.99700 27.46500
C  43.36900 36.63400 27.04700
C  43.23600 36.63200 25.61900
C  42.91300 38.02100 25.24800
C  43.66100 35.46500 28.03200
C  43.40500 35.44500 24.73100
O  43.16700 35.48500 23.56000
C  43.78100 34.11400 25.23300
N  42.20500 40.82000 24.17100
C  42.39400 39.76100 23.37500
C  42.28200 40.03200 21.89000
C  41.97700 41.55400 21.89200
C  41.79900 41.88800 23.34700
C  43.46500 39.49300 20.99200
C  40.75100 41.89700 20.94500
C  40.78500 41.52400 19.38400
N  41.49300 42.73500 26.26300
C  41.32100 43.56200 25.17400
C  40.97800 44.91600 25.63300
C  40.95200 44.78400 27.08500
C  41.36800 43.47700 27.39800
C  40.52300 46.12600 24.81000
C  40.77400 45.49100 28.37000
O  40.42900 46.70300 28.63500
C  41.01900 44.44000 29.54300
C  41.98100 45.12300 30.45900
O  43.16300 45.23400 30.25400
O  41.35400 45.77700 31.50300
C  42.20100 46.31500 32.55700
H  43.13100 37.97400 29.67700
H  42.91100 37.89100 23.05400
H  41.23000 43.94300 23.05000
H  42.63900 42.49500 31.38100
H  42.55800 39.55600 31.45400
H  44.64900 41.61700 31.35200
H  45.07400 40.03100 30.58800
H  44.49900 40.15500 32.28500
H  40.64700 40.35700 31.75000
H  39.87100 41.81400 30.95100
H  40.16300 43.13400 32.88900
H  41.62900 42.23600 33.29300
H  43.01100 34.62800 27.77700
H  43.67500 35.71700 29.09200
H  44.66000 35.12300 27.75900
H  43.92300 33.46800 24.36700
H  43.01900 33.60200 25.82100
H  44.74600 34.23100 25.72500
H  41.38900 39.50000 21.56300
H  42.92600 41.97100 21.55400
H  44.17700 39.08800 21.71100
H  43.95600 40.31500 20.47200
H  43.11300 38.69900 20.33400
H  40.59700 42.97600 20.91000
H  39.82700 41.45500 21.31900
H  40.24400 40.59900 19.18600
H  41.80600 41.49900 19.00200
H  40.30100 42.32600 18.82600
H  40.74400 46.95500 25.48100
H  39.46500 46.00800 24.57400
H  41.10000 46.11500 23.88500
H  40.08300 44.29200 30.08200
H  42.87700 47.00700 32.05400
H  42.68400 45.48100 33.06500
H  41.66700 47.01000 33.20400

