158

Mg 8.27700 2.88900 27.45000
C  9.58400 1.35400 30.43500
C  6.19200 4.68100 29.47000
C  6.62100 3.80700 24.66500
C  9.97200 0.35000 25.67200
N  8.02900 3.12200 29.72400
C  8.69300 2.42800 30.69800
C  8.36900 3.04300 32.11600
C  7.21900 4.00700 31.75900
C  7.10300 3.91400 30.26500
C  5.85200 3.92300 32.56100
C  9.61700 3.61700 32.91200
C  9.26600 4.56000 33.97600
H  10.12700 4.41600 35.25500
N  6.63300 4.04800 27.10100
C  5.95800 4.74900 28.08900
C  5.03900 5.68100 27.41800
C  5.13500 5.42900 25.97100
C  6.20500 4.46000 25.81100
C  4.16200 6.67600 28.22900
C  4.35800 6.08300 24.84900
O  4.42100 5.80900 23.68600
C  3.30500 7.12800 25.24200
N  8.25500 2.19000 25.45500
C  7.52000 2.77400 24.45200
C  7.98800 2.24500 23.04900
C  9.18100 1.24900 23.47700
C  9.10200 1.17500 24.97200
C  6.90700 1.68500 22.18500
C  10.61400 1.59000 23.02200
C  11.42500 2.53900 23.82600
N  9.59900 1.30400 27.89000
C  10.13500 0.35800 27.03400
C  10.95900 -0.56200 27.79800
C  10.77700 -0.15400 29.12500
C  9.94000 0.90400 29.13500
C  11.65500 -1.74500 27.22200
C  11.16700 -0.56800 30.46500
O  11.85800 -1.54700 30.84100
C  10.40100 0.40400 31.33500
C  9.61800 -0.28300 32.33600
O  8.70600 -1.01300 32.14300
O  10.07800 0.10200 33.60000
C  9.29800 -0.53100 34.65100
H  5.69600 5.32100 30.20200
H  6.19700 4.09500 23.70100
H  10.63800 -0.31900 25.12300
H  8.02300 2.20100 32.71500
H  7.53400 5.00700 32.05800
H  5.01000 3.74900 31.89000
H  5.75400 4.84800 33.12900
H  5.99400 3.06400 33.21600
H  10.33500 4.06000 32.22200
H  10.09800 2.81900 33.47800
H  8.24200 4.31900 34.25900
H  9.31500 5.57900 33.59200
H  4.27600 7.68300 27.83000
H  4.33800 6.48600 29.28800
H  3.19000 6.21500 28.04800
H  2.58300 6.62200 25.88200
H  2.80900 7.38700 24.30600
H  3.81000 8.03600 25.57400
H  8.49200 3.12100 22.63900
H  9.08100 0.29000 22.96800
H  5.96300 1.46400 22.68300
H  7.06000 0.65600 21.86000
H  6.63000 2.30200 21.32900
H  10.50900 2.11700 22.07400
H  11.15600 0.66500 22.82900
H  10.94400 2.80300 24.76800
H  11.59800 3.51100 23.36400
H  12.40800 2.13700 24.07400
H  10.98300 -2.32300 26.58800
H  11.82200 -2.48100 28.00800
H  12.61600 -1.43600 26.81100
H  11.14600 1.04800 31.80100
H  9.08000 -1.57900 34.44700
H  8.32200 -0.06200 34.77300
H  9.89700 -0.43300 35.55700
Mg 41.25900 40.95600 27.33600
C  40.95000 43.51600 29.67600
C  42.52200 38.94300 29.88100
C  42.24500 38.70100 24.96600
C  40.42600 43.16100 24.79500
N  41.82200 41.31200 29.53500
C  41.45600 42.36700 30.26600
C  41.55400 42.12800 31.74800
C  42.25500 40.68800 31.85700
C  42.19900 40.27700 30.37200
C  43.66300 40.65000 32.44500
C  40.20500 42.11100 32.48300
C  40.11200 43.12000 33.73900
H  39.45400 42.62600 35.01600
N  42.33300 39.13800 27.36600
C  42.67100 38.46900 28.53400
C  43.27400 37.21100 28.21900
C  43.12800 37.08500 26.80600
C  42.52300 38.35200 26.30200
C  43.81400 36.22100 29.27500
C  43.54800 35.97700 25.91500
O  43.43400 36.06700 24.72400
C  44.07200 34.69200 26.43500
N  41.58200 41.03800 25.20400
C  42.00000 39.98600 24.40600
C  41.68100 40.12600 22.92200
C  40.93500 41.49800 22.95800
C  40.87800 41.89400 24.45400
C  42.96900 39.99500 21.94500
C  39.61300 41.42900 22.29000
C  38.38800 41.14200 23.19500
N  40.83200 42.90800 27.15200
C  40.45900 43.67300 26.10900
C  40.17000 44.98300 26.55900
C  40.25100 44.94000 27.98400
C  40.78100 43.68200 28.29100
C  40.00400 46.16000 25.52200
C  40.19200 45.74000 29.12800
O  39.86200 46.88700 29.27300
C  40.62200 44.79300 30.31500
C  41.70400 45.59800 31.02000
O  42.56300 46.26200 30.41900
O  41.46800 45.76100 32.35200
C  41.97500 47.02000 32.93300
H  42.82100 38.40200 30.78100
H  42.32800 38.00100 24.13100
H  40.02900 43.82100 24.02100
H  42.26600 42.89300 32.05900
H  41.72900 39.92300 32.42800
H  43.77700 39.76700 33.07400
H  43.80000 41.56300 33.02400
H  44.41600 40.69100 31.65700
H  39.89300 41.13600 32.85700
H  39.39800 42.38500 31.80400
H  39.52000 43.96800 33.39300
H  41.11200 43.48700 33.96800
H  43.60100 35.15900 29.15600
H  43.55500 36.43300 30.31200
H  44.90100 36.28500 29.23100
H  43.96300 33.89100 25.70300
H  43.42500 34.26500 27.20100
H  45.08900 34.82600 26.80300
H  41.03500 39.27300 22.71100
H  41.58100 42.24600 22.49900
H  42.77800 40.59100 21.05300
H  42.92600 38.92300 21.75400
H  43.86300 40.38900 22.42900
H  39.58600 40.66800 21.51100
H  39.44800 42.43000 21.89300
H  37.87300 40.26300 22.80800
H  37.75400 42.02100 23.07300
H  38.64300 40.92800 24.23300
H  39.46500 46.99600 25.96900
H  39.72600 45.67200 24.58800
H  41.04900 46.41400 25.34600
H  39.85700 44.72900 31.08900
H  43.02800 46.91400 33.19400
H  41.48700 47.25400 33.87900
H  41.88400 47.81300 32.19100

