158

Mg 10.14300 47.75900 26.03300
C  7.79600 48.09200 28.75100
C  12.32300 49.39700 27.95000
C  12.07200 47.94200 23.41500
C  7.36600 46.93700 23.88100
N  10.05500 48.42500 28.10900
C  9.10500 48.42400 29.08700
C  9.63300 48.93800 30.48200
C  10.86000 49.74000 29.94500
C  11.09900 49.17900 28.55600
C  10.70600 51.28500 29.91200
C  9.98900 47.80000 31.47400
C  10.01800 48.08800 33.00100
H  9.47500 47.12000 34.07400
N  12.02800 48.34200 25.84000
C  12.83500 48.94000 26.72000
C  14.16400 49.02200 26.21700
C  14.10800 48.60000 24.85800
C  12.67900 48.27600 24.64000
C  15.24900 49.48000 27.16300
C  15.15500 48.50700 23.84700
O  14.90600 48.10900 22.71000
C  16.61500 48.82000 24.14200
N  9.78300 47.63800 23.88200
C  10.78100 47.56600 23.06300
C  10.41600 47.19000 21.59700
C  9.00700 46.60100 21.82900
C  8.71000 47.04300 23.30000
C  10.31400 48.42300 20.68900
C  8.87100 45.01100 21.60200
C  9.24800 44.13000 22.78000
N  8.03300 47.53000 26.24800
C  7.07500 47.10700 25.27700
C  5.78600 47.28400 25.88000
C  6.03500 47.63300 27.24000
C  7.42800 47.79300 27.39200
C  4.51400 47.06200 25.22700
C  5.39400 47.84900 28.47700
O  4.19100 47.73700 28.65400
C  6.51900 48.31400 29.53600
C  6.38600 47.46700 30.71500
O  6.82200 46.34500 30.88400
O  5.66500 48.15300 31.64300
C  5.52000 47.50800 32.95400
H  12.89200 50.10500 28.55700
H  12.71400 47.99300 22.53400
H  6.52100 46.68100 23.23800
H  8.90100 49.58600 30.96300
H  11.67600 49.71900 30.66800
H  9.74500 51.62700 30.29600
H  10.81900 51.65700 28.89400
H  11.58800 51.76700 30.33300
H  10.96700 47.43400 31.16200
H  9.32200 46.95300 31.31200
H  9.52600 49.05700 33.08500
H  11.07700 48.23600 33.20800
H  15.05500 49.35900 28.22900
H  15.43600 50.53200 26.94800
H  16.18500 48.96600 26.94600
H  16.96700 48.09500 24.87600
H  16.56400 49.82600 24.55800
H  17.19100 48.78100 23.21800
H  11.10400 46.47400 21.14800
H  8.28900 47.12900 21.20100
H  11.12400 48.22400 19.98700
H  10.59100 49.25100 21.34200
H  9.42800 48.58100 20.07400
H  9.68200 44.73500 20.92900
H  7.90800 44.88600 21.10500
H  8.83100 44.43600 23.74000
H  10.30700 43.98800 22.99800
H  8.88300 43.13800 22.51200
H  3.95600 47.99400 25.13200
H  3.99000 46.38800 25.90500
H  4.57500 46.52900 24.27900
H  6.39700 49.39000 29.65700
H  5.46700 46.41900 32.95400
H  4.52800 47.75300 33.33300
H  6.32700 47.81700 33.61800
Mg -9.63200 40.99900 39.58600
C  -9.02100 37.61500 38.54100
C  -6.29400 41.65800 39.07600
C  -10.57500 44.07500 39.49200
C  -13.22200 39.97600 39.36500
N  -7.86000 39.76400 38.90800
C  -7.88100 38.46000 38.50800
C  -6.51900 38.14700 37.91200
C  -5.53700 39.18500 38.64400
C  -6.61100 40.26800 38.90200
C  -4.83400 38.78600 39.96200
C  -6.42300 38.31100 36.31400
C  -5.95800 37.08200 35.54500
H  -6.89500 36.53400 34.47100
N  -8.54500 42.67200 39.42200
C  -7.19200 42.72200 39.24600
C  -6.93700 44.15400 39.09900
C  -8.06700 44.87000 39.24500
C  -9.17000 43.89000 39.37600
C  -5.54400 44.60000 38.91600
C  -8.10000 46.41200 39.27700
O  -7.08500 47.12900 39.17800
C  -9.36500 47.24200 39.52700
N  -11.66200 41.84100 39.61300
C  -11.67900 43.22600 39.66500
C  -13.12300 43.77000 39.75500
C  -13.88600 42.45000 39.45200
C  -12.87200 41.30600 39.52100
C  -13.48200 44.41600 41.09600
C  -14.65300 42.51200 38.07100
C  -16.07700 42.02100 38.10200
N  -10.93000 39.14500 39.33000
C  -12.22900 38.96100 39.23200
C  -12.49100 37.53300 39.05900
C  -11.24300 36.95700 38.70800
C  -10.31000 38.00900 38.90400
C  -13.88600 36.93600 39.38000
C  -10.52200 35.74700 38.33200
O  -10.89300 34.59700 38.20800
C  -9.06400 36.16100 38.22500
C  -8.24300 35.26800 39.15100
O  -8.41100 35.12100 40.35700
O  -7.35300 34.50700 38.43700
C  -6.65700 33.53000 39.22600
H  -5.23700 41.92900 39.02500
H  -10.84500 45.13300 39.51700
H  -14.27100 39.76600 39.14700
H  -6.21000 37.14700 38.21800
H  -4.82500 39.68800 37.99000
H  -5.44600 39.30100 40.70300
H  -3.78700 39.04000 40.12900
H  -5.01600 37.73100 40.16800
H  -5.75600 39.15300 36.12900
H  -7.42800 38.55000 35.96500
H  -5.75100 36.21200 36.16800
H  -5.03900 37.34300 35.02000
H  -5.26400 45.65100 38.99900
H  -5.20300 44.51100 37.88400
H  -4.85100 44.02500 39.52900
H  -9.17200 48.30500 39.67200
H  -9.87300 46.78200 40.37500
H  -9.95000 47.23200 38.60700
H  -13.18500 44.47800 38.92900
H  -14.60400 42.34700 40.26600
H  -12.58000 44.77900 41.58800
H  -13.96800 43.69300 41.75200
H  -14.19000 45.22800 40.92900
H  -14.14500 41.94200 37.29300
H  -14.69100 43.58100 37.86000
H  -16.37500 41.32000 38.88100
H  -16.26000 41.64800 37.09400
H  -16.64700 42.92000 38.33700
H  -13.85000 36.04000 40.00000
H  -14.48500 36.64300 38.51800
H  -14.50700 37.67600 39.88500
H  -8.80700 35.97500 37.18300
H  -6.12300 34.06100 40.01400
H  -5.85100 33.03200 38.68700
H  -7.31100 32.80800 39.71600

