158

Mg 9.15600 4.38000 28.06600
C  10.50300 2.83600 30.77800
C  7.39200 6.42900 30.05400
C  7.80800 5.84200 25.30200
C  10.76800 2.02600 26.02500
N  8.87400 4.46700 30.10600
C  9.61100 3.86500 31.05600
C  9.34000 4.34900 32.44900
C  8.29000 5.43300 32.16700
C  8.16000 5.43600 30.69100
C  6.95800 5.21200 32.95300
C  10.68700 4.80600 33.15400
C  10.47800 5.86600 34.24100
H  11.19500 5.66100 35.59300
N  7.76400 5.85600 27.73300
C  7.17400 6.59600 28.66200
C  6.21900 7.56200 28.04800
C  6.41300 7.50400 26.66900
C  7.30700 6.32400 26.46100
C  5.31400 8.42400 28.78800
C  5.90500 8.34100 25.55000
O  6.06500 7.96800 24.39900
C  5.30300 9.68400 25.87300
N  9.18000 3.96100 26.02200
C  8.61700 4.75700 25.08500
C  8.92200 4.27100 23.65500
C  9.78700 2.97500 23.88300
C  9.96200 2.98900 25.43300
C  7.69200 4.00900 22.69600
C  11.21000 2.98700 23.16900
C  11.32500 1.98400 21.97900
N  10.43600 2.74900 28.29100
C  10.92900 1.82200 27.40600
C  11.77000 0.85600 28.12800
C  11.70200 1.29100 29.47500
C  10.85200 2.38200 29.49100
C  12.37600 -0.39800 27.52600
C  12.10200 1.04400 30.83000
O  12.83200 0.15200 31.17400
C  11.36000 2.03200 31.73100
C  10.62400 1.36600 32.87000
O  9.40300 1.15700 32.85700
O  11.51300 1.33100 33.92200
C  11.13400 0.81700 35.19600
H  6.75900 7.05500 30.68700
H  7.49100 6.33800 24.38300
H  11.34400 1.34100 25.40000
H  8.83900 3.55400 33.00200
H  8.75100 6.41200 32.29800
H  6.79700 6.17000 33.44700
H  6.87300 4.37200 33.64100
H  6.10300 5.10400 32.28500
H  11.38700 5.21200 32.42400
H  11.11600 3.88800 33.55700
H  9.43900 5.87400 34.57100
H  10.76300 6.86800 33.91900
H  5.73300 9.41000 28.99000
H  5.11400 7.91700 29.73200
H  4.34000 8.51700 28.30700
H  6.10700 10.15300 26.44100
H  4.40300 9.52500 26.46700
H  5.14200 10.28000 24.97500
H  9.48200 5.09400 23.21000
H  9.22100 2.07300 23.65400
H  6.81900 3.95600 23.34700
H  7.83700 3.12200 22.07900
H  7.74800 4.85100 22.00700
H  12.09500 2.70900 23.74200
H  11.47400 3.88200 22.60500
H  10.43800 1.45700 21.62700
H  12.00400 1.20800 22.33100
H  11.77300 2.43700 21.09400
H  13.46400 -0.33200 27.49800
H  12.00700 -0.57100 26.51600
H  11.98200 -1.27500 28.04000
H  12.21800 2.61700 32.06300
H  10.77200 1.58500 35.88000
H  11.96700 0.28100 35.65000
H  10.34300 0.06900 35.13500
Mg 44.90700 4.77200 47.22600
C  42.82800 7.50200 47.21100
C  42.04700 2.75400 46.73100
C  46.88300 2.05500 46.55400
C  47.56300 6.84000 47.02700
N  42.62700 5.07600 47.04200
C  42.10200 6.29800 47.06200
C  40.59600 6.23300 46.78600
C  40.30400 4.69500 46.58500
C  41.76500 4.10600 46.72600
C  39.28800 3.83100 47.41800
C  39.97300 7.10000 45.62700
C  40.74300 7.04200 44.28300
H  39.98600 6.45500 43.09200
N  44.47900 2.69300 46.79800
C  43.26000 2.09800 46.71700
C  43.46100 0.70700 46.49100
C  44.85700 0.47200 46.57200
C  45.50300 1.76800 46.62000
C  42.42000 -0.36500 46.21300
C  45.42900 -0.89900 46.58400
O  44.79600 -1.95000 46.69500
C  46.84000 -1.10300 46.66500
N  46.94300 4.46700 46.80000
C  47.58100 3.28300 46.60000
C  49.10400 3.45800 46.47500
C  49.23400 4.95200 46.82800
C  47.81700 5.48000 46.82300
C  49.83700 2.50300 47.43600
C  50.25600 5.70500 45.94300
C  49.85200 5.89900 44.57200
N  45.21800 6.73700 47.22700
C  46.34800 7.49500 47.14900
C  46.05500 8.87900 47.15500
C  44.70200 8.90900 47.30200
C  44.23500 7.62000 47.27300
C  47.06200 10.01600 47.00000
C  43.56600 9.79500 47.47500
O  43.55900 11.02600 47.44100
C  42.29900 8.91100 47.36000
C  41.36500 8.97600 48.52400
O  41.45800 8.39100 49.58300
O  40.27700 9.73200 48.14400
C  39.33700 10.05900 49.20300
H  41.14200 2.14400 46.70500
H  47.54300 1.19900 46.39500
H  48.42300 7.50600 47.12600
H  40.19000 6.55100 47.74600
H  40.18800 4.48100 45.52300
H  38.47500 4.44300 47.80700
H  39.80900 3.44400 48.29400
H  38.86500 2.99400 46.86300
H  39.95000 8.12700 45.99300
H  38.90600 6.91200 45.50500
H  41.64300 6.43900 44.39900
H  41.06200 8.07400 44.13900
H  42.68500 -0.87100 45.28400
H  41.43600 0.10100 46.25700
H  42.46200 -1.03700 47.07000
H  47.23800 -0.47700 47.46400
H  47.32100 -0.72500 45.76300
H  47.10600 -2.13400 46.89800
H  49.44800 3.30700 45.45200
H  49.57700 5.19200 47.83500
H  50.76500 2.95800 47.78400
H  49.86900 1.44700 47.16800
H  49.23400 2.32100 48.32500
H  51.18700 5.16300 46.11200
H  50.25100 6.71200 46.35900
H  50.66400 5.66100 43.88500
H  49.40200 6.86500 44.34600
H  49.06000 5.20800 44.28400
H  48.05500 9.82400 47.40800
H  46.69300 10.86700 47.57200
H  47.16900 10.15500 45.92400
H  41.77700 9.20500 46.45000
H  38.59600 9.26400 49.12600
H  39.02800 11.07600 48.96100
H  39.80000 9.94700 50.18300

