158

Mg 35.79100 48.83600 25.05300
C  35.92900 46.83100 28.01700
C  34.10500 51.14300 26.81000
C  35.34500 50.54100 22.24100
C  37.38500 46.21900 23.27800
N  34.95200 48.88700 27.12100
C  35.23700 48.03100 28.17500
C  34.84600 48.64100 29.50000
C  34.12500 49.92700 29.07200
C  34.43100 50.00000 27.57800
C  32.55000 50.00300 29.24900
C  36.04700 49.03400 30.40700
C  35.82400 48.83000 31.90300
H  34.44800 48.56100 32.44100
N  34.87300 50.64400 24.61500
C  34.25300 51.47200 25.49300
C  33.77300 52.62800 24.75200
C  34.06900 52.44000 23.34900
C  34.84900 51.21300 23.36300
C  33.06500 53.82200 25.48300
C  33.79500 53.23300 22.19000
O  34.20100 53.03700 21.01500
C  33.01000 54.49500 22.38400
N  36.30200 48.40700 23.13000
C  35.99900 49.29200 22.16300
C  36.49900 48.82500 20.71400
C  37.34800 47.51100 21.10400
C  37.00800 47.36100 22.58500
C  35.50100 48.58200 19.66100
C  38.82900 47.50000 20.76200
C  39.84000 48.19800 21.80100
N  36.47200 46.93100 25.48100
C  37.10700 45.96200 24.66000
C  37.50000 44.79500 25.47100
C  37.08900 45.10500 26.77000
C  36.43700 46.33500 26.72300
C  38.17700 43.57100 24.91300
C  37.11000 44.59600 28.13900
O  37.48000 43.51700 28.61700
C  36.38300 45.73900 29.09300
C  35.24800 45.11700 29.78000
O  34.08100 45.05100 29.34800
O  35.60800 44.63300 30.94500
C  34.47900 44.20700 31.87100
H  33.61800 51.96000 27.34800
H  35.26000 50.98300 21.24600
H  37.96700 45.45600 22.75800
H  34.12600 48.07800 30.09400
H  34.64900 50.81800 29.41900
H  32.23200 48.97900 29.45000
H  32.00900 50.30300 28.35200
H  32.41900 50.71100 30.06700
H  36.30400 50.08300 30.25300
H  36.86100 48.34800 30.17200
H  36.12800 49.66400 32.53400
H  36.46700 48.02200 32.25000
H  33.63000 54.75400 25.46000
H  32.75600 53.64300 26.51300
H  32.08900 54.11300 25.09400
H  32.54500 54.99200 21.53300
H  33.58100 55.14000 23.05200
H  32.04100 54.28600 22.83800
H  37.21000 49.54100 20.30400
H  36.92200 46.65500 20.58200
H  36.02900 48.38200 18.72900
H  35.04800 49.55400 19.46900
H  34.78500 47.79400 19.89500
H  38.93500 48.12200 19.87300
H  38.99800 46.44500 20.54600
H  39.36200 49.00000 22.36300
H  40.54700 48.66700 21.11700
H  40.33200 47.46100 22.43500
H  37.66500 43.06600 24.09300
H  38.00600 42.87800 25.73700
H  39.21900 43.81400 24.70400
H  37.11300 46.09800 29.81900
H  34.39000 44.78500 32.79200
H  34.62100 43.17200 32.18100
H  33.50600 44.28100 31.38600
Mg -12.12600 17.03300 42.14500
C  -8.95100 15.49300 41.78300
C  -10.80000 19.74900 40.59500
C  -15.22200 18.21700 41.89200
C  -13.36800 13.88500 43.17800
N  -10.08500 17.51800 41.25200
C  -8.88800 16.79800 41.25500
C  -7.68400 17.59500 40.53800
C  -8.38500 19.04200 40.52000
C  -9.81000 18.81100 40.82400
C  -7.86400 20.25000 41.44800
C  -7.18600 16.96800 39.20100
C  -5.75400 16.55300 39.17100
H  -5.52900 15.32700 38.20200
N  -12.90100 18.81300 41.43000
C  -12.19400 19.86500 40.85300
C  -13.01900 21.01100 40.72100
C  -14.34300 20.55500 41.14800
C  -14.22600 19.10200 41.43900
C  -12.53800 22.36000 40.27000
C  -15.57000 21.44300 41.33700
O  -15.39700 22.65200 41.08200
C  -16.90400 20.95600 41.80600
N  -14.04200 16.17600 42.48600
C  -15.16100 16.91700 42.38500
C  -16.39300 16.06000 42.66100
C  -15.75800 14.69400 43.08600
C  -14.26000 14.95700 42.92400
C  -17.54800 16.65600 43.60300
C  -16.39500 13.50900 42.40700
C  -15.85200 13.03200 41.03600
N  -11.33700 15.03500 42.62400
C  -11.98400 13.89800 43.07700
C  -10.96900 12.86500 43.23400
C  -9.82400 13.39600 42.76000
C  -10.08400 14.70700 42.32300
C  -11.24900 11.46000 43.80100
C  -8.41000 13.10500 42.49800
O  -7.75600 12.11600 42.71400
C  -7.83100 14.43000 41.80600
C  -6.51600 14.64800 42.51800
O  -6.41100 14.96600 43.71400
O  -5.56500 14.10900 41.70700
C  -4.24400 13.93600 42.37200
H  -10.23000 20.61000 40.23900
H  -16.20300 18.69600 41.91000
H  -13.87300 12.93900 43.38600
H  -6.85900 17.78100 41.22500
H  -8.27100 19.32400 39.47300
H  -8.59200 20.70000 42.12300
H  -7.43800 21.04500 40.83600
H  -6.96900 19.84700 41.92200
H  -7.34100 17.79200 38.50400
H  -7.82900 16.14300 38.89300
H  -5.46800 16.35700 40.20400
H  -5.03800 17.23500 38.71000
H  -12.85400 22.55300 39.24500
H  -11.45800 22.47200 40.36300
H  -12.84100 23.13200 40.97700
H  -17.58500 21.80800 41.80800
H  -16.76400 20.55500 42.80900
H  -17.24900 20.18500 41.11800
H  -16.78300 15.92300 41.65200
H  -15.87300 14.68300 44.17000
H  -17.21000 17.65200 43.88900
H  -17.67900 16.10900 44.53600
H  -18.51500 16.55700 43.11000
H  -17.41400 13.83500 42.19600
H  -16.46200 12.62200 43.03700
H  -16.57500 12.98600 40.22200
H  -15.41100 12.04000 41.13400
H  -15.08000 13.69200 40.64000
H  -11.27800 10.60100 43.13100
H  -12.08200 11.50900 44.50200
H  -10.49500 11.06300 44.48000
H  -7.62300 14.16400 40.76900
H  -3.53800 13.74400 41.56300
H  -4.34400 13.09800 43.06100
H  -4.02300 14.88300 42.86500

