158

Mg 43.43700 3.82200 46.88500
C  41.39000 6.73700 46.61300
C  40.69000 1.92600 46.88900
C  45.30300 1.14800 46.10000
C  46.27400 5.83000 46.42500
N  41.35800 4.36100 46.89100
C  40.71300 5.56500 46.76400
C  39.22100 5.47500 46.95700
C  39.00100 3.96300 47.25400
C  40.44900 3.35300 47.02700
C  38.24600 3.54000 48.56500
C  38.34700 5.97200 45.72800
C  38.57600 5.38800 44.31200
H  39.33800 6.28200 43.40200
N  43.04900 1.78500 46.64000
C  41.82900 1.19300 46.62500
C  41.94100 -0.22500 46.34200
C  43.32900 -0.48000 46.10900
C  43.95900 0.83200 46.23900
C  40.71900 -1.20400 46.42700
C  43.93900 -1.80400 45.76000
O  43.23200 -2.78200 45.71300
C  45.35900 -1.97500 45.29100
N  45.60400 3.55300 46.56900
C  46.06500 2.28000 46.32700
C  47.58900 2.30100 46.40000
C  47.91500 3.87400 46.20900
C  46.54400 4.48100 46.39100
C  48.23900 1.55800 47.65700
C  48.67500 4.25900 44.88200
C  50.22300 4.32100 44.95400
N  43.84000 5.87600 46.64000
C  45.03100 6.54100 46.53700
C  44.72500 7.96400 46.54000
C  43.32200 8.04200 46.53500
C  42.85300 6.74800 46.55200
C  45.75500 9.09500 46.66100
C  42.22900 8.96800 46.42800
O  42.26800 10.13900 46.26200
C  40.91900 8.18600 46.51500
C  40.26400 8.58300 47.78300
O  40.45600 8.10900 48.89800
O  39.26900 9.51500 47.45300
C  38.44500 9.86800 48.62500
H  39.74400 1.38700 46.80700
H  45.89300 0.24500 45.93100
H  47.18800 6.38600 46.20600
H  39.00900 5.97600 47.90200
H  38.42700 3.40600 46.51300
H  37.72300 4.38500 49.01300
H  38.87600 3.23000 49.39800
H  37.55000 2.71200 48.42500
H  38.34900 7.04800 45.55300
H  37.27400 5.95000 45.91700
H  37.55200 5.17500 44.00400
H  39.13500 4.45300 44.30900
H  40.45800 -1.48500 45.40600
H  39.85000 -0.69400 46.84200
H  40.88200 -2.05900 47.08300
H  46.04000 -1.81800 46.12700
H  45.57400 -1.41500 44.38100
H  45.50500 -3.01500 44.99600
H  47.85100 1.70400 45.52600
H  48.55600 4.27900 46.99200
H  48.79100 0.69400 47.28700
H  47.59100 1.09200 48.39900
H  48.85300 2.25200 48.23100
H  48.36200 5.24800 44.54700
H  48.38800 3.60300 44.06000
H  50.52700 3.75100 45.83200
H  50.47200 5.38100 44.91000
H  50.63300 3.78900 44.09500
H  46.26600 9.08900 45.69800
H  46.47400 8.84700 47.44200
H  45.17000 9.98000 46.91000
H  40.18800 8.28500 45.71300
H  37.71600 9.06800 48.75300
H  37.95300 10.78600 48.30600
H  38.98200 10.15300 49.53000
Mg 40.57800 9.31800 28.82800
C  42.36500 10.02800 31.85400
C  38.27300 7.60700 30.82500
C  39.03400 8.40500 26.11600
C  43.41600 10.24300 27.16800
N  40.28800 8.88400 31.03100
C  41.11500 9.32900 32.03900
C  40.52500 9.05000 33.40400
C  39.50000 7.92200 33.07600
C  39.30800 8.11300 31.55700
C  40.06200 6.57700 33.40500
C  39.85800 10.30300 34.14300
C  40.39900 10.47300 35.54400
H  40.66300 11.92400 36.10200
N  38.78100 8.43600 28.54100
C  37.97200 7.75400 29.43400
C  36.74700 7.23400 28.74100
C  36.95800 7.54900 27.33200
C  38.32900 8.11900 27.26300
C  35.59800 6.35500 29.40400
C  36.03300 7.29100 26.13600
O  36.31600 7.49200 24.96200
C  34.73800 6.71900 26.54800
N  41.23700 9.05000 26.90800
C  40.35600 8.75900 25.88500
C  41.07700 8.90800 24.47500
C  42.33500 9.65200 24.87400
C  42.39500 9.64800 26.39800
C  41.23900 7.58000 23.63500
C  42.59700 11.02500 24.26400
C  41.96200 12.22000 24.91200
N  42.52700 10.06500 29.36700
C  43.53200 10.45500 28.56400
C  44.62600 10.94000 29.30800
C  44.16400 10.92600 30.64000
C  42.88700 10.30400 30.57200
C  45.87100 11.54100 28.73500
C  44.43600 11.28100 32.13700
O  45.39300 11.79100 32.68900
C  43.31500 10.66300 32.91400
C  43.91600 9.64700 33.87500
O  44.26900 8.47100 33.60100
O  43.90300 10.09400 35.20100
C  44.36200 9.30100 36.28400
H  37.58200 6.93900 31.34300
H  38.52200 8.32700 25.15500
H  44.24100 10.65900 26.58600
H  41.34300 8.65300 34.00600
H  38.54200 8.14100 33.54800
H  39.54600 6.17800 34.27900
H  41.14800 6.48600 33.39600
H  39.87700 5.86500 32.60100
H  38.76900 10.25000 34.14400
H  40.09800 11.20000 33.57100
H  41.27700 9.84100 35.67200
H  39.62600 10.07500 36.20100
H  34.71500 6.99000 29.47500
H  35.98000 6.01300 30.36600
H  35.39300 5.42500 28.87300
H  34.90400 5.69600 26.88500
H  34.08800 6.59100 25.68300
H  34.14900 7.31500 27.24500
H  40.52900 9.53500 23.77100
H  43.26900 9.12800 24.67200
H  41.63800 6.86400 24.35300
H  42.01400 7.69300 22.87700
H  40.28200 7.16500 23.31900
H  42.27600 11.10700 23.22500
H  43.68100 11.10800 24.33900
H  41.26400 11.92600 25.69600
H  41.38100 12.75400 24.15900
H  42.76000 12.86300 25.28300
H  45.55300 12.36500 28.09600
H  46.44100 10.81700 28.15300
H  46.60900 11.90000 29.45300
H  42.81200 11.41900 33.51600
H  44.65400 9.98000 37.08600
H  45.23500 8.85200 35.81200
H  43.62800 8.55600 36.59100

