158

Mg 41.20100 41.06700 26.83100
C  40.52400 43.43200 29.43900
C  41.92300 38.73100 29.15400
C  41.97500 38.96100 24.36100
C  40.51200 43.51700 24.51500
N  41.15500 41.05300 29.05500
C  40.84000 42.13700 29.88500
C  40.88500 41.66400 31.35200
C  41.35300 40.13300 31.24100
C  41.45100 39.94500 29.70100
C  42.71300 39.76800 31.81200
C  39.58500 41.82700 32.15900
C  39.45000 42.97600 33.15900
H  38.98300 42.61800 34.65500
N  41.92200 39.14900 26.75800
C  42.12900 38.36000 27.83900
C  42.60100 37.11300 27.43400
C  42.57300 37.07800 26.00700
C  42.10600 38.43500 25.65500
C  43.05000 35.99700 28.47500
C  42.81100 35.95100 25.03200
O  42.58600 36.05200 23.82100
C  43.34000 34.59200 25.52900
N  41.45300 41.27600 24.74600
C  41.66400 40.23600 23.93800
C  41.40500 40.59400 22.43800
C  40.61500 41.96700 22.56900
C  40.79900 42.23300 24.07900
C  42.66700 40.49500 21.54800
C  39.20200 41.85800 21.95900
C  38.19100 41.41600 22.99900
N  40.68700 43.05900 26.91700
C  40.49300 43.96100 25.85800
C  40.08300 45.29100 26.38200
C  40.14600 45.12400 27.74500
C  40.47000 43.75100 28.02300
C  39.60800 46.55500 25.63300
C  39.87000 45.76600 28.93900
O  39.50700 46.88400 29.14400
C  40.21400 44.74300 30.15000
C  41.41400 45.24900 30.91000
O  42.50300 44.80900 30.78600
O  40.94000 46.05600 31.94100
C  41.89800 46.45300 33.03300
H  42.17900 38.13300 30.03200
H  42.18200 38.29600 23.51900
H  40.17600 44.22200 23.75100
H  41.67400 42.27100 31.79700
H  40.60400 39.39700 31.53300
H  42.82500 40.50300 32.60900
H  43.51600 39.83600 31.07900
H  42.69400 38.76400 32.23700
H  39.40600 40.90600 32.71400
H  38.67900 41.84000 31.55300
H  38.75500 43.65900 32.67200
H  40.44100 43.42900 33.16200
H  42.42500 36.16300 29.35200
H  44.09100 36.05100 28.79200
H  42.86400 34.97500 28.14600
H  42.54900 33.89800 25.81500
H  44.06500 34.67500 26.33900
H  43.94800 34.18700 24.72100
H  40.67900 39.90800 22.00100
H  41.29600 42.65700 22.07100
H  42.66100 39.56800 20.97400
H  43.52100 40.44300 22.22400
H  42.76500 41.36200 20.89500
H  39.18800 41.20600 21.08600
H  38.93900 42.82600 21.53200
H  38.65300 40.83400 23.79700
H  37.31000 40.85300 22.68800
H  37.93800 42.38400 23.43200
H  38.84200 46.16300 24.96400
H  40.40900 46.95800 25.01400
H  39.27500 47.32600 26.32900
H  39.29100 44.78400 30.72700
H  42.75200 46.91000 32.53300
H  42.24500 45.57200 33.57300
H  41.37300 47.12500 33.71100
Mg -9.51700 17.68900 42.24100
C  -6.16300 17.27100 42.55400
C  -9.11200 20.96800 41.45200
C  -12.85500 17.89300 41.40800
C  -9.85800 14.16400 42.20800
N  -7.81400 18.92300 42.07000
C  -6.52300 18.61200 42.36600
C  -5.59300 19.87100 42.27300
C  -6.64400 20.99600 42.29400
C  -7.95700 20.26800 41.91000
C  -6.73400 21.72400 43.70700
C  -4.70000 19.84400 40.94700
C  -5.03200 18.77000 39.91000
H  -4.62000 19.15300 38.52800
N  -10.78100 19.25000 41.57400
C  -10.39200 20.46100 41.20600
C  -11.55000 21.26600 40.82000
C  -12.68600 20.46600 40.91900
C  -12.12600 19.12100 41.29700
C  -11.41500 22.73500 40.40200
C  -14.11000 20.87000 40.76700
O  -14.42800 22.04100 40.52400
C  -15.38300 19.94700 40.93800
N  -11.10100 16.26200 41.84600
C  -12.39300 16.63100 41.74800
C  -13.35400 15.45900 41.72300
C  -12.36200 14.22500 41.84100
C  -10.95900 14.88200 41.98500
C  -14.36700 15.47600 42.87700
C  -12.33400 13.39100 40.46700
C  -12.83600 11.86900 40.51200
N  -8.28100 16.03400 42.40400
C  -8.55400 14.67000 42.45100
C  -7.30600 13.97600 42.67900
C  -6.33800 14.93300 42.85300
C  -7.01100 16.17000 42.64200
C  -7.09800 12.47000 42.74100
C  -4.94600 15.28400 43.04500
O  -3.96400 14.58000 43.12200
C  -4.79500 16.85000 42.99400
C  -4.43300 17.33100 44.35000
O  -3.43600 17.99300 44.54300
O  -5.41300 16.96900 45.25200
C  -5.08100 17.28600 46.71100
H  -9.08700 22.05900 41.42800
H  -13.86500 17.81900 41.00000
H  -10.00000 13.08400 42.27700
H  -4.81900 19.90600 43.04000
H  -6.58300 21.70400 41.46700
H  -5.91100 21.58700 44.40900
H  -7.68500 21.50100 44.19000
H  -6.60800 22.78000 43.46700
H  -3.68300 19.70800 41.31400
H  -4.90200 20.82000 40.50400
H  -6.08100 18.47300 39.90500
H  -4.51000 17.83800 40.12600
H  -10.75800 22.80200 39.53500
H  -11.12800 23.32800 41.27100
H  -12.34300 23.23800 40.12700
H  -15.45700 19.02300 40.36500
H  -16.21200 20.57300 40.60800
H  -15.50000 19.72700 41.99900
H  -14.02200 15.46200 40.86200
H  -12.70400 13.61500 42.67700
H  -14.52000 14.53200 43.39900
H  -15.31600 15.85600 42.49900
H  -14.00400 16.15000 43.65300
H  -11.31700 13.34700 40.07700
H  -12.89900 13.92900 39.70500
H  -13.13400 11.61300 41.52900
H  -12.00700 11.24300 40.18000
H  -13.71100 11.93600 39.86600
H  -7.37500 12.34700 43.78800
H  -6.08800 12.14200 42.49700
H  -7.72400 11.77700 42.17900
H  -4.05500 17.12700 42.24300
H  -5.96400 17.80000 47.09200
H  -4.26100 17.99600 46.81900
H  -4.91200 16.33600 47.21700

