158

Mg 26.71400 50.36600 26.19500
C  24.81100 51.51800 28.88500
C  29.10100 49.38800 28.56700
C  28.62100 49.48200 23.76200
C  24.36300 51.76400 24.03800
N  27.01300 50.63600 28.54200
C  25.94400 50.95400 29.29200
C  26.40500 50.66800 30.76100
C  27.81300 50.09800 30.74000
C  28.05900 50.02200 29.21700
C  29.02600 50.95300 31.31700
C  25.36200 49.89400 31.61800
C  24.81000 50.69600 32.86900
H  24.62500 49.89500 34.14100
N  28.58700 49.54300 26.19700
C  29.35800 49.11200 27.20700
C  30.51100 48.35400 26.71100
C  30.44200 48.40700 25.31500
C  29.20300 49.24300 25.05100
C  31.55200 47.78200 27.49200
C  31.46900 47.92600 24.24900
O  31.35800 48.12200 23.09700
C  32.71900 47.13700 24.66500
N  26.64300 50.84800 24.17400
C  27.44000 50.15600 23.38100
C  27.07000 50.21600 21.87900
C  25.66600 50.93200 22.01500
C  25.49700 51.13000 23.51000
C  27.98200 50.82900 20.91700
C  24.42800 50.18900 21.39700
C  23.75600 51.01800 20.31800
N  24.92700 51.39800 26.40400
C  24.07100 51.92700 25.39700
C  23.05600 52.70100 26.04200
C  23.34300 52.46400 27.41000
C  24.42800 51.75300 27.56900
C  21.99300 53.54000 25.40700
C  22.79000 52.78300 28.75000
O  21.78000 53.44900 29.03600
C  23.73600 52.16300 29.75700
C  24.23400 53.29600 30.56100
O  25.15400 54.01700 30.18200
O  23.45000 53.57500 31.65900
C  24.11300 54.48700 32.63400
H  29.73500 48.81900 29.25100
H  29.21300 49.00200 22.98000
H  23.62000 52.03400 23.28400
H  26.61400 51.65700 31.16800
H  27.74300 49.13500 31.24500
H  28.65100 51.92900 31.62500
H  29.70600 51.36900 30.57400
H  29.60300 50.39600 32.05500
H  25.78400 48.95400 31.97300
H  24.45900 49.59200 31.08700
H  23.84500 51.11400 32.58400
H  25.57200 51.44400 33.08600
H  31.46000 47.93300 28.56700
H  32.52300 48.20700 27.23700
H  31.54200 46.71500 27.27000
H  33.62400 47.68300 24.93300
H  32.93600 46.55900 23.76600
H  32.63600 46.42300 25.48400
H  26.91100 49.16800 21.62700
H  25.81500 51.91200 21.56000
H  28.78600 51.36800 21.41800
H  27.49500 51.48500 20.19600
H  28.34000 49.98700 20.32500
H  23.75700 49.86000 22.19000
H  24.78100 49.30100 20.87200
H  23.69800 50.47800 19.37300
H  24.30200 51.89100 19.96100
H  22.73600 51.27300 20.60700
H  21.99400 53.59800 24.31900
H  21.97200 54.54800 25.82300
H  21.07700 53.00400 25.65900
H  23.21400 51.38100 30.30800
H  23.99800 55.55900 32.47400
H  25.17800 54.27100 32.71600
H  23.74500 54.35300 33.65200
Mg -11.15000 16.11900 42.06900
C  -8.27000 14.18200 41.44300
C  -9.75000 18.63500 40.25900
C  -14.24100 17.62600 41.75500
C  -12.68900 13.18000 43.27200
N  -9.25300 16.36500 41.07600
C  -8.15800 15.48000 40.97900
C  -6.94400 16.14200 40.44900
C  -7.44300 17.60600 40.07600
C  -8.91000 17.56800 40.57300
C  -6.59300 18.75200 40.67700
C  -6.31400 15.44600 39.22900
C  -4.83500 15.05000 39.24800
H  -3.85800 15.57800 38.14000
N  -11.87900 17.99000 41.38000
C  -11.06900 18.87900 40.66100
C  -11.82000 20.10700 40.52100
C  -13.19200 19.82500 40.89000
C  -13.13100 18.40800 41.37100
C  -11.26600 21.43100 39.95300
C  -14.28200 20.87500 40.93600
O  -14.12000 22.02500 40.59600
C  -15.61400 20.42500 41.52500
N  -13.21200 15.41500 42.30400
C  -14.27800 16.26500 42.25900
C  -15.56900 15.58800 42.69000
C  -15.10400 14.18300 43.08200
C  -13.59600 14.21200 42.88100
C  -16.45200 16.44200 43.63100
C  -15.82300 13.04100 42.36500
C  -16.27800 11.80100 43.26400
N  -10.58700 14.15700 42.38100
C  -11.32200 13.03100 42.97700
C  -10.45100 11.87000 43.09700
C  -9.24200 12.32900 42.51500
C  -9.39900 13.66700 42.05800
C  -10.97000 10.60500 43.77100
C  -7.86700 11.89600 42.08000
O  -7.31200 10.81000 42.21200
C  -7.18400 13.16000 41.61900
C  -6.18900 13.68500 42.65500
O  -6.49300 14.31100 43.69500
O  -4.89500 13.44900 42.25000
C  -3.78200 13.85900 43.23900
H  -9.29500 19.51100 39.79200
H  -15.26700 17.91300 41.51300
H  -13.12900 12.29100 43.72800
H  -6.19600 16.14100 41.24200
H  -7.47400 17.76000 38.99700
H  -6.30500 19.54800 39.98900
H  -5.77400 18.22600 41.16700
H  -7.18200 19.13800 41.50900
H  -6.45400 15.92900 38.26200
H  -6.94600 14.58700 39.00500
H  -4.82700 13.96600 39.13300
H  -4.41300 15.19000 40.24300
H  -11.82700 21.78000 39.08600
H  -10.25000 21.26300 39.59500
H  -11.30700 22.16300 40.75900
H  -16.26200 21.30000 41.58900
H  -15.44200 19.94900 42.49100
H  -16.14200 19.67700 40.93500
H  -16.12700 15.46700 41.76100
H  -15.17400 13.94200 44.14300
H  -17.27400 16.89200 43.07500
H  -15.80700 17.17000 44.12400
H  -16.90800 15.80800 44.39200
H  -15.29500 12.61400 41.51300
H  -16.75400 13.38500 41.91600
H  -16.32500 10.82600 42.77900
H  -17.29900 12.01700 43.57800
H  -15.61700 11.77300 44.13000
H  -10.10500 10.29400 44.35600
H  -11.27700 9.84000 43.05800
H  -11.69600 10.97900 44.49300
H  -6.64600 12.99200 40.68600
H  -3.49000 14.84200 42.87100
H  -2.96600 13.13600 43.21400
H  -4.05000 13.96700 44.28900

