158

Mg 7.80900 3.34500 27.79400
C  8.93300 1.73400 30.80300
C  6.21300 5.58900 29.70300
C  6.76900 4.61900 24.94800
C  9.69300 0.93500 25.98300
N  7.55000 3.50900 30.04700
C  8.17000 2.81000 31.04200
C  7.94000 3.49200 32.42700
C  6.77100 4.53600 32.07700
C  6.87100 4.64700 30.52700
C  5.38700 4.17700 32.51800
C  9.23600 4.17000 33.06500
C  8.98200 4.85900 34.39700
H  9.87100 4.63400 35.60100
N  6.60000 4.94500 27.36200
C  5.98600 5.70200 28.29200
C  5.17800 6.67400 27.59700
C  5.44300 6.48500 26.16500
C  6.30400 5.35500 26.10800
C  4.41300 7.74100 28.31500
C  4.93900 7.35500 25.01300
O  5.22400 7.12400 23.82400
C  3.97900 8.45100 25.31600
N  8.03700 2.71200 25.74600
C  7.44900 3.41100 24.81200
C  7.64300 2.75400 23.41300
C  8.81100 1.78800 23.70400
C  8.93700 1.82400 25.23900
C  6.35500 1.97000 22.90900
C  10.15400 1.96000 22.94800
C  10.88700 0.66100 22.59400
N  8.94500 1.70000 28.23500
C  9.74800 0.91800 27.39000
C  10.44500 -0.06200 28.21000
C  10.18100 0.22500 29.50500
C  9.20400 1.28900 29.49000
C  11.31800 -1.16500 27.70000
C  10.46800 -0.17200 30.75500
O  11.18500 -1.09000 31.12600
C  9.76500 0.85000 31.69900
C  9.02700 0.10400 32.67400
O  7.96300 -0.57800 32.50400
O  9.67800 0.27800 33.82000
C  9.16100 -0.34500 35.02300
H  5.77200 6.31500 30.38800
H  6.30800 5.02900 24.04700
H  10.24100 0.17400 25.42200
H  7.68300 2.69300 33.12300
H  7.14000 5.38000 32.66000
H  5.44400 3.27400 33.12600
H  4.70100 4.04900 31.68000
H  5.13700 5.01700 33.16500
H  9.59800 4.97400 32.42500
H  9.96100 3.37200 33.22400
H  7.94400 4.79100 34.72400
H  9.09200 5.90900 34.12800
H  4.74200 8.76200 28.12200
H  4.56700 7.58500 29.38300
H  3.35400 7.60100 28.09700
H  3.88600 9.04000 24.40300
H  4.43700 9.09200 26.07000
H  3.00400 8.15900 25.70600
H  7.93900 3.53200 22.71000
H  8.46900 0.76600 23.54100
H  5.42700 2.27000 23.39600
H  6.44700 0.89600 22.74400
H  6.15800 2.29400 21.88700
H  10.82300 2.40900 23.68200
H  10.02500 2.54400 22.03700
H  11.75400 0.50700 23.23600
H  11.09400 0.52100 21.53300
H  10.16800 -0.14400 22.74100
H  12.07200 -1.45500 28.43100
H  11.85300 -0.83100 26.81000
H  10.70100 -1.95900 27.28000
H  10.56800 1.38200 32.21000
H  9.74700 -1.20100 35.35800
H  8.20500 -0.81800 34.80000
H  9.11900 0.46400 35.75400
Mg 49.59200 35.52200 27.78700
C  47.31400 34.18900 30.32000
C  50.13000 38.20300 29.84600
C  51.30200 36.96900 25.29300
C  48.61300 32.96700 25.74100
N  48.80900 36.11300 29.87200
C  47.90100 35.44600 30.70300
C  47.63900 36.27400 31.95000
C  48.51800 37.55500 31.71700
C  49.18000 37.28400 30.44000
C  47.73900 38.93300 31.80200
C  47.99600 35.61300 33.30800
C  49.25000 34.69600 33.32300
H  50.55300 35.17700 33.96800
N  50.81100 37.22300 27.72300
C  50.92900 38.18700 28.67300
C  51.99200 39.16300 28.23600
C  52.38400 38.67800 26.99900
C  51.52100 37.52200 26.61600
C  52.47400 40.21700 29.23500
C  53.46800 39.29900 26.13400
O  53.75700 38.76500 25.08900
C  54.07300 40.71300 26.48500
N  49.98200 35.01300 25.76500
C  50.66100 35.78100 24.86600
C  50.85300 35.07900 23.48900
C  49.94500 33.81100 23.64000
C  49.46700 33.90700 25.12800
C  50.59900 36.00700 22.23700
C  50.60100 32.42700 23.29500
C  49.62500 31.61700 22.49900
N  48.26300 33.94600 27.97300
C  48.04800 32.88400 27.04700
C  47.11500 31.89200 27.55600
C  46.77100 32.40200 28.83200
C  47.50700 33.61500 29.08100
C  46.68300 30.63600 26.86700
C  45.90900 32.13600 29.96100
O  45.09400 31.24200 30.15400
C  46.07800 33.33000 30.88100
C  46.26600 32.88500 32.26300
O  47.18300 32.22300 32.70600
O  45.26600 33.34200 33.08700
C  45.21500 32.87600 34.47300
H  50.26300 39.13200 30.40500
H  51.73000 37.47400 24.42400
H  48.52800 32.04600 25.16100
H  46.57300 36.49500 31.89800
H  49.24200 37.63100 32.52800
H  47.52900 39.53200 30.91600
H  48.36800 39.58700 32.40500
H  46.81300 38.94500 32.37800
H  47.11700 35.07100 33.65600
H  48.10500 36.30800 34.14100
H  49.61500 34.29900 32.37600
H  49.08100 33.84100 33.97800
H  53.20700 39.69600 29.85100
H  51.61500 40.57200 29.80400
H  52.83400 41.10300 28.71000
H  53.30600 41.48400 26.41400
H  54.77500 40.92300 25.67700
H  54.54800 40.62500 27.46200
H  51.90200 34.80900 23.37100
H  49.05800 33.97200 23.02700
H  50.46200 37.07500 22.40500
H  49.74000 35.58600 21.71500
H  51.54800 35.97400 21.70200
H  50.82800 31.84300 24.18800
H  51.55200 32.51100 22.77000
H  48.71300 32.08800 22.13100
H  49.27900 30.65300 22.87100
H  50.08000 31.53400 21.51100
H  45.90500 30.86800 26.13900
H  46.31600 29.91500 27.59700
H  47.58000 30.23000 26.40000
H  45.22300 34.00300 30.81900
H  44.78600 31.87500 34.52000
H  44.73600 33.58600 35.14700
H  46.22100 32.74500 34.87100

