158

Mg 46.50200 16.16400 27.69100
C  44.62000 15.44700 30.62100
C  48.80500 17.87200 29.72100
C  47.73900 17.55200 24.99300
C  43.93000 14.74100 25.82700
N  46.59500 16.72600 29.95400
C  45.75600 16.33000 30.93500
C  46.26000 16.79400 32.33200
C  47.53600 17.67600 31.93800
C  47.69800 17.38600 30.44400
C  47.43700 19.21000 32.33200
C  46.63500 15.53900 33.22400
C  46.20700 15.62000 34.74300
H  45.73600 17.02600 35.24300
N  48.03900 17.51100 27.39300
C  48.89800 17.92500 28.34700
C  50.01100 18.66100 27.62000
C  49.67700 18.67500 26.23400
C  48.49000 17.84300 26.15200
C  51.25700 19.21800 28.38100
C  50.47100 19.24300 25.07400
O  50.11300 19.14800 23.89200
C  51.85600 19.73500 25.45100
N  45.99400 15.98400 25.61100
C  46.68700 16.72100 24.71700
C  46.01900 16.59100 23.31500
C  44.93600 15.43500 23.62200
C  44.94700 15.32400 25.07100
C  45.45100 17.94800 22.76100
C  45.31600 14.06200 22.96900
C  46.38800 13.08400 23.52800
N  44.76400 15.09300 28.09000
C  43.80100 14.63200 27.21300
C  42.66900 14.16800 27.98000
C  42.96700 14.41800 29.34000
C  44.20400 15.03200 29.36300
C  41.44800 13.47100 27.45500
C  42.49200 14.22600 30.70100
O  41.48000 13.67600 31.12600
C  43.56800 14.94800 31.64900
C  42.88200 16.04600 32.36300
O  42.42000 17.06800 31.85700
O  42.58400 15.63200 33.60700
C  41.52200 16.37700 34.25000
H  49.64700 18.16800 30.35000
H  48.14000 17.89300 24.03600
H  43.02300 14.43100 25.30300
H  45.39000 17.27400 32.77900
H  48.45200 17.42100 32.47000
H  48.34400 19.59000 32.80200
H  46.52800 19.36900 32.91300
H  47.28400 19.75200 31.39900
H  47.70100 15.35200 33.35400
H  46.10700 14.66200 32.85000
H  47.04800 15.33100 35.37500
H  45.43800 14.85700 34.86200
H  51.36200 20.26200 28.08600
H  52.16300 18.74600 28.00100
H  51.13600 19.06400 29.45300
H  51.93500 20.63500 26.06100
H  52.38500 20.06900 24.55900
H  52.48700 18.92400 25.81300
H  46.75400 16.18600 22.61900
H  43.98000 15.76400 23.21400
H  44.91700 17.79800 21.82200
H  46.13600 18.79500 22.79600
H  44.64300 18.02500 23.48900
H  45.57700 14.20000 21.91900
H  44.39800 13.47400 22.95100
H  46.94900 12.66400 22.69400
H  45.87000 12.29100 24.06800
H  47.02800 13.62100 24.22800
H  41.64600 12.45500 27.11400
H  41.13500 14.03400 26.57500
H  40.53900 13.50400 28.05400
H  44.04000 14.29100 32.37900
H  40.84600 15.66300 34.72100
H  40.84100 16.96700 33.63600
H  41.89400 16.98300 35.07500
Mg 16.82900 51.87200 26.55000
C  18.71800 50.73600 28.99900
C  14.47100 52.82700 28.97600
C  15.08300 53.35400 24.21700
C  19.30300 51.04900 24.15800
N  16.60400 51.74500 28.68700
C  17.57400 51.32000 29.51100
C  17.28000 51.45800 31.08600
C  15.76200 51.88100 30.97000
C  15.61200 52.24200 29.50500
C  14.79400 50.82300 31.53300
C  18.34500 52.43700 31.87700
C  18.30200 52.17900 33.43800
H  17.18200 51.47900 34.16800
N  14.91600 52.81500 26.58000
C  14.11800 53.11400 27.64300
C  12.87800 53.86800 27.16100
C  13.05300 54.07500 25.76000
C  14.36000 53.36200 25.43300
C  11.67200 54.26100 27.97500
C  12.16300 54.70000 24.69700
O  12.48200 54.64400 23.50400
C  10.90000 55.54800 25.03000
N  17.16500 52.06700 24.48000
C  16.25200 52.71900 23.76400
C  16.69300 53.16400 22.35400
C  17.96300 52.26400 22.25600
C  18.23100 51.85400 23.72000
C  15.67700 52.98400 21.20400
C  19.24100 52.87400 21.50400
C  19.73700 52.02000 20.29400
N  18.49600 50.82800 26.46400
C  19.43000 50.62700 25.45800
C  20.50400 49.83200 26.02200
C  20.27500 49.92500 27.40700
C  19.08100 50.54600 27.61700
C  21.64600 49.22400 25.30400
C  20.81600 49.48400 28.67400
O  21.74900 48.71900 28.89300
C  19.88500 50.12200 29.76300
C  19.50500 49.05300 30.66100
O  18.66600 48.13900 30.46600
O  20.14700 49.11200 31.83000
C  19.49500 48.34800 32.93800
H  13.71300 53.10900 29.71000
H  14.86700 54.13300 23.48300
H  20.08400 50.80200 23.43600
H  17.35300 50.50800 31.61600
H  15.55800 52.82000 31.48600
H  15.19600 50.10700 32.25000
H  14.32000 50.30300 30.70000
H  13.94300 51.28100 32.03700
H  17.98400 53.41700 31.56500
H  19.38000 52.31400 31.55600
H  18.52900 53.11800 33.94200
H  19.16600 51.51400 33.45600
H  10.80400 53.62200 27.81500
H  11.31900 55.28800 27.87800
H  11.90100 54.13000 29.03300
H  10.26000 55.50100 24.14800
H  11.11500 56.60600 25.18000
H  10.37200 55.06400 25.85200
H  17.01300 54.20000 22.46700
H  17.75600 51.36100 21.68100
H  14.92700 52.26300 21.52900
H  16.19900 52.74600 20.27700
H  15.14400 53.91900 21.03100
H  20.02600 52.83800 22.26000
H  19.07700 53.91800 21.23600
H  19.43400 52.56000 19.39700
H  19.38400 50.99000 20.25500
H  20.82600 52.04700 20.33600
H  21.46100 48.19400 24.99700
H  22.54900 49.28600 25.91200
H  21.70800 49.67400 24.31300
H  20.45400 50.84000 30.35400
H  18.45700 48.65600 33.06000
H  20.02000 48.57500 33.86600
H  19.52100 47.27900 32.72600

