158

Mg 3.54600 -0.05600 44.43100
C  6.91900 0.12800 43.96700
C  3.21400 2.72800 42.25300
C  0.16700 -0.62700 43.96200
C  3.81500 -2.97100 46.17000
N  4.95000 1.20000 43.18200
C  6.31900 1.09300 43.14200
C  6.98600 2.09200 42.25300
C  5.76300 3.07600 42.03400
C  4.54200 2.29900 42.54800
C  5.87600 4.47100 42.80000
C  7.64500 1.44400 40.96900
C  8.29700 2.45100 39.99500
H  7.62200 2.72700 38.73800
N  1.93300 1.03900 43.44600
C  2.01200 2.13200 42.62800
C  0.69300 2.48800 42.03800
C  -0.18800 1.53100 42.50200
C  0.63300 0.61800 43.38700
C  0.47800 3.71500 41.20400
C  -1.65700 1.45000 42.18600
O  -2.18900 2.23600 41.41000
C  -2.57800 0.33800 42.74000
N  2.17200 -1.59500 44.98900
C  0.81800 -1.52200 44.71700
C  0.16900 -2.86600 45.18300
C  1.25900 -3.55500 45.96200
C  2.51600 -2.68000 45.70900
C  -1.14200 -2.61000 46.10400
C  1.58500 -5.07000 45.66700
C  0.37400 -5.91500 45.22300
N  5.00400 -1.18100 45.05800
C  4.98900 -2.34800 45.81700
C  6.37200 -2.70200 46.06000
C  7.14700 -1.71300 45.41600
C  6.27000 -0.83600 44.76100
C  6.76700 -3.89700 46.83100
C  8.50300 -1.23900 45.07500
O  9.59400 -1.66600 45.43600
C  8.43400 -0.07400 44.11800
C  9.02300 1.13500 44.84200
O  8.73400 1.56300 45.91600
O  9.86200 1.66500 43.91600
C  10.31000 3.00000 44.29500
H  3.29200 3.67300 41.71100
H  -0.88400 -0.91100 43.87500
H  3.86300 -3.83600 46.83500
H  7.81000 2.55700 42.79500
H  5.64800 3.31800 40.97800
H  6.69600 4.51200 43.51700
H  4.96300 4.65600 43.36500
H  6.05000 5.24900 42.05600
H  6.84400 0.86200 40.51200
H  8.51000 0.83200 41.22300
H  9.34000 2.20400 39.79700
H  8.32700 3.44500 40.44100
H  1.03800 3.59400 40.27700
H  0.97400 4.62700 41.53600
H  -0.53500 3.94500 40.87500
H  -3.60500 0.36800 42.37600
H  -2.63200 0.38600 43.82800
H  -2.24300 -0.67100 42.50000
H  -0.07100 -3.36100 44.24200
H  1.08000 -3.51200 47.03600
H  -1.84500 -3.35000 45.72100
H  -1.49000 -1.58100 46.18600
H  -0.95800 -2.92800 47.13100
H  2.04200 -5.54100 46.53700
H  2.35300 -5.05700 44.89400
H  0.61000 -6.53800 44.36100
H  -0.57400 -5.39300 45.09600
H  0.22300 -6.66300 46.00200
H  7.69200 -3.78900 47.39700
H  6.99300 -4.78300 46.23700
H  5.99100 -4.25600 47.50700
H  8.94800 -0.44600 43.23100
H  10.57400 3.47600 43.35100
H  11.16100 3.11400 44.96700
H  9.58600 3.68500 44.73800
Mg 46.61800 24.70400 29.53700
C  47.26700 26.95900 32.14900
C  46.12600 22.26200 31.89000
C  46.69100 22.44000 27.10900
C  47.71400 27.27900 27.33100
N  46.60100 24.62700 31.77100
C  46.88300 25.69500 32.63600
C  46.67700 25.19500 34.05100
C  46.55200 23.65900 33.93700
C  46.37500 23.51000 32.42900
C  47.61500 22.83900 34.72300
C  45.40900 25.99300 34.61900
C  45.58900 26.44600 36.13600
H  44.42400 26.13500 37.11000
N  46.34700 22.63200 29.51300
C  46.02400 21.81800 30.56600
C  45.83700 20.47500 30.12100
C  46.05600 20.47600 28.73000
C  46.35100 21.91500 28.39000
C  45.50600 19.34000 31.10300
C  46.10500 19.27200 27.79800
O  46.57800 19.36800 26.66700
C  45.56600 17.96800 28.29700
N  47.14200 24.86500 27.56400
C  47.06200 23.71200 26.75200
C  47.47100 24.16500 25.32200
C  47.40100 25.68700 25.33700
C  47.41700 25.97200 26.83300
C  48.86500 23.51500 24.91600
C  46.20300 26.28900 24.59100
C  44.75300 26.11200 25.20400
N  47.21100 26.84900 29.62900
C  47.67100 27.73400 28.67300
C  48.18200 28.95400 29.30500
C  47.94600 28.71900 30.67300
C  47.43500 27.41100 30.79300
C  48.78100 30.17900 28.59400
C  48.13500 29.30700 31.94900
O  48.52700 30.40200 32.31500
C  47.74000 28.14400 33.01800
C  48.96200 27.59300 33.77100
O  50.06800 27.34300 33.32300
O  48.71100 27.56500 35.06900
C  49.71700 27.86000 36.08900
H  45.86900 21.51700 32.64600
H  46.67600 21.81000 26.21700
H  47.85600 28.02900 26.55000
H  47.54600 25.41400 34.67100
H  45.61000 23.37400 34.40500
H  48.35800 23.45400 35.23100
H  48.11300 22.25600 33.94800
H  47.03200 22.22900 35.41200
H  44.55400 25.34700 34.42000
H  45.11400 26.86700 34.04000
H  45.67600 27.52900 36.21800
H  46.48100 26.07200 36.63800
H  45.60700 19.57800 32.16200
H  46.23300 18.58900 30.79300
H  44.50300 18.94200 30.95400
H  45.35600 17.48400 27.34300
H  44.68700 18.11500 28.92500
H  46.38600 17.50400 28.84600
H  46.62900 23.83100 24.71700
H  48.29000 26.24100 25.03400
H  48.61800 22.64800 24.30400
H  49.46400 23.28100 25.79600
H  49.37300 24.23700 24.27500
H  46.22400 26.13600 23.51200
H  46.43600 27.35000 24.50900
H  44.74300 25.70700 26.21600
H  44.11200 25.40500 24.67700
H  44.33000 27.11000 25.32200
H  48.21200 31.08300 28.81000
H  48.83200 30.11200 27.50700
H  49.78000 30.16000 29.02900
H  46.96100 28.48900 33.69800
H  50.72400 27.55000 35.80800
H  49.49900 27.23100 36.95200
H  49.55900 28.90800 36.34500

