158

Mg 35.84400 1.66300 29.80300
C  33.28100 2.86100 31.88600
C  37.95500 1.63300 32.51100
C  38.24800 0.74200 27.66600
C  33.49700 1.78500 27.03600
N  35.63100 2.29500 31.93900
C  34.45800 2.48900 32.61700
C  34.58100 2.19900 34.12800
C  36.08000 2.09600 34.33200
C  36.63400 2.04800 32.86100
C  36.74500 3.06300 35.29500
C  33.83000 0.92300 34.61600
C  33.28800 0.95900 36.13200
H  33.83800 2.02700 37.09600
N  37.87600 1.20800 30.07500
C  38.51900 1.18500 31.27600
C  39.84800 0.81900 30.97500
C  39.98600 0.56500 29.60900
C  38.71600 0.84400 29.01900
C  40.94600 0.74300 32.07300
C  41.16300 0.16200 28.84400
O  41.04800 -0.27100 27.69800
C  42.52300 0.05800 29.46100
N  35.88200 1.35400 27.65500
C  37.05200 1.00800 27.03000
C  36.83600 0.88500 25.52700
C  35.29400 1.05200 25.31800
C  34.81600 1.41200 26.71300
C  37.63700 2.01500 24.70000
C  34.51800 -0.14000 24.75300
C  34.17900 -1.13400 25.78400
N  33.79900 2.25000 29.38700
C  33.03500 2.26700 28.24400
C  31.73800 2.72600 28.65200
C  31.78400 2.99100 30.02200
C  33.10000 2.70300 30.46200
C  30.55500 2.80100 27.67700
C  30.95800 3.36000 31.21800
O  29.80600 3.72600 31.27100
C  31.94300 3.17000 32.47400
C  31.87500 4.36300 33.43500
O  31.91200 5.54200 33.15500
O  31.54600 3.90300 34.68900
C  31.12200 4.81900 35.70900
H  38.58300 1.42400 33.38000
H  39.01000 0.50600 26.91900
H  32.77600 1.79700 26.21700
H  34.22500 3.09700 34.63300
H  36.31700 1.09400 34.69000
H  37.40100 2.61300 36.04100
H  35.96200 3.67300 35.74500
H  37.49400 3.75500 34.91100
H  34.49600 0.06200 34.55500
H  32.92200 0.77300 34.03200
H  33.63400 -0.00300 36.50900
H  32.20400 0.85000 36.10400
H  41.29600 -0.24200 32.38300
H  40.58500 1.24200 32.97300
H  41.76600 1.31000 31.63100
H  42.80300 0.96300 30.00000
H  43.26000 -0.23200 28.71200
H  42.45600 -0.76800 30.16900
H  37.16700 -0.06800 25.11400
H  35.06700 1.88900 24.65700
H  38.51300 1.78700 24.09400
H  38.06100 2.71100 25.42500
H  36.91000 2.54400 24.08400
H  35.05300 -0.47400 23.86400
H  33.57900 0.29600 24.41200
H  34.64600 -2.04400 25.41000
H  33.10900 -1.21600 25.97100
H  34.79800 -0.98800 26.67000
H  30.34600 1.83800 27.21000
H  30.89000 3.41900 26.84400
H  29.68100 3.25300 28.14600
H  31.44600 2.37200 33.02500
H  30.66500 4.38200 36.59700
H  30.37800 5.38700 35.15100
H  32.02300 5.34700 36.02000
Mg 46.50400 24.86600 28.21500
C  47.35700 27.10000 30.88500
C  46.06500 22.35200 30.35600
C  46.56300 22.79400 25.53200
C  47.59100 27.52900 26.07900
N  46.72100 24.75500 30.30200
C  46.78900 25.81700 31.21000
C  46.39800 25.44700 32.62500
C  46.18200 23.89900 32.42100
C  46.24800 23.64700 30.93000
C  47.12800 22.96500 33.24500
C  45.11200 26.21000 33.18100
C  45.40200 27.00100 34.47900
H  44.54600 26.82100 35.70900
N  46.24700 22.85000 27.91900
C  46.07400 21.96200 28.98300
C  46.05100 20.58700 28.42000
C  46.30600 20.67400 26.98100
C  46.40700 22.16100 26.74300
C  45.79200 19.36100 29.37200
C  46.44400 19.62400 25.90900
O  46.82200 19.78000 24.74200
C  46.25900 18.19900 26.46000
N  46.85900 25.18000 26.11100
C  46.63800 24.18100 25.22100
C  47.13200 24.61700 23.87700
C  47.03900 26.17300 24.00400
C  47.26600 26.31800 25.50100
C  48.58000 24.14100 23.48200
C  45.73900 26.81000 23.50600
C  44.39000 26.38900 24.08400
N  47.36300 26.88200 28.36500
C  47.73100 27.80000 27.43600
C  48.18900 29.00100 28.06800
C  48.01100 28.82400 29.47100
C  47.56500 27.44900 29.61200
C  48.60800 30.27100 27.42100
C  48.18600 29.33300 30.78800
O  48.56300 30.44200 31.24900
C  47.79500 28.22400 31.76900
C  48.89600 27.95900 32.75600
O  49.95400 27.50600 32.46400
O  48.46400 28.43500 33.99600
C  49.38200 28.12400 35.13100
H  45.86000 21.57500 31.09600
H  46.53500 22.21100 24.61000
H  47.86500 28.37400 25.44400
H  47.24700 25.49500 33.30700
H  45.12600 23.69300 32.59500
H  46.52500 22.39100 33.95000
H  48.03700 23.44800 33.60300
H  47.60300 22.20600 32.62300
H  44.38500 25.43100 33.41000
H  44.71800 26.83500 32.38100
H  45.36800 28.07500 34.29700
H  46.42300 26.74400 34.75900
H  45.00100 18.74900 28.93800
H  45.50300 19.79000 30.33200
H  46.68000 18.74100 29.48800
H  47.09800 18.02000 27.13300
H  46.34900 17.38700 25.73800
H  45.30100 18.12800 26.97500
H  46.49500 24.42500 23.01300
H  47.87000 26.60200 23.44200
H  48.95300 23.56700 24.33000
H  49.36500 24.89600 23.43300
H  48.50000 23.57800 22.55200
H  45.72700 26.50500 22.46000
H  45.76500 27.89800 23.44300
H  43.95700 27.27800 24.54400
H  44.55800 25.53000 24.73400
H  43.75800 26.11100 23.24100
H  49.57000 30.53800 27.85900
H  47.87600 31.07200 27.51700
H  48.88900 30.05500 26.39000
H  46.84800 28.45200 32.25700
H  50.42800 27.95800 34.87500
H  49.14800 27.11900 35.48200
H  49.19000 28.74700 36.00600

