158

Mg 40.78000 8.41500 28.30900
C  42.34600 9.85900 31.03700
C  38.64500 6.91600 30.55800
C  39.03900 7.24700 25.59300
C  43.07900 9.63700 26.22500
N  40.46800 8.56900 30.62700
C  41.16700 9.24100 31.46400
C  40.74100 8.95000 32.91600
C  39.69200 7.84700 32.72000
C  39.61000 7.69300 31.19200
C  39.82000 6.52200 33.50400
C  40.31600 10.27500 33.66800
C  41.17500 10.71800 34.91400
H  40.51600 11.74700 35.85600
N  39.20100 7.22600 28.11100
C  38.41600 6.75600 29.17400
C  37.27900 5.96600 28.67500
C  37.33600 5.99100 27.25600
C  38.58200 6.85400 26.91500
C  36.17100 5.37600 29.56300
C  36.42200 5.48600 26.09400
O  36.69700 5.50400 24.89600
C  35.09300 4.84000 26.45400
N  41.14600 8.24100 26.11200
C  40.15800 7.97500 25.26200
C  40.49400 8.25500 23.82700
C  41.89400 8.91700 23.97200
C  42.04700 8.99400 25.50100
C  40.45500 7.04300 22.85400
C  42.08300 10.26000 23.14200
C  41.57400 11.57100 23.73900
N  42.47900 9.39300 28.52500
C  43.33200 9.82700 27.60500
C  44.48400 10.51100 28.20400
C  44.06500 10.62000 29.57800
C  42.85200 9.91600 29.69800
C  45.55300 11.10400 27.50000
C  44.43000 11.13100 30.89000
O  45.36500 11.78400 31.16500
C  43.31800 10.54600 31.88600
C  44.03900 9.66800 32.88700
O  44.08800 8.43600 32.78800
O  44.40500 10.43600 33.96500
C  44.87600 9.67400 35.09900
H  37.95600 6.53600 31.31500
H  38.35900 6.96100 24.78800
H  43.89000 10.04500 25.62000
H  41.56700 8.59900 33.53500
H  38.71800 8.19700 33.06000
H  38.85200 6.34900 33.97400
H  40.67400 6.56900 34.18000
H  39.94800 5.67200 32.83300
H  39.27000 10.26900 33.97300
H  40.44400 11.09800 32.96500
H  42.08900 11.16900 34.52600
H  41.50600 9.81400 35.42600
H  36.15800 5.48800 30.64700
H  35.90600 4.33900 29.35800
H  35.37500 6.02300 29.19300
H  35.05000 4.32700 27.41400
H  34.72700 4.15500 25.68900
H  34.33700 5.62500 26.50400
H  39.73800 8.88100 23.35300
H  42.57100 8.17300 23.55200
H  41.40200 7.08600 22.31500
H  39.72300 7.08400 22.04700
H  40.30300 6.06300 23.30800
H  41.63900 10.17900 22.15000
H  43.14900 10.38200 22.94900
H  42.42000 12.24700 23.85900
H  41.00100 11.51100 24.66500
H  40.80000 12.07400 23.15900
H  45.14600 11.87900 26.85100
H  45.98300 10.37500 26.81400
H  46.26300 11.41100 28.26800
H  42.75400 11.34200 32.37300
H  45.79700 9.20200 34.75600
H  44.14400 8.91800 35.38500
H  45.21600 10.16500 36.01200
Mg -12.54100 38.37700 41.42800
C  -10.31200 35.88200 40.42800
C  -10.26900 40.69600 40.04000
C  -14.93000 40.65800 41.67500
C  -14.79900 35.80000 42.21500
N  -10.60400 38.22600 40.18400
C  -9.89900 37.09200 39.97400
C  -8.51600 37.43100 39.30900
C  -8.47400 38.97800 39.25100
C  -9.85100 39.36200 39.91900
C  -7.26400 39.74600 39.76400
C  -8.33200 36.80600 37.87500
C  -7.19500 35.79100 37.75200
H  -6.14700 36.13800 36.71000
N  -12.61100 40.37300 40.92700
C  -11.53500 41.14600 40.42000
C  -12.04300 42.47700 40.31800
C  -13.42400 42.51400 40.71600
C  -13.66300 41.16800 41.19100
C  -11.06800 43.59900 39.83400
C  -14.28000 43.67600 40.65100
O  -13.80000 44.73800 40.38000
C  -15.72800 43.66900 40.98800
N  -14.68300 38.26200 41.78500
C  -15.36500 39.38300 41.96400
C  -16.81900 39.03400 42.35000
C  -16.75500 37.41500 42.53800
C  -15.38400 37.07300 42.13000
C  -17.30600 39.93800 43.61500
C  -17.84800 36.71000 41.69100
C  -18.60100 35.56500 42.42900
N  -12.52900 36.23800 41.50400
C  -13.46300 35.35000 41.95500
C  -12.87700 34.06700 42.01900
C  -11.59000 34.25300 41.48200
C  -11.46400 35.58200 41.07800
C  -13.48900 32.86000 42.63300
C  -10.34000 33.55000 41.21900
O  -10.04100 32.41800 41.47800
C  -9.46800 34.65100 40.46100
C  -8.22600 34.75100 41.18200
O  -8.01100 35.53100 42.11400
O  -7.31900 33.89100 40.69100
C  -6.01300 33.55700 41.37200
H  -9.49500 41.40900 39.74900
H  -15.72000 41.37300 41.91400
H  -15.60700 35.11800 42.48800
H  -7.72100 37.07500 39.96500
H  -8.53400 39.35700 38.23100
H  -6.66400 40.32700 39.06400
H  -6.58900 38.97500 40.13700
H  -7.52300 40.31800 40.65500
H  -8.07700 37.60100 37.17400
H  -9.19300 36.28300 37.45900
H  -7.60000 34.80900 37.50700
H  -6.71400 35.72400 38.72800
H  -10.18500 43.21400 39.32300
H  -10.74100 44.20400 40.68000
H  -11.56700 44.22500 39.09400
H  -16.14500 42.90500 40.33200
H  -16.19700 44.62700 40.76300
H  -15.84400 43.51600 42.06100
H  -17.35600 39.28600 41.43600
H  -16.74300 37.04500 43.56300
H  -18.01600 40.63000 43.16300
H  -16.39600 40.37800 44.02300
H  -17.83100 39.36400 44.37900
H  -17.28900 36.25700 40.87200
H  -18.62900 37.40200 41.37700
H  -19.66300 35.48800 42.19500
H  -18.44800 35.54400 43.50800
H  -18.05200 34.67700 42.11600
H  -14.44800 32.71000 42.13700
H  -13.60100 33.17600 43.67000
H  -12.94700 31.92000 42.53500
H  -9.27700 34.25500 39.46400
H  -5.48000 32.83000 40.75800
H  -6.23500 33.20000 42.37800
H  -5.36400 34.43000 41.31700

