158

Mg 2.49200 -1.04800 43.28200
C  5.89000 -0.30100 42.80100
C  1.68500 1.77600 41.52000
C  -0.63700 -2.31900 42.73000
C  3.54000 -4.23400 44.45300
N  3.65500 0.49300 42.22900
C  5.00400 0.59400 42.18700
C  5.37100 1.87200 41.38200
C  4.06400 2.76200 41.45100
C  3.00600 1.62300 41.86100
C  4.05500 4.04300 42.29900
C  5.95700 1.48200 39.96600
C  5.10200 1.02900 38.87200
H  4.97300 1.87200 37.53900
N  0.76300 -0.32000 42.46700
C  0.65900 0.89200 41.75400
C  -0.74600 1.14600 41.38400
C  -1.46400 -0.00700 41.80100
C  -0.48300 -0.95300 42.40700
C  -1.05900 2.44900 40.57300
C  -2.88100 -0.14900 41.52700
O  -3.43500 0.82600 40.96900
C  -3.68900 -1.26200 41.92400
N  1.57800 -2.97300 43.63800
C  0.32600 -3.27400 43.23900
C  0.03300 -4.79600 43.25900
C  1.31200 -5.31300 44.01500
C  2.22200 -4.11900 44.09900
C  -1.28600 -5.08700 44.05800
C  1.87500 -6.62000 43.47200
C  2.07000 -7.69500 44.58500
N  4.32500 -2.06100 43.70600
C  4.55300 -3.34500 44.20100
C  5.96500 -3.53100 44.22900
C  6.56800 -2.36800 43.70200
C  5.53600 -1.49100 43.38400
C  6.58500 -4.72700 44.89900
C  7.82300 -1.67900 43.38800
O  8.99700 -2.02500 43.43600
C  7.38100 -0.33700 42.74200
C  7.99500 0.85900 43.33700
O  8.78100 1.59300 42.73800
O  7.76900 0.95900 44.65400
C  8.61800 2.02400 45.32800
H  1.43600 2.63300 40.89100
H  -1.56400 -2.75100 42.34600
H  3.82000 -5.23000 44.80200
H  6.16500 2.36100 41.94600
H  3.96600 3.08900 40.41600
H  3.22400 3.92700 42.99500
H  3.85700 4.86500 41.61100
H  5.04200 4.21600 42.72800
H  6.74000 0.73600 40.10200
H  6.44700 2.37500 39.57700
H  4.06600 0.98700 39.20800
H  5.40000 0.01900 38.59100
H  -0.26100 2.66800 39.86300
H  -1.20900 3.35300 41.16400
H  -2.01800 2.46400 40.05600
H  -3.59600 -1.28400 43.01000
H  -3.36600 -2.20500 41.48300
H  -4.67500 -1.29300 41.46000
H  -0.10600 -5.21000 42.26100
H  0.96700 -5.50300 45.03100
H  -1.24600 -5.65200 44.98900
H  -1.78400 -5.76100 43.36100
H  -1.96600 -4.24700 44.20300
H  2.83300 -6.34900 43.02800
H  1.38200 -7.07000 42.61000
H  2.79200 -8.41900 44.20700
H  1.12300 -8.10100 44.94000
H  2.42200 -7.05000 45.39100
H  6.76200 -5.54400 44.20100
H  6.09200 -4.99700 45.83300
H  7.56000 -4.43700 45.29000
H  7.82300 -0.30000 41.74600
H  8.27400 3.04500 45.16200
H  9.63700 2.00400 44.94300
H  8.60700 1.84600 46.40300
Mg 41.47000 8.26100 29.62000
C  43.18600 9.71700 32.33700
C  39.14000 6.98700 31.75500
C  39.87900 6.89500 26.86400
C  43.98900 9.40100 27.49000
N  41.38000 8.14800 31.81500
C  42.04300 8.95100 32.73900
C  41.44800 8.83900 34.14000
C  40.33200 7.81100 33.88200
C  40.23500 7.66700 32.35000
C  40.62400 6.53100 34.63300
C  41.07400 10.22000 34.78500
C  39.88500 10.32500 35.84200
H  40.17500 11.25800 36.97000
N  39.78500 7.10400 29.33500
C  38.95900 6.68200 30.35900
C  37.80900 6.07400 29.75800
C  38.03400 6.02700 28.36200
C  39.31400 6.65500 28.14000
C  36.88900 5.22100 30.67700
C  37.08600 5.45100 27.29700
O  37.37700 5.29100 26.06700
C  35.66700 5.10200 27.63700
N  41.95600 8.02700 27.52100
C  41.07100 7.49100 26.55900
C  41.59800 7.74300 25.08500
C  42.72000 8.72900 25.33900
C  42.91100 8.78900 26.86000
C  42.02000 6.37500 24.41800
C  42.25800 10.08800 24.68800
C  41.08000 10.80700 25.27700
N  43.31400 9.18400 29.78300
C  44.12100 9.70800 28.84700
C  45.09200 10.55500 29.54800
C  44.77900 10.54600 30.86900
C  43.67600 9.77000 31.02200
C  46.18700 11.22000 28.83500
C  45.19200 11.09400 32.15600
O  46.13300 11.77500 32.50200
C  44.15600 10.45500 33.21600
C  44.79400 9.56700 34.22300
O  45.57100 8.64000 33.91800
O  44.27400 9.91500 35.47500
C  44.68400 8.98800 36.57800
H  38.33300 6.62300 32.39500
H  39.25900 6.72900 25.98000
H  44.65200 9.89500 26.77600
H  42.36500 8.46300 34.59400
H  39.38900 8.20400 34.26100
H  41.41000 6.59400 35.38600
H  41.00000 5.76100 33.95900
H  39.63800 6.19700 34.95600
H  40.81200 10.83200 33.92200
H  41.91500 10.61500 35.35500
H  39.70000 9.34400 36.28000
H  38.97900 10.64500 35.32800
H  35.96800 5.79800 30.76300
H  37.33800 4.93900 31.62900
H  36.78500 4.26000 30.17200
H  35.66700 4.19500 28.24200
H  35.04400 5.00000 26.74900
H  35.33200 5.86200 28.34200
H  40.84100 8.16100 24.42000
H  43.59000 8.36700 24.79200
H  41.47300 5.53200 24.84000
H  43.08500 6.21700 24.59000
H  41.88700 6.39800 23.33700
H  41.97900 9.91900 23.64800
H  43.14500 10.72200 24.69700
H  40.48500 11.21300 24.45900
H  41.44800 11.67700 25.82100
H  40.45000 10.29500 26.00400
H  46.15200 12.27900 29.09100
H  46.13500 11.02800 27.76300
H  47.07300 10.77300 29.28600
H  43.58400 11.20300 33.76500
H  45.67700 8.57300 36.40800
H  43.91500 8.23000 36.72100
H  44.73000 9.54700 37.51300

