158

Mg -2.15500 17.09900 26.55700
C  -2.54500 14.86200 29.33900
C  -3.02600 19.61500 28.68500
C  -2.20800 19.23400 23.91900
C  -1.97500 14.27900 24.45000
N  -2.81500 17.13200 28.69700
C  -2.68500 16.21200 29.75900
C  -2.75700 16.74600 31.19500
C  -3.07000 18.26900 30.84000
C  -2.95900 18.33500 29.32600
C  -4.30200 18.92100 31.51600
C  -1.48100 16.42600 32.03300
C  -1.41200 17.40900 33.22000
H  -0.79300 16.73000 34.45500
N  -2.38100 19.11100 26.38000
C  -2.76400 19.96100 27.36500
C  -2.76100 21.32100 26.87600
C  -2.34400 21.30700 25.51000
C  -2.30300 19.81700 25.18900
C  -3.14100 22.48200 27.78500
C  -2.09400 22.42400 24.62700
O  -1.79100 22.26000 23.46300
C  -2.15100 23.88900 25.07500
N  -1.89100 16.76800 24.48600
C  -2.03200 17.83900 23.59200
C  -1.84200 17.36300 22.09800
C  -1.60800 15.78600 22.33500
C  -1.82100 15.58000 23.83100
C  -3.08500 17.72300 21.29100
C  -0.18700 15.38800 22.01700
C  0.92700 15.95100 22.94000
N  -2.21300 15.05000 26.79000
C  -2.19600 14.05400 25.83600
C  -2.22800 12.78200 26.48800
C  -2.30600 13.05600 27.82100
C  -2.43300 14.43600 27.94200
C  -2.03600 11.48900 25.65200
C  -2.40700 12.40100 29.18400
O  -2.21600 11.25000 29.51000
C  -2.66900 13.59100 30.14800
C  -1.69800 13.31000 31.23000
O  -0.51100 13.49000 31.10400
O  -2.34800 12.87300 32.37200
C  -1.44100 12.78600 33.55700
H  -3.03900 20.40200 29.44200
H  -2.14300 19.80800 22.99200
H  -1.93200 13.35100 23.87600
H  -3.60900 16.35600 31.75100
H  -2.19800 18.82300 31.18800
H  -4.80200 18.24200 32.20600
H  -5.04600 19.18100 30.76300
H  -4.09100 19.80500 32.11900
H  -0.58500 16.67300 31.46300
H  -1.60500 15.45000 32.50300
H  -2.43400 17.71600 33.44500
H  -0.74200 18.24900 33.03900
H  -2.25100 23.10300 27.88800
H  -3.52200 22.25500 28.78100
H  -3.87200 23.18600 27.38800
H  -3.07200 24.23400 25.54600
H  -1.75800 24.58000 24.33000
H  -1.32100 23.80900 25.77800
H  -0.92100 17.85500 21.78600
H  -2.24400 15.22400 21.65100
H  -2.83800 18.51300 20.58200
H  -3.88300 18.01600 21.97400
H  -3.51200 16.88300 20.74300
H  0.09800 15.69600 21.01100
H  -0.03800 14.30900 21.99400
H  0.70600 16.54800 23.82500
H  1.65600 16.38900 22.25800
H  1.43900 15.07400 23.33600
H  -1.37700 11.63000 24.79600
H  -2.99300 11.24500 25.19000
H  -1.76300 10.66600 26.31200
H  -3.67600 13.31700 30.46500
H  -1.77700 13.66800 34.10300
H  -0.37000 12.89700 33.39200
H  -1.52800 11.78200 33.97100
Mg 9.83300 47.24900 26.27200
C  7.36900 47.25900 28.73100
C  12.04800 48.20900 28.64200
C  12.27000 46.95900 23.89200
C  7.47300 46.31200 23.88400
N  9.68900 47.72600 28.48900
C  8.61600 47.42900 29.32000
C  9.00400 47.66800 30.83900
C  10.56300 47.96300 30.73600
C  10.77500 48.05300 29.21600
C  10.95900 49.15700 31.72100
C  8.53900 46.51400 31.72900
C  9.47100 46.14800 32.91700
H  8.92600 45.62500 34.21000
N  11.84700 47.66700 26.27900
C  12.53600 48.02300 27.31500
C  13.94900 48.20800 26.92200
C  14.00200 47.83400 25.57100
C  12.65000 47.39300 25.17900
C  15.03200 48.68800 27.87000
C  15.23300 47.66300 24.76200
O  15.20000 47.40800 23.56100
C  16.66200 47.81700 25.34900
N  9.89400 46.83500 24.11600
C  11.00500 46.80300 23.34700
C  10.74300 46.48500 21.92900
C  9.19000 46.39000 21.83400
C  8.83900 46.42500 23.35800
C  11.47800 47.40700 20.89600
C  8.62200 45.13800 21.14700
C  8.97600 44.97700 19.70900
N  7.86200 47.05900 26.20300
C  6.99100 46.67700 25.15200
C  5.63900 46.71200 25.60000
C  5.71200 46.88800 26.99500
C  7.10400 47.04800 27.32900
C  4.50700 46.52300 24.71500
C  4.98700 47.02300 28.19800
O  3.78500 47.01800 28.37200
C  5.99800 47.28400 29.35100
C  5.72900 46.20600 30.21900
O  6.18000 45.11100 30.05100
O  4.86900 46.58100 31.09100
C  4.42300 45.60900 32.00700
H  12.84500 48.33700 29.37700
H  13.12100 46.76000 23.23700
H  6.72500 46.02100 23.14400
H  8.37100 48.49900 31.15000
H  11.19000 47.14500 31.09100
H  11.82600 48.81900 32.28800
H  10.20100 49.36900 32.47400
H  11.21800 50.05100 31.15500
H  8.39700 45.58400 31.17800
H  7.60600 46.80200 32.21300
H  9.88300 47.07400 33.31800
H  10.27500 45.51900 32.53500
H  14.67000 48.86000 28.88400
H  15.58200 49.57100 27.54400
H  15.81900 47.93500 27.83500
H  16.88400 48.86700 25.53600
H  17.32100 47.48100 24.54800
H  16.87600 47.21500 26.23200
H  11.06200 45.45600 21.76400
H  8.82800 47.27400 21.31000
H  11.89400 48.28800 21.38500
H  10.77500 47.80400 20.16500
H  12.24400 46.77800 20.44300
H  7.54500 45.27400 21.05500
H  8.88000 44.20600 21.65100
H  8.05100 44.75800 19.17600
H  9.50400 44.03400 19.56900
H  9.55000 45.77900 19.24500
H  4.67600 45.67200 24.05600
H  4.28700 47.34100 24.02900
H  3.63900 46.28900 25.33100
H  5.73200 48.23600 29.81200
H  4.31000 44.60400 31.60100
H  3.43800 45.94500 32.33000
H  5.08300 45.66000 32.87300

