158

Mg 48.33300 34.64900 27.17900
C  46.33200 33.33800 29.63700
C  48.90800 37.47600 29.06400
C  50.08400 35.91100 24.52600
C  47.32600 31.89200 25.04200
N  47.82700 35.22800 29.11900
C  47.05700 34.47900 30.07100
C  47.06900 35.13000 31.43700
C  47.38900 36.63000 31.00100
C  48.14300 36.51400 29.66700
C  46.25800 37.65400 30.97000
C  48.07600 34.53100 32.40600
C  47.67500 34.53600 33.91600
H  46.68200 35.62000 34.51700
N  49.50300 36.38700 26.90900
C  49.61500 37.38800 27.85800
C  50.60500 38.37900 27.34000
C  50.97000 37.94500 25.99800
C  50.18200 36.71300 25.72300
C  51.05100 39.50700 28.10900
C  51.87700 38.61500 24.95800
O  52.06200 38.13800 23.85200
C  52.70300 39.80600 25.34600
N  48.53800 34.08300 24.97700
C  49.35900 34.74400 24.12000
C  49.43000 34.03600 22.79300
C  48.62000 32.75700 23.02500
C  48.04200 32.93100 24.44400
C  49.09800 34.89200 21.60900
C  49.39300 31.41200 22.84800
C  49.39100 30.96100 21.41900
N  47.08900 32.98000 27.21800
C  46.85500 31.95700 26.38400
C  46.02400 31.02700 27.03600
C  45.63700 31.59700 28.23900
C  46.42300 32.71100 28.34800
C  45.37700 29.81900 26.39900
C  44.84800 31.41800 29.43300
O  43.91000 30.62100 29.60200
C  45.18700 32.62400 30.37200
C  45.52500 32.10700 31.66600
O  46.22100 31.09700 31.75200
O  44.70700 32.63300 32.63900
C  44.46400 31.85000 33.82700
H  48.94700 38.43100 29.59300
H  50.72100 36.24600 23.70500
H  47.07200 30.92300 24.60800
H  46.12100 35.27900 31.95300
H  48.20100 37.12400 31.53300
H  46.07900 38.06900 29.97800
H  46.60700 38.51900 31.53300
H  45.28100 37.32600 31.32400
H  49.06600 34.91000 32.14800
H  48.02700 33.47800 32.12800
H  48.55300 34.60000 34.55800
H  47.31400 33.57600 34.28500
H  50.35000 39.81700 28.88400
H  51.28500 40.40500 27.53600
H  51.95600 39.15500 28.60500
H  53.25000 39.58000 26.26100
H  52.14100 40.70200 25.61000
H  53.35800 39.96800 24.49000
H  50.49500 33.83000 22.68800
H  47.79700 32.83700 22.31600
H  48.52000 35.75200 21.95000
H  48.62500 34.28900 20.83400
H  50.05000 35.22200 21.19300
H  48.95900 30.63800 23.47900
H  50.41900 31.56500 23.18100
H  49.12800 31.78100 20.75100
H  48.73800 30.09500 21.30400
H  50.40800 30.59700 21.27300
H  46.06700 29.09400 25.96800
H  44.80800 30.06800 25.50400
H  44.64800 29.34300 27.05500
H  44.40000 33.37700 30.34100
H  43.85100 32.55400 34.38900
H  45.32000 31.52800 34.42000
H  43.81400 31.01400 33.56800
Mg 29.97700 58.57900 38.69700
C  27.61500 56.56000 37.32600
C  32.44000 56.18000 38.08400
C  32.31900 61.01200 39.28400
C  27.53500 61.20400 38.69700
N  30.00500 56.51600 37.65000
C  28.85300 55.88600 37.36200
C  29.12300 54.39100 37.12100
C  30.66100 54.26400 37.45100
C  31.09100 55.69500 37.80500
C  31.03000 53.26500 38.49000
C  28.78400 53.84300 35.67000
C  29.21600 54.63600 34.42200
H  28.08700 55.06000 33.48100
N  32.10000 58.49800 38.81400
C  32.88900 57.43000 38.48200
C  34.30100 57.79900 38.73700
C  34.23500 59.18500 39.20800
C  32.84600 59.64400 39.07500
C  35.49200 56.88100 38.57200
C  35.48400 59.92300 39.58300
O  36.60700 59.42400 39.64000
C  35.48500 61.44600 39.92100
N  29.94200 60.74600 39.01700
C  31.02700 61.44800 39.39000
C  30.75800 62.93300 39.39100
C  29.21400 62.93700 39.46900
C  28.81100 61.56100 39.04600
C  31.55400 63.86100 40.39400
C  28.47700 64.12300 38.69000
C  28.54100 64.01500 37.10500
N  28.04600 58.88000 38.07200
C  27.13100 59.96400 38.20500
C  25.79700 59.63000 37.71500
C  25.86900 58.19000 37.57600
C  27.28200 57.92400 37.65600
C  24.51800 60.48800 37.56600
C  25.10100 56.99900 37.27900
O  23.90900 56.70500 37.14200
C  26.25600 55.88100 37.03600
C  25.77900 54.74200 37.92400
O  26.05100 54.56400 39.10000
O  24.90200 53.95600 37.21300
C  24.23400 52.93100 37.98200
H  33.13000 55.33400 38.05400
H  32.98400 61.86000 39.45800
H  26.74400 61.94000 38.85400
H  28.51200 53.81200 37.81400
H  31.11500 54.04600 36.48400
H  30.15700 52.92800 39.05000
H  31.76500 53.66000 39.19100
H  31.44500 52.36000 38.04700
H  27.76800 53.45100 35.61700
H  29.38200 52.93500 35.59100
H  29.90200 54.02100 33.83800
H  29.60400 55.57000 34.82900
H  36.11200 57.36700 37.81800
H  35.16900 55.93200 38.14400
H  36.12800 56.66100 39.43000
H  36.46000 61.83400 40.21400
H  34.79300 61.59700 40.75000
H  35.10400 62.09700 39.13400
H  30.96300 63.31500 38.39100
H  28.95000 63.14600 40.50600
H  32.29900 64.48800 39.90400
H  32.02600 63.30500 41.20400
H  30.83800 64.52100 40.88500
H  28.84800 65.12000 38.93100
H  27.47400 64.01700 39.10500
H  28.93900 64.90800 36.62300
H  27.55400 63.76000 36.71700
H  29.06800 63.14300 36.71800
H  23.76700 60.01400 36.93400
H  24.69300 61.49300 37.18000
H  23.99000 60.54600 38.51700
H  26.21100 55.47400 36.02600
H  23.72600 52.27200 37.27900
H  23.54200 53.43100 38.65900
H  24.92600 52.27100 38.50600

