158

Mg -2.35900 17.68200 27.12800
C  -2.56300 15.44900 29.76600
C  -2.41500 20.25500 29.39700
C  -2.47800 19.82400 24.47400
C  -2.83200 14.98200 24.91900
N  -2.36900 17.80200 29.41100
C  -2.37400 16.77700 30.26500
C  -2.23700 17.32300 31.71900
C  -2.46400 18.82800 31.53500
C  -2.40400 18.99500 30.01900
C  -3.86300 19.34200 32.13200
C  -0.90800 16.94000 32.39800
C  -0.58200 17.70200 33.67300
H  -0.25000 16.93200 34.96000
N  -2.46500 19.73400 26.94000
C  -2.44800 20.66400 28.02800
C  -2.36700 22.02600 27.46600
C  -2.17700 21.84900 26.06200
C  -2.32500 20.43800 25.74800
C  -2.51900 23.23800 28.38600
C  -1.90500 22.87700 24.99300
O  -1.96300 22.67900 23.76700
C  -1.65700 24.25300 25.36100
N  -2.68500 17.40200 25.00300
C  -2.61600 18.43400 24.15600
C  -2.82600 17.92200 22.70900
C  -2.64500 16.36100 22.85000
C  -2.63100 16.22800 24.34700
C  -4.18300 18.23400 21.98700
C  -1.40900 15.70800 22.11600
C  -0.06500 15.69000 22.91100
N  -2.56000 15.57900 27.25700
C  -2.80200 14.63900 26.30400
C  -3.01400 13.35700 26.90800
C  -2.87300 13.61600 28.28500
C  -2.65300 14.95400 28.45500
C  -3.29700 12.06900 26.24100
C  -2.94300 13.03400 29.64700
O  -3.22500 11.86400 30.05100
C  -2.75500 14.25500 30.62600
C  -1.72200 13.96800 31.63000
O  -0.50200 13.95100 31.43900
O  -2.28500 13.59700 32.84400
C  -1.44300 13.12100 33.90800
H  -2.33500 21.09200 30.09300
H  -2.43200 20.50600 23.62300
H  -3.17400 14.18200 24.25800
H  -3.05300 16.83400 32.25100
H  -1.66200 19.38700 32.01500
H  -4.48000 19.89700 31.42400
H  -3.69400 20.07600 32.92000
H  -4.40700 18.47800 32.51400
H  -0.05200 16.91200 31.72400
H  -1.20400 15.96500 32.78300
H  -1.32000 18.47200 33.89900
H  0.36100 18.19700 33.44000
H  -3.20100 22.95900 29.18900
H  -2.81000 24.18300 27.92700
H  -1.55400 23.30800 28.88700
H  -0.63500 24.23100 25.73900
H  -2.44100 24.58400 26.04300
H  -1.69800 24.83000 24.43600
H  -2.07100 18.18100 21.96700
H  -3.59600 15.90300 22.57900
H  -4.08900 19.07300 21.29800
H  -4.91600 18.54900 22.72900
H  -4.69800 17.42700 21.46600
H  -1.22800 16.09900 21.11500
H  -1.78900 14.69000 22.03600
H  0.69800 15.19800 22.30900
H  -0.28500 15.07200 23.78200
H  0.23200 16.70000 23.19300
H  -2.75700 11.23200 26.68300
H  -2.83000 12.10100 25.25700
H  -4.38600 12.02700 26.21600
H  -3.71600 14.24900 31.14000
H  -0.99700 13.94200 34.46900
H  -0.61800 12.49100 33.57700
H  -2.07900 12.54900 34.58300
Mg 41.70400 9.36200 29.98600
C  43.43500 10.61000 32.81700
C  39.36300 8.16300 32.03900
C  40.27000 8.25500 27.27200
C  44.54900 10.24800 28.00900
N  41.50600 9.30800 32.19300
C  42.27100 9.93300 33.17100
C  41.66000 9.78800 34.56800
C  40.44700 8.78700 34.33700
C  40.42600 8.63300 32.77900
C  40.61100 7.42300 35.13100
C  41.31100 11.19500 35.27100
C  40.43700 11.10300 36.44000
H  40.78200 11.95800 37.60900
N  39.98400 8.33000 29.68400
C  39.12100 7.96700 30.60600
C  37.95200 7.46500 29.91200
C  38.17400 7.41300 28.50200
C  39.51500 8.00400 28.40900
C  36.71400 7.03000 30.65800
C  37.33600 6.97600 27.35900
O  37.69400 7.13500 26.17900
C  35.99000 6.50000 27.55300
N  42.37900 9.03500 27.99700
C  41.55600 8.62500 27.04900
C  42.14500 8.77000 25.66300
C  43.49600 9.32100 25.91100
C  43.53300 9.51900 27.42900
C  42.19100 7.39300 24.84600
C  43.83800 10.57400 25.13600
C  43.24300 11.92900 25.59200
N  43.58500 10.24400 30.26100
C  44.62100 10.54800 29.36000
C  45.58800 11.29900 30.00800
C  45.22600 11.25700 31.35900
C  44.00000 10.61800 31.48700
C  46.80400 11.88200 29.39300
C  45.58900 11.77700 32.62500
O  46.61600 12.30800 32.94900
C  44.43800 11.39500 33.63400
C  45.10900 10.79300 34.80600
O  45.81700 9.79700 34.73100
O  44.52800 11.23200 36.04100
C  44.88100 10.44400 37.30100
H  38.51900 7.96600 32.70400
H  39.62000 8.15800 26.39900
H  45.37000 10.65600 27.41700
H  42.44400 9.34400 35.18100
H  39.47100 9.18800 34.60900
H  41.59700 7.40900 35.59500
H  40.48900 6.62600 34.39800
H  39.86000 7.25400 35.90200
H  40.97000 11.95900 34.57300
H  42.22400 11.62700 35.68100
H  40.35600 10.06400 36.75700
H  39.43700 11.35900 36.09100
H  36.82900 7.11900 31.73800
H  36.56300 5.99800 30.34100
H  35.82900 7.52900 30.26600
H  35.45600 6.55000 26.60400
H  35.42400 7.12300 28.24600
H  35.90500 5.47400 27.91400
H  41.52800 9.50700 25.14800
H  44.28400 8.60000 25.69100
H  41.63400 6.61800 25.37300
H  43.21000 7.04100 24.68800
H  41.61100 7.61800 23.95100
H  43.95900 10.34300 24.07700
H  44.91500 10.71500 25.22300
H  42.21400 11.94100 25.95100
H  43.26700 12.58600 24.72200
H  43.79600 12.28100 26.46200
H  46.49800 12.66300 28.69700
H  47.40100 11.07500 28.97000
H  47.34800 12.35300 30.21200
H  44.01800 12.34400 33.96800
H  44.40800 10.80100 38.21600
H  45.95300 10.55900 37.46200
H  44.61600 9.39500 37.17000

