158

Mg 23.93900 -7.07800 44.99700
C  26.31900 -4.59400 43.79500
C  21.58100 -5.37600 43.16400
C  22.00300 -9.87200 45.41600
C  26.71900 -8.85600 46.30500
N  23.95700 -5.06300 43.83900
C  25.00800 -4.30500 43.40100
C  24.52400 -3.24000 42.42100
C  22.98200 -3.29600 42.42300
C  22.81700 -4.70500 43.17700
C  22.27600 -2.19700 43.23900
C  25.06600 -3.50500 40.98000
C  25.53300 -2.32000 40.23400
H  25.02100 -2.07000 38.85800
N  22.04800 -7.52300 44.46600
C  21.27100 -6.67500 43.70800
C  19.95500 -7.31400 43.60500
C  19.97900 -8.59200 44.25300
C  21.35400 -8.72500 44.76300
C  18.74400 -6.57000 43.09800
C  18.89500 -9.61200 44.45400
O  17.81500 -9.49400 44.00200
C  19.00300 -10.80500 45.26000
N  24.30700 -9.17300 45.75600
C  23.34300 -10.09700 45.86500
C  23.94900 -11.40000 46.49900
C  25.29100 -10.93800 47.16300
C  25.48900 -9.58700 46.37100
C  22.98700 -12.10600 47.62000
C  26.43100 -11.97000 47.10600
C  27.47900 -11.81000 48.18800
N  26.03200 -6.80900 45.18100
C  26.97400 -7.60800 45.76600
C  28.26200 -6.91700 45.67700
C  28.04100 -5.74900 44.84000
C  26.68200 -5.75600 44.61200
C  29.60300 -7.32400 46.16500
C  28.71100 -4.63400 44.17300
O  29.91500 -4.35600 44.19300
C  27.57200 -3.89100 43.36800
C  27.61000 -2.44000 43.78100
O  27.48000 -1.52900 42.95400
O  27.89900 -2.27900 45.07300
C  27.82400 -0.97100 45.70700
H  20.76400 -4.87700 42.63900
H  21.31000 -10.67000 45.69100
H  27.52300 -9.37900 46.82800
H  24.92800 -2.30600 42.81400
H  22.51600 -3.34300 41.43900
H  21.35000 -1.90000 42.74800
H  22.90200 -1.30500 43.26000
H  22.05000 -2.56000 44.24200
H  24.27400 -3.95600 40.38100
H  25.82700 -4.28500 41.02800
H  26.60500 -2.48900 40.12600
H  25.34100 -1.40900 40.80000
H  17.94200 -7.12900 42.61600
H  19.05000 -5.79700 42.39300
H  18.21700 -6.14000 43.95000
H  19.31200 -10.40400 46.22500
H  19.66900 -11.56200 44.84600
H  18.01200 -11.22900 45.42200
H  24.14900 -11.98900 45.60400
H  25.13900 -10.64200 48.20100
H  23.37000 -12.13400 48.64100
H  22.87700 -13.14900 47.32600
H  21.97700 -11.69600 47.60600
H  26.80800 -11.95400 46.08400
H  26.03000 -12.97700 47.22700
H  28.43600 -11.82500 47.66800
H  27.51100 -12.68100 48.84300
H  27.42800 -10.87300 48.74200
H  30.43800 -7.11300 45.49700
H  29.60400 -8.39200 46.38100
H  29.71200 -6.85900 47.14600
H  27.72900 -3.99800 42.29500
H  26.91400 -0.43400 45.43800
H  28.77400 -0.46200 45.54500
H  28.00200 -1.13700 46.76900
Mg -3.10500 34.52000 26.51500
C  -4.28900 33.17200 29.62300
C  -1.21200 36.69700 28.43100
C  -2.65200 36.28100 23.66200
C  -4.84100 32.08500 24.88000
N  -2.85400 34.92200 28.77600
C  -3.29300 34.14700 29.84700
C  -2.67300 34.58900 31.16500
C  -1.91200 35.86300 30.80900
C  -1.97200 35.84300 29.26800
C  -2.41600 37.17100 31.48100
C  -1.87000 33.45800 31.95600
C  -2.45800 33.12800 33.39300
H  -1.48200 33.02200 34.55500
N  -2.08500 36.29800 26.13900
C  -1.29300 36.92800 27.02800
C  -0.56000 37.92700 26.21400
C  -1.04100 37.84100 24.89700
C  -1.92800 36.70500 24.82000
C  0.39000 38.86200 26.88600
C  -0.68400 38.74100 23.73200
O  -0.84900 38.37300 22.56800
C  -0.07200 40.17600 23.96200
N  -3.74300 34.38200 24.57100
C  -3.39600 35.12100 23.51700
C  -3.93800 34.48700 22.18300
C  -4.23500 33.01000 22.60600
C  -4.26300 33.15400 24.12800
C  -5.17900 35.21900 21.59800
C  -3.22900 31.92000 22.14000
C  -3.98000 30.61300 21.83500
N  -4.43100 33.01500 27.08700
C  -4.88200 31.98600 26.28200
C  -5.55900 30.97000 27.16500
C  -5.37200 31.37800 28.44300
C  -4.70300 32.63600 28.38100
C  -6.36000 29.83500 26.63900
C  -5.56500 31.06900 29.88000
O  -6.16800 30.14700 30.41500
C  -4.88300 32.21400 30.62600
C  -5.86600 32.88900 31.49100
O  -6.63300 33.78000 31.16800
O  -5.74600 32.36300 32.76900
C  -6.48300 32.92300 33.80900
H  -0.55900 37.43200 28.90700
H  -2.63700 36.91700 22.77500
H  -5.29200 31.14400 24.55800
H  -3.50100 34.84900 31.82500
H  -0.89000 35.77900 31.17800
H  -2.18300 37.12700 32.54500
H  -3.50300 37.18300 31.40000
H  -1.92400 38.04300 31.05000
H  -0.86100 33.84400 32.10200
H  -1.74400 32.50700 31.43700
H  -2.96900 32.16600 33.37400
H  -3.14800 33.89300 33.74700
H  1.07300 39.22800 26.11900
H  1.02100 38.33300 27.60000
H  -0.13700 39.59800 27.49400
H  -0.47800 40.77100 23.14300
H  1.00300 40.04500 23.84300
H  -0.26400 40.55400 24.96600
H  -3.11700 34.65300 21.48500
H  -5.29000 32.80300 22.43200
H  -5.01000 35.73300 20.65200
H  -5.47400 36.04900 22.24100
H  -6.02200 34.55000 21.42500
H  -2.58300 31.75200 23.00200
H  -2.84400 32.31800 21.20100
H  -3.39300 30.06900 21.09500
H  -4.92500 30.90200 21.37600
H  -4.10000 29.96400 22.70300
H  -6.31200 28.91000 27.21300
H  -6.15000 29.64100 25.58700
H  -7.38800 30.15900 26.79700
H  -4.03600 31.84400 31.20400
H  -5.81000 33.65100 34.26100
H  -6.79700 32.22100 34.58100
H  -7.36900 33.36000 33.34700

