158

Mg 6.17600 53.84000 40.58200
C  5.76700 50.48100 40.37200
C  9.58800 53.24300 40.02100
C  6.63100 57.09400 40.30700
C  2.82600 54.31100 41.27900
N  7.45000 51.99000 39.90200
C  7.05500 50.74600 39.91300
C  8.21400 49.81700 39.71700
C  9.51800 50.68700 39.98500
C  8.80800 52.06900 39.95500
C  10.39700 50.39400 41.22800
C  8.09200 49.14800 38.33500
C  7.83300 50.04800 37.10100
H  6.61100 49.66800 36.27100
N  7.84100 55.01400 40.20700
C  9.16600 54.61500 39.97300
C  10.04200 55.68700 39.83200
C  9.22000 56.87400 40.01200
C  7.82600 56.38200 40.13100
C  11.48200 55.51700 39.47000
C  9.67400 58.31300 40.09500
O  10.81800 58.56100 39.75900
C  8.83800 59.47100 40.25200
N  4.81500 55.46100 40.48900
C  5.31500 56.71400 40.61100
C  4.20000 57.74200 40.97600
C  2.92700 56.83300 40.94600
C  3.59200 55.46300 40.94300
C  4.35100 58.69000 42.11700
C  1.92000 57.02500 39.75000
C  0.55800 56.47000 39.91400
N  4.54200 52.66000 40.61900
C  3.30300 52.95500 41.09600
C  2.54000 51.75700 41.34000
C  3.47000 50.78700 41.07500
C  4.69300 51.37600 40.58700
C  1.13200 51.53500 41.83600
C  3.68900 49.34300 41.05300
O  2.91400 48.42100 41.41000
C  5.02400 49.10700 40.43000
C  4.67100 48.37300 39.14500
O  4.17200 48.88100 38.13500
O  4.91500 47.01200 39.24900
C  4.44900 46.24700 38.12500
H  10.66000 53.03900 39.98000
H  6.73500 58.18100 40.32800
H  1.75200 54.39900 41.45900
H  7.96400 49.12300 40.51900
H  10.16500 50.62900 39.11000
H  10.49400 51.33700 41.76600
H  11.34000 49.92600 40.94500
H  9.77100 49.73900 41.83400
H  7.34500 48.35700 38.28000
H  9.03500 48.68100 38.05000
H  8.66500 49.97700 36.40200
H  7.83500 51.08900 37.42600
H  11.62100 55.45400 38.39100
H  11.91500 54.68500 40.02500
H  12.05500 56.39300 39.77500
H  8.06800 59.71400 39.52000
H  9.60500 60.24100 40.32600
H  8.30400 59.47700 41.20200
H  4.20600 58.42300 40.12500
H  2.35000 56.77100 41.86900
H  3.55100 58.59200 42.85100
H  4.31600 59.66000 41.62100
H  5.27100 58.50100 42.67100
H  2.35600 56.44400 38.93800
H  1.94400 58.06700 39.43000
H  -0.18900 57.16300 39.52700
H  0.23100 56.32300 40.94400
H  0.53100 55.54000 39.34500
H  0.41300 51.87100 41.08900
H  0.81100 52.02400 42.75600
H  0.99600 50.47000 42.02500
H  5.58600 48.42600 41.06900
H  5.00000 45.30800 38.19200
H  4.55700 46.73800 37.15800
H  3.38800 46.02800 38.24300
Mg 16.08900 51.72100 25.60900
C  18.00600 50.70700 28.39500
C  13.83700 53.14100 27.69600
C  14.33500 52.48300 22.95800
C  18.60600 50.20400 23.62300
N  16.11100 52.01400 27.83200
C  16.86800 51.45500 28.76800
C  16.40500 51.80200 30.29600
C  14.93700 52.37800 30.02200
C  14.94000 52.51300 28.38600
C  13.70000 51.47000 30.48900
C  17.36500 52.74600 31.02800
C  17.69500 52.40500 32.48300
H  16.72500 51.52100 33.26100
N  14.38500 52.86500 25.31900
C  13.57800 53.33200 26.32400
C  12.46900 54.03500 25.70300
C  12.54500 53.88600 24.24900
C  13.78700 53.01500 24.12500
C  11.37900 54.63500 26.54100
C  11.59300 54.26100 23.15200
O  11.89900 53.97100 21.99400
C  10.42500 55.13700 23.47600
N  16.40900 51.28800 23.59400
C  15.51000 51.82000 22.63200
C  15.98400 51.49400 21.24000
C  17.45200 50.86000 21.46900
C  17.52000 50.87000 22.97600
C  15.09400 50.46300 20.48900
C  18.61100 51.72600 20.90000
C  19.30400 51.15000 19.63200
N  17.85700 50.67500 25.90300
C  18.78400 50.15200 25.00600
C  19.88300 49.44400 25.75400
C  19.57900 49.67400 27.06900
C  18.37900 50.40100 27.06400
C  20.99000 48.65700 25.15200
C  20.03600 49.38600 28.45400
O  21.00500 48.82400 28.88400
C  19.03700 50.10700 29.34800
C  18.60300 49.03700 30.20400
O  17.81100 48.17800 29.82100
O  19.24500 49.09300 31.45600
C  19.08500 47.91900 32.33800
H  13.08900 53.57400 28.36400
H  13.85300 52.84100 22.04600
H  19.36900 49.63700 23.08400
H  16.37900 50.86200 30.84800
H  14.84300 53.40100 30.38700
H  14.06800 50.51200 30.85500
H  13.04700 51.31200 29.63000
H  13.06200 51.90000 31.26100
H  16.98600 53.75800 30.88200
H  18.28100 52.74600 30.43700
H  17.85200 53.27500 33.12000
H  18.61800 51.83300 32.38600
H  11.12900 55.65700 26.26000
H  11.77600 54.80300 27.54200
H  10.60800 53.86500 26.49800
H  10.83700 56.10600 23.75800
H  9.80500 54.78400 24.30000
H  9.72900 55.35400 22.66500
H  16.10700 52.47600 20.78200
H  17.37900 49.80600 21.20200
H  14.52300 49.95400 21.26600
H  15.64400 49.84500 19.78000
H  14.47300 51.05300 19.81500
H  19.41900 51.81800 21.62400
H  18.32000 52.75200 20.67400
H  20.36100 51.35000 19.81200
H  19.04500 51.74100 18.75400
H  19.16100 50.08700 19.43800
H  20.56800 47.96300 24.42500
H  21.33500 48.03300 25.97700
H  21.71800 49.32600 24.69400
H  19.51900 50.78100 30.05600
H  18.98800 46.94200 31.86400
H  18.17700 47.97900 32.93800
H  19.90600 47.88000 33.05400

