158

Mg 8.32100 3.27700 28.50500
C  9.62700 1.75800 31.18400
C  6.24700 5.01800 30.65100
C  6.77400 4.50900 25.71400
C  10.18500 1.01800 26.42900
N  7.98000 3.36500 30.63800
C  8.78400 2.79300 31.56100
C  8.56200 3.28800 33.02900
C  7.25500 4.08200 32.81300
C  7.09700 4.12300 31.26700
C  5.94800 3.40300 33.35700
C  9.74200 4.15300 33.47200
C  10.43400 3.80400 34.83900
H  9.54900 3.12200 35.88400
N  6.80300 4.65000 28.18200
C  6.05300 5.21200 29.29300
C  5.07800 6.09300 28.71700
C  5.18300 6.00100 27.30200
C  6.24700 4.96100 26.96700
C  4.26500 7.11300 29.49000
C  4.29700 6.69900 26.22700
O  4.45700 6.51600 25.04500
C  3.25200 7.58200 26.72100
N  8.24300 2.55200 26.32900
C  7.67100 3.40900 25.41100
C  8.28300 3.19600 23.97500
C  9.37800 2.12000 24.20500
C  9.31500 1.92100 25.76300
C  7.19400 2.60200 23.01800
C  10.78200 2.60600 23.63800
C  11.51900 3.72100 24.44400
N  9.51600 1.65500 28.69500
C  10.24500 0.81300 27.80500
C  11.18600 -0.02000 28.53700
C  10.95400 0.36700 29.82900
C  9.95200 1.31800 29.88100
C  12.04800 -1.08500 28.04400
C  11.39900 0.10900 31.11600
O  12.36200 -0.62100 31.51200
C  10.55200 1.02600 32.07200
C  9.80700 0.17400 32.94700
O  8.80500 -0.42200 32.62300
O  10.35100 -0.07900 34.14700
C  9.63900 -0.80700 35.11800
H  5.65900 5.64400 31.32500
H  6.34400 4.97200 24.82300
H  11.06800 0.48700 26.06800
H  8.34400 2.46700 33.71100
H  7.33000 5.05500 33.29900
H  5.71800 2.69300 32.56300
H  5.12500 4.11600 33.30700
H  6.02100 2.96500 34.35300
H  9.54800 5.22300 33.40400
H  10.56200 3.98000 32.77500
H  10.76300 4.74600 35.27700
H  11.29200 3.18300 34.58100
H  4.53300 8.16600 29.39800
H  4.29200 6.95400 30.56800
H  3.23800 6.88700 29.20300
H  2.71000 7.96800 25.85700
H  3.75200 8.36200 27.29500
H  2.52500 7.06600 27.34900
H  8.59500 4.21000 23.72800
H  9.16300 1.10800 23.86200
H  6.29100 2.97800 23.49900
H  7.29500 1.52600 22.87400
H  7.29700 3.15400 22.08400
H  10.69500 2.96100 22.61200
H  11.39200 1.70800 23.53300
H  11.13400 3.92100 25.44400
H  11.32600 4.66900 23.94200
H  12.60800 3.67600 24.43100
H  13.03600 -0.79000 28.39700
H  12.09300 -1.13100 26.95600
H  11.73400 -1.99800 28.55100
H  11.16400 1.65200 32.72200
H  9.54500 -1.81900 34.72200
H  8.67200 -0.34400 35.31400
H  10.29200 -0.68300 35.98100
Mg 9.86700 48.61800 25.69600
C  7.94300 48.36100 28.70400
C  12.53900 49.61000 27.75400
C  11.61600 49.10100 22.96300
C  7.07100 47.79700 23.98600
N  10.07600 49.18200 27.92100
C  9.22300 48.91600 28.91600
C  9.80300 49.25800 30.31500
C  11.09100 49.98600 29.84400
C  11.29500 49.56000 28.40400
C  11.17500 51.54400 30.03800
C  10.03500 48.16000 31.41000
C  9.36900 48.28400 32.81100
H  10.03100 49.08200 33.99900
N  11.82000 49.13200 25.35200
C  12.81500 49.45700 26.35100
C  14.03000 49.50300 25.70900
C  13.76900 49.54700 24.30500
C  12.30900 49.29600 24.13500
C  15.35600 49.72900 26.38100
C  14.80900 49.49900 23.08600
O  14.37800 49.48800 21.91600
C  16.29900 49.48400 23.27300
N  9.32900 48.67300 23.71700
C  10.26100 48.83900 22.75800
C  9.64900 48.74200 21.35100
C  8.32600 48.06200 21.72600
C  8.21400 48.10000 23.21600
C  9.49400 50.05400 20.56400
C  8.17400 46.60800 21.08000
C  8.82100 45.46600 21.87800
N  7.80300 48.30300 26.15800
C  6.77600 47.98800 25.32800
C  5.61100 47.65200 26.16000
C  6.03200 47.89200 27.49700
C  7.34800 48.20100 27.44500
C  4.35900 47.08700 25.75800
C  5.61800 47.82000 28.83000
O  4.51300 47.49700 29.27200
C  6.86700 48.04100 29.73100
C  7.04400 46.79100 30.54200
O  7.68400 45.81000 30.12100
O  6.50300 46.96800 31.83400
C  6.51600 45.86800 32.77800
H  13.39300 49.83900 28.39600
H  12.16100 49.23400 22.02600
H  6.27500 47.36400 23.37700
H  9.13100 50.03500 30.67800
H  11.86300 49.64900 30.53600
H  11.52400 51.86000 29.05500
H  12.05200 51.73700 30.65600
H  10.30800 52.08400 30.41900
H  11.10200 48.08200 31.61900
H  9.64400 47.24200 30.96900
H  9.02800 47.29700 33.12400
H  8.49500 48.92800 32.71000
H  16.10200 48.93900 26.28800
H  15.25500 49.91800 27.44900
H  15.75500 50.65400 25.96500
H  16.70800 50.40400 23.69200
H  16.71100 49.45400 22.26400
H  16.47100 48.56900 23.84000
H  10.27000 48.15000 20.67900
H  7.47500 48.51600 21.21900
H  9.89200 50.93400 21.07100
H  8.43100 50.25300 20.43100
H  9.93700 49.92100 19.57700
H  8.54900 46.49300 20.06300
H  7.09500 46.45500 21.09400
H  7.98300 44.96900 22.36600
H  9.50700 45.89600 22.60700
H  9.43100 44.83900 21.22600
H  4.65600 46.21200 25.18000
H  3.85900 47.82500 25.13200
H  3.64200 46.83100 26.53800
H  6.71600 48.90500 30.37800
H  6.29500 44.84400 32.47800
H  5.79700 46.18800 33.53200
H  7.47500 45.81300 33.29400

