158

Mg 1.68300 7.83400 25.83400
C  2.39300 9.73400 28.68900
C  1.71600 4.97200 27.74200
C  1.10700 6.10800 23.04600
C  2.44700 10.72500 23.94100
N  2.14300 7.47600 27.96700
C  2.26700 8.38600 29.00300
C  2.36900 7.72300 30.38900
C  2.45800 6.14200 29.94100
C  2.02200 6.18100 28.48200
C  3.80400 5.32500 30.16100
C  1.24300 7.89900 31.47300
C  1.90100 8.05200 32.89200
H  2.95100 7.08200 33.35300
N  1.36000 5.78600 25.42000
C  1.30800 4.82400 26.35400
C  0.93900 3.57100 25.76200
C  0.80100 3.84100 24.38600
C  1.03200 5.30700 24.20100
C  0.79700 2.34300 26.58300
C  0.42700 2.93600 23.23800
O  0.04900 3.34100 22.13900
C  0.44800 1.51100 23.44300
N  1.79700 8.38600 23.80500
C  1.40800 7.50500 22.84500
C  1.43600 8.16500 21.46200
C  1.94400 9.59700 21.72400
C  2.04000 9.57700 23.28000
C  2.13700 7.39500 20.38900
C  1.12800 10.77200 21.08400
C  1.82700 11.66300 20.08100
N  2.28000 9.82300 26.18000
C  2.57300 10.88900 25.31300
C  2.74300 12.10300 26.12000
C  2.72000 11.64400 27.40300
C  2.50000 10.29000 27.42000
C  2.83600 13.53800 25.76900
C  2.78000 12.15700 28.75700
O  2.98000 13.31500 29.11000
C  2.56700 10.90600 29.64700
C  3.87600 10.83000 30.45600
O  4.97500 10.32500 30.12400
O  3.57700 11.39500 31.68100
C  4.67100 11.26100 32.64500
H  1.58700 4.09700 28.38400
H  0.82400 5.66800 22.08800
H  2.82200 11.61200 23.42500
H  3.26900 8.07500 30.89200
H  1.71200 5.51700 30.43200
H  4.35800 5.26400 29.22500
H  3.58900 4.35700 30.61300
H  4.39700 5.82800 30.92600
H  0.59000 7.03500 31.59400
H  0.67200 8.79100 31.21400
H  0.93300 8.03800 33.39300
H  2.25700 9.07900 32.96500
H  -0.08700 1.89400 26.12900
H  0.65100 2.53500 27.64600
H  1.71300 1.79900 26.35300
H  -0.46500 1.25100 23.98000
H  1.26500 1.32200 24.13900
H  0.59200 1.00200 22.49000
H  0.36700 8.17200 21.24700
H  2.99200 9.76300 21.47100
H  1.47300 6.58500 20.08600
H  3.09100 6.99700 20.73300
H  2.09000 8.11800 19.57400
H  0.76600 11.29800 21.96800
H  0.23000 10.35900 20.62500
H  2.83400 11.32900 19.83100
H  1.95700 12.68500 20.43600
H  1.12500 11.69800 19.24700
H  1.92900 13.95000 26.21100
H  2.70100 13.76100 24.71000
H  3.67000 13.99800 26.29800
H  1.74500 11.10000 30.33600
H  4.97900 10.21700 32.58300
H  4.33500 11.56600 33.63500
H  5.51100 11.94200 32.50400
Mg 6.26500 54.24000 41.04400
C  5.84300 50.83600 41.18300
C  9.65800 53.71100 40.07800
C  6.61900 57.50800 40.59200
C  2.78600 54.66600 41.43100
N  7.54800 52.42700 40.68600
C  7.16500 51.13900 40.80400
C  8.28000 50.14400 40.31500
C  9.46000 51.16200 40.54800
C  8.85500 52.53900 40.33800
C  10.03100 51.00600 41.93100
C  8.22600 49.65600 38.85400
C  7.36700 50.47100 37.88600
H  6.60000 49.63400 36.82200
N  7.85400 55.43400 40.53600
C  9.12800 55.08600 40.09200
C  9.90100 56.21000 39.87200
C  9.06900 57.33200 40.04800
C  7.72600 56.75900 40.34000
C  11.43500 56.09500 39.68900
C  9.56500 58.77400 39.91400
O  10.69800 59.03900 39.63000
C  8.67600 59.86200 40.16400
N  4.88400 55.85900 41.09200
C  5.29000 57.13100 40.87000
C  4.14400 58.12900 41.05300
C  2.97200 57.17900 41.43500
C  3.55300 55.81700 41.33700
C  4.40900 59.36500 41.96300
C  1.64900 57.46000 40.73300
C  0.45900 57.82200 41.62300
N  4.55900 53.04600 41.38600
C  3.23700 53.30200 41.59200
C  2.49900 52.07200 41.82300
C  3.48100 51.06000 41.79500
C  4.70400 51.71000 41.45700
C  1.09300 51.98600 41.98900
C  3.77100 49.67100 41.80200
O  2.97900 48.73100 41.98800
C  5.28000 49.47000 41.50000
C  5.19300 48.57000 40.30700
O  4.82200 48.99200 39.22300
O  5.51000 47.27000 40.54300
C  5.23800 46.34400 39.42300
H  10.73000 53.50900 40.03000
H  6.71400 58.58900 40.47200
H  1.70600 54.80200 41.51900
H  8.20400 49.24200 40.92100
H  10.21400 51.06900 39.76700
H  9.83300 50.02700 42.36700
H  9.72100 51.76500 42.64900
H  11.09000 50.99000 41.67200
H  7.64400 48.74700 39.00800
H  9.24000 49.56100 38.46700
H  8.14400 51.08500 37.43200
H  6.65800 51.17000 38.32900
H  11.93400 55.47700 40.43600
H  11.96600 57.04600 39.73900
H  11.64900 55.66000 38.71200
H  8.22200 59.69100 41.14100
H  8.05000 59.78500 39.27600
H  9.28100 60.76400 40.07500
H  3.92600 58.43900 40.03100
H  2.78900 57.27800 42.50500
H  5.41500 59.60300 42.30800
H  3.72800 59.19900 42.79800
H  3.98900 60.17800 41.37100
H  1.36800 56.54800 40.20600
H  1.66700 58.31300 40.05600
H  -0.54200 57.69800 41.20900
H  0.64500 58.77900 42.11000
H  0.46200 57.05500 42.39700
H  1.03200 51.30800 42.84000
H  0.59400 51.56300 41.11700
H  0.80900 52.99300 42.29600
H  5.80300 48.96100 42.31000
H  4.24600 45.89300 39.41400
H  5.98000 45.56100 39.58100
H  5.32600 46.82300 38.44800

