158

Mg 30.76400 58.07900 39.75600
C  28.42800 55.93200 38.71100
C  33.21000 55.78600 38.80600
C  33.02300 60.46800 40.13300
C  28.18700 60.42200 40.36400
N  30.80500 55.91600 38.98400
C  29.68600 55.31500 38.48300
C  30.08000 53.96600 37.77600
C  31.55800 53.81800 38.37900
C  31.90100 55.23200 38.71200
C  31.67900 52.78800 39.51300
C  29.99500 54.04300 36.17500
C  28.97800 53.08200 35.45900
H  28.06900 53.83200 34.45400
N  32.83300 58.15700 39.50000
C  33.71200 57.10600 39.10800
C  35.05600 57.58400 39.11900
C  35.05500 58.94000 39.67000
C  33.61400 59.25100 39.75600
C  36.24700 56.73300 38.68600
C  36.26600 59.83400 39.92100
O  37.39800 59.42600 39.68400
C  36.05700 61.22700 40.50100
N  30.68300 60.19000 40.20100
C  31.74400 60.98000 40.28300
C  31.38700 62.37400 40.81900
C  29.85500 62.35500 40.84400
C  29.48700 60.81400 40.44200
C  32.21700 62.67200 42.22500
C  29.20000 63.38200 39.89800
C  27.80000 63.95200 40.32600
N  28.75500 58.20600 39.65400
C  27.81800 59.20700 39.91600
C  26.52300 58.72100 39.60500
C  26.65700 57.46900 39.11500
C  28.07300 57.20000 39.12300
C  25.28400 59.53800 39.65300
C  25.96200 56.35900 38.38600
O  24.75800 56.20700 38.10400
C  27.09300 55.29800 38.20900
C  26.72900 54.06700 39.01100
O  27.15000 53.73600 40.14700
O  25.76100 53.31800 38.32000
C  25.17900 52.23400 39.05700
H  34.02500 55.06700 38.69100
H  33.59400 61.35800 40.40400
H  27.42700 61.15500 40.64300
H  29.35000 53.23900 38.13200
H  32.30600 53.54600 37.63400
H  32.44000 52.05700 39.24100
H  30.69800 52.33200 39.64100
H  32.04300 53.23900 40.43600
H  30.94000 53.72900 35.73200
H  29.91700 55.09500 35.90000
H  28.31600 52.53800 36.13300
H  29.62300 52.39300 34.91400
H  36.36400 57.01200 37.63800
H  35.95300 55.69100 38.80800
H  37.09500 56.89400 39.35100
H  36.98800 61.77100 40.66100
H  35.64600 61.19900 41.51000
H  35.43700 61.90500 39.91400
H  31.79700 63.12700 40.14600
H  29.69200 62.55100 41.90400
H  32.96400 63.44700 42.05200
H  32.73400 61.77600 42.56600
H  31.56100 63.03900 43.01500
H  29.13600 62.89900 38.92200
H  29.92100 64.13600 39.58500
H  27.37100 63.70800 41.29800
H  27.04700 63.74000 39.56800
H  27.91200 65.02400 40.16600
H  24.46600 58.86400 39.39800
H  25.36200 60.34500 38.92500
H  25.09400 60.02900 40.60700
H  27.11700 54.96500 37.17200
H  24.27400 52.65600 39.49600
H  25.77400 51.88000 39.89800
H  24.73000 51.46700 38.42600
Mg -11.17400 37.17900 42.14100
C  -8.86900 34.62600 41.52200
C  -8.90700 39.45000 40.65700
C  -13.61300 39.47200 42.40800
C  -13.37700 34.75300 43.38100
N  -9.28000 36.96000 40.94000
C  -8.51700 35.82700 40.88600
C  -7.33900 36.04500 40.00400
C  -7.19200 37.64600 40.04400
C  -8.53600 38.05900 40.59700
C  -5.97100 38.05800 40.93700
C  -7.50600 35.34400 38.65900
C  -6.37700 34.35800 38.25700
H  -5.51300 34.83100 37.08100
N  -11.34600 39.18500 41.56300
C  -10.25800 39.95000 41.10000
C  -10.71400 41.32500 40.90000
C  -12.05600 41.36100 41.30000
C  -12.42300 39.97400 41.83700
C  -9.81000 42.33100 40.41800
C  -12.91800 42.57900 41.13100
O  -12.45000 43.56200 40.62600
C  -14.38000 42.66900 41.58400
N  -13.19600 37.15400 42.79100
C  -14.00700 38.26600 42.90600
C  -15.47100 37.94800 43.30100
C  -15.37200 36.33800 43.62900
C  -13.88800 36.02400 43.19900
C  -16.07200 38.93900 44.33000
C  -16.47900 35.48100 42.93800
C  -17.14700 34.29300 43.82100
N  -11.14900 35.07500 42.47400
C  -12.10400 34.26400 43.07100
C  -11.57100 32.96100 43.15500
C  -10.25400 33.02800 42.56500
C  -10.05700 34.33200 42.17300
C  -12.34000 31.74000 43.53100
C  -9.08400 32.25700 42.19100
O  -8.85000 31.06100 42.36600
C  -8.15400 33.34700 41.47600
C  -6.82500 33.27300 42.11600
O  -5.87900 32.59400 41.80800
O  -6.81100 34.15500 43.19300
C  -5.48300 34.50900 43.68300
H  -8.23900 40.20600 40.23900
H  -14.41700 40.21000 42.36500
H  -14.10300 34.13300 43.91100
H  -6.53900 35.47600 40.47800
H  -7.08500 37.98500 39.01300
H  -5.52400 38.91100 40.42600
H  -5.34100 37.17500 41.04400
H  -6.25300 38.39600 41.93400
H  -7.69600 36.09500 37.89200
H  -8.46700 34.83500 38.73600
H  -6.73100 33.36500 37.98100
H  -5.83300 34.18100 39.18500
H  -10.01800 42.52400 39.36600
H  -8.82800 41.95200 40.70100
H  -9.93000 43.30200 40.90000
H  -14.30200 42.40100 42.63700
H  -14.98000 41.89700 41.10200
H  -14.71500 43.69300 41.41300
H  -15.97700 38.01200 42.33800
H  -15.46200 36.26300 44.71200
H  -16.63500 39.68900 43.77500
H  -15.38000 39.47300 44.98100
H  -16.80000 38.54800 45.04100
H  -16.00800 35.03600 42.06100
H  -17.22500 36.08700 42.42500
H  -16.82700 33.34300 43.39300
H  -18.23700 34.31800 43.79000
H  -16.80500 34.17000 44.84900
H  -12.50900 31.21600 42.59000
H  -13.29300 32.03800 43.96800
H  -11.68700 31.24500 44.24900
H  -7.97400 32.98000 40.46500
H  -5.57800 35.14400 44.56500
H  -4.97700 35.21800 43.02800
H  -4.89200 33.64100 43.97700

