158

Mg 36.89100 50.45900 27.24400
C  37.01500 48.31800 29.83300
C  35.22400 52.78600 29.25000
C  36.13200 52.33000 24.51400
C  37.77000 47.72000 25.14900
N  36.30600 50.53400 29.19100
C  36.61500 49.60000 30.14800
C  36.31300 50.00900 31.62000
C  35.33700 51.20700 31.30800
C  35.66300 51.56300 29.80100
C  33.81400 50.98500 31.58100
C  37.63900 50.34700 32.38200
C  37.85200 49.86100 33.76500
H  36.92400 50.27100 34.79800
N  35.88100 52.33500 26.92900
C  35.32700 53.15200 27.91900
C  34.79400 54.38300 27.29800
C  35.17700 54.29900 25.89800
C  35.70100 52.92600 25.73200
C  34.25000 55.66800 28.08700
C  34.82300 55.30200 24.79200
O  35.21300 55.13300 23.60500
C  34.04500 56.64800 25.08400
N  36.87700 50.07700 25.10800
C  36.61400 51.02700 24.19800
C  36.93600 50.49400 22.71800
C  37.47100 49.05800 22.96800
C  37.36100 48.93900 24.52700
C  35.76900 50.70800 21.78900
C  38.94700 48.80500 22.43600
C  39.06900 47.61100 21.43000
N  37.44100 48.47500 27.44600
C  37.73300 47.50800 26.53100
C  38.01000 46.24300 27.18000
C  37.70900 46.50700 28.52500
C  37.30000 47.85500 28.57900
C  38.25500 44.90100 26.54000
C  37.66300 45.88500 29.85900
O  37.92500 44.75200 30.35300
C  37.19600 47.06400 30.76200
C  36.05300 46.61900 31.56300
O  35.03400 46.12700 31.11700
O  36.34200 46.81100 32.90600
C  35.27700 46.33600 33.76800
H  34.77100 53.48700 29.95400
H  36.01300 52.93300 23.61200
H  38.07700 46.90500 24.49000
H  35.82100 49.18400 32.13600
H  35.69600 52.00600 31.95700
H  33.28800 50.99300 30.62700
H  33.46900 51.81400 32.19900
H  33.55000 50.05000 32.07500
H  37.86000 51.41100 32.46300
H  38.33900 49.83900 31.71800
H  38.85600 50.13400 34.09000
H  37.94100 48.77500 33.73400
H  33.17300 55.83500 28.06100
H  34.81500 56.50400 27.67400
H  34.53600 55.64000 29.13800
H  32.96900 56.52900 25.20900
H  34.02800 57.22300 24.15800
H  34.52500 57.35200 25.76400
H  37.76000 51.15700 22.45200
H  36.73200 48.31300 22.67400
H  34.91900 50.78300 22.46800
H  35.67300 49.94300 21.01900
H  35.92800 51.66900 21.30000
H  39.66000 48.67600 23.25000
H  39.26800 49.68200 21.87400
H  39.15900 47.99900 20.41600
H  38.07200 47.17000 21.44000
H  39.86000 46.93800 21.76300
H  37.62000 44.90700 25.65400
H  37.86300 44.15200 27.22800
H  39.31300 44.72900 26.34000
H  38.09000 47.16100 31.37800
H  35.10600 45.26000 33.80300
H  34.33000 46.82600 33.54000
H  35.53200 46.50400 34.81400
Mg -0.90800 34.42300 26.97000
C  -2.87200 32.70500 29.13400
C  0.11200 36.58500 29.47200
C  0.69700 36.24000 24.62900
C  -2.15400 32.44900 24.23000
N  -1.33000 34.58400 29.11200
C  -2.23400 33.75500 29.81700
C  -2.07500 34.05000 31.36300
C  -1.30500 35.41900 31.39700
C  -0.80200 35.57900 29.93000
C  -1.93500 36.68700 32.07900
C  -1.34900 32.90900 32.17100
C  -2.02400 32.16300 33.32300
H  -1.21800 32.17000 34.67400
N  0.28800 36.16300 27.03900
C  0.67000 36.81800 28.13900
C  1.66600 37.83100 27.77900
C  1.91100 37.68900 26.34700
C  0.92800 36.59300 25.96400
C  2.35300 38.73300 28.79200
C  2.87100 38.41100 25.40200
O  2.94300 38.22000 24.21500
C  3.65300 39.53700 26.04200
N  -0.69600 34.27600 24.81500
C  -0.00600 35.19500 24.09600
C  -0.38200 35.19000 22.62200
C  -1.02000 33.80100 22.52900
C  -1.34600 33.47600 23.93000
C  -1.28900 36.39000 22.16900
C  -0.12500 32.67900 21.85500
C  0.81700 31.86600 22.79000
N  -2.16800 32.84300 26.70600
C  -2.52000 32.09400 25.54200
C  -3.27100 30.99900 25.98400
C  -3.55500 31.27000 27.35700
C  -2.81700 32.35000 27.75500
C  -3.92100 29.94100 25.00900
C  -4.35400 30.77900 28.52400
O  -5.15900 29.85300 28.62700
C  -3.82000 31.67100 29.67500
C  -5.03600 32.26200 30.31700
O  -5.75900 33.10400 29.81000
O  -5.20600 31.76400 31.55000
C  -6.19500 32.37600 32.38700
H  0.35600 37.34300 30.22000
H  1.04400 36.88900 23.82200
H  -2.53700 31.85100 23.40000
H  -3.12000 34.26300 31.58900
H  -0.40000 35.13400 31.93400
H  -2.36200 37.40700 31.38100
H  -1.16700 37.17100 32.68300
H  -2.75700 36.38500 32.72800
H  -0.39100 33.28800 32.52800
H  -1.08500 32.21600 31.37200
H  -2.23400 31.10500 33.16800
H  -3.01900 32.56200 33.51900
H  3.39500 38.41900 28.86000
H  2.05000 38.64500 29.83600
H  2.12700 39.79500 28.70700
H  4.29600 39.13500 26.82400
H  2.93500 40.24400 26.45900
H  4.29100 40.09700 25.35800
H  0.54200 35.14800 22.04500
H  -1.92500 33.81100 21.92200
H  -1.53400 37.16200 22.89900
H  -2.24800 35.99800 21.83100
H  -0.73100 36.80200 21.32800
H  0.46000 33.13700 21.05700
H  -0.69200 31.92600 21.30900
H  0.92600 32.13000 23.84200
H  1.82500 31.86900 22.37500
H  0.54700 30.81300 22.85900
H  -4.41000 29.13800 25.56100
H  -3.18500 29.62400 24.27100
H  -4.67200 30.51400 24.46500
H  -3.28700 31.06600 30.40800
H  -6.90300 33.10900 32.00100
H  -5.62900 32.87200 33.17600
H  -6.80700 31.61400 32.87000

