158

Mg 1.73000 -3.21200 44.76500
C  5.03700 -2.53400 44.09900
C  0.71600 -0.57500 42.76800
C  -1.58800 -4.45500 44.76000
C  2.74700 -6.28300 46.02900
N  2.76500 -1.85600 43.45100
C  4.15300 -1.66200 43.48600
C  4.54900 -0.34400 42.75900
C  3.09900 0.30300 42.53300
C  2.16000 -0.76800 42.93100
C  2.94500 1.67400 43.20900
C  5.17500 -0.70000 41.43300
C  6.27300 0.43600 41.03300
H  6.39300 0.91400 39.58200
N  -0.22700 -2.57200 43.94600
C  -0.38700 -1.43900 43.09400
C  -1.81900 -1.26400 42.82500
C  -2.52000 -2.31500 43.49000
C  -1.46700 -3.18800 44.16200
C  -2.34600 -0.12900 41.96700
C  -3.97500 -2.34600 43.52800
O  -4.68100 -1.60700 42.81600
C  -4.66200 -3.27600 44.41200
N  0.73800 -5.07500 45.34400
C  -0.60900 -5.31700 45.33800
C  -0.81200 -6.89300 45.69300
C  0.51200 -7.28300 46.40200
C  1.36400 -6.16800 45.88400
C  -2.06000 -7.32600 46.47500
C  1.05400 -8.65300 45.91100
C  1.90100 -9.49000 46.84700
N  3.54400 -4.21600 45.17500
C  3.79700 -5.38100 45.79600
C  5.16600 -5.51900 46.01600
C  5.77600 -4.41800 45.43300
C  4.70700 -3.71800 44.80300
C  5.94700 -6.79200 46.60400
C  7.02600 -3.72800 45.12700
O  8.19700 -3.96800 45.34900
C  6.58700 -2.52400 44.12900
C  7.13400 -1.31100 44.70400
O  6.90500 -0.80800 45.78300
O  8.10600 -0.74900 43.83600
C  8.62600 0.56800 44.20600
H  0.48600 0.29000 42.14200
H  -2.57200 -4.89700 44.58700
H  3.16200 -7.17100 46.51200
H  5.26800 0.22500 43.34900
H  2.86000 0.41400 41.47500
H  2.84700 2.31800 42.33500
H  3.83600 1.90500 43.79300
H  2.12000 1.77400 43.91400
H  4.44500 -0.89300 40.64800
H  5.67500 -1.66300 41.53800
H  7.29700 0.09900 41.19300
H  6.01500 1.29400 41.65500
H  -3.23400 0.41700 42.28600
H  -2.47000 -0.53200 40.96100
H  -1.62200 0.68300 41.89900
H  -4.80800 -4.27000 43.99000
H  -5.64700 -2.85600 44.61900
H  -4.25000 -3.32600 45.42000
H  -0.72800 -7.39600 44.72900
H  0.61600 -7.10300 47.47200
H  -2.74200 -7.94600 45.89200
H  -2.60600 -6.41000 46.70000
H  -1.86600 -7.91200 47.37400
H  1.59700 -8.52200 44.97500
H  0.22800 -9.30300 45.62300
H  2.89400 -9.68100 46.44100
H  1.47900 -10.49400 46.88500
H  2.02600 -9.00500 47.81500
H  6.99500 -6.74500 46.30700
H  5.50700 -7.64400 46.08600
H  5.95200 -6.95600 47.68100
H  7.07000 -2.74200 43.17600
H  9.25400 0.85600 43.36300
H  9.23300 0.53200 45.11000
H  7.81200 1.23900 44.48300
Mg 44.29800 4.88900 47.36400
C  41.88600 7.41800 46.90200
C  41.67800 2.59200 47.06600
C  46.64600 2.45500 47.14500
C  46.83000 7.40500 46.68500
N  42.01900 5.00800 47.03100
C  41.27600 6.12100 46.79600
C  39.77300 5.71000 46.46800
C  39.77700 4.19300 46.78300
C  41.22900 3.92000 47.03100
C  38.89300 3.80900 47.94900
C  39.46200 6.14500 45.07000
C  38.23100 6.95700 44.84900
H  38.15700 8.04800 43.75500
N  44.17500 2.81400 47.19800
C  42.99500 2.05500 47.16300
C  43.44800 0.67100 47.18200
C  44.84700 0.66400 47.36200
C  45.29900 2.02700 47.20900
C  42.47400 -0.48800 47.15700
C  45.58100 -0.63300 47.40600
O  44.99900 -1.73000 47.56700
C  47.02700 -0.66500 47.37300
N  46.42800 4.94100 46.84100
C  47.13500 3.77000 47.01900
C  48.65100 4.08600 46.83700
C  48.78200 5.65900 46.74600
C  47.27400 6.03700 46.73000
C  49.55500 3.50900 47.97000
C  49.68600 6.04900 45.50900
C  49.05200 6.14800 44.19600
N  44.46600 7.03700 47.16300
C  45.51500 7.88700 46.93700
C  45.01600 9.19900 46.89300
C  43.59900 9.09700 46.96000
C  43.31800 7.71400 46.97100
C  45.82900 10.45400 46.74600
C  42.33000 9.87200 46.89100
O  42.10300 11.08000 46.92000
C  41.11700 8.77900 46.70300
C  40.14200 9.00300 47.82500
O  40.29000 8.59500 48.96500
O  39.05500 9.72300 47.38200
C  38.05700 10.11700 48.42000
H  40.85200 1.88700 46.94700
H  47.46900 1.73700 47.18200
H  47.63400 8.03700 46.30200
H  39.16800 6.27600 47.17700
H  39.41800 3.52000 46.00400
H  38.39700 4.72400 48.27600
H  39.61000 3.45800 48.69100
H  38.24700 3.01200 47.58200
H  39.20300 5.21300 44.56700
H  40.26700 6.71200 44.60200
H  37.99300 7.50300 45.76200
H  37.38400 6.27500 44.77200
H  42.78300 -1.34300 46.55500
H  41.59700 -0.11400 46.62700
H  42.32200 -0.89800 48.15600
H  47.51000 -0.17300 46.52900
H  47.43200 -1.67100 47.48900
H  47.30900 -0.15100 48.29200
H  49.00500 3.72900 45.87000
H  49.28400 5.99200 47.65500
H  50.34700 4.19400 48.27200
H  49.91800 2.55600 47.58500
H  48.92300 3.43900 48.85500
H  50.62200 5.49300 45.44200
H  49.89000 7.08600 45.77500
H  49.77900 5.70400 43.51600
H  49.02600 7.18700 43.86800
H  48.16800 5.51000 44.18400
H  45.73200 10.63200 45.67400
H  46.79600 10.30100 47.22500
H  45.39300 11.27200 47.31800
H  40.60400 8.92600 45.75300
H  38.06000 9.65800 49.40900
H  37.06700 10.00500 47.97900
H  37.96200 11.19400 48.56000

