158

Mg 26.09900 49.37800 25.93400
C  24.13400 51.01200 28.36200
C  28.57900 48.95000 28.20500
C  28.12700 48.48100 23.43300
C  23.69800 50.51700 23.45600
N  26.27700 49.79000 28.05700
C  25.28100 50.36800 28.80300
C  25.61400 50.16800 30.25800
C  27.19200 49.79200 30.15500
C  27.44400 49.56100 28.72100
C  28.22000 50.77500 30.78100
C  24.67200 49.19000 31.10100
C  24.11000 49.76800 32.40100
H  25.13800 50.11800 33.46800
N  28.02800 48.62000 25.84200
C  28.92900 48.56500 26.85000
C  30.14200 47.99400 26.41800
C  30.05400 47.95500 24.99100
C  28.68700 48.38300 24.65800
C  31.31100 47.74100 27.38000
C  31.22400 47.69000 23.95300
O  30.98200 47.78900 22.75400
C  32.57900 47.45300 24.38500
N  25.89900 49.54100 23.78700
C  26.84900 48.90900 22.98800
C  26.40000 48.92700 21.46800
C  24.90500 49.42900 21.58700
C  24.78000 49.82000 23.02200
C  27.33800 49.81600 20.58400
C  23.87500 48.23100 21.33300
C  23.93200 46.95100 22.24600
N  24.31100 50.55700 25.89100
C  23.41800 50.85100 24.85400
C  22.33600 51.61900 25.44400
C  22.52600 51.66400 26.79500
C  23.76800 51.10400 27.03200
C  21.19300 52.12800 24.68600
C  21.96900 52.08800 28.03800
O  20.93500 52.68500 28.19600
C  22.90400 51.51800 29.12700
C  23.28300 52.61700 30.07900
O  24.35000 53.19100 30.13800
O  22.42500 52.60800 31.13600
C  22.80500 53.52900 32.22300
H  29.37200 48.74800 28.92800
H  28.74900 48.11900 22.61100
H  23.08900 50.92400 22.64600
H  25.57800 51.14000 30.75000
H  27.27300 48.85600 30.70800
H  27.68200 51.36700 31.52100
H  28.85400 51.28800 30.05700
H  28.88300 50.14900 31.37800
H  25.34000 48.36500 31.34700
H  23.75800 48.85300 30.61100
H  23.40500 49.06300 32.84000
H  23.62200 50.71200 32.15800
H  31.90800 46.94700 26.93200
H  31.07200 47.36800 28.37600
H  31.89100 48.65000 27.54000
H  33.13800 47.70200 23.48300
H  32.62100 46.38400 24.59300
H  32.85400 48.09800 25.22000
H  26.48100 47.92100 21.05600
H  24.74100 50.30800 20.96400
H  28.34200 49.73800 20.99900
H  26.91400 50.81700 20.50500
H  27.26600 49.30400 19.62400
H  24.04900 47.84000 20.33000
H  22.86000 48.63000 21.33000
H  23.96900 46.12600 21.53500
H  23.01500 46.82700 22.82100
H  24.78600 46.93300 22.92400
H  21.57500 52.99600 24.14700
H  20.35800 52.38900 25.33600
H  20.96500 51.37000 23.93700
H  22.44900 50.85100 29.86000
H  23.40000 52.95500 32.93300
H  21.88600 53.77500 32.75400
H  23.36000 54.44600 32.02600
Mg 8.51100 47.81200 29.20100
C  6.68900 47.12800 32.15000
C  11.36100 47.63000 31.09600
C  10.34000 48.65400 26.54800
C  5.55100 48.45000 27.49600
N  8.95300 47.50700 31.39900
C  8.09200 47.19000 32.42300
C  8.78900 47.16000 33.82400
C  10.23400 47.44900 33.42700
C  10.22500 47.41700 31.86100
C  10.84800 48.73600 34.12100
C  8.53400 45.82200 34.47600
C  9.55200 45.42500 35.64200
H  8.95400 44.77900 36.88500
N  10.57600 47.83000 28.79700
C  11.55500 47.73400 29.72500
C  12.88000 47.76900 29.08400
C  12.56200 47.92600 27.65100
C  11.11800 48.13200 27.58500
C  14.17900 47.52800 29.79400
C  13.53400 48.03100 26.46900
O  13.13000 48.21300 25.34900
C  15.12500 47.88900 26.69400
N  7.96700 48.63200 27.33600
C  8.93100 48.92100 26.42800
C  8.31600 49.54700 25.17900
C  6.77100 49.32900 25.33600
C  6.70400 48.76000 26.78400
C  8.86000 51.00100 24.93300
C  6.13500 48.35200 24.26300
C  5.71500 48.99700 22.90400
N  6.46800 47.76400 29.60700
C  5.37700 47.98200 28.83800
C  4.18900 47.76400 29.61700
C  4.63300 47.42200 30.91300
C  6.04900 47.47000 30.87800
C  2.79700 47.80400 29.02300
C  4.21800 47.12300 32.26900
O  3.09900 47.06900 32.82300
C  5.51400 46.84400 33.05600
C  5.46700 45.38500 33.44400
O  5.84600 44.40400 32.77600
O  5.01700 45.29600 34.76700
C  5.14600 43.96500 35.36400
H  12.27200 47.67100 31.69700
H  10.88600 48.81100 25.61600
H  4.65400 48.60200 26.89200
H  8.46900 47.94600 34.50900
H  10.79200 46.55400 33.70200
H  11.93300 48.63000 34.09500
H  10.53400 48.65000 35.16100
H  10.44100 49.66600 33.72500
H  8.66100 45.05600 33.71100
H  7.53600 45.63600 34.87100
H  10.18000 46.20900 36.06700
H  10.20400 44.62100 35.30000
H  14.81000 46.70600 29.45800
H  14.05400 47.30000 30.85200
H  14.68100 48.48500 29.93900
H  15.38500 48.38500 27.62900
H  15.74600 48.14600 25.83500
H  15.36500 46.84300 26.88300
H  8.55800 49.07000 24.23000
H  6.30000 50.29900 25.17800
H  8.17300 51.70000 24.45500
H  9.67100 51.04100 24.20600
H  9.40900 51.31500 25.82100
H  5.20700 47.97000 24.68900
H  6.83000 47.61200 23.86800
H  6.34200 48.67800 22.07100
H  5.76500 50.08000 23.01000
H  4.72300 48.63100 22.64100
H  2.84600 47.55100 27.96400
H  2.29500 48.74500 29.25100
H  2.26700 47.01700 29.55900
H  5.67000 47.45000 33.94900
H  6.15700 43.55700 35.35100
H  4.59000 43.36000 34.64800
H  4.68000 43.93800 36.34900

