158

Mg -1.75800 17.41600 26.73200
C  -2.49400 15.22700 29.31200
C  -2.66800 20.01200 28.89100
C  -1.73500 19.51500 24.13800
C  -1.51800 14.69500 24.55000
N  -2.39700 17.60400 28.90400
C  -2.55100 16.55200 29.81600
C  -2.82200 16.99600 31.27400
C  -3.04800 18.52800 30.99100
C  -2.72900 18.74900 29.48400
C  -4.48600 18.99200 31.35900
C  -1.59500 16.78200 32.24800
C  -1.71700 17.31500 33.65500
H  -1.75000 16.23300 34.75400
N  -1.95600 19.50300 26.58700
C  -2.34200 20.36300 27.59800
C  -2.35600 21.73000 27.08400
C  -2.01700 21.64300 25.68400
C  -1.88900 20.21400 25.39600
C  -2.80800 22.89100 27.86100
C  -1.84200 22.73000 24.71200
O  -1.77400 22.53800 23.49100
C  -1.75000 24.15900 25.19300
N  -1.52900 17.11900 24.52600
C  -1.54700 18.19000 23.74600
C  -1.41400 17.74400 22.30900
C  -1.23900 16.21700 22.43100
C  -1.43600 16.00400 23.88900
C  -2.65200 18.14400 21.38900
C  0.18900 15.83300 21.95800
C  1.37300 16.25900 22.98300
N  -2.01200 15.36800 26.86200
C  -1.83100 14.35200 25.86700
C  -2.12300 13.12000 26.53100
C  -2.49600 13.47600 27.79900
C  -2.35100 14.79600 27.97100
C  -2.28600 11.74300 25.81700
C  -2.97300 12.89100 28.99900
O  -3.24100 11.74300 29.18600
C  -2.95400 14.02300 30.04500
C  -1.85200 13.62000 30.97100
O  -0.63100 13.74000 30.81900
O  -2.33900 13.09100 32.15100
C  -1.55500 12.18800 33.06700
H  -2.92400 20.90900 29.45800
H  -1.59500 20.15700 23.26700
H  -1.43600 13.79300 23.94100
H  -3.66800 16.48100 31.72800
H  -2.44500 19.24200 31.55100
H  -4.31000 19.87900 31.96700
H  -5.17400 18.28200 31.81800
H  -4.94800 19.36500 30.44400
H  -0.73000 17.24900 31.77700
H  -1.37000 15.71600 32.22700
H  -2.64000 17.89400 33.67600
H  -0.86100 17.92600 33.94200
H  -3.45200 23.47400 27.20300
H  -1.92200 23.48000 28.09800
H  -3.35600 22.71300 28.78600
H  -0.94000 24.05500 25.91400
H  -2.71200 24.33900 25.67300
H  -1.60600 24.94200 24.44800
H  -0.51600 18.23000 21.92500
H  -2.03200 15.62100 21.98000
H  -3.08700 17.36300 20.76400
H  -2.40800 19.06100 20.85200
H  -3.55400 18.31300 21.97800
H  0.34900 16.12700 20.92100
H  0.17800 14.74400 21.90700
H  1.02700 16.84400 23.83500
H  2.15500 16.79300 22.44400
H  1.83400 15.39500 23.46200
H  -2.81800 11.90700 24.88000
H  -2.79000 11.02900 26.46800
H  -1.30400 11.30700 25.63600
H  -3.91000 14.35600 30.45000
H  -0.90300 11.55400 32.46700
H  -2.22400 11.44600 33.50300
H  -0.99100 12.64500 33.88000
Mg 0.72700 7.75400 26.84600
C  1.54200 9.71100 29.66000
C  0.65100 5.05900 28.84500
C  0.46900 5.93100 24.09300
C  1.38300 10.58900 24.75700
N  1.04800 7.45700 29.01500
C  1.31700 8.35200 30.02800
C  1.22800 7.75200 31.44700
C  1.27600 6.18900 31.09400
C  0.99600 6.25300 29.50400
C  2.69500 5.51300 31.25300
C  -0.15600 8.27100 31.96400
C  -0.37200 8.60600 33.48000
H  0.67500 8.23300 34.51200
N  0.55000 5.86300 26.51300
C  0.51500 4.85800 27.46700
C  0.15200 3.55400 26.88000
C  0.22200 3.80600 25.49600
C  0.39600 5.21600 25.29100
C  -0.25600 2.32700 27.71000
C  -0.23100 2.84100 24.41700
O  -0.48100 3.11300 23.23700
C  -0.41300 1.34800 24.76500
N  0.77100 8.20900 24.74100
C  0.63900 7.27000 23.79400
C  0.76200 7.80600 22.37300
C  0.67600 9.36600 22.68200
C  0.98100 9.38200 24.16800
C  2.03900 7.36300 21.63000
C  -0.73000 9.95400 22.38100
C  -0.87100 11.44800 22.10800
N  1.32200 9.77500 27.12600
C  1.58000 10.80700 26.17700
C  1.94900 12.05300 26.85600
C  2.01600 11.65300 28.24200
C  1.54900 10.32400 28.34900
C  2.05100 13.48500 26.23000
C  2.18700 12.14400 29.66600
O  2.45200 13.26500 30.10100
C  1.84100 10.91900 30.54800
C  2.77200 10.84100 31.77100
O  3.86800 10.23400 31.75000
O  2.29200 11.48700 32.85800
C  3.26600 11.85300 33.92700
H  0.60800 4.21500 29.53600
H  0.62000 5.34100 23.18700
H  1.59400 11.39200 24.04600
H  2.11600 8.01200 32.02400
H  0.58100 5.57500 31.66700
H  2.73600 5.03300 32.23000
H  3.32800 6.39900 31.29200
H  3.00700 4.83700 30.45700
H  -0.83600 7.42600 31.86100
H  -0.52100 9.07600 31.32600
H  -1.32300 8.17600 33.79500
H  -0.34000 9.69500 33.49400
H  -0.96800 1.62500 27.27600
H  -0.79100 2.84200 28.50800
H  0.72300 1.92600 27.97400
H  0.40300 1.00600 25.40200
H  -0.36200 0.80000 23.82400
H  -1.39300 1.18500 25.21200
H  -0.08000 7.57900 21.71900
H  1.46100 9.87200 22.12100
H  2.47800 8.13500 20.99600
H  1.81700 6.52600 20.96800
H  2.75000 6.94100 22.34000
H  -1.39200 9.73400 23.21800
H  -1.08800 9.37900 21.52800
H  -0.88500 11.63800 21.03400
H  0.04300 11.79500 22.58900
H  -1.79500 11.90800 22.46000
H  1.94200 13.58800 25.15000
H  2.91900 14.00000 26.64100
H  1.16900 13.93700 26.68500
H  0.81100 11.12300 30.84200
H  4.32100 11.64000 33.75300
H  2.93400 11.48100 34.89600
H  3.26300 12.93800 34.02500

