158

Mg 36.33200 49.40800 25.54800
C  36.18800 47.35800 28.35800
C  34.98500 51.95600 27.48300
C  35.81200 51.25300 22.76200
C  36.84400 46.66000 23.60600
N  35.67300 49.59700 27.68900
C  35.88500 48.69500 28.68300
C  35.70800 49.31700 30.06400
C  35.03700 50.68900 29.74100
C  35.18100 50.76200 28.24200
C  33.64600 50.93800 30.27000
C  37.13100 49.41500 30.81900
C  37.17700 49.98200 32.25500
H  35.94200 49.86900 33.05600
N  35.70400 51.41600 25.16600
C  35.28300 52.27600 26.13500
C  34.84500 53.49700 25.52200
C  35.13200 53.39900 24.11800
C  35.58700 52.02000 23.91300
C  34.24400 54.72600 26.28500
C  34.99100 54.31900 22.93900
O  35.04000 53.91100 21.77000
C  34.66300 55.77900 23.07800
N  36.37800 49.03800 23.47700
C  36.09000 49.93300 22.49600
C  36.29800 49.39900 21.15200
C  36.98800 48.07900 21.43700
C  36.67300 47.84300 22.93200
C  34.92100 49.23500 20.32600
C  38.56100 47.97700 21.26000
C  38.95700 47.68400 19.78000
N  36.62400 47.33800 25.90900
C  36.80900 46.37600 24.98200
C  37.13600 45.08500 25.67700
C  36.91400 45.45200 27.06200
C  36.49700 46.81600 27.08100
C  37.54900 43.72300 25.07300
C  36.98600 44.90000 28.41900
O  37.25400 43.77200 28.85000
C  36.58700 46.23000 29.29000
C  35.58500 45.78400 30.29800
O  34.48100 45.28600 29.95700
O  35.99100 45.99500 31.60900
C  35.01500 45.57800 32.63400
H  34.60900 52.80300 28.06100
H  35.70700 51.80600 21.82600
H  37.07000 45.79800 22.97500
H  35.04100 48.59000 30.52500
H  35.61800 51.45100 30.26200
H  33.26100 50.06800 30.80200
H  32.96800 51.06800 29.42600
H  33.58400 51.81500 30.91500
H  37.77200 50.04000 30.19600
H  37.59700 48.43000 30.81000
H  37.57300 50.99400 32.16700
H  37.90700 49.33900 32.74600
H  34.08900 55.64600 25.72200
H  34.90600 54.95600 27.11900
H  33.31100 54.29900 26.65400
H  33.69100 56.00000 23.51800
H  34.73600 56.28000 22.11300
H  35.52300 56.16300 23.62700
H  37.04600 49.99500 20.62900
H  36.60600 47.34900 20.72400
H  34.12500 48.86400 20.97100
H  35.03000 48.48000 19.54700
H  34.68100 50.21600 19.91500
H  39.07100 47.22600 21.86300
H  39.05100 48.89800 21.57600
H  38.18000 47.17100 19.21400
H  39.85900 47.07500 19.73400
H  39.12100 48.63800 19.27800
H  37.16100 43.71700 24.05400
H  37.01300 42.98300 25.66800
H  38.63100 43.59700 25.02600
H  37.47200 46.39900 29.90400
H  34.94500 44.50600 32.81400
H  33.99700 45.94800 32.50900
H  35.38400 45.95700 33.58700
Mg 1.56800 41.59600 25.09800
C  2.22400 42.00100 28.40000
C  -1.48700 40.11100 25.95700
C  0.90300 41.01900 21.83500
C  4.55200 43.13700 24.21700
N  0.50400 41.04800 26.95000
C  0.97700 41.38000 28.20400
C  -0.14900 41.11200 29.28800
C  -1.22600 40.28300 28.45100
C  -0.64600 40.35000 27.02600
C  -1.46400 38.82700 28.88900
C  -0.73700 42.42300 29.83900
C  -1.13400 42.50400 31.28500
H  -1.84400 41.28700 31.88900
N  0.08800 40.72300 24.09100
C  -1.20200 40.29200 24.59300
C  -2.12600 39.95400 23.51400
C  -1.38100 40.05300 22.32500
C  -0.00700 40.56900 22.72200
C  -3.54800 39.50400 23.79800
C  -1.71400 39.65300 20.96600
O  -1.00300 39.90600 19.94300
C  -3.12500 39.17400 20.63300
N  2.54000 42.13300 23.31700
C  2.12300 41.61800 22.08800
C  3.18900 41.84700 20.98200
C  4.28100 42.67700 21.75500
C  3.76800 42.72300 23.20600
C  3.74500 40.59000 20.24500
C  4.37400 44.10700 21.06500
C  5.10300 44.22000 19.73400
N  2.99700 42.60400 26.11100
C  4.27600 43.02200 25.63300
C  5.04400 43.49600 26.82800
C  4.26200 43.16600 27.93800
C  3.12200 42.53600 27.43200
C  6.49500 44.09500 26.86300
C  4.21500 43.12900 29.38900
O  5.04000 43.46100 30.20400
C  2.84600 42.41900 29.72000
C  3.21200 41.24000 30.47300
O  4.08800 40.46400 30.23700
O  2.32800 41.14100 31.59500
C  2.72500 40.13300 32.59800
H  -2.40100 39.54500 26.14800
H  0.80400 40.87800 20.75700
H  5.50200 43.51100 23.83000
H  0.27900 40.45800 30.04800
H  -2.21800 40.73100 28.50200
H  -2.47300 38.61400 29.24200
H  -0.85400 38.72700 29.78600
H  -1.21100 38.06800 28.14900
H  -1.66200 42.72500 29.34700
H  0.04800 43.16600 29.69500
H  -1.62600 43.43600 31.56300
H  -0.18500 42.43500 31.81600
H  -3.88500 39.88900 24.76000
H  -3.56200 38.41500 23.85700
H  -4.24300 39.72000 22.98700
H  -3.80900 40.02300 20.60700
H  -3.48000 38.44800 21.36500
H  -3.27700 38.80000 19.62100
H  2.79500 42.46600 20.17600
H  5.22200 42.12800 21.72400
H  4.78000 40.47000 20.56500
H  3.56900 40.63800 19.17000
H  3.25200 39.68300 20.59600
H  4.86200 44.79300 21.75700
H  3.36200 44.47900 20.90500
H  4.31200 44.31200 18.99000
H  5.56400 43.25000 19.55000
H  5.83800 45.01600 19.61700
H  6.41600 44.75900 27.72300
H  6.75700 44.80800 26.08200
H  7.30600 43.38100 27.00700
H  2.16400 43.04000 30.29900
H  3.50400 40.57400 33.21900
H  3.04500 39.22500 32.08600
H  1.83200 39.92800 33.18900

