158

Mg 5.50900 53.48300 41.70500
C  4.56700 50.17700 41.34400
C  8.74600 52.72700 40.91600
C  6.12200 56.77900 41.57600
C  2.17500 54.17200 42.46900
N  6.51000 51.66000 41.14100
C  5.94900 50.44200 40.88200
C  7.02600 49.36800 40.46600
C  8.36000 50.25600 40.73800
C  7.85100 51.68900 41.01700
C  9.27800 49.70200 41.92100
C  6.88200 48.99300 38.89000
C  6.93100 50.17700 37.95300
H  6.76700 49.68100 36.47100
N  7.25900 54.60500 41.25200
C  8.48000 54.09900 40.94000
C  9.39400 55.17700 40.70900
C  8.63500 56.39600 40.85500
C  7.26000 55.96000 41.24200
C  10.76800 54.94900 40.10200
C  9.18500 57.75500 40.57100
O  10.37500 57.87800 40.20200
C  8.40000 59.02900 40.73700
N  4.33100 55.29400 41.93100
C  4.84200 56.52700 42.00600
C  3.71500 57.59600 42.12600
C  2.47900 56.76200 42.62600
C  3.02300 55.30100 42.20400
C  4.03800 58.90000 42.97300
C  1.14700 56.95500 41.87800
C  -0.08000 57.41800 42.74500
N  3.70600 52.38000 41.88800
C  2.49000 52.82000 42.33400
C  1.67900 51.62900 42.63500
C  2.39900 50.54500 42.19900
C  3.62800 51.06700 41.80500
C  0.26300 51.82700 43.07600
C  2.39500 49.14800 41.99300
O  1.47600 48.36000 42.10200
C  3.91900 48.74000 41.57800
C  4.00700 47.90700 40.35600
O  3.71300 48.22200 39.25600
O  4.53100 46.70100 40.67700
C  4.63700 45.74600 39.57700
H  9.72000 52.32500 40.62900
H  6.37300 57.84200 41.54900
H  1.18300 54.39900 42.86600
H  7.01700 48.47500 41.09100
H  9.00000 50.25800 39.85600
H  8.88900 48.73700 42.24400
H  9.29500 50.28700 42.84100
H  10.28100 49.41400 41.60700
H  6.01500 48.37700 38.64700
H  7.73900 48.36400 38.64900
H  7.90800 50.65100 38.04600
H  6.05800 50.80000 38.15100
H  10.71300 55.11100 39.02600
H  11.15000 53.95400 40.32900
H  11.54800 55.56200 40.55500
H  8.96000 59.93300 40.49900
H  8.00700 59.06900 41.75300
H  7.56800 59.07400 40.03400
H  3.58400 57.84000 41.07200
H  2.33900 56.91500 43.69600
H  5.04600 58.82300 43.38100
H  3.35800 59.03700 43.81400
H  3.96000 59.75800 42.30600
H  0.81600 56.10800 41.27800
H  1.36700 57.84400 41.28600
H  0.09200 57.18500 43.79500
H  -0.92600 56.85500 42.35300
H  -0.14100 58.50600 42.76900
H  -0.29000 52.51400 42.43600
H  0.26100 52.28800 44.06400
H  -0.32500 50.92800 43.26100
H  4.33600 48.22600 42.44400
H  5.26800 44.93200 39.93300
H  4.97400 46.10700 38.60500
H  3.61900 45.38800 39.42400
Mg 10.31500 47.55200 26.25800
C  8.18700 47.75500 28.92200
C  12.83200 49.09200 28.06700
C  12.42000 47.38800 23.45900
C  7.79400 46.60500 24.16900
N  10.59300 47.94600 28.47900
C  9.52400 48.13800 29.26400
C  9.92900 48.82600 30.57200
C  11.23400 49.60700 30.06900
C  11.64600 48.80300 28.85500
C  11.01900 51.16400 29.78300
C  10.24100 47.89700 31.79900
C  10.93700 48.54900 33.04400
H  10.22500 48.24400 34.39400
N  12.28900 48.15700 25.86000
C  13.16300 48.71400 26.75900
C  14.45800 48.90100 26.13900
C  14.35700 48.32800 24.83600
C  12.99100 47.91800 24.68200
C  15.60300 49.36600 26.95300
C  15.49600 48.30400 23.77300
O  15.28400 48.00300 22.61800
C  16.89100 48.65600 24.17500
N  10.16300 47.10400 24.06500
C  11.11600 47.08100 23.16300
C  10.69600 46.42700 21.82300
C  9.16400 46.28700 22.07100
C  9.02700 46.67600 23.57100
C  11.18300 47.22600 20.54800
C  8.62200 44.84400 21.80900
C  9.30000 43.72700 22.65300
N  8.33600 47.31400 26.44600
C  7.40200 46.89900 25.47900
C  6.06600 46.83600 26.11900
C  6.28700 47.12300 27.48500
C  7.69000 47.33100 27.65800
C  4.67400 46.77200 25.38800
C  5.74900 47.38700 28.77600
O  4.61000 47.34000 29.20800
C  6.96000 47.77100 29.75000
C  6.93200 46.75900 30.90300
O  7.43700 45.65000 30.89400
O  6.20600 47.29600 31.91600
C  5.88000 46.42200 33.01600
H  13.40700 49.72100 28.75000
H  13.11200 47.25900 22.62400
H  6.89200 46.24300 23.67300
H  9.13700 49.51800 30.85900
H  12.04200 49.55000 30.79900
H  11.12700 51.38100 28.72100
H  11.82300 51.70200 30.28600
H  9.99800 51.42200 30.06300
H  10.97800 47.21100 31.38200
H  9.41300 47.20300 31.94500
H  10.76500 49.62100 32.95400
H  12.00700 48.35200 32.99000
H  15.40300 49.66100 27.98300
H  16.18100 50.21000 26.57700
H  16.39800 48.62400 27.02400
H  16.82100 49.62300 24.67400
H  17.47400 48.45900 23.27500
H  17.20400 47.95700 24.95000
H  11.19600 45.46500 21.71100
H  8.57300 46.97700 21.46900
H  11.95900 46.69700 19.99400
H  11.60600 48.16600 20.90400
H  10.30400 47.45800 19.94700
H  8.78200 44.68900 20.74200
H  7.55500 44.86500 22.03200
H  8.48700 43.26000 23.20900
H  9.97000 44.15000 23.40200
H  9.73400 42.98100 21.98700
H  4.64100 46.36000 24.37900
H  4.26900 47.77900 25.29500
H  4.01800 46.31300 26.12800
H  6.71400 48.75100 30.15900
H  5.88900 47.10000 33.87000
H  6.58300 45.62600 33.26000
H  4.85200 46.07700 32.90000

