158

Mg 25.95400 0.31100 29.22500
C  27.84400 0.06500 32.22300
C  23.13800 0.55200 31.11000
C  24.25700 0.46300 26.37000
C  28.92800 -0.34800 27.38500
N  25.67500 0.53200 31.40300
C  26.49800 0.30000 32.42300
C  25.79400 0.61500 33.82400
C  24.25300 0.40800 33.39700
C  24.34000 0.47500 31.82600
C  23.45100 -0.81400 33.90900
C  26.24900 2.09300 34.45000
C  27.17100 2.04900 35.67500
H  26.68900 2.81100 36.97200
N  23.88100 0.44200 28.78600
C  22.88400 0.57600 29.70100
C  21.64600 0.58900 28.94900
C  22.00200 0.58000 27.58600
C  23.43700 0.52600 27.48600
C  20.38100 0.67500 29.61000
C  21.04600 0.57600 26.39200
O  21.43500 0.70800 25.19700
C  19.55900 0.29900 26.56500
N  26.53200 0.09500 27.13500
C  25.62600 0.23000 26.19300
C  26.27200 0.23900 24.74200
C  27.77600 0.09700 25.15000
C  27.78600 -0.05200 26.64700
C  25.67200 -0.72000 23.70000
C  28.66600 1.28500 24.62100
C  29.93000 0.99000 23.79300
N  27.95300 -0.11900 29.64400
C  29.04100 -0.34900 28.80100
C  30.10400 -0.77600 29.60200
C  29.72500 -0.60200 30.92000
C  28.36500 -0.15100 30.89800
C  31.38600 -1.42400 29.07400
C  30.14300 -0.61300 32.32800
O  31.16400 -1.00900 32.77600
C  28.95900 -0.26500 33.22500
C  28.61500 -1.42700 34.07000
O  28.01100 -2.40200 33.78800
O  29.21100 -1.18900 35.27900
C  29.08000 -2.36500 36.14100
H  22.25700 0.58200 31.75400
H  23.74000 0.66200 25.43000
H  29.80200 -0.56300 26.76500
H  26.13900 -0.20200 34.45700
H  23.69200 1.23500 33.83300
H  22.89400 -1.29800 33.10600
H  22.79400 -0.45200 34.69900
H  24.20000 -1.44100 34.39200
H  25.39100 2.68300 34.77200
H  26.80300 2.56600 33.63900
H  28.11100 2.42000 35.26800
H  27.24900 0.98400 35.89300
H  19.97000 1.60400 29.21500
H  20.38300 0.67500 30.70000
H  19.82200 -0.21300 29.31700
H  19.54400 -0.78200 26.70000
H  18.98700 0.40700 25.64400
H  19.11400 0.89300 27.36300
H  26.08300 1.26700 24.43400
H  28.14700 -0.85100 24.76100
H  24.82500 -1.20500 24.18600
H  26.50400 -1.40700 23.54500
H  25.29900 -0.19600 22.82000
H  28.99700 1.74900 25.55000
H  28.00200 2.02900 24.18200
H  30.08700 -0.08700 23.84100
H  30.76800 1.47200 24.29700
H  29.67600 1.28000 22.77400
H  32.12300 -0.69800 28.73200
H  31.21700 -2.11800 28.25100
H  31.76600 -2.03200 29.89500
H  29.19400 0.69200 33.69100
H  29.53900 -3.25000 35.70000
H  28.11100 -2.59800 36.58200
H  29.80800 -2.25500 36.94500
Mg 47.23500 25.27000 28.52400
C  47.43800 27.62100 31.19200
C  46.00000 23.01700 30.73600
C  47.50600 22.87500 26.13500
C  48.88400 27.49200 26.45000
N  46.89800 25.39300 30.74400
C  46.92500 26.42000 31.65000
C  46.41300 25.99300 33.02300
C  46.28500 24.38600 32.86400
C  46.41800 24.27500 31.32600
C  47.36100 23.51700 33.57800
C  45.05500 26.74400 33.34200
C  45.00600 27.37000 34.76300
H  43.96300 26.86100 35.78000
N  46.63300 23.28200 28.38200
C  46.07500 22.51600 29.42400
C  45.68700 21.22700 28.89800
C  46.11400 21.23500 27.50000
C  46.80200 22.50300 27.29300
C  44.97100 20.12500 29.73400
C  45.93200 20.16700 26.38500
O  46.38900 20.21500 25.26300
C  44.99800 19.04900 26.60900
N  48.25500 25.08900 26.66500
C  48.13500 24.10500 25.80000
C  48.69400 24.40700 24.38500
C  49.01000 25.87300 24.50600
C  48.69500 26.22100 25.99900
C  49.87000 23.46100 23.96900
C  48.18700 26.76300 23.54000
C  46.66900 26.87800 23.79200
N  48.02900 27.16600 28.68200
C  48.57200 27.98600 27.75300
C  48.59300 29.36300 28.31100
C  48.23200 29.26000 29.66100
C  47.88900 27.86700 29.83100
C  49.16700 30.56800 27.62200
C  48.03700 29.97800 30.91100
O  48.24700 31.16600 31.15900
C  47.54100 28.89600 31.92400
C  48.58400 28.79300 32.94700
O  49.65000 28.21500 32.82100
O  48.24400 29.32700 34.21900
C  49.09800 29.00500 35.35000
H  45.63000 22.25100 31.42100
H  47.74600 22.04800 25.46500
H  49.18100 28.30600 25.78600
H  47.17200 26.31200 33.73700
H  45.27700 24.12000 33.18200
H  47.94700 23.05400 32.78300
H  46.80100 22.79000 34.16500
H  48.03200 24.03800 34.26100
H  44.20100 26.06700 33.32300
H  44.83200 27.50300 32.59200
H  44.66300 28.40000 34.66200
H  46.00600 27.43900 35.19300
H  45.71700 19.35400 29.92600
H  44.03800 19.83500 29.25100
H  44.66000 20.44400 30.72900
H  45.12800 18.45200 27.51200
H  45.08700 18.52700 25.65700
H  43.94600 19.31700 26.71000
H  47.93100 24.19200 23.63600
H  50.08200 26.01900 24.37600
H  49.91100 22.62800 24.67100
H  50.88900 23.84300 24.00900
H  49.69100 23.07600 22.96500
H  48.35400 26.24200 22.59700
H  48.56200 27.78500 23.59400
H  46.09400 26.69800 22.88300
H  46.35100 27.90700 23.96200
H  46.39900 26.17100 24.57600
H  50.02600 30.15800 27.09100
H  49.55000 31.25300 28.37900
H  48.42500 30.99500 26.94800
H  46.56800 29.20500 32.30600
H  50.11200 28.76000 35.03400
H  48.67200 28.13900 35.85600
H  49.09700 29.86700 36.01700

