158

Mg 25.93900 0.12000 29.56300
C  27.65000 0.06300 32.61200
C  23.04500 0.66500 31.15800
C  24.55000 0.29800 26.62900
C  29.09300 -0.56300 27.93300
N  25.48800 0.29100 31.64000
C  26.31000 0.39100 32.74100
C  25.48400 0.38900 34.04000
C  23.97600 0.22600 33.55800
C  24.13200 0.50100 32.02000
C  23.37300 -1.20200 33.81000
C  25.80500 1.52800 35.03500
C  25.94300 1.09400 36.53400
H  25.29000 2.00900 37.57900
N  24.04700 0.35900 28.99600
C  22.98200 0.59500 29.75800
C  21.78200 0.79900 28.97900
C  22.25700 0.75300 27.58300
C  23.70900 0.55100 27.68600
C  20.47200 1.08700 29.69700
C  21.46000 0.86600 26.26200
O  22.00500 0.70700 25.16700
C  19.90800 1.14200 26.27000
N  26.76600 -0.12600 27.57600
C  25.89200 0.02700 26.48900
C  26.54100 -0.19600 25.11600
C  28.06200 -0.26400 25.56600
C  27.98700 -0.33900 27.09300
C  26.22300 -1.50200 24.31400
C  28.89800 1.03300 25.19600
C  30.33200 0.70700 24.75900
N  28.01400 -0.21700 30.08000
C  29.13300 -0.46700 29.34200
C  30.25700 -0.57300 30.24200
C  29.76200 -0.40000 31.55400
C  28.34700 -0.20800 31.44000
C  31.70300 -0.75700 29.82100
C  30.08100 -0.30900 32.92700
O  31.14800 -0.28600 33.43800
C  28.76200 0.04600 33.67100
C  28.65300 -0.97900 34.69900
O  28.24000 -2.13700 34.53400
O  29.14600 -0.53900 35.92800
C  28.83800 -1.36700 37.05500
H  22.17400 0.97900 31.73700
H  24.24800 0.37200 25.58200
H  29.93000 -0.79300 27.27100
H  25.74600 -0.57900 34.46700
H  23.36300 0.88700 34.17000
H  22.83600 -1.59900 32.94900
H  22.70200 -1.21200 34.66900
H  24.16100 -1.88400 34.12900
H  25.08100 2.34100 35.08200
H  26.76400 1.91300 34.68600
H  26.96500 0.93300 36.87700
H  25.46800 0.12100 36.66000
H  19.77500 1.72100 29.15000
H  20.53700 1.40000 30.73900
H  20.05300 0.08100 29.66700
H  19.41300 0.30900 26.76900
H  19.46300 1.19400 25.27600
H  19.73600 2.06100 26.83100
H  26.37900 0.65200 24.45000
H  28.63300 -1.14600 25.27500
H  26.96800 -1.65100 23.53300
H  25.21400 -1.34600 23.93400
H  26.13100 -2.37900 24.95500
H  29.09300 1.68200 26.05000
H  28.48800 1.67400 24.41600
H  30.39600 -0.27400 24.29000
H  30.91500 0.82000 25.67300
H  30.68400 1.41600 24.01000
H  31.92900 -1.81800 29.93600
H  32.37400 -0.45600 30.62500
H  31.93500 -0.31500 28.85200
H  28.91000 1.05400 34.05800
H  27.78100 -1.21700 37.27400
H  29.42000 -1.10800 37.94000
H  29.04200 -2.38700 36.72800
Mg 48.70500 45.73600 43.21300
C  45.25800 45.16100 42.94800
C  49.20600 42.39200 42.78900
C  52.06900 46.25200 43.11700
C  48.14000 49.09900 43.33100
N  47.37200 44.00600 42.80700
C  45.91300 43.97300 42.85900
C  45.38800 42.50200 42.83400
C  46.74100 41.66900 42.64800
C  47.90000 42.72100 42.79600
C  46.84000 40.41800 43.48900
C  44.29500 42.00700 41.85700
C  44.17600 42.59900 40.43900
H  44.04400 41.78900 39.16100
N  50.40700 44.45100 43.02500
C  50.41500 43.11400 42.81800
C  51.77400 42.55900 42.81800
C  52.64300 43.69100 42.98800
C  51.74300 44.86900 43.04700
C  52.00500 41.07900 42.75900
C  54.14900 43.59700 43.06200
O  54.73400 42.52100 42.89800
C  55.05800 44.81800 43.25400
N  49.92700 47.40000 43.00400
C  51.22300 47.36600 43.08100
C  51.82700 48.76700 43.29200
C  50.58300 49.70500 43.08900
C  49.49700 48.71900 43.22100
C  52.43300 48.92400 44.70600
C  50.59000 50.47600 41.74500
C  50.73500 52.02700 41.85500
N  47.01900 46.98800 42.97400
C  46.98700 48.34300 43.14400
C  45.61000 48.74200 43.21900
C  44.91100 47.52000 43.10300
C  45.82300 46.47700 43.02500
C  44.93100 50.06500 43.37700
C  43.56100 46.93800 42.96000
O  42.49100 47.47800 42.79900
C  43.78200 45.34200 43.04300
C  43.12600 44.78100 44.26400
O  42.28900 43.94400 44.24600
O  43.63900 45.29200 45.42200
C  43.03600 44.92600 46.74600
H  49.33100 41.31000 42.70300
H  53.12600 46.52500 43.13900
H  48.05300 50.17200 43.51300
H  44.90600 42.40200 43.80700
H  46.86900 41.28800 41.63500
H  47.11300 39.62200 42.79700
H  45.85400 40.21700 43.90800
H  47.66200 40.34100 44.20100
H  43.30800 42.13900 42.30000
H  44.48300 40.95800 41.62700
H  45.01800 43.28800 40.37500
H  43.33700 43.29300 40.46300
H  51.84500 40.88700 41.69800
H  51.16700 40.53000 43.18800
H  52.89100 40.65100 43.22700
H  55.05500 45.31600 42.28400
H  56.06100 44.41900 43.40300
H  54.65300 45.52900 43.97500
H  52.62300 48.66000 42.55500
H  50.54700 50.44900 43.88500
H  52.25700 48.09200 45.38700
H  52.01500 49.84400 45.11300
H  53.50000 49.14000 44.76700
H  49.69200 50.31500 41.15000
H  51.44700 50.07500 41.20400
H  50.35300 52.37300 42.81500
H  50.16700 52.51900 41.06400
H  51.78100 52.33100 41.82900
H  44.20000 50.17100 42.57600
H  45.67900 50.85200 43.28100
H  44.48600 50.07900 44.37200
H  43.20000 44.81800 42.28500
H  43.75600 44.46600 47.42300
H  42.23500 44.18800 46.71700
H  42.58100 45.86600 47.06000

