158

Mg 25.91200 50.27600 26.41900
C  23.59300 51.52400 28.70600
C  28.04700 49.54900 29.04500
C  28.14800 49.52000 24.11700
C  23.70100 51.53500 23.79400
N  25.79000 50.55300 28.67200
C  24.72000 51.07800 29.39600
C  24.94800 50.84900 30.89700
C  26.37900 50.47600 30.88600
C  26.81600 50.18600 29.42100
C  27.40800 51.32300 31.72000
C  23.96600 49.82200 31.56900
C  24.16400 49.37100 33.03800
H  24.68700 50.36100 34.08100
N  27.83400 49.52000 26.51500
C  28.53700 49.22400 27.69000
C  29.83800 48.64300 27.29900
C  29.82800 48.64700 25.86800
C  28.57600 49.27200 25.41200
C  30.88500 48.21500 28.36000
C  30.94800 48.09300 24.92900
O  30.77700 48.01500 23.66500
C  32.29700 47.49900 25.45200
N  25.78600 50.24400 24.22000
C  26.90100 49.98000 23.53200
C  26.60000 50.22400 22.02300
C  25.12200 50.70700 21.98800
C  24.85800 50.83500 23.43700
C  27.55500 51.06800 21.33400
C  23.99500 49.82400 21.40000
C  23.05100 50.62500 20.35200
N  23.91200 51.31500 26.22200
C  23.18800 51.68000 25.12700
C  21.99000 52.27800 25.56300
C  22.11000 52.25300 26.94300
C  23.28900 51.67000 27.30800
C  20.87100 52.83200 24.74900
C  21.40000 52.58800 28.19200
O  20.36200 53.15200 28.41600
C  22.32300 52.14500 29.34900
C  22.72500 53.20500 30.19800
O  23.48100 54.10500 29.90700
O  22.27600 52.95900 31.44300
C  22.35600 54.17600 32.41200
H  28.66100 49.28800 29.90900
H  28.79100 49.23800 23.28100
H  23.05600 51.93400 23.00900
H  24.99000 51.80400 31.42100
H  26.42100 49.50800 31.38600
H  27.82700 52.09700 31.07700
H  28.23900 50.81100 32.20500
H  26.88400 51.88700 32.49200
H  24.05800 48.92200 30.96100
H  22.97700 50.22100 31.34000
H  24.67800 48.41100 33.01600
H  23.10800 49.36000 33.31100
H  31.11300 47.16300 28.18900
H  30.48700 48.34300 29.36700
H  31.73900 48.89000 28.41700
H  32.97900 48.26900 25.81200
H  32.57100 46.84200 24.62700
H  32.09200 46.78100 26.24600
H  26.79000 49.25600 21.56100
H  25.07100 51.69400 21.52900
H  28.44700 51.27500 21.92600
H  27.17400 52.08500 21.24400
H  27.95000 50.66500 20.40100
H  23.29100 49.33600 22.07400
H  24.46700 48.97700 20.90100
H  22.81900 49.99000 19.49800
H  23.60200 51.52100 20.06600
H  22.15700 50.89000 20.91700
H  20.32600 53.52700 25.38800
H  20.24700 52.01200 24.39400
H  21.34200 53.42100 23.96200
H  21.86100 51.33900 29.91800
H  22.36500 55.08200 31.80600
H  23.24400 54.04700 33.03100
H  21.49500 54.12500 33.07800
Mg -10.86100 40.07000 42.15900
C  -9.56700 36.83400 41.44700
C  -8.10600 41.39200 40.60500
C  -12.32700 43.02600 42.32700
C  -13.88100 38.52400 43.02500
N  -9.10300 39.15600 40.98600
C  -8.72800 37.86300 40.98600
C  -7.45600 37.71300 40.12900
C  -6.90000 39.19700 40.07900
C  -8.11100 39.97900 40.54700
C  -5.62300 39.49800 40.80700
C  -7.77300 36.98300 38.78400
C  -6.78600 35.90100 38.36100
H  -5.76200 36.34900 37.26000
N  -10.26700 41.99100 41.61400
C  -9.09000 42.30500 41.00900
C  -8.96000 43.67400 40.90100
C  -10.12600 44.23100 41.52500
C  -11.01800 43.09400 41.79700
C  -7.77000 44.36800 40.30300
C  -10.40300 45.68500 41.87600
O  -9.58500 46.55500 41.58500
C  -11.63600 46.22900 42.63500
N  -12.85100 40.65500 42.47000
C  -13.19000 41.94500 42.56400
C  -14.61500 42.23700 43.02800
C  -15.14300 40.74400 43.16800
C  -13.92200 39.92600 42.88800
C  -14.65200 43.00300 44.38000
C  -16.24000 40.40600 42.13700
C  -17.57800 39.88300 42.77900
N  -11.63500 38.10400 42.29600
C  -12.82000 37.64800 42.77300
C  -12.81400 36.16200 42.81700
C  -11.51900 35.83900 42.28100
C  -10.87700 37.05800 41.92700
C  -13.92600 35.14600 43.23200
C  -10.61700 34.78700 41.93300
O  -10.82200 33.55700 42.07500
C  -9.32000 35.34600 41.31800
C  -8.23800 34.86200 42.14900
O  -7.87100 35.30800 43.18100
O  -7.68400 33.76800 41.48000
C  -6.37100 33.36400 41.93700
H  -7.24300 41.86700 40.13300
H  -12.82900 43.99200 42.41200
H  -14.84800 38.16100 43.37800
H  -6.73200 37.19900 40.76000
H  -6.78300 39.37900 39.01100
H  -4.97800 38.62300 40.89400
H  -5.75000 39.84500 41.83300
H  -5.00300 40.23800 40.30100
H  -7.70400 37.77600 38.03900
H  -8.82200 36.68800 38.75900
H  -7.40400 35.04400 38.09600
H  -6.20900 35.56200 39.22100
H  -8.01900 44.88100 39.37400
H  -6.88300 43.75100 40.15800
H  -7.35900 45.01800 41.07600
H  -12.56300 46.27900 42.06400
H  -11.31800 47.22100 42.95800
H  -11.70000 45.58200 43.51000
H  -15.09400 42.87700 42.28800
H  -15.42400 40.48500 44.18900
H  -13.66900 43.29700 44.74900
H  -15.25300 42.44200 45.09500
H  -15.14600 43.97300 44.32400
H  -15.95100 39.69300 41.36600
H  -16.45300 41.29900 41.54900
H  -18.30300 39.67100 41.99300
H  -18.18500 40.60200 43.32800
H  -17.50700 38.92100 43.28500
H  -13.44200 34.39700 43.85800
H  -14.54500 34.91000 42.36700
H  -14.52700 35.68600 43.96400
H  -9.36700 34.81200 40.36900
H  -5.88400 32.61700 41.31000
H  -6.35200 33.09800 42.99400
H  -5.66700 34.19500 41.94500

