158

Mg 8.30000 4.37800 27.41500
C  9.62200 2.57300 30.21700
C  6.44200 6.15100 29.54300
C  7.23900 5.84400 24.74700
C  9.84500 1.72500 25.40600
N  7.82100 4.08100 29.64400
C  8.64100 3.54000 30.56400
C  8.22100 3.91800 32.00100
C  7.04800 4.96100 31.72900
C  7.05200 5.06200 30.16700
C  5.66900 4.69000 32.29400
C  9.38200 4.53100 32.80500
C  8.94300 5.29200 34.12900
H  9.87100 5.20100 35.37500
N  7.08500 5.89800 27.20000
C  6.38100 6.60200 28.21500
C  5.70700 7.74000 27.59700
C  5.91000 7.58500 26.19100
C  6.74800 6.38800 25.97900
C  4.77400 8.64500 28.41600
C  5.25600 8.44900 25.11600
O  5.34100 8.16700 23.91600
C  4.55200 9.71000 25.42200
N  8.50200 3.78900 25.38000
C  7.86000 4.59600 24.52500
C  8.05800 4.04900 23.05900
C  9.10600 2.84900 23.26100
C  9.16200 2.75200 24.79500
C  6.62800 3.72100 22.47400
C  10.54300 2.95300 22.60100
C  11.10700 1.63100 21.98800
N  9.50300 2.56700 27.71700
C  9.94700 1.60700 26.81800
C  10.74800 0.59800 27.53400
C  10.66700 0.99700 28.80600
C  9.84000 2.12100 28.91300
C  11.70500 -0.43500 26.94700
C  11.16500 0.66900 30.17100
O  11.84000 -0.21200 30.62500
C  10.56600 1.80600 31.09800
C  9.70600 1.02000 32.10500
O  8.52000 0.66500 32.00400
O  10.54100 0.65500 33.17400
C  9.83400 0.21300 34.39800
H  5.90200 6.69100 30.32400
H  6.75000 6.23700 23.85300
H  10.42600 0.99200 24.84200
H  7.74500 3.04800 32.45500
H  7.40700 5.93000 32.07700
H  5.63500 3.68200 32.70700
H  5.03500 4.56100 31.41600
H  5.21100 5.46300 32.91100
H  10.13000 5.05600 32.21300
H  9.92000 3.64500 33.14100
H  7.95000 5.06100 34.51300
H  8.95100 6.32900 33.79300
H  3.74500 8.71600 28.06200
H  5.17400 9.65800 28.37500
H  4.69800 8.34600 29.46100
H  4.37600 10.43600 24.62900
H  5.25600 10.16300 26.12000
H  3.62100 9.49400 25.94500
H  8.56000 4.79900 22.44800
H  8.76000 1.88600 22.88600
H  5.86000 3.95400 23.21200
H  6.46000 2.67300 22.22700
H  6.29100 4.29400 21.61000
H  11.13700 3.26700 23.45900
H  10.60500 3.63500 21.75300
H  11.51000 1.89300 21.01000
H  10.33700 0.86100 22.03400
H  11.98600 1.34500 22.56600
H  11.75800 -1.31200 27.59200
H  12.66000 0.07200 26.81000
H  11.37600 -0.88400 26.00900
H  11.27800 2.43800 31.63000
H  9.13200 -0.60200 34.22300
H  9.34100 1.05100 34.89000
H  10.58200 -0.24700 35.04400
Mg 47.74100 24.46600 28.46500
C  48.67600 26.63000 31.16100
C  46.84600 22.22700 30.66700
C  46.92100 22.64600 25.82900
C  48.95800 27.00600 26.26200
N  47.88000 24.41300 30.68400
C  48.03900 25.41500 31.57200
C  47.59200 25.08800 32.98100
C  47.10200 23.64600 32.82500
C  47.23700 23.38400 31.28300
C  47.85900 22.65600 33.77600
C  46.64600 26.12100 33.64200
C  46.03200 25.65200 35.00000
H  46.36300 26.58000 36.18000
N  47.04500 22.62000 28.22600
C  46.78700 21.81900 29.31000
C  46.22800 20.61200 28.84100
C  46.18800 20.75200 27.46000
C  46.73800 22.04500 27.06800
C  45.73900 19.47600 29.68200
C  45.66100 19.76500 26.49800
O  45.56600 20.04900 25.29800
C  44.93100 18.46900 26.87000
N  47.89400 24.78500 26.30800
C  47.46300 23.84800 25.51800
C  47.46800 24.33000 24.07400
C  47.92700 25.82500 24.13600
C  48.34800 25.89500 25.63500
C  48.44500 23.41800 23.19900
C  46.78800 26.85100 23.71500
C  47.26600 27.82900 22.57300
N  48.79000 26.40200 28.61100
C  49.21700 27.27900 27.66900
C  49.76600 28.46400 28.20000
C  49.64900 28.26300 29.62700
C  48.93800 27.03200 29.80800
C  50.45600 29.53800 27.47500
C  49.93500 28.79700 30.92200
O  50.54600 29.76900 31.26200
C  49.10100 27.90200 31.97700
C  50.08000 27.57300 33.04600
O  51.05000 26.83700 32.91300
O  49.83300 28.20600 34.15800
C  50.70400 27.93200 35.27700
H  46.50700 21.47600 31.38500
H  46.68700 22.05200 24.94300
H  49.08100 27.89800 25.64400
H  48.53500 25.13200 33.52600
H  46.04600 23.54400 33.07400
H  48.53400 23.22000 34.42000
H  48.52500 22.04500 33.16600
H  47.13300 22.06300 34.33300
H  45.78700 26.34700 33.00900
H  47.29300 26.96500 33.88000
H  46.36700 24.65900 35.29800
H  44.96300 25.61700 34.79000
H  44.74500 19.15200 29.37400
H  45.70800 19.68300 30.75200
H  46.43400 18.63700 29.68200
H  45.49400 17.75400 27.46900
H  44.50700 17.95700 26.00500
H  44.10000 18.77700 27.50400
H  46.47300 24.15600 23.66300
H  48.82000 25.83800 23.51200
H  49.16100 22.98000 23.89500
H  48.94300 23.98600 22.41300
H  47.97600 22.54300 22.75000
H  46.49700 27.39100 24.61600
H  45.90200 26.39600 23.27300
H  48.24900 27.43000 22.32500
H  47.48100 28.79500 23.03000
H  46.57300 27.82800 21.73100
H  51.22000 30.02000 28.08500
H  49.74600 30.30000 27.15300
H  50.96000 29.22400 26.56100
H  48.22000 28.45500 32.30100
H  51.68500 28.38900 35.15500
H  50.80400 26.86200 35.45800
H  50.15400 28.34400 36.12300

