158

Mg -1.85500 17.41700 26.03600
C  -2.60500 15.14300 28.73400
C  -2.63900 19.96800 28.15900
C  -1.64500 19.38100 23.34800
C  -1.40400 14.60400 23.99100
N  -2.50900 17.50600 28.25600
C  -2.77300 16.46700 29.06600
C  -2.91000 17.05000 30.50000
C  -3.39100 18.54800 30.23300
C  -2.85500 18.71200 28.79700
C  -4.93400 18.63900 30.41700
C  -1.56500 17.08200 31.31000
C  -1.73000 17.48500 32.78000
H  -1.81300 16.38500 33.81900
N  -2.01800 19.40500 25.82100
C  -2.25200 20.31000 26.83100
C  -2.14200 21.70100 26.22700
C  -1.73900 21.52700 24.85900
C  -1.84000 20.06900 24.60800
C  -2.35000 23.01000 27.06700
C  -1.24900 22.51400 23.83300
O  -1.06300 22.25900 22.65900
C  -0.76200 23.86700 24.18600
N  -1.72200 17.01500 23.81600
C  -1.51700 18.04800 22.98600
C  -1.23500 17.55000 21.56600
C  -1.05500 16.00700 21.85500
C  -1.41900 15.82100 23.28600
C  -2.34100 17.85300 20.59100
C  0.38400 15.40100 21.57300
C  1.47600 16.01500 22.47700
N  -1.95600 15.36800 26.27000
C  -1.67700 14.39400 25.35900
C  -1.75500 13.05700 25.96100
C  -2.03600 13.30300 27.30500
C  -2.18700 14.71900 27.48100
C  -1.57700 11.74600 25.18000
C  -2.29600 12.65700 28.52700
O  -2.31100 11.47100 28.87200
C  -2.66600 13.82200 29.55200
C  -1.70800 13.59000 30.67200
O  -0.50900 14.01200 30.65600
O  -2.20700 12.78500 31.66500
C  -1.19800 12.26100 32.58300
H  -2.81800 20.79500 28.85000
H  -1.39500 19.90800 22.42400
H  -1.18600 13.75000 23.34600
H  -3.56500 16.46500 31.14500
H  -2.95300 19.24700 30.94600
H  -5.14200 19.52700 31.01500
H  -5.41700 17.75700 30.83700
H  -5.33100 18.83600 29.42100
H  -1.07700 17.92900 30.82700
H  -0.93200 16.20300 31.19200
H  -2.58400 18.15300 32.89000
H  -0.80300 17.99900 33.03200
H  -2.73600 22.93000 28.08300
H  -2.99400 23.50500 26.34000
H  -1.50400 23.68700 27.19000
H  -1.29200 24.39900 24.97600
H  -0.76300 24.62300 23.40000
H  0.22900 23.65500 24.58800
H  -0.30200 17.99400 21.21900
H  -1.69000 15.50600 21.12400
H  -2.99100 17.01000 20.35600
H  -2.01400 18.18000 19.60400
H  -3.05800 18.59900 20.93400
H  0.74200 15.48400 20.54700
H  0.24400 14.34800 21.81800
H  1.01000 16.78600 23.09000
H  2.22100 16.52700 21.86800
H  1.97000 15.22900 23.04800
H  -1.41700 10.92100 25.87300
H  -0.83300 11.75100 24.38400
H  -2.57500 11.66600 24.74700
H  -3.67100 13.58000 29.89900
H  -0.47000 12.97400 32.96900
H  -0.63200 11.39800 32.22900
H  -1.83800 11.84200 33.36000
Mg -4.39600 25.12200 26.29700
C  -3.23800 26.90500 29.10800
C  -6.25900 23.25400 28.37400
C  -5.47600 23.38600 23.54700
C  -2.76100 27.27600 24.25600
N  -4.74600 25.15700 28.51200
C  -4.13600 25.88000 29.50900
C  -4.77400 25.61800 30.84200
C  -5.49400 24.23600 30.53600
C  -5.60600 24.26800 29.05900
C  -4.65000 23.09200 31.02700
C  -5.68900 26.82600 31.20600
C  -5.76300 27.00500 32.73400
H  -5.39900 25.86700 33.62900
N  -5.63100 23.42900 26.00200
C  -6.34600 22.91300 26.96900
C  -7.28700 21.91000 26.42000
C  -7.04600 21.90900 24.95600
C  -5.95200 22.91600 24.76600
C  -8.27500 21.21200 27.30900
C  -7.67100 21.00000 23.95800
O  -7.30500 20.85900 22.79400
C  -8.90300 20.23200 24.36800
N  -4.14500 25.25800 24.17000
C  -4.63400 24.43000 23.23100
C  -4.26000 24.79200 21.77700
C  -3.57700 26.18000 22.09500
C  -3.49100 26.27500 23.61400
C  -3.31400 23.72400 21.03300
C  -4.28100 27.42400 21.55100
C  -3.68600 28.13400 20.32700
N  -3.10200 26.62700 26.60300
C  -2.48700 27.39600 25.63800
C  -1.63500 28.39200 26.30000
C  -1.95500 28.27100 27.63800
C  -2.79500 27.17700 27.75000
C  -0.78200 29.40900 25.58800
C  -1.76600 28.84800 28.98100
O  -1.10900 29.89100 29.33100
C  -2.40800 27.79100 29.96000
C  -1.27600 27.11800 30.78600
O  -0.51000 26.20000 30.33500
O  -1.43700 27.44300 32.07200
C  -0.79000 26.59900 33.02300
H  -6.83900 22.66200 29.08600
H  -5.87200 22.85200 22.68100
H  -2.19900 27.93700 23.59300
H  -3.93000 25.47300 31.51600
H  -6.51700 24.13900 30.89900
H  -5.21700 22.42300 31.67400
H  -3.67200 23.33500 31.44300
H  -4.41300 22.39300 30.22500
H  -6.72600 26.66000 30.91300
H  -5.33800 27.72700 30.70300
H  -6.77600 27.29300 33.01300
H  -5.14500 27.87900 32.94100
H  -7.95600 21.00500 28.33100
H  -8.34000 20.17400 26.98200
H  -9.12200 21.89400 27.22600
H  -9.59300 20.69400 25.07300
H  -8.51800 19.26700 24.69900
H  -9.52200 19.91100 23.53000
H  -5.17800 24.88000 21.19600
H  -2.59900 26.13700 21.61600
H  -3.28600 22.83400 21.66200
H  -2.29100 24.09600 20.97400
H  -3.87300 23.57100 20.11000
H  -4.39400 28.23500 22.27100
H  -5.25600 27.23000 21.10500
H  -4.38000 28.55100 19.59700
H  -3.02700 27.39500 19.87100
H  -3.01400 28.93700 20.63000
H  0.20200 29.01200 25.83600
H  -0.85900 30.38700 26.06300
H  -1.07300 29.36400 24.53900
H  -2.97600 28.24300 30.77400
H  0.12300 27.07800 33.37800
H  -0.51500 25.61700 32.63700
H  -1.40500 26.46400 33.91200

