158

Mg 7.94300 3.31200 27.49000
C  9.25900 1.84900 30.42700
C  6.00100 5.45200 29.44500
C  6.71600 4.71500 24.67500
C  9.50700 0.76700 25.51900
N  7.62700 3.48700 29.68500
C  8.46700 2.94200 30.66200
C  8.30300 3.75000 31.99700
C  7.09500 4.68000 31.68700
C  6.89300 4.55500 30.16200
C  5.81100 4.31900 32.36900
C  9.58200 4.42400 32.61000
C  9.47100 5.03100 34.04500
H  10.30000 4.53300 35.16900
N  6.49400 4.72800 27.12000
C  5.85000 5.51900 28.00600
C  4.94500 6.45900 27.26600
C  5.21400 6.35400 25.88300
C  6.26000 5.28100 25.84900
C  3.96500 7.37600 28.02100
C  4.75500 7.20100 24.69100
O  5.07400 7.01400 23.54000
C  3.99800 8.49900 24.95900
N  8.04800 2.85400 25.38200
C  7.47800 3.56400 24.41800
C  7.57300 3.04300 22.95300
C  8.54000 1.80400 23.31900
C  8.77300 1.79500 24.83700
C  6.12900 2.75700 22.38100
C  9.81300 1.73000 22.43500
C  10.10800 0.52500 21.50600
N  9.14700 1.68200 27.81500
C  9.60000 0.71100 26.90300
C  10.34900 -0.29400 27.70200
C  10.23300 0.10800 29.02300
C  9.47700 1.33300 29.09400
C  11.04200 -1.44300 27.14600
C  10.65300 -0.22900 30.41500
O  11.30700 -1.15300 30.90600
C  10.07700 0.96600 31.32400
C  9.15700 0.27600 32.28400
O  8.00600 0.02400 32.12800
O  9.77500 0.09300 33.42000
C  8.98200 -0.09500 34.66900
H  5.58000 6.25400 30.05500
H  6.41300 5.23100 23.76200
H  9.83300 -0.05900 24.88300
H  8.08600 3.03000 32.78500
H  7.42900 5.69500 31.90600
H  5.11900 5.14200 32.55100
H  6.06000 3.94300 33.36200
H  5.36200 3.49100 31.82000
H  10.03800 5.11800 31.90400
H  10.35400 3.65900 32.68800
H  8.44300 4.99500 34.40800
H  9.81200 6.04800 33.85100
H  3.54700 6.68100 28.74900
H  3.13800 7.77300 27.43200
H  4.45800 8.21200 28.51700
H  4.54700 9.18000 25.60800
H  3.07100 8.09600 25.36800
H  3.79600 8.96100 23.99300
H  8.02500 3.80400 22.31600
H  7.90300 0.97600 23.00800
H  5.30400 3.06200 23.02400
H  6.09300 1.70800 22.08800
H  5.90700 3.31200 21.46900
H  10.55800 1.64600 23.22700
H  10.00100 2.52300 21.71200
H  10.75400 0.69600 20.64500
H  9.18000 0.02600 21.22700
H  10.62900 -0.22300 22.10300
H  11.87300 -1.10000 26.53000
H  10.40600 -2.04800 26.50000
H  11.47200 -2.08700 27.91300
H  10.94000 1.45000 31.78200
H  9.67100 0.05300 35.50100
H  8.54300 -1.09200 34.63100
H  8.17200 0.63400 34.65000
Mg 46.53200 24.96300 27.80400
C  47.39500 27.29100 30.30600
C  45.59000 22.82800 30.28000
C  45.94700 22.79200 25.35200
C  47.72000 27.35300 25.47100
N  46.50200 25.03500 30.02300
C  46.89900 26.09400 30.79900
C  46.85000 25.72600 32.34000
C  46.41900 24.24600 32.26600
C  46.13700 24.00000 30.77500
C  47.40300 23.34400 33.07500
C  45.88400 26.67100 33.10300
C  46.44400 27.25900 34.35600
H  45.45600 27.62900 35.45100
N  45.68000 23.08200 27.81600
C  45.39400 22.32300 28.92200
C  44.92200 21.01500 28.50500
C  44.92100 21.08700 27.07900
C  45.60500 22.37400 26.69400
C  44.50200 19.92700 29.49600
C  44.34100 20.08000 26.12800
O  44.55700 20.10700 24.93300
C  43.32000 19.08800 26.57400
N  46.92600 24.98600 25.74500
C  46.65900 23.88400 24.97900
C  46.94500 24.19800 23.48200
C  47.14100 25.69300 23.47700
C  47.21900 26.08800 24.96100
C  48.06600 23.33800 22.81700
C  46.06400 26.55100 22.75700
C  46.46300 27.03200 21.35200
N  47.43300 26.90100 27.81900
C  47.91100 27.73000 26.85100
C  48.48800 28.88500 27.42400
C  48.25700 28.78900 28.78700
C  47.64100 27.58100 28.96200
C  49.25600 29.92500 26.69100
C  48.51400 29.47900 30.09600
O  49.08400 30.51100 30.38400
C  48.05300 28.44900 31.17800
C  49.21900 28.03700 31.92800
O  49.98100 27.17000 31.61700
O  49.23600 28.76300 33.10300
C  50.52000 28.76200 33.87100
H  45.35300 22.12300 31.08000
H  45.80500 22.06500 24.55000
H  48.03000 28.12600 24.76500
H  47.84400 25.80200 32.78200
H  45.42500 24.12200 32.69700
H  48.10900 22.96300 32.33800
H  46.97000 22.47600 33.57300
H  48.04700 23.88100 33.77200
H  45.01200 26.11600 33.45000
H  45.61100 27.53300 32.49500
H  46.86400 28.21500 34.04500
H  47.23900 26.66300 34.80300
H  44.90500 18.96200 29.18900
H  43.43100 19.81600 29.66600
H  44.97900 20.16000 30.44900
H  43.70300 18.50300 27.41100
H  43.06500 18.44600 25.73100
H  42.44700 19.55900 27.02600
H  46.00200 24.08100 22.94800
H  48.13000 25.95400 23.10100
H  48.35500 22.54300 23.50400
H  48.90100 24.01000 22.62200
H  47.81500 22.95800 21.82700
H  45.80800 27.33800 23.46600
H  45.14300 25.97700 22.65700
H  45.72200 26.65600 20.64700
H  47.41900 26.59200 21.06900
H  46.34000 28.11500 21.35200
H  49.90500 30.38700 27.43500
H  48.63400 30.74600 26.33300
H  49.78900 29.47700 25.85200
H  47.32500 28.98400 31.78700
H  50.47800 28.23000 34.82200
H  50.64400 29.81700 34.11500
H  51.41000 28.52800 33.28600

