158

Mg -1.20200 17.73100 27.47500
C  -1.93600 15.68200 30.18600
C  -2.11800 20.43300 29.46700
C  -1.03800 19.65000 24.79200
C  -1.00400 14.83000 25.39200
N  -1.86900 18.00200 29.52000
C  -2.02000 17.00000 30.44700
C  -2.26900 17.56400 31.93300
C  -2.55200 19.09700 31.53600
C  -2.20100 19.19400 30.07900
C  -3.86400 19.76100 32.14400
C  -1.11200 17.40700 33.02100
C  -1.54600 16.90800 34.34800
H  -0.50500 16.95500 35.46200
N  -1.45200 19.75600 27.23100
C  -1.76700 20.74100 28.16400
C  -1.71300 22.06300 27.56900
C  -1.30800 21.84500 26.23000
C  -1.30200 20.39500 26.01000
C  -2.17200 23.31600 28.20300
C  -1.06900 22.84200 25.11800
O  -0.72700 22.57300 23.95100
C  -1.11600 24.29700 25.42400
N  -0.80600 17.29000 25.46100
C  -0.90100 18.29100 24.53900
C  -0.51200 17.81600 23.16000
C  -0.32900 16.25700 23.39500
C  -0.70100 16.07400 24.81400
C  -1.56700 18.03600 22.04800
C  1.15000 15.85500 23.01500
C  2.17900 15.77000 24.16200
N  -1.48600 15.70000 27.67900
C  -1.39400 14.69000 26.75200
C  -1.62400 13.46500 27.50900
C  -1.87700 13.83400 28.82100
C  -1.77500 15.17800 28.90400
C  -1.69100 12.18500 26.84100
C  -2.21800 13.24700 30.12000
O  -2.31500 12.07200 30.49300
C  -2.19700 14.48700 31.08500
C  -1.13600 14.21800 32.07800
O  0.04800 14.51400 31.98800
O  -1.69500 13.54100 33.14400
C  -0.85900 13.21200 34.31700
H  -2.31100 21.28500 30.12300
H  -0.75700 20.15600 23.86600
H  -0.79800 13.93600 24.80000
H  -3.15300 17.03100 32.28100
H  -1.85100 19.77800 32.02100
H  -4.33200 19.16500 32.92700
H  -4.59400 19.93900 31.35400
H  -3.62800 20.66500 32.70600
H  -0.66000 18.32500 33.39500
H  -0.28900 16.77700 32.68300
H  -2.02600 15.93400 34.25700
H  -2.25800 17.66800 34.67100
H  -2.97000 23.78000 27.62300
H  -1.36100 24.04200 28.13800
H  -2.57600 23.15700 29.20200
H  -0.36400 24.56400 26.16700
H  -2.12200 24.58900 25.72600
H  -0.96500 24.86500 24.50600
H  0.45000 18.24400 22.88000
H  -0.98900 15.68200 22.74400
H  -1.04100 17.89300 21.10400
H  -2.09600 18.98600 21.96800
H  -2.27400 17.20800 22.09200
H  1.54900 16.57100 22.29600
H  1.01800 14.88000 22.54700
H  3.02500 16.35100 23.79400
H  2.44500 14.71300 24.18500
H  1.93600 16.30800 25.07800
H  -1.97100 11.47400 27.61800
H  -0.71400 11.91700 26.44200
H  -2.39600 12.18400 26.01000
H  -3.21900 14.31200 31.42000
H  0.15800 13.59600 34.24500
H  -0.82200 12.12900 34.43500
H  -1.26400 13.64300 35.23300
Mg 26.53200 50.07100 26.37300
C  24.41700 51.47200 28.72500
C  28.71600 49.13400 28.73300
C  28.58300 48.78200 23.87200
C  24.35900 51.33000 23.88600
N  26.58600 50.28200 28.46800
C  25.54800 50.75400 29.22800
C  25.82300 50.45600 30.81100
C  27.26800 49.86600 30.74300
C  27.52200 49.68800 29.21700
C  28.34500 50.85300 31.31600
C  24.72200 49.69500 31.49200
C  24.22400 50.13400 32.89700
H  25.12800 50.79200 33.98300
N  28.29000 49.06000 26.33400
C  29.11600 48.82300 27.40400
C  30.24800 48.10100 27.03600
C  30.15800 47.87900 25.62100
C  28.89300 48.53700 25.20000
C  31.31800 47.59100 28.01500
C  31.09300 47.01600 24.75900
O  30.82700 46.63500 23.66100
C  32.46800 46.77600 25.28500
N  26.59300 50.22700 24.13500
C  27.43900 49.49600 23.38900
C  27.16200 49.61900 21.89600
C  25.70300 50.29300 21.86500
C  25.51100 50.67000 23.35000
C  28.29700 50.34000 21.13400
C  24.62700 49.37100 21.22000
C  24.12500 48.15300 21.96500
N  24.69700 51.15000 26.26900
C  23.96000 51.57600 25.22900
C  22.80800 52.29900 25.71700
C  22.97400 52.32700 27.07000
C  24.14500 51.61100 27.38200
C  21.80900 53.03300 24.90500
C  22.36800 52.79800 28.29800
O  21.43300 53.54000 28.55400
C  23.29000 52.23900 29.42300
C  23.68600 53.42000 30.24600
O  24.21200 54.46600 29.87500
O  23.06600 53.36600 31.45400
C  23.19600 54.45200 32.46600
H  29.23500 48.80200 29.63500
H  29.31300 48.35500 23.18100
H  23.55700 51.50500 23.16600
H  25.77100 51.40300 31.34800
H  27.32700 48.88400 31.21200
H  29.15300 50.92700 30.58900
H  28.65400 50.28700 32.19500
H  28.00300 51.85100 31.59000
H  25.03500 48.65600 31.60000
H  23.91100 49.61800 30.76800
H  24.09100 49.16500 33.37800
H  23.31400 50.70500 32.71400
H  31.49400 46.53000 27.84000
H  30.84200 47.75500 28.98200
H  32.23100 48.18000 27.92500
H  32.84300 47.65900 25.80200
H  33.22900 46.57200 24.53100
H  32.54300 45.92800 25.96700
H  27.17600 48.62000 21.46000
H  25.64200 51.25000 21.34800
H  28.17500 51.40800 20.95300
H  28.57700 49.81400 20.22200
H  29.25800 50.33800 21.64900
H  25.07800 49.17800 20.24600
H  23.69400 49.84500 20.91500
H  23.08500 48.39400 22.18600
H  24.77500 48.19900 22.83900
H  24.27400 47.25400 21.36700
H  21.85600 54.07700 25.21600
H  20.80600 52.62000 25.01300
H  22.16700 52.98900 23.87700
H  22.75100 51.50000 30.01800
H  23.70000 55.31500 32.02900
H  23.78100 54.11800 33.32200
H  22.19900 54.75900 32.78200

