158

Mg 1.54400 7.68100 25.94600
C  2.31200 9.64500 28.78400
C  1.67800 4.89100 28.09100
C  0.83700 5.56600 23.35700
C  1.94800 10.35300 23.88300
N  1.85700 7.29700 28.25900
C  2.13300 8.30400 29.16300
C  2.18200 7.70300 30.58400
C  2.24300 6.15100 30.34300
C  1.95000 6.04900 28.81200
C  3.57300 5.38100 30.71800
C  0.94300 8.07500 31.48600
C  1.06200 8.24900 32.97100
H  2.34600 7.87800 33.77000
N  1.16700 5.48500 25.75800
C  1.30400 4.57100 26.76400
C  0.98200 3.25700 26.25000
C  0.68300 3.39000 24.82500
C  0.77100 4.85000 24.59500
C  0.92600 2.05500 27.07700
C  0.45800 2.35700 23.71100
O  0.68400 2.63300 22.58400
C  0.08400 1.03300 24.07500
N  1.69700 7.84500 23.91100
C  1.24300 6.87800 23.05300
C  1.25400 7.36600 21.60300
C  1.32700 8.94200 21.83700
C  1.79500 9.06800 23.36200
C  2.46700 6.77600 20.79000
C  -0.05800 9.72700 21.44800
C  0.01300 10.55500 20.15000
N  2.11600 9.54500 26.20200
C  2.07000 10.60400 25.27300
C  2.22400 11.86000 25.92800
C  2.39700 11.58000 27.32200
C  2.27600 10.10700 27.41700
C  2.10000 13.23800 25.29800
C  2.65600 12.15100 28.60800
O  2.99000 13.31000 28.86500
C  2.55700 10.91900 29.58700
C  3.86600 10.87600 30.32800
O  4.79700 10.10100 30.14300
O  3.85500 11.81800 31.30500
C  4.74800 11.51800 32.44100
H  1.87900 4.00800 28.70100
H  0.46700 4.94200 22.54100
H  2.06600 11.23000 23.24200
H  3.16100 7.85900 31.03900
H  1.48100 5.63700 30.92800
H  3.99500 5.81200 31.62500
H  4.33600 5.59800 29.97000
H  3.37800 4.38000 31.10400
H  0.03100 7.54900 31.20500
H  0.80000 9.11100 31.17600
H  0.27700 7.67100 33.45700
H  0.76000 9.27900 33.16100
H  1.27200 1.12200 26.63100
H  -0.10900 1.82500 27.33200
H  1.58200 2.14200 27.94200
H  0.97300 0.52900 24.45400
H  -0.27400 0.53700 23.17300
H  -0.61200 1.16900 24.90300
H  0.27700 7.06500 21.22500
H  2.16400 9.18300 21.18200
H  3.20400 6.36700 21.48200
H  2.92000 7.55300 20.17500
H  2.03600 5.95500 20.21600
H  -0.36000 10.31000 22.31800
H  -0.83100 8.97700 21.28300
H  -0.61200 10.09000 19.38800
H  1.03200 10.63900 19.77100
H  -0.37300 11.54700 20.38600
H  1.29000 13.73700 25.82900
H  1.77200 13.00500 24.28500
H  3.02900 13.80800 25.32500
H  1.72000 11.14400 30.24900
H  5.35300 12.42200 32.50300
H  5.34400 10.61300 32.33000
H  4.21200 11.33800 33.37400
Mg 26.11300 -0.91500 29.36600
C  27.74000 -0.76700 32.55200
C  23.19200 -0.81000 31.15900
C  24.49200 -1.16700 26.50500
C  29.17100 -1.63600 27.95600
N  25.57000 -0.74600 31.61200
C  26.42000 -0.69800 32.70900
C  25.65800 -0.52400 34.08300
C  24.15800 -0.59800 33.58600
C  24.25500 -0.70900 32.06400
C  23.19800 -1.73300 34.16100
C  26.05700 0.87900 34.76300
C  26.37200 0.85400 36.22400
H  26.22400 2.08100 37.08200
N  24.11000 -0.98200 28.88900
C  23.06600 -0.98900 29.75000
C  21.76800 -0.85100 28.98400
C  22.15100 -0.80800 27.59600
C  23.60000 -1.07100 27.62100
C  20.36900 -0.65800 29.50700
C  21.24200 -0.50600 26.41800
O  21.62900 -0.75000 25.25100
C  19.83100 0.08400 26.64300
N  26.78700 -1.29300 27.47700
C  25.87100 -1.31000 26.46200
C  26.58800 -1.62800 25.14200
C  28.08500 -1.83400 25.57400
C  28.06600 -1.60100 27.11200
C  26.06200 -2.75600 24.29300
C  29.13700 -0.94600 24.79700
C  29.27200 0.58900 25.14600
N  27.99400 -1.04000 30.03500
C  29.12600 -1.39400 29.32400
C  30.22300 -1.54100 30.20400
C  29.73100 -1.21400 31.47800
C  28.43200 -0.99800 31.33700
C  31.60000 -1.87700 29.84000
C  30.15000 -1.02000 32.90600
O  31.20400 -1.13200 33.49300
C  28.82000 -0.73500 33.63800
C  28.66600 -1.74300 34.71800
O  27.94900 -2.68400 34.55600
O  29.37900 -1.43600 35.86800
C  29.45800 -2.49600 36.89400
H  22.18300 -0.76800 31.57300
H  23.96200 -1.08300 25.55400
H  30.14600 -1.87900 27.52800
H  25.79000 -1.38800 34.73500
H  23.62200 0.33700 33.75100
H  23.56300 -2.03700 35.14200
H  23.18800 -2.58600 33.48300
H  22.15400 -1.45300 34.30200
H  25.26100 1.61700 34.66200
H  26.86000 1.37800 34.22100
H  27.38400 0.48800 36.39900
H  25.73600 0.07400 36.64200
H  20.07700 0.39000 29.57500
H  20.21100 -1.01500 30.52500
H  19.60800 -1.05600 28.83600
H  19.20900 -0.77700 26.88700
H  19.59700 0.65500 25.74500
H  19.83500 0.84200 27.42700
H  26.51100 -0.71400 24.55200
H  28.45000 -2.84400 25.38300
H  25.11000 -3.15200 24.64700
H  26.80400 -3.54500 24.17500
H  25.77800 -2.36200 23.31700
H  28.71200 -0.77600 23.80800
H  30.12200 -1.39300 24.65800
H  28.48300 0.91400 25.82500
H  29.25000 1.22400 24.26100
H  30.21100 0.77900 25.66600
H  31.69200 -2.38800 28.88100
H  31.89100 -2.62200 30.58100
H  32.36800 -1.11500 29.97100
H  28.84500 0.27100 34.05500
H  28.58800 -2.35500 37.53400
H  30.28700 -2.24100 37.55400
H  29.48000 -3.55100 36.62100

