158

Mg -1.69900 34.40500 26.83900
C  -3.35600 32.46300 29.25500
C  -0.30300 36.16100 29.34500
C  -0.37700 36.25100 24.47600
C  -3.07500 32.24400 24.28800
N  -2.03300 34.33900 29.09300
C  -2.69000 33.50400 29.88200
C  -2.52000 33.81100 31.37500
C  -1.69900 35.18000 31.27900
C  -1.30100 35.22700 29.83200
C  -2.40600 36.49200 31.71500
C  -1.77100 32.74600 32.27700
C  -2.44500 32.50900 33.65900
H  -1.63800 32.27200 35.01800
N  -0.57900 36.05800 26.95100
C  -0.00600 36.62200 28.05400
C  1.02900 37.64900 27.67900
C  0.93200 37.70800 26.22500
C  -0.05700 36.61500 25.80400
C  1.82100 38.40400 28.65200
C  1.65200 38.76000 25.31700
O  1.50900 38.77500 24.09800
C  2.58200 39.83000 25.99000
N  -1.70600 34.25500 24.70800
C  -1.24700 35.30100 23.98100
C  -1.58800 35.14800 22.48600
C  -2.16000 33.67500 22.39400
C  -2.34600 33.33400 23.89300
C  -2.58100 36.23100 21.90500
C  -1.35000 32.60400 21.63300
C  -0.55500 31.60800 22.44500
N  -3.00300 32.75700 26.71900
C  -3.35400 31.90700 25.64800
C  -4.09200 30.79200 26.14400
C  -4.16300 31.04900 27.53000
C  -3.42200 32.17700 27.80800
C  -4.80200 29.78400 25.38100
C  -4.68200 30.41100 28.76500
O  -5.28400 29.35400 28.86400
C  -4.10900 31.27500 29.95200
C  -5.17400 31.66200 30.91200
O  -5.55800 32.82500 31.03500
O  -5.60300 30.65200 31.78400
C  -6.39800 31.26800 32.90100
H  0.19400 36.59800 30.21300
H  0.08100 36.98500 23.80900
H  -3.36400 31.54700 23.49900
H  -3.51400 34.09600 31.71900
H  -0.76100 35.08900 31.82600
H  -3.41600 36.25800 32.05200
H  -2.42100 37.21000 30.89500
H  -1.86900 36.90000 32.57100
H  -0.75400 33.11900 32.39400
H  -1.63400 31.77600 31.79800
H  -3.05300 31.61000 33.55600
H  -3.19500 33.26500 33.89300
H  2.11900 37.82000 29.52200
H  1.25500 39.27800 28.97400
H  2.76700 38.80500 28.28900
H  2.09900 40.40300 26.78200
H  3.02200 40.42100 25.18700
H  3.33100 39.13700 26.37300
H  -0.67900 35.10200 21.88600
H  -3.18100 33.57500 22.02700
H  -3.56600 35.80300 21.71800
H  -2.18900 36.53000 20.93300
H  -2.56100 37.05800 22.61600
H  -0.62800 33.11400 20.99600
H  -1.99700 32.01600 20.98300
H  0.13300 31.08100 21.78400
H  -1.31900 30.92900 22.82400
H  0.03200 32.08200 23.23100
H  -4.31300 29.61800 24.42100
H  -5.81500 30.14600 25.20800
H  -4.85200 28.84900 25.93800
H  -3.45000 30.67100 30.57600
H  -5.79200 32.03900 33.37700
H  -6.77900 30.52100 33.59800
H  -7.33900 31.60800 32.47000
Mg -4.84500 25.19800 25.56800
C  -3.34400 26.12600 28.62500
C  -6.79400 22.88500 27.56700
C  -5.72600 23.62000 22.88300
C  -2.56800 27.21900 23.88500
N  -4.92800 24.53700 27.89200
C  -4.29500 25.19100 28.87400
C  -4.87500 24.87900 30.26100
C  -5.72500 23.61500 29.84400
C  -5.88500 23.70800 28.31700
C  -5.11600 22.27900 30.27100
C  -5.75200 26.12400 30.79200
C  -5.55200 26.46500 32.32500
H  -4.69700 25.57000 33.16200
N  -6.26400 23.66300 25.21600
C  -6.95000 22.89800 26.11800
C  -7.95500 22.17000 25.44200
C  -7.60000 22.26500 24.06500
C  -6.48300 23.19000 23.95400
C  -9.06200 21.40300 26.19500
C  -8.32300 21.63400 22.87700
O  -7.98300 21.84200 21.72500
C  -9.62800 20.84900 23.10700
N  -4.14000 25.31600 23.63100
C  -4.62100 24.47900 22.67300
C  -3.96900 24.83700 21.28700
C  -3.26200 26.23000 21.50000
C  -3.34200 26.30000 23.05700
C  -2.90500 23.74500 20.81600
C  -3.98900 27.38700 20.76600
C  -3.09200 28.60300 20.54000
N  -3.22800 26.38000 26.07200
C  -2.46700 27.21300 25.28600
C  -1.61900 28.01200 26.11700
C  -1.91700 27.59100 27.40300
C  -2.92400 26.61100 27.35300
C  -0.76500 29.07600 25.63800
C  -1.63400 27.86000 28.76100
O  -0.82400 28.63200 29.33300
C  -2.49200 26.85400 29.62600
C  -1.56300 26.19100 30.52400
O  -1.03100 25.10400 30.29900
O  -1.50900 26.90600 31.73200
C  -0.54800 26.27600 32.71600
H  -7.49500 22.20000 28.05000
H  -6.13200 23.12000 22.00100
H  -1.96200 27.84800 23.23000
H  -4.19200 24.55700 31.04700
H  -6.66500 23.63900 30.39500
H  -5.86200 21.86800 30.95100
H  -4.11500 22.35600 30.69600
H  -4.97000 21.64000 29.40100
H  -6.82100 25.91400 30.74300
H  -5.67700 27.02400 30.18200
H  -6.51600 26.67500 32.79000
H  -5.09600 27.45500 32.31300
H  -9.73200 20.66800 25.74900
H  -9.72300 22.12000 26.68300
H  -8.56600 20.89700 27.02400
H  -9.29200 19.95200 23.62600
H  -9.94900 20.63500 22.08700
H  -10.30100 21.39500 23.76800
H  -4.78600 24.81200 20.56600
H  -2.24000 26.25900 21.12200
H  -1.95900 24.17400 20.48400
H  -3.39800 23.07600 20.11000
H  -2.55100 23.12100 21.63700
H  -4.93400 27.67500 21.22500
H  -4.18300 26.92800 19.79600
H  -2.95600 28.75600 19.46900
H  -2.15900 28.44300 21.08000
H  -3.58800 29.52200 20.85100
H  -0.56600 29.80500 26.42400
H  -1.23900 29.59200 24.80300
H  0.20700 28.61600 25.45800
H  -3.08900 27.55000 30.21500
H  -0.52900 25.18700 32.77000
H  -0.71300 26.64800 33.72800
H  0.47700 26.57000 32.49100

