158

Mg 54.56200 24.26200 43.79100
C  52.15300 26.58400 42.88800
C  52.57500 21.74600 42.73900
C  57.43500 22.27800 43.55800
C  56.72200 26.96700 44.43800
N  52.59400 24.20800 42.88400
C  51.75200 25.26300 42.63700
C  50.28700 24.77700 42.39500
C  50.43200 23.22900 42.64600
C  51.91800 22.99200 42.82600
C  49.53800 22.67900 43.78600
C  49.55000 25.25400 41.08100
C  50.43800 25.70600 39.89000
H  50.49400 24.97800 38.51800
N  54.89500 22.21000 43.33200
C  53.91700 21.35900 42.98000
C  54.46600 20.03500 42.75600
C  55.88100 20.12900 43.08200
C  56.14500 21.58600 43.35800
C  53.63200 18.79100 42.32000
C  56.74700 18.99800 43.30000
O  56.48100 17.87600 42.87400
C  58.05400 19.27800 44.04200
N  56.80700 24.58400 43.80000
C  57.66500 23.59200 43.84500
C  59.01200 24.08600 44.30600
C  58.83000 25.61300 44.56200
C  57.40700 25.74100 44.17700
C  59.76600 23.26500 45.41700
C  59.85700 26.45700 43.63200
C  59.15900 27.04100 42.36300
N  54.54900 26.36300 43.59200
C  55.41900 27.32100 44.11000
C  54.80400 28.49400 44.27400
C  53.53300 28.35800 43.73900
C  53.44100 26.99300 43.33000
C  55.38600 29.61900 44.87000
C  52.28700 28.94900 43.50300
O  51.92000 30.11000 43.63300
C  51.37900 27.88600 42.82600
C  51.01700 28.38600 41.52000
O  51.78300 28.62000 40.65200
O  49.67000 28.59200 41.41300
C  49.16200 29.15000 40.20400
H  51.98200 20.85900 42.50800
H  58.38400 21.74700 43.46200
H  57.33900 27.69000 44.97700
H  49.68100 25.23700 43.17500
H  50.14300 22.69700 41.74000
H  50.07700 22.67800 44.73400
H  49.41700 21.63100 43.51100
H  48.58900 23.21400 43.76200
H  48.84600 26.07000 41.23800
H  48.86800 24.47700 40.73500
H  51.48300 25.73700 40.19800
H  50.08400 26.72100 39.71100
H  54.21200 18.33400 41.51800
H  52.71200 19.20200 41.90500
H  53.37600 18.14300 43.15800
H  58.51200 18.41100 44.51800
H  57.89300 20.02700 44.81800
H  58.74700 19.74600 43.34300
H  59.65800 23.99200 43.43300
H  58.91200 25.91800 45.60600
H  59.94100 24.00900 46.19500
H  60.75500 22.90700 45.13300
H  59.19700 22.40200 45.76300
H  60.62600 25.85400 43.14800
H  60.29600 27.23800 44.25300
H  58.91800 28.10200 42.42300
H  58.18600 26.60000 42.14400
H  59.73400 26.78500 41.47300
H  54.89800 30.53400 44.53600
H  56.44000 29.61200 44.59300
H  55.26600 29.47800 45.94500
H  50.44900 27.79200 43.38700
H  49.80600 30.00700 40.00600
H  48.20200 29.63500 40.38300
H  49.13400 28.49800 39.33100
Mg 26.85500 49.70600 25.79500
C  24.96800 50.61600 28.52400
C  29.27400 48.43200 28.13900
C  29.00200 48.85500 23.20900
C  24.68400 50.98700 23.56900
N  27.22000 49.70600 28.16500
C  26.14200 49.90900 29.01100
C  26.42900 49.40100 30.45100
C  27.92600 49.06800 30.30400
C  28.11000 48.90700 28.72300
C  28.87500 50.13000 30.83200
C  25.51700 48.28800 31.02000
C  25.01700 48.32900 32.45900
H  25.67600 49.26700 33.62500
N  28.85800 48.80400 25.68500
C  29.62600 48.41800 26.76800
C  30.88600 47.93700 26.22000
C  30.89300 48.24900 24.83400
C  29.48200 48.57500 24.54400
C  31.88800 47.27700 27.13300
C  32.05600 48.10500 23.84300
O  31.96200 48.41300 22.66300
C  33.37800 47.62000 24.40200
N  26.87600 50.02900 23.69600
C  27.80400 49.45500 22.85300
C  27.46100 49.67900 21.38700
C  25.94800 50.27500 21.51600
C  25.78900 50.43200 23.01100
C  28.52400 50.49200 20.66800
C  24.76400 49.31000 21.00700
C  23.74200 49.88200 19.95100
N  25.24800 50.71000 26.00800
C  24.43300 51.23100 24.94900
C  23.35300 51.99500 25.59600
C  23.48900 51.62000 26.95300
C  24.68300 50.90900 27.16200
C  22.25000 52.80300 24.93800
C  22.82600 51.75100 28.20300
O  21.74100 52.24400 28.54800
C  23.68400 51.00700 29.29500
C  23.94500 51.92000 30.51700
O  24.04800 53.12000 30.54300
O  23.78900 51.11100 31.67100
C  23.32400 51.80400 32.89200
H  29.98400 47.91100 28.78600
H  29.56100 48.30700 22.44800
H  23.93200 51.31700 22.84900
H  26.10400 50.25100 31.05100
H  28.42400 48.19000 30.71500
H  29.29300 49.74800 31.76400
H  28.41500 51.06700 31.14400
H  29.66900 50.28200 30.10100
H  26.04600 47.34000 30.92500
H  24.71800 48.28000 30.27900
H  25.16200 47.34400 32.90200
H  23.93800 48.47900 32.51700
H  32.66400 47.95800 27.48200
H  32.38000 46.37800 26.76100
H  31.49500 46.88700 28.07300
H  34.08700 47.60300 23.57400
H  33.24600 46.58400 24.71300
H  33.74700 48.20700 25.24300
H  27.39800 48.67700 20.96400
H  25.91200 51.19200 20.92600
H  29.43100 50.42900 21.26800
H  28.21100 51.53600 20.66400
H  28.58900 50.09900 19.65300
H  24.18700 48.95300 21.86100
H  25.25600 48.45300 20.54700
H  23.85500 50.96300 19.87300
H  22.75200 49.54700 20.26100
H  23.87000 49.68700 18.88600
H  22.60400 53.16700 23.97300
H  22.10200 53.66700 25.58600
H  21.36300 52.19100 24.77500
H  23.17200 50.14900 29.73000
H  23.96400 52.67400 33.03900
H  23.31600 51.15700 33.77000
H  22.27000 52.04900 32.76200

