158

Mg 25.81800 2.17800 29.03600
C  27.69600 1.54400 31.99800
C  23.05200 2.54200 30.97600
C  24.01900 2.34900 26.14800
C  28.75500 1.62900 27.18100
N  25.42100 2.14200 31.16600
C  26.31200 1.83600 32.21100
C  25.63500 2.06800 33.61700
C  24.10200 2.21800 33.21100
C  24.18500 2.33400 31.71000
C  23.15600 1.11500 33.72600
C  26.25600 3.23300 34.39600
C  26.86800 2.91300 35.69500
H  27.11100 4.19000 36.55600
N  23.86200 2.36800 28.67000
C  22.81500 2.41500 29.56100
C  21.59000 2.66400 28.88800
C  21.84600 2.49300 27.47700
C  23.33800 2.36500 27.38000
C  20.25400 2.78400 29.62200
C  20.87300 2.61000 26.27400
O  21.13700 2.34500 25.11200
C  19.43500 3.14300 26.49800
N  26.30000 1.94400 26.93500
C  25.40100 2.25500 25.97900
C  26.12500 2.51200 24.63400
C  27.65600 2.12500 24.86400
C  27.60000 1.85800 26.39700
C  25.37200 1.95400 23.41000
C  28.74700 3.09800 24.38700
C  28.96300 4.36400 25.25700
N  27.75800 1.68700 29.46800
C  28.80200 1.47800 28.59900
C  30.03000 1.22700 29.35700
C  29.63300 1.24500 30.67600
C  28.24600 1.51700 30.71100
C  31.46300 0.91800 28.84600
C  30.05400 1.09200 32.02800
O  31.15400 0.73900 32.48900
C  28.89000 1.34000 32.98000
C  28.62900 0.15900 33.87200
O  27.91600 -0.80000 33.54800
O  29.10300 0.40200 35.15700
C  28.76300 -0.62200 36.08100
H  22.14400 2.74600 31.54800
H  23.31700 2.49300 25.32300
H  29.73100 1.56800 26.69600
H  25.64400 1.16800 34.23200
H  23.73700 3.18500 33.55700
H  22.43900 1.69000 34.31300
H  23.67000 0.46200 34.43100
H  22.77300 0.54300 32.88100
H  25.52900 4.03200 34.54000
H  26.96900 3.77400 33.77400
H  27.85500 2.50000 35.48700
H  26.26500 2.13100 36.15500
H  19.75300 3.75100 29.56800
H  20.29700 2.45000 30.65800
H  19.73000 2.00300 29.07200
H  18.88300 2.46900 27.15300
H  18.99300 3.21500 25.50400
H  19.43600 4.14600 26.92200
H  26.08200 3.60100 24.61900
H  27.92200 1.20600 24.34300
H  24.75300 1.13300 23.77100
H  26.03700 1.58100 22.63100
H  24.71200 2.74100 23.04400
H  28.51500 3.40700 23.36800
H  29.67600 2.52800 24.42100
H  28.33600 4.41900 26.14600
H  28.60600 5.17200 24.61900
H  29.99800 4.54100 25.54900
H  31.68300 1.50300 27.95300
H  31.48500 -0.15700 28.66700
H  32.17300 1.13700 29.64400
H  29.10900 2.22500 33.57600
H  29.13900 -1.56200 35.67500
H  27.67900 -0.72500 36.05100
H  29.18900 -0.47100 37.07300
Mg 49.31700 34.55100 26.30900
C  47.30800 33.49500 28.83900
C  49.41200 37.76400 27.54600
C  51.24100 35.35300 23.69000
C  48.89100 31.23900 24.81700
N  48.43400 35.48700 27.94900
C  47.68800 34.85900 28.91500
C  47.37200 35.91700 29.98500
C  47.92800 37.23400 29.52500
C  48.58300 36.78200 28.21300
C  46.82500 38.33600 29.38300
C  47.91700 35.52900 31.44000
C  46.81200 35.43400 32.58400
H  47.04500 36.15300 33.91900
N  50.24900 36.34900 25.69000
C  50.22000 37.53500 26.41200
C  50.99500 38.46800 25.61700
C  51.50400 37.77700 24.44900
C  51.01600 36.42700 24.55900
C  51.24700 39.89400 26.02400
C  52.50200 38.29500 23.38400
O  53.07400 37.56900 22.60300
C  52.84700 39.77700 23.23500
N  49.80400 33.50600 24.39100
C  50.79800 34.06900 23.59600
C  51.06600 33.26700 22.34800
C  50.37800 31.89600 22.78400
C  49.55500 32.22700 24.06800
C  50.61700 33.90700 21.00000
C  51.29000 30.74300 22.98900
C  51.18700 29.62200 21.99300
N  48.26900 32.75900 26.66900
C  48.20800 31.50000 26.03000
C  47.30100 30.65700 26.74900
C  46.90300 31.36100 27.88900
C  47.54800 32.55900 27.83100
C  46.95900 29.19500 26.43100
C  46.08800 31.33400 29.08900
O  45.26300 30.39700 29.46800
C  46.42000 32.69000 29.86300
C  47.00100 32.16400 31.14600
O  48.15000 31.72900 31.35000
O  46.00900 32.18400 32.07300
C  46.20900 31.68700 33.44300
H  49.60300 38.74000 27.99600
H  51.77500 35.65700 22.78700
H  48.75400 30.28600 24.30400
H  46.29100 36.01700 30.08500
H  48.69500 37.52200 30.24400
H  46.29800 38.34200 30.33700
H  46.08800 38.05700 28.63000
H  47.22800 39.34100 29.25200
H  48.66200 36.21100 31.84800
H  48.37500 34.55500 31.26800
H  46.56900 34.37700 32.68800
H  45.89000 35.87900 32.21100
H  50.99300 40.10400 27.06300
H  50.83700 40.68600 25.39700
H  52.32300 40.01900 25.89900
H  53.40100 39.93800 22.31000
H  53.45000 39.97000 24.12300
H  51.95800 40.40600 23.18200
H  52.15000 33.20400 22.44200
H  49.63000 31.61100 22.04400
H  51.48600 34.43900 20.61300
H  49.83600 34.64700 21.16800
H  50.11300 33.20400 20.33700
H  51.23300 30.34000 24.00000
H  52.27500 31.20800 22.93700
H  52.14500 29.31900 21.56900
H  50.59300 29.88300 21.11800
H  50.81200 28.73500 22.50300
H  46.28500 29.14500 25.57600
H  46.38900 28.74600 27.24400
H  47.87400 28.65900 26.18300
H  45.57300 33.36800 29.96900
H  46.43000 32.47900 34.15900
H  47.05700 31.00500 33.49800
H  45.30100 31.20500 33.80700

