158

Mg 25.61900 -0.23900 29.42500
C  27.44200 -0.76100 32.25000
C  22.78100 -0.09600 31.35400
C  23.62900 -0.27700 26.55500
C  28.43000 -0.82200 27.47300
N  25.19200 -0.61300 31.52600
C  26.15800 -0.56400 32.52400
C  25.59600 -0.29400 33.98900
C  24.03700 -0.27800 33.64300
C  23.95600 -0.42000 32.10800
C  23.14800 -1.25600 34.44500
C  26.19900 0.96200 34.69100
C  26.79000 0.64600 36.05400
H  26.47000 1.70300 37.13900
N  23.56300 -0.06700 29.01400
C  22.50900 0.13400 29.95800
C  21.28500 0.47800 29.28600
C  21.55000 0.37100 27.90600
C  22.96100 -0.06200 27.76100
C  20.04100 0.82800 30.00200
C  20.61700 0.57200 26.72900
O  20.87600 0.36400 25.53300
C  19.26400 1.24700 27.00500
N  25.91000 -0.40000 27.32900
C  25.00700 -0.38400 26.34200
C  25.69300 -0.51900 24.94500
C  27.19300 -0.41800 25.28000
C  27.22000 -0.54000 26.83500
C  25.28100 -1.73600 24.09900
C  27.85600 0.92700 24.87800
C  29.14500 0.98700 24.10700
N  27.59900 -0.57200 29.78600
C  28.59500 -0.84200 28.90200
C  29.76600 -1.12000 29.69800
C  29.50100 -0.93800 31.02600
C  28.08400 -0.79900 31.01700
C  31.12300 -1.49800 29.13400
C  29.95900 -0.92000 32.34700
O  31.06600 -0.90700 32.83500
C  28.62100 -0.96200 33.20800
C  28.44100 -2.21500 33.96000
O  27.66600 -3.14200 33.75400
O  29.36500 -2.08000 35.01200
C  29.11800 -2.97500 36.14900
H  21.93200 0.00900 32.03300
H  22.94200 -0.37700 25.71200
H  29.25400 -1.00500 26.78000
H  25.85300 -1.14900 34.61600
H  23.65100 0.72700 33.81400
H  23.34500 -1.43700 35.50200
H  23.10700 -2.19800 33.89900
H  22.15900 -0.80200 34.39400
H  25.34100 1.61600 34.84700
H  26.93300 1.41800 34.02600
H  27.84200 0.45700 35.84100
H  26.39200 -0.23900 36.55200
H  19.80300 1.86600 29.77300
H  20.30700 0.83000 31.05900
H  19.22500 0.10700 29.93800
H  19.40500 2.10400 27.66400
H  18.55400 0.49600 27.35200
H  18.87900 1.67200 26.07700
H  25.37200 0.36000 24.38600
H  27.73300 -1.27300 24.87400
H  24.79200 -2.48100 24.72600
H  26.16400 -2.21200 23.67200
H  24.57000 -1.44300 23.32500
H  28.14900 1.53900 25.73100
H  27.10300 1.42500 24.26700
H  29.06300 1.62900 23.22900
H  29.52600 0.01400 23.79500
H  29.85500 1.36000 24.84500
H  31.93100 -1.32600 29.84500
H  31.34600 -1.03700 28.17200
H  31.04000 -2.55100 28.86200
H  28.61100 -0.15700 33.94200
H  28.81500 -3.96300 35.80300
H  28.48600 -2.50200 36.90100
H  30.08100 -3.09100 36.64600
Mg 41.38800 41.53500 27.25000
C  40.62700 43.92900 29.63400
C  42.00500 39.13400 29.68100
C  42.30900 39.37900 24.76700
C  41.10100 44.00700 24.72200
N  41.36800 41.56100 29.51700
C  40.90400 42.63100 30.19400
C  40.82900 42.22600 31.67800
C  41.57100 40.78300 31.74100
C  41.68000 40.44300 30.20800
C  43.04100 40.65100 32.39300
C  39.43000 42.27000 32.36900
C  39.35900 41.74400 33.81600
H  38.76400 42.66500 34.85800
N  41.99600 39.59600 27.22800
C  42.17300 38.72000 28.33200
C  42.63100 37.45400 27.87500
C  42.59600 37.41200 26.47000
C  42.26200 38.82400 26.04600
C  43.19300 36.42900 28.86200
C  42.91700 36.26200 25.58900
O  42.88700 36.36900 24.37800
C  43.23500 34.86400 26.09600
N  41.61500 41.64800 25.05700
C  41.97800 40.64300 24.27800
C  41.99000 41.00600 22.77300
C  41.24300 42.39800 22.71300
C  41.36600 42.75700 24.21600
C  43.45500 40.99800 22.17100
C  39.79100 42.29400 22.24900
C  38.86000 41.33700 22.93100
N  41.16000 43.59600 27.17900
C  41.00300 44.45900 26.08800
C  40.69100 45.74800 26.64300
C  40.54600 45.57700 28.02100
C  40.78100 44.24000 28.27100
C  40.51100 46.99300 25.86300
C  40.27700 46.34600 29.24700
O  40.01200 47.53300 29.51700
C  40.33900 45.23800 30.36300
C  41.37700 45.61900 31.42800
O  42.58500 45.85000 31.29200
O  40.73000 45.50600 32.65900
C  41.57300 45.59300 33.77000
H  42.21300 38.41200 30.47300
H  42.53400 38.78000 23.88200
H  40.98000 44.82300 24.00700
H  41.48300 42.89500 32.23900
H  40.88900 40.03900 32.15400
H  43.90400 40.72300 31.73100
H  43.19400 39.70800 32.91800
H  43.16500 41.47600 33.09500
H  38.78100 41.60700 31.79500
H  38.97900 43.25800 32.27300
H  40.30200 41.31100 34.15100
H  38.76200 40.83600 33.90900
H  43.33600 36.76800 29.88800
H  44.16000 36.09300 28.48700
H  42.46600 35.63200 29.01300
H  44.12300 34.77400 26.72200
H  43.38700 34.29300 25.17900
H  42.51100 34.46500 26.80700
H  41.46500 40.20300 22.25700
H  41.79200 43.04700 22.03000
H  43.98500 41.89600 22.48900
H  43.38400 40.89600 21.08800
H  43.96400 40.18400 22.68600
H  39.85700 41.92200 21.22700
H  39.30900 43.26400 22.12400
H  39.31600 40.35300 23.04300
H  37.98000 41.18300 22.30600
H  38.63400 41.65600 23.94800
H  39.66900 46.89900 25.17600
H  41.43300 47.16300 25.30700
H  40.33200 47.85800 26.50200
H  39.36800 45.31700 30.85400
H  42.30100 44.78400 33.70700
H  40.96300 45.55200 34.67200
H  42.13000 46.53000 33.81000

