158

Mg -1.13700 34.84100 26.36400
C  -2.90000 33.04900 28.59300
C  -0.26200 37.05900 28.71000
C  -0.23600 37.12200 23.86700
C  -3.07500 33.17700 23.79700
N  -1.86000 35.16200 28.43000
C  -2.30800 34.18900 29.22200
C  -2.14200 34.44900 30.74800
C  -1.53300 35.91500 30.69800
C  -1.21900 36.08300 29.16400
C  -2.63400 36.89300 31.11000
C  -1.22900 33.40200 31.46500
C  -1.72700 32.70600 32.71500
H  -0.80500 32.57500 33.88300
N  -0.06100 36.58300 26.32700
C  0.22500 37.29300 27.42500
C  1.14600 38.38100 27.07800
C  1.13800 38.40900 25.65400
C  0.33400 37.33200 25.21000
C  1.85300 39.34600 28.03800
C  1.82100 39.51200 24.71500
O  1.78000 39.47600 23.53300
C  2.34100 40.74100 25.32100
N  -1.80900 35.26800 24.15700
C  -1.24200 36.25900 23.39400
C  -1.79800 36.28600 21.94900
C  -2.44400 34.81400 21.88800
C  -2.49000 34.34700 23.34100
C  -2.74000 37.52100 21.81000
C  -1.75600 33.70300 20.98100
C  -0.57700 32.90600 21.52600
N  -2.52000 33.26200 26.16600
C  -3.19200 32.68400 25.13200
C  -3.99000 31.56400 25.56600
C  -3.82900 31.61500 27.03700
C  -2.98100 32.69200 27.26100
C  -4.76600 30.48900 24.74000
C  -4.24500 31.08500 28.28200
O  -5.06300 30.16400 28.57800
C  -3.50400 31.92400 29.38200
C  -4.50800 32.31800 30.40700
O  -5.47300 33.03800 30.16200
O  -4.31800 31.70900 31.63700
C  -5.38900 31.95500 32.67800
H  0.19300 37.70100 29.46800
H  0.27000 37.68700 23.08100
H  -3.56700 32.46900 23.12800
H  -3.10200 34.47300 31.26300
H  -0.64000 36.02800 31.31300
H  -3.24100 36.64000 31.98000
H  -3.26000 36.96700 30.22100
H  -2.18400 37.87300 31.26600
H  -0.31500 33.97500 31.62300
H  -0.88200 32.64800 30.75700
H  -1.93900 31.64900 32.55700
H  -2.63100 33.20800 33.05900
H  2.90800 39.37700 27.76700
H  1.77300 39.06000 29.08700
H  1.48300 40.36900 28.09400
H  1.43500 41.08600 25.81800
H  2.85700 41.40200 24.62500
H  3.04300 40.50100 26.11900
H  -0.95700 36.24300 21.25600
H  -3.46900 34.96100 21.54900
H  -2.91100 38.00300 22.77300
H  -3.72500 37.20100 21.47200
H  -2.27300 38.23400 21.13000
H  -1.35000 34.21700 20.11100
H  -2.50400 33.09300 20.47400
H  0.25700 32.83600 20.82700
H  -0.95500 31.89600 21.68300
H  -0.24100 33.29400 22.48800
H  -5.42700 31.01500 24.05100
H  -5.21000 29.76300 25.42100
H  -4.04200 29.94800 24.13000
H  -2.70200 31.39500 29.89500
H  -5.41900 33.00400 32.97100
H  -5.17200 31.45700 33.62300
H  -6.32500 31.65700 32.20600
Mg -12.06200 15.74600 42.47800
C  -8.55600 16.57300 42.78300
C  -12.52600 19.23100 41.95300
C  -15.07400 15.04200 41.70100
C  -11.08700 12.32200 42.96600
N  -10.58500 17.62600 42.19600
C  -9.25400 17.67900 42.36100
C  -8.73800 19.11900 42.22400
C  -10.04200 19.96100 42.54100
C  -11.16000 18.87900 42.15100
C  -10.05400 20.38900 44.02500
C  -8.07900 19.45800 40.83400
C  -6.56400 19.84900 40.85800
H  -5.78300 18.85700 39.97900
N  -13.60700 16.96900 41.92500
C  -13.61000 18.36000 41.81500
C  -14.92600 18.73900 41.46700
C  -15.74300 17.57000 41.48000
C  -14.83400 16.44700 41.74600
C  -15.25800 20.14100 41.02500
C  -17.22400 17.52600 41.22300
O  -17.85400 18.48800 40.84200
C  -18.06700 16.26900 41.36400
N  -12.86100 13.96400 42.33600
C  -14.21800 13.94000 42.13100
C  -14.69700 12.44700 41.97300
C  -13.41200 11.62100 42.26900
C  -12.38100 12.70300 42.55400
C  -15.98300 12.08600 42.87500
C  -13.03600 10.61100 41.10100
C  -12.87900 9.08100 41.48700
N  -10.18600 14.66500 42.73500
C  -10.01700 13.26000 43.02300
C  -8.63900 12.99000 43.08100
C  -8.03600 14.26300 43.04200
C  -9.00900 15.23800 42.91200
C  -7.94800 11.68100 43.14400
C  -6.73900 14.93500 43.14100
O  -5.59600 14.48500 43.28700
C  -7.05700 16.47600 42.96400
C  -6.71900 17.15500 44.19800
O  -7.22500 16.96700 45.26700
O  -5.64800 17.99900 43.98500
C  -5.06800 18.59400 45.17200
H  -12.72000 20.30500 41.98600
H  -16.10500 14.70500 41.57400
H  -10.75700 11.28600 43.06500
H  -7.99400 19.37600 42.97800
H  -10.04500 20.86600 41.93300
H  -9.49000 19.66300 44.61000
H  -11.08600 20.31100 44.36700
H  -9.72000 21.42000 44.13800
H  -8.60100 20.29800 40.37600
H  -8.16000 18.51500 40.29300
H  -6.17700 19.72000 41.86900
H  -6.38000 20.84100 40.44700
H  -15.39100 20.20500 39.94500
H  -14.59100 20.95400 41.31300
H  -16.22700 20.39800 41.45300
H  -19.11300 16.57500 41.38600
H  -17.79200 15.83500 42.32500
H  -17.92300 15.62400 40.49700
H  -15.09300 12.34400 40.96300
H  -13.38600 11.10900 43.23100
H  -16.84400 11.79600 42.27300
H  -16.28900 12.91200 43.51700
H  -15.82900 11.28800 43.60200
H  -12.13000 10.83500 40.53700
H  -13.86400 10.56700 40.39300
H  -13.38500 8.46100 40.74700
H  -13.38600 8.91000 42.43600
H  -11.87900 8.74200 41.75900
H  -7.27300 11.34700 42.35700
H  -8.64100 10.85300 43.28900
H  -7.37900 11.65600 44.07400
H  -6.44500 16.84800 42.14200
H  -5.06800 17.80900 45.92800
H  -5.66400 19.46000 45.46000
H  -4.04200 18.90400 44.97800

