158

Mg 36.37800 49.46000 26.20100
C  36.63600 47.47900 29.07800
C  34.75100 51.80300 28.19300
C  35.86700 51.32000 23.39600
C  37.60600 46.77500 24.32500
N  35.57400 49.52700 28.42500
C  35.96000 48.65900 29.40100
C  35.47300 49.26100 30.75200
C  34.74900 50.56600 30.44300
C  34.99900 50.66700 28.93000
C  33.17000 50.49900 30.80200
C  36.66500 49.49100 31.69400
C  36.38300 49.33400 33.28200
H  34.88800 49.53700 33.71900
N  35.48300 51.25900 25.82800
C  35.00600 52.14800 26.85400
C  34.71500 53.41900 26.18700
C  35.20500 53.40500 24.82500
C  35.50900 51.97300 24.61100
C  34.02000 54.59200 27.02000
C  35.44700 54.51500 23.84000
O  35.97600 54.24300 22.75600
C  35.28200 55.97400 24.20300
N  36.58300 49.11400 24.16800
C  36.39200 50.01400 23.20100
C  36.77600 49.43800 21.84400
C  37.44700 48.05400 22.26100
C  37.25800 48.01800 23.71000
C  35.66500 49.31100 20.77900
C  38.96900 47.89800 21.79100
C  39.99300 48.66900 22.69600
N  37.06500 47.49700 26.58500
C  37.48700 46.49400 25.71200
C  37.89100 45.32400 26.50500
C  37.55200 45.70600 27.82400
C  37.01100 47.00400 27.80800
C  38.50800 44.04400 25.95100
C  37.44600 45.17900 29.14400
O  37.73000 44.05600 29.60700
C  37.00400 46.36200 30.00600
C  35.92100 45.68000 30.82900
O  34.85600 45.32600 30.36700
O  36.25100 45.48800 32.13000
C  35.28900 44.91600 33.05000
H  34.32300 52.61000 28.79100
H  35.66100 51.83500 22.45600
H  38.01600 46.01600 23.65400
H  34.73300 48.47700 30.91400
H  35.10200 51.47700 30.92600
H  32.67000 50.26300 29.86300
H  32.85000 51.47700 31.15900
H  32.92900 49.74200 31.54900
H  37.18300 50.44400 31.59400
H  37.46300 48.79900 31.42500
H  37.21200 49.79000 33.82200
H  36.62600 48.27300 33.34100
H  34.81400 55.29300 27.27800
H  33.59200 54.29000 27.97600
H  33.38100 55.17800 26.35900
H  34.23600 56.28000 24.22200
H  35.88100 56.49600 23.45700
H  35.60700 56.09200 25.23600
H  37.54200 50.01500 21.32600
H  36.87300 47.22300 21.85000
H  34.94000 48.54300 21.04700
H  36.10800 49.31300 19.78300
H  35.09700 50.24100 20.79700
H  39.03000 48.21400 20.74900
H  39.20500 46.84100 21.67000
H  40.49300 49.40700 22.06800
H  40.63200 47.92400 23.17100
H  39.47100 49.21000 23.48500
H  37.67000 43.48500 25.53400
H  38.91200 43.48800 26.79800
H  39.17500 44.32600 25.13600
H  37.77200 46.54000 30.75900
H  35.10200 43.85600 32.87700
H  34.37600 45.51100 33.09100
H  35.78600 44.92100 34.02000
Mg -12.50600 38.31000 41.15000
C  -10.24400 35.62800 40.41600
C  -10.44100 40.35300 39.50200
C  -14.96000 40.39000 41.27300
C  -14.54500 35.90500 42.73700
N  -10.71700 38.01200 39.87500
C  -9.95200 36.84100 39.75900
C  -8.71000 37.12200 38.88900
C  -8.66000 38.64400 38.86200
C  -10.00600 39.03600 39.48500
C  -7.48900 39.21100 39.58600
C  -8.72400 36.35200 37.54900
C  -7.71300 35.20400 37.21200
H  -6.57900 35.59400 36.20300
N  -12.67000 40.13700 40.55700
C  -11.67400 40.88300 39.97100
C  -12.11500 42.26700 39.82700
C  -13.39600 42.33700 40.46700
C  -13.77300 40.90000 40.75300
C  -11.38000 43.32900 39.18500
C  -14.13600 43.59100 40.70100
O  -13.71400 44.66600 40.37300
C  -15.40600 43.64700 41.40900
N  -14.52000 38.06600 41.72200
C  -15.32800 39.15500 41.79500
C  -16.66800 38.98900 42.50900
C  -16.51800 37.53700 42.92400
C  -15.06500 37.12000 42.53400
C  -16.84600 40.09000 43.66000
C  -17.41800 36.49700 42.18400
C  -18.68500 36.10400 42.95900
N  -12.46500 36.08000 41.49200
C  -13.34300 35.40700 42.29900
C  -12.76100 34.07700 42.46700
C  -11.58900 34.05300 41.66600
C  -11.47400 35.31100 41.05200
C  -13.38900 32.95900 43.27700
C  -10.43900 33.24500 41.18600
O  -10.24900 32.03200 41.31200
C  -9.44400 34.34900 40.51500
C  -8.12400 34.39500 41.19900
O  -7.29000 33.49600 41.10700
O  -7.98300 35.62300 41.84800
C  -6.71700 35.65800 42.67000
H  -9.88300 41.12200 38.96300
H  -15.69900 41.18500 41.39500
H  -15.13800 35.21100 43.33500
H  -7.94500 36.79400 39.59300
H  -8.76700 38.97800 37.83000
H  -7.51700 38.80800 40.59800
H  -7.35900 40.28400 39.72800
H  -6.66300 38.77200 39.02500
H  -8.57100 37.07500 36.74800
H  -9.71400 35.99300 37.26600
H  -8.23500 34.31400 36.86000
H  -7.14300 34.85200 38.07200
H  -11.82400 43.91400 38.38000
H  -10.46900 43.12400 38.62200
H  -11.20600 44.03500 39.99700
H  -15.48000 44.69100 41.71300
H  -15.37800 43.14300 42.37500
H  -16.29100 43.28700 40.88300
H  -17.28200 39.10500 41.61600
H  -16.53800 37.41000 44.00700
H  -17.13800 39.79300 44.66700
H  -17.67900 40.63000 43.21000
H  -15.97400 40.74300 43.68400
H  -16.96100 35.53700 41.94300
H  -17.87200 36.97400 41.31600
H  -18.76100 35.01900 42.88400
H  -19.57900 36.29100 42.36500
H  -18.74100 36.43300 43.99700
H  -13.00800 31.98600 42.96900
H  -14.46800 33.11100 43.26300
H  -13.03600 33.08900 44.30000
H  -9.17700 34.07000 39.49600
H  -6.72200 36.65300 43.11400
H  -5.88600 35.58800 41.96700
H  -6.63600 35.08400 43.59300

