158

Mg -2.36500 16.96600 26.15800
C  -2.28000 14.63300 28.75400
C  -2.93500 19.27200 28.50700
C  -2.63500 19.17500 23.70500
C  -2.16900 14.55100 23.80000
N  -2.97300 16.88000 28.42600
C  -2.59600 15.84700 29.26900
C  -2.83200 16.31000 30.71700
C  -3.00700 17.89100 30.63900
C  -2.83100 18.06400 29.10000
C  -4.41700 18.40100 31.15000
C  -1.61700 16.06700 31.65000
C  -1.47400 16.76100 33.03200
H  -1.71000 16.07300 34.36700
N  -2.70600 18.92100 26.06600
C  -2.89900 19.77200 27.18100
C  -3.10700 21.12300 26.73000
C  -3.07200 21.08900 25.28000
C  -2.84300 19.66900 24.96000
C  -3.33100 22.22000 27.78900
C  -3.13700 22.20500 24.25400
O  -3.14700 22.09700 23.03700
C  -3.26100 23.57300 24.84500
N  -2.46800 16.85400 23.98700
C  -2.56000 17.88800 23.20200
C  -2.40400 17.55500 21.67400
C  -2.27700 15.95600 21.73700
C  -2.32700 15.72100 23.26700
C  -3.55700 18.02400 20.85800
C  -0.93200 15.44700 21.06500
C  0.36900 15.85100 21.78100
N  -2.26000 15.08600 26.26800
C  -2.09700 14.19600 25.14200
C  -1.90200 12.89900 25.67400
C  -2.01200 13.07700 27.07400
C  -2.26200 14.34800 27.40300
C  -1.83400 11.64700 25.01700
C  -1.80700 12.25800 28.27600
O  -1.40200 11.09200 28.43800
C  -2.10700 13.26600 29.49100
C  -0.97400 13.04400 30.40300
O  0.08100 13.62300 30.19700
O  -1.31700 12.26800 31.43500
C  -0.23200 11.83200 32.27900
H  -3.01400 20.06700 29.25200
H  -2.72900 19.93800 22.93000
H  -1.88400 13.74200 23.12400
H  -3.72800 15.80900 31.08300
H  -2.18200 18.35800 31.17500
H  -4.33900 18.96000 32.08300
H  -5.01900 17.51600 31.35600
H  -4.95300 19.03900 30.44700
H  -0.70700 15.96500 31.05900
H  -1.86300 15.06500 32.00200
H  -1.99000 17.71000 33.17500
H  -0.42000 17.03100 33.09700
H  -3.77900 23.08100 27.29300
H  -2.34600 22.52300 28.14500
H  -3.96200 21.94700 28.63500
H  -4.32200 23.71500 25.05200
H  -2.95900 24.31700 24.10800
H  -2.65300 23.58700 25.74900
H  -1.51000 18.06300 21.31400
H  -3.15000 15.60000 21.19000
H  -3.32300 18.99400 20.42100
H  -4.44800 18.06000 21.48500
H  -3.64900 17.37100 19.99000
H  -0.79600 15.99200 20.13000
H  -0.96000 14.35900 21.00300
H  0.16900 16.53600 22.60400
H  1.02900 16.38900 21.10100
H  0.83800 14.97900 22.23900
H  -1.40000 11.84500 24.03700
H  -2.84000 11.23000 25.05500
H  -1.15300 11.11900 25.68600
H  -2.98800 12.83700 29.97000
H  -0.05800 12.67300 32.95000
H  0.64100 11.54700 31.69000
H  -0.59000 11.02000 32.91200
Mg 8.62600 3.54200 27.53600
C  9.93000 2.02600 30.45600
C  6.81600 5.42300 29.49000
C  7.24200 4.59700 24.65600
C  10.04300 0.70500 25.72100
N  8.30000 3.56500 29.82300
C  9.07000 3.06500 30.75100
C  8.75400 3.70100 32.10400
C  7.50900 4.62700 31.76700
C  7.49400 4.57100 30.29600
C  6.15000 4.29700 32.46700
C  10.08900 4.20300 32.80600
C  10.53500 3.51300 34.13100
H  10.97600 4.39000 35.27500
N  7.34700 4.91600 27.15600
C  6.68600 5.59400 28.12900
C  5.92800 6.55500 27.47200
C  5.92300 6.33000 26.06700
C  6.84100 5.24400 25.89700
C  5.20700 7.68300 28.29600
C  5.27000 7.15000 24.92700
O  5.42100 6.87300 23.73700
C  4.35800 8.28200 25.22600
N  8.62400 2.78500 25.47600
C  8.00500 3.46100 24.49700
C  8.24200 2.76400 23.08900
C  9.07800 1.48800 23.44600
C  9.34700 1.69500 24.95300
C  6.82400 2.44100 22.51900
C  10.36500 1.28600 22.60000
C  10.55500 -0.14200 21.93700
N  9.75000 1.78200 27.92500
C  10.27100 0.71700 27.11300
C  11.08300 -0.14700 27.94300
C  10.98600 0.34100 29.18100
C  10.15000 1.46500 29.16500
C  11.89900 -1.25600 27.37700
C  11.48600 0.15500 30.53200
O  12.36800 -0.61300 30.92600
C  10.71100 1.09800 31.37000
C  9.78300 0.28800 32.21400
O  8.59800 0.05300 32.02800
O  10.48300 -0.15400 33.35900
C  9.56900 -0.48100 34.48200
H  6.18100 6.10700 30.05600
H  6.59000 4.97200 23.86500
H  10.50000 -0.08400 25.12000
H  8.42200 2.89000 32.75200
H  7.80600 5.67300 31.84800
H  6.01000 5.09800 33.19300
H  6.12800 3.29400 32.89100
H  5.25800 4.29100 31.84000
H  9.91400 5.27000 32.93700
H  10.92100 4.06800 32.11500
H  11.38600 2.88600 33.86600
H  9.77900 2.79800 34.45600
H  5.16200 8.64600 27.78700
H  5.89200 7.88800 29.11800
H  4.22400 7.28400 28.54800
H  4.29500 8.77400 24.25500
H  4.90400 9.02500 25.80800
H  3.35500 8.05800 25.58900
H  8.79400 3.48500 22.48600
H  8.49700 0.58000 23.28200
H  5.99100 2.57900 23.20800
H  6.87600 1.44800 22.07100
H  6.57600 3.13200 21.71300
H  11.25400 1.48200 23.19900
H  10.30900 1.85400 21.67100
H  9.69700 -0.77500 22.16200
H  11.34700 -0.62000 22.51300
H  10.84700 -0.12900 20.88700
H  11.29000 -1.89300 26.73700
H  12.20700 -1.91100 28.19200
H  12.75200 -0.86600 26.82100
H  11.38400 1.51100 32.12200
H  9.40800 0.47300 34.98500
H  9.88000 -1.30000 35.13200
H  8.60200 -0.87800 34.17400

