158

Mg 0.50200 8.22200 27.24000
C  1.10100 10.34900 29.97500
C  0.64900 5.57900 29.33500
C  0.50000 6.27800 24.53900
C  0.72500 11.04400 25.11500
N  0.91000 7.97500 29.41600
C  1.01900 8.99700 30.34800
C  0.74700 8.45400 31.76300
C  1.03000 6.99600 31.54200
C  0.77700 6.76600 30.00000
C  2.43700 6.49800 31.94300
C  -0.68900 8.79200 32.27100
C  -1.04700 9.19000 33.79200
H  -0.02700 8.94100 34.92300
N  0.56800 6.15700 26.98500
C  0.63500 5.19000 27.95600
C  0.65500 3.86200 27.38900
C  0.54400 4.01200 25.99600
C  0.55500 5.57300 25.77400
C  0.81500 2.57000 28.13700
C  0.43500 2.98000 24.88500
O  0.36000 3.34900 23.70800
C  0.36300 1.53000 25.18200
N  0.56300 8.64700 25.15500
C  0.52500 7.66900 24.26100
C  0.33300 8.18100 22.84200
C  -0.04500 9.70500 23.10500
C  0.41200 9.79800 24.52600
C  1.60800 8.09700 22.00600
C  -1.50300 10.03000 22.93400
C  -1.77100 11.28600 22.14000
N  0.77600 10.33000 27.48200
C  0.99500 11.30600 26.50600
C  1.27400 12.54800 27.15400
C  1.35600 12.26300 28.50700
C  1.09000 10.87000 28.61700
C  1.40500 13.86000 26.56800
C  1.57400 12.80400 29.86100
O  1.78400 13.91500 30.23600
C  1.26100 11.58200 30.83000
C  2.39200 11.48400 31.85600
O  3.42300 10.89400 31.67300
O  1.97400 12.10100 33.04300
C  2.98800 12.35500 33.98100
H  0.80400 4.82700 30.11200
H  0.38600 5.76400 23.58200
H  0.59400 11.79300 24.33200
H  1.46200 8.90200 32.45200
H  0.32700 6.39500 32.12000
H  2.94400 7.34300 32.40800
H  3.14500 6.09700 31.21800
H  2.20300 5.63800 32.57000
H  -1.30800 7.94500 31.97500
H  -0.93100 9.68600 31.69700
H  -2.03400 8.76900 33.98300
H  -1.26900 10.25500 33.84300
H  0.85700 2.69000 29.21900
H  1.68100 1.94400 27.92200
H  -0.09400 1.97800 28.03300
H  1.22100 1.09400 25.69400
H  0.32000 1.04600 24.20700
H  -0.51400 1.30200 25.78800
H  -0.53900 7.66400 22.44300
H  0.52100 10.38200 22.46500
H  1.59700 7.06400 21.65800
H  2.49700 8.14100 22.63500
H  1.70600 8.85800 21.23100
H  -2.01400 10.01500 23.89600
H  -2.10700 9.24700 22.47600
H  -0.92500 11.58900 21.52200
H  -2.04100 12.05200 22.86600
H  -2.59000 11.13900 21.43500
H  1.69900 14.55000 27.35900
H  0.44800 14.28800 26.27000
H  2.08800 13.84300 25.71800
H  0.33600 11.96400 31.26300
H  2.60100 12.79300 34.90100
H  3.73600 13.06000 33.61900
H  3.62300 11.49200 34.17700
Mg 48.28500 15.47300 28.71100
C  46.40800 15.55200 31.68000
C  50.75300 17.23400 30.32000
C  49.67000 15.97400 25.73800
C  45.47800 14.15700 27.11300
N  48.50100 16.41700 30.74400
C  47.65900 16.17100 31.81200
C  48.28000 16.63200 33.15400
C  49.53800 17.41300 32.63200
C  49.62000 17.00700 31.12700
C  49.55300 18.92600 32.68000
C  48.55200 15.39600 34.09900
C  48.29300 15.59000 35.59600
H  48.07000 16.98600 36.17200
N  50.04400 16.35800 28.16400
C  50.97500 16.88900 29.00400
C  52.17200 17.15000 28.18100
C  51.94400 16.74300 26.85000
C  50.50900 16.34000 26.86500
C  53.32100 17.89400 28.81700
C  52.88900 16.80500 25.65800
O  52.52400 16.44200 24.54500
C  54.33000 17.38400 25.79300
N  47.60300 15.11600 26.66000
C  48.41400 15.51200 25.62100
C  47.70600 15.23700 24.21900
C  46.24700 14.63500 24.70100
C  46.42000 14.60800 26.23100
C  47.69000 16.32300 23.09800
C  46.02400 13.26300 24.09700
C  44.89300 13.02200 23.05000
N  46.33600 14.84300 29.20200
C  45.32400 14.36700 28.50000
C  44.12700 14.16400 29.33700
C  44.54000 14.53700 30.59500
C  45.86300 15.06600 30.49600
C  42.77100 13.67400 28.81700
C  44.18100 14.65800 31.98900
O  43.06200 14.44700 32.43000
C  45.34700 15.30200 32.75800
C  44.78300 16.58100 33.35100
O  44.83900 17.68000 32.78200
O  44.13100 16.32000 34.49600
C  43.72800 17.41500 35.28100
H  51.58200 17.76300 30.79600
H  50.17100 16.06400 24.77200
H  44.59000 13.67000 26.70600
H  47.41400 17.13300 33.58700
H  50.40200 17.04000 33.18200
H  49.79600 19.44000 31.75000
H  50.32100 19.20600 33.40100
H  48.56200 19.24400 33.00500
H  49.59500 15.16000 33.88800
H  47.85900 14.61000 33.79800
H  49.12100 15.10100 36.10900
H  47.34700 15.05300 35.67000
H  53.71500 18.69800 28.19500
H  54.08800 17.20300 29.16900
H  52.92900 18.43900 29.67600
H  54.92500 17.18500 24.90200
H  54.90100 16.85400 26.55500
H  54.27700 18.44600 26.03000
H  48.28100 14.39900 23.82600
H  45.47000 15.29900 24.32300
H  46.85100 16.17700 22.41700
H  48.56700 16.20400 22.46100
H  47.64700 17.23300 23.69600
H  45.62300 12.62200 24.88200
H  46.92100 12.83500 23.65000
H  44.39500 13.98000 22.89800
H  44.29800 12.15600 23.34300
H  45.36000 12.83300 22.08300
H  42.64500 13.81200 27.74300
H  41.99800 14.35300 29.17600
H  42.46300 12.67600 29.12900
H  45.61600 14.64700 33.58700
H  42.91900 17.95900 34.79400
H  44.60200 18.03300 35.48600
H  43.38600 17.09900 36.26700

