158

Mg 9.25500 2.65800 27.54500
C  10.44800 1.12800 30.45200
C  7.73000 4.93800 29.58700
C  7.78300 4.01500 24.80000
C  10.65500 0.14900 25.64800
N  9.16300 3.04600 29.83400
C  9.69500 2.25600 30.76500
C  9.42300 2.86100 32.15900
C  8.28000 3.85700 31.88400
C  8.37900 3.96300 30.33600
C  6.92800 3.43900 32.47200
C  10.73600 3.46700 32.75900
C  10.63700 4.22400 34.15000
H  10.94100 3.36000 35.34300
N  8.03000 4.34700 27.24900
C  7.55400 5.17200 28.21600
C  6.72800 6.24100 27.55400
C  6.71900 5.92100 26.15700
C  7.49500 4.73700 26.00900
C  6.15900 7.34700 28.34300
C  6.01300 6.71300 25.04900
O  6.04600 6.28000 23.89500
C  5.19000 7.86500 25.21900
N  9.15900 2.17400 25.58700
C  8.58900 2.91200 24.59700
C  8.83500 2.28600 23.20300
C  9.86500 1.19900 23.52300
C  9.89900 1.14000 25.02400
C  7.53500 1.60700 22.62900
C  11.33600 1.57700 23.07800
C  11.78900 0.79300 21.86100
N  10.38300 0.96400 27.90200
C  10.84600 0.00200 27.02600
C  11.51100 -1.04900 27.77100
C  11.39200 -0.62600 29.13400
C  10.69400 0.56300 29.16600
C  12.13500 -2.27200 27.17200
C  11.73200 -1.04200 30.47300
O  12.36900 -1.99500 30.92700
C  11.15300 0.06800 31.39000
C  10.13200 -0.49000 32.37800
O  9.09300 -1.04200 32.10500
O  10.48700 -0.11300 33.64800
C  9.66900 -0.42500 34.82200
H  7.04600 5.58700 30.13900
H  7.56300 4.39700 23.80100
H  11.12400 -0.59200 24.99700
H  9.16600 2.05300 32.84400
H  8.51400 4.86900 32.21300
H  6.59900 4.29800 33.05700
H  7.05700 2.52200 33.04700
H  6.20100 3.28800 31.67500
H  11.15400 4.10800 31.98300
H  11.42500 2.65700 32.99800
H  9.63100 4.62300 34.27900
H  11.26200 5.11000 34.25800
H  5.07500 7.27600 28.25500
H  6.42600 8.34800 28.00600
H  6.54300 7.37700 29.36300
H  5.87200 8.56700 25.69800
H  4.38500 7.59000 25.90100
H  4.81800 8.20100 24.25100
H  9.21900 3.01400 22.48900
H  9.52800 0.25500 23.09400
H  7.48500 0.52100 22.71300
H  7.54800 1.70500 21.54400
H  6.64900 2.11000 23.01700
H  12.01300 1.42500 23.91900
H  11.42000 2.65100 22.91200
H  10.92600 0.53100 21.25000
H  12.32300 -0.15100 21.96700
H  12.27900 1.51500 21.20800
H  11.84400 -2.37100 26.12600
H  11.77600 -3.07200 27.81900
H  13.21200 -2.11200 27.12800
H  12.08700 0.45500 31.79800
H  10.33200 -1.02600 35.44500
H  8.81900 -1.08400 34.64900
H  9.33300 0.46200 35.36000
Mg 16.39200 51.94800 25.22800
C  18.27400 51.07600 28.01900
C  13.80200 53.09600 27.20800
C  14.40300 52.25000 22.47700
C  18.83400 50.44200 23.13300
N  16.03000 52.00900 27.32900
C  17.02100 51.74400 28.27800
C  16.47000 52.01800 29.67000
C  15.06600 52.60600 29.39100
C  14.86200 52.47700 27.85100
C  13.87800 51.82900 30.16900
C  17.39000 52.99600 30.48700
C  17.85400 52.56300 31.91500
H  16.90100 51.79800 32.76200
N  14.41400 52.79400 24.88300
C  13.54800 53.27600 25.78000
C  12.34800 53.85000 25.09200
C  12.56200 53.61900 23.73500
C  13.88900 52.93800 23.59400
C  11.17200 54.36900 25.90100
C  11.55500 53.95800 22.62100
O  11.82900 53.62400 21.45600
C  10.11200 54.48500 22.88500
N  16.59300 51.40900 23.15400
C  15.58400 51.58200 22.20500
C  16.02100 51.05600 20.77500
C  17.51500 50.76800 21.02000
C  17.67200 50.91100 22.51200
C  15.22800 49.86300 20.21100
C  18.53100 51.59200 20.19700
C  18.45700 53.05700 20.56600
N  18.17300 50.90000 25.47200
C  19.13300 50.48600 24.52700
C  20.27900 49.90500 25.23300
C  20.01100 50.16000 26.60600
C  18.74900 50.69400 26.67900
C  21.42500 49.29500 24.64500
C  20.52000 50.05400 27.99700
O  21.63600 49.70100 28.39000
C  19.38500 50.56200 28.99000
C  18.91000 49.45800 29.93500
O  17.78500 48.94800 29.81400
O  19.82900 49.09900 30.83100
C  19.34100 48.16600 31.90800
H  12.96200 53.52700 27.75600
H  13.80800 52.30000 21.56300
H  19.61700 49.92800 22.57100
H  16.39900 51.14600 30.31900
H  14.98400 53.64600 29.70800
H  12.93900 51.92500 29.62400
H  13.70500 52.36700 31.10100
H  14.15500 50.82200 30.48000
H  16.85000 53.94200 30.46600
H  18.29100 53.17600 29.90100
H  17.94000 53.45600 32.53400
H  18.82800 52.07700 31.84700
H  11.29600 54.32100 26.98300
H  10.36300 53.69000 25.63300
H  11.01500 55.42700 25.68700
H  9.30900 53.77000 23.06100
H  9.82500 55.06600 22.00800
H  10.24800 55.32400 23.56800
H  15.94200 51.89900 20.08900
H  17.73400 49.77600 20.62500
H  14.51600 49.61300 20.99700
H  15.79300 48.93900 20.08700
H  14.58200 50.15800 19.38400
H  18.32800 51.52400 19.12800
H  19.58700 51.35400 20.32400
H  18.58600 53.25500 21.63000
H  17.52700 53.50300 20.21200
H  19.25300 53.61800 20.07600
H  21.76500 49.77000 23.72600
H  21.35000 48.21600 24.51100
H  22.17600 49.52000 25.40200
H  19.74500 51.35500 29.64600
H  20.11800 47.59400 32.41400
H  18.69600 47.34600 31.59400
H  18.79600 48.72500 32.66900

