158

Mg 17.51000 -0.30000 27.41000
C  16.41800 1.53300 30.22700
C  19.54400 -2.11300 29.66000
C  18.97300 -1.60000 24.83300
C  15.79700 1.99300 25.42900
N  17.82000 -0.44200 29.74500
C  17.25000 0.43800 30.62700
C  17.58700 0.05200 32.02200
C  18.70500 -1.02000 31.84200
C  18.73600 -1.25900 30.34200
C  20.07200 -0.78400 32.50100
C  16.39400 -0.44900 32.89900
C  16.40300 -0.05800 34.43400
H  17.72400 0.47100 35.07700
N  18.92100 -1.73700 27.23500
C  19.55700 -2.46200 28.26800
C  20.44600 -3.45100 27.71200
C  20.43900 -3.31200 26.27000
C  19.41300 -2.21300 26.05300
C  21.22600 -4.48500 28.58400
C  21.06000 -4.05800 25.21500
O  20.87900 -3.84300 24.01300
C  21.98400 -5.12000 25.50700
N  17.36300 0.09600 25.38100
C  18.15300 -0.56200 24.50600
C  17.86700 -0.03700 23.03300
C  16.60700 0.96900 23.24200
C  16.54700 1.03200 24.77000
C  19.06400 0.57000 22.27300
C  15.29200 0.59800 22.58100
C  14.41800 -0.38500 23.45500
N  16.21900 1.35200 27.67100
C  15.61100 2.18400 26.73800
C  14.86200 3.23400 27.39400
C  15.16200 2.99300 28.80000
C  16.02600 1.84600 28.89000
C  14.06000 4.35300 26.87300
C  14.98700 3.50800 30.16300
O  14.34400 4.46800 30.51300
C  15.76700 2.56200 31.06200
C  16.70700 3.32500 32.02200
O  17.89600 3.58400 31.96000
O  15.89100 3.66300 33.08700
C  16.39200 4.60600 34.12800
H  20.10000 -2.77200 30.33000
H  19.43700 -1.99500 23.92700
H  15.28800 2.72600 24.79900
H  18.07700 0.89600 32.50500
H  18.34900 -1.87700 32.41300
H  20.05400 0.18300 33.00300
H  20.89900 -0.89900 31.80000
H  20.39400 -1.44700 33.30400
H  16.29100 -1.52500 32.75500
H  15.48900 -0.00600 32.48500
H  16.10900 -0.95300 34.98300
H  15.60400 0.67000 34.57400
H  21.40600 -5.43900 28.08900
H  20.63900 -4.78000 29.45400
H  22.17800 -4.05000 28.89100
H  22.83000 -4.79400 26.11100
H  22.52400 -5.48100 24.63100
H  21.39200 -5.90100 25.98600
H  17.52000 -0.95300 22.55500
H  16.90500 1.96300 22.90900
H  19.85100 1.12100 22.78800
H  18.67200 1.20300 21.47600
H  19.66200 -0.21800 21.81700
H  15.47400 0.07400 21.64200
H  14.81700 1.55500 22.36600
H  14.25500 0.20400 24.35800
H  15.00500 -1.28900 23.61500
H  13.45800 -0.59500 22.98200
H  12.98200 4.18700 26.86600
H  14.31000 4.66600 25.86000
H  14.31500 5.17300 27.54500
H  15.11100 2.03000 31.75100
H  15.77100 4.48300 35.01600
H  16.27000 5.67500 33.95500
H  17.43400 4.41700 34.38800
Mg 47.50200 25.33900 28.20100
C  48.38200 27.58300 30.82400
C  46.77200 23.01300 30.65300
C  46.89200 23.11800 25.83300
C  48.62400 27.60300 25.91700
N  47.61800 25.31300 30.54500
C  47.87700 26.37100 31.36800
C  47.65000 26.04900 32.90100
C  47.36900 24.47100 32.80700
C  47.25200 24.20100 31.25100
C  48.53000 23.63200 33.37200
C  46.53900 26.92800 33.55800
C  45.81600 26.35900 34.76200
H  45.45600 27.35900 35.92000
N  46.79200 23.38400 28.26400
C  46.50700 22.59200 29.33400
C  46.09000 21.29300 28.92500
C  46.01300 21.35600 27.42400
C  46.50400 22.69300 27.10600
C  45.67900 20.22900 29.91100
C  45.47400 20.41200 26.40100
O  45.30300 20.74900 25.23900
C  45.16100 19.00400 26.86100
N  47.70200 25.39500 26.13700
C  47.49300 24.27400 25.34800
C  47.99200 24.45000 23.90500
C  48.40500 25.95500 23.86100
C  48.20000 26.36500 25.37000
C  49.04800 23.43400 23.55300
C  47.50300 26.84000 22.92700
C  48.13800 27.74800 21.92800
N  48.21300 27.29100 28.27500
C  48.63900 28.11700 27.24400
C  49.18200 29.37900 27.77300
C  49.04900 29.22100 29.18300
C  48.55000 27.91800 29.40000
C  49.73200 30.54900 26.94700
C  49.27500 29.87000 30.46900
O  49.68400 30.99800 30.68800
C  48.86300 28.80600 31.53500
C  50.04800 28.49900 32.46300
O  51.05800 27.93100 32.16500
O  49.69400 28.86700 33.75400
C  50.54900 28.26100 34.76400
H  46.52800 22.26900 31.41400
H  46.81800 22.41700 24.99900
H  48.98900 28.23400 25.10400
H  48.60200 26.21900 33.40300
H  46.35000 24.27000 33.13800
H  49.02300 23.04600 32.59600
H  48.05700 22.91500 34.04200
H  49.18200 24.35300 33.86500
H  45.84700 27.09100 32.73200
H  47.01900 27.85600 33.86700
H  46.24700 25.45000 35.18200
H  44.92400 25.85400 34.39200
H  46.42200 19.44000 30.02000
H  44.76800 19.78200 29.51300
H  45.48600 20.56700 30.92900
H  44.83100 18.46000 25.97700
H  44.43100 18.91900 27.66500
H  46.06400 18.57900 27.30100
H  47.08700 24.27800 23.32300
H  49.43400 26.19600 23.59700
H  49.97800 23.96000 23.76900
H  49.07300 23.32600 22.46800
H  49.00800 22.43400 23.98400
H  46.94200 27.53300 23.55400
H  46.64100 26.36400 22.45900
H  47.67800 27.66400 20.94300
H  49.21000 27.57800 21.82000
H  47.98300 28.76300 22.29300
H  49.51500 30.45200 25.88300
H  50.79700 30.65300 27.15700
H  49.27400 31.43400 27.38900
H  47.94200 29.02500 32.07500
H  51.39300 28.88500 35.06100
H  50.90800 27.25100 34.56800
H  49.88500 28.13200 35.61900

