158

Mg 48.09400 34.15900 27.12400
C  46.25300 32.72000 29.75400
C  48.97200 36.64000 29.35600
C  49.90600 35.43200 24.69800
C  47.27000 31.33500 25.08900
N  47.65000 34.56100 29.24100
C  46.99100 33.80400 30.16200
C  47.34400 34.27000 31.62500
C  47.79300 35.71900 31.37200
C  48.11400 35.66600 29.84300
C  46.66600 36.71100 31.65100
C  48.39900 33.44700 32.29700
C  48.34900 33.41900 33.85400
H  47.36700 34.26500 34.78300
N  49.16200 35.89800 26.97800
C  49.42000 36.84200 28.06000
C  50.41500 37.77800 27.52300
C  50.73900 37.38500 26.20200
C  49.88700 36.19800 25.88800
C  50.99300 38.88600 28.48000
C  51.68100 38.07400 25.17200
O  51.94400 37.55300 24.07100
C  52.32100 39.46100 25.52500
N  48.36000 33.55900 25.09400
C  49.18300 34.29500 24.22800
C  49.54000 33.53100 22.93000
C  48.78800 32.11100 23.15500
C  48.03700 32.31000 24.51600
C  49.22800 34.29000 21.59100
C  49.75900 30.89900 23.16600
C  50.02900 30.23700 21.83200
N  46.84600 32.52600 27.30900
C  46.61200 31.48200 26.40900
C  45.67300 30.56000 26.98900
C  45.50800 31.01000 28.31400
C  46.25900 32.17600 28.45600
C  45.11200 29.34900 26.31600
C  44.84300 30.68300 29.55500
O  44.14700 29.69000 29.84000
C  45.26200 31.82200 30.57000
C  45.86500 31.07300 31.62900
O  46.85500 30.37200 31.51400
O  45.05800 31.03600 32.73600
C  45.62300 30.25300 33.83800
H  49.14500 37.51000 29.99200
H  50.57500 35.71100 23.88200
H  47.22000 30.43300 24.47500
H  46.50700 34.26600 32.32400
H  48.65300 36.01500 31.97300
H  45.95500 36.40100 32.41700
H  46.10000 36.82000 30.72500
H  47.09900 37.67400 31.91800
H  49.37600 33.86200 32.05300
H  48.45100 32.45700 31.84500
H  49.36400 33.71900 34.11500
H  48.30200 32.39600 34.22600
H  51.99100 38.57400 28.78700
H  50.27600 39.00600 29.29200
H  51.13200 39.85200 27.99300
H  51.56700 40.23500 25.66700
H  53.01000 39.65000 24.70300
H  52.88500 39.26600 26.43700
H  50.61500 33.36300 22.99100
H  48.01800 32.10700 22.38300
H  48.69900 35.23100 21.74400
H  48.62800 33.71900 20.88100
H  50.17500 34.23900 21.05500
H  49.62100 30.18400 23.97700
H  50.74300 31.32600 23.35800
H  49.54400 30.72000 20.98300
H  49.61300 29.22900 21.82400
H  51.09500 30.08500 21.66700
H  45.00000 29.59400 25.26000
H  44.14300 29.10400 26.75100
H  45.87300 28.58800 26.48600
H  44.40900 32.41600 30.90000
H  45.60500 29.24000 33.43500
H  44.96600 30.21700 34.70700
H  46.64800 30.47200 34.13700
Mg -5.26500 26.11600 26.91700
C  -4.21900 27.80400 29.82400
C  -7.34400 24.25800 28.80000
C  -5.89100 24.24800 24.13600
C  -2.90800 27.90600 25.16100
N  -5.65200 26.02000 29.09900
C  -5.25300 26.88500 30.10300
C  -6.01800 26.66700 31.36500
C  -6.84200 25.43600 31.08400
C  -6.55600 25.15800 29.58200
C  -6.52700 24.09900 31.94600
C  -6.87900 27.96200 31.69200
C  -7.47600 27.99500 33.09500
H  -7.15500 26.93900 34.17500
N  -6.60000 24.58200 26.46700
C  -7.38300 23.92800 27.41800
C  -8.19400 22.91100 26.71000
C  -7.80100 22.88000 25.36200
C  -6.67600 23.89000 25.27700
C  -9.32100 22.12700 27.41800
C  -8.19500 21.99300 24.22400
O  -7.68500 22.07900 23.15800
C  -9.22700 20.94000 24.48400
N  -4.70000 26.22100 24.89300
C  -4.96600 25.24000 23.95100
C  -4.29200 25.58800 22.60000
C  -3.42600 26.83500 22.95300
C  -3.68600 27.02500 24.44300
C  -3.58600 24.45700 21.85300
C  -3.74400 28.13600 22.12700
C  -3.27300 28.13000 20.63500
N  -3.80900 27.45800 27.36000
C  -2.97700 28.15700 26.51900
C  -2.22000 29.15800 27.28300
C  -2.75500 29.11300 28.49400
C  -3.66900 28.01600 28.55700
C  -1.33200 30.24900 26.78400
C  -2.61400 29.73200 29.79500
O  -1.90100 30.67600 30.13700
C  -3.57900 28.93800 30.73500
C  -2.70500 28.19200 31.73400
O  -1.77000 27.48600 31.39100
O  -3.17000 28.44600 32.99700
C  -2.45700 27.77300 34.01500
H  -7.97700 23.75100 29.53100
H  -6.12300 23.69800 23.22200
H  -2.04300 28.43800 24.75900
H  -5.36700 26.49000 32.22100
H  -7.90200 25.59100 31.28500
H  -6.38200 23.26200 31.26300
H  -7.48000 23.99100 32.46500
H  -5.71500 24.16900 32.66900
H  -7.64800 28.15100 30.94400
H  -6.14400 28.76000 31.80700
H  -8.55100 28.14900 33.00200
H  -7.07700 28.81300 33.69400
H  -8.89200 21.16900 27.71400
H  -10.15700 21.94600 26.74200
H  -9.66200 22.77600 28.22400
H  -10.16400 21.46100 24.68200
H  -9.03000 20.31400 25.35400
H  -9.24900 20.30600 23.59700
H  -4.98200 25.90200 21.81600
H  -2.38000 26.55500 22.82300
H  -2.51800 24.60200 21.68900
H  -4.02600 24.32200 20.86500
H  -3.62000 23.50200 22.37900
H  -3.50000 29.01600 22.72200
H  -4.82400 28.27300 22.07600
H  -2.64700 27.25400 20.46500
H  -2.57900 28.95700 20.48200
H  -4.08400 28.30300 19.92800
H  -1.93300 30.98600 26.25100
H  -0.62400 29.77000 26.10800
H  -0.85900 30.86100 27.55200
H  -4.34400 29.56300 31.19500
H  -1.50400 28.22600 34.28800
H  -2.18800 26.75300 33.73800
H  -3.01100 27.75400 34.95300

