158

Mg 9.09900 3.84600 27.38300
C  10.42400 2.34500 30.18600
C  7.08900 5.80700 29.48700
C  7.73900 5.25700 24.61400
C  10.73500 1.53000 25.39300
N  8.67700 3.86500 29.61300
C  9.46000 3.33200 30.59400
C  8.96900 3.64500 31.97600
C  7.69900 4.52200 31.60400
C  7.89300 4.84800 30.12100
C  6.27400 3.94200 31.88900
C  10.07500 4.35500 32.72600
C  10.31500 3.91900 34.21000
H  10.66600 5.01400 35.21300
N  7.66900 5.33000 27.11100
C  7.00300 6.07100 28.09000
C  6.25800 7.13600 27.39800
C  6.33000 6.89700 25.99500
C  7.29000 5.83500 25.84900
C  5.46200 8.18100 28.17400
C  5.58900 7.57800 24.91400
O  5.71600 7.33700 23.70200
C  4.77100 8.80400 25.22400
N  9.12400 3.33200 25.26700
C  8.48400 4.10000 24.33000
C  8.84700 3.62400 22.93500
C  9.66100 2.30400 23.17000
C  9.86300 2.38500 24.71500
C  7.66100 3.41900 21.93700
C  11.03500 2.23300 22.38800
C  11.19700 1.13000 21.33400
N  10.37400 2.21800 27.66700
C  10.91000 1.36700 26.82600
C  11.72700 0.37200 27.47900
C  11.58800 0.74800 28.84000
C  10.74800 1.85300 28.90000
C  12.61300 -0.57600 26.84200
C  12.01300 0.48800 30.18600
O  12.82300 -0.33200 30.57100
C  11.32100 1.53300 31.10100
C  10.52500 0.69300 32.07800
O  9.36100 0.37700 31.98800
O  11.09200 0.63100 33.31600
C  10.25400 0.18400 34.44300
H  6.59500 6.55700 30.11000
H  7.44200 5.78800 23.70700
H  11.27900 0.77000 24.82800
H  8.55200 2.73400 32.40600
H  7.69800 5.53400 32.00900
H  6.23600 3.02400 32.47500
H  5.78200 3.67600 30.95300
H  5.62900 4.68900 32.35100
H  9.97000 5.43700 32.64400
H  11.01300 4.24300 32.18100
H  11.11900 3.18300 34.20300
H  9.40700 3.42500 34.55800
H  5.58900 9.22600 27.88900
H  5.66900 8.09400 29.24100
H  4.41300 7.92800 28.02000
H  5.50700 9.56900 25.47200
H  4.11000 8.61000 26.07000
H  4.03800 9.09900 24.47300
H  9.60600 4.35500 22.65600
H  9.05400 1.42700 22.94500
H  6.75900 3.74100 22.45700
H  7.50700 2.38300 21.63600
H  7.77900 4.05600 21.06100
H  11.84900 2.12400 23.10500
H  11.04900 3.14700 21.79400
H  10.31100 0.54500 21.08500
H  12.00500 0.45100 21.60600
H  11.50600 1.47800 20.34900
H  11.99900 -1.42200 26.53100
H  13.34600 -1.00300 27.52700
H  13.17800 -0.20000 25.99000
H  11.98000 2.22300 31.62800
H  9.76800 -0.77100 34.24200
H  9.40700 0.82300 34.69000
H  10.70900 -0.10400 35.39100
Mg 40.46400 8.36400 28.78500
C  42.06100 9.58400 31.47900
C  38.33300 6.54100 30.84700
C  38.90200 7.41000 25.99400
C  42.88800 10.06500 26.72600
N  40.32300 8.03700 30.87900
C  40.97900 8.82000 31.80400
C  40.32900 8.60500 33.15300
C  39.49200 7.23100 33.01600
C  39.34200 7.22900 31.46100
C  40.28000 5.99700 33.55800
C  39.50500 9.85400 33.65900
C  39.20900 9.96100 35.12300
H  39.81500 11.12500 35.80600
N  38.74900 7.26800 28.50200
C  37.99600 6.58800 29.43800
C  36.88500 5.96300 28.76800
C  36.93800 6.33200 27.41000
C  38.21900 6.99600 27.23300
C  35.89500 5.18700 29.54000
C  35.98100 6.07000 26.22800
O  36.22600 6.33100 25.07300
C  34.66600 5.33000 26.50900
N  40.90900 8.56800 26.62800
C  40.10900 8.06200 25.70000
C  40.62900 8.36600 24.33200
C  41.62700 9.51100 24.54200
C  41.82000 9.41000 26.06600
C  41.30200 7.10800 23.68800
C  41.11300 10.87200 24.04000
C  39.81300 11.39000 24.75000
N  42.23400 9.47300 29.04000
C  43.11900 10.11000 28.13800
C  44.27000 10.60000 28.84400
C  43.78700 10.62200 30.13000
C  42.61100 9.83600 30.21700
C  45.55100 11.15000 28.28200
C  44.06500 11.15100 31.48000
O  44.94100 11.86300 31.94300
C  42.92700 10.45200 32.37900
C  43.59900 9.59600 33.36900
O  43.99000 8.43000 33.26000
O  43.62400 10.35700 34.56000
C  44.43000 9.80400 35.64900
H  37.69100 5.95900 31.51200
H  38.28200 7.20500 25.11800
H  43.54000 10.64200 26.06700
H  41.17800 8.33400 33.78000
H  38.57200 7.44200 33.56100
H  39.57100 5.67300 34.32000
H  41.26500 6.20400 33.97700
H  40.44400 5.22100 32.81000
H  38.50900 9.88200 33.21700
H  40.02000 10.71500 33.23300
H  39.57600 9.07200 35.63700
H  38.14100 9.80700 35.27300
H  36.00400 5.31000 30.61800
H  36.23500 4.16800 29.35200
H  34.88000 5.21000 29.14300
H  34.01000 5.31300 25.63900
H  34.24200 5.94300 27.30400
H  34.82800 4.34400 26.94600
H  39.76900 8.70000 23.75200
H  42.57000 9.25300 24.05900
H  42.31400 7.33300 23.35100
H  40.67200 6.78000 22.86200
H  41.49100 6.31600 24.41200
H  40.89900 10.67000 22.99100
H  41.92300 11.59800 24.10400
H  39.20700 10.56300 25.12200
H  39.25700 11.91600 23.97400
H  39.94400 12.11800 25.55100
H  46.33200 10.51000 27.87300
H  45.89300 11.86600 29.03000
H  45.09800 11.81100 27.54300
H  42.48400 11.27400 32.94300
H  43.89800 8.89600 35.93100
H  44.59700 10.62800 36.34400
H  45.41300 9.39700 35.40900

