158

Mg -1.13800 17.28100 26.07400
C  -1.58200 15.02900 28.66600
C  -1.88800 19.84200 28.25000
C  -0.86500 19.32500 23.45800
C  -1.15400 14.58300 23.82400
N  -1.52500 17.40100 28.27100
C  -1.50900 16.37900 29.15100
C  -1.74400 16.93800 30.57900
C  -1.99000 18.42800 30.36100
C  -1.78400 18.59000 28.92000
C  -3.23300 19.22800 30.99900
C  -0.70100 16.38800 31.66900
C  -0.36600 17.27500 32.82000
H  -0.43100 16.61700 34.24700
N  -1.31600 19.34300 25.87500
C  -1.69500 20.16700 26.88000
C  -1.82900 21.51700 26.24400
C  -1.41000 21.43400 24.88700
C  -1.18300 19.98100 24.67300
C  -2.25800 22.82300 27.05600
C  -1.38600 22.50700 23.86300
O  -1.28600 22.30800 22.65500
C  -1.53800 23.90100 24.23900
N  -1.03800 16.97100 23.92600
C  -0.80800 18.01600 23.02600
C  -0.52100 17.48400 21.61400
C  -0.54300 15.93400 21.86400
C  -1.03400 15.83200 23.26400
C  -1.57500 17.97900 20.43600
C  0.91200 15.32800 21.62800
C  2.10000 15.69400 22.57700
N  -1.29900 15.19000 26.17000
C  -1.33400 14.24800 25.18800
C  -1.47100 12.94000 25.86000
C  -1.47700 13.19000 27.26800
C  -1.47700 14.61600 27.35800
C  -1.61800 11.65400 25.17900
C  -1.65900 12.51200 28.53200
O  -1.85200 11.38500 28.84500
C  -1.63800 13.70700 29.55200
C  -0.50100 13.49600 30.43300
O  0.64600 13.73000 30.18300
O  -1.02900 12.93400 31.59200
C  0.12000 12.79600 32.60900
H  -2.00700 20.62900 28.99700
H  -0.65400 19.92300 22.56900
H  -1.15200 13.69200 23.19300
H  -2.72000 16.53300 30.84500
H  -1.08200 18.97500 30.61500
H  -3.62900 18.60900 31.80400
H  -4.08200 19.51500 30.37900
H  -2.95300 20.19700 31.41200
H  0.14900 16.14200 31.03300
H  -1.20000 15.50300 32.06300
H  -1.04700 18.12000 32.91600
H  0.65500 17.65400 32.76700
H  -1.33900 23.25400 27.45200
H  -2.79800 22.50000 27.94700
H  -2.83200 23.55600 26.48900
H  -2.59300 24.01300 24.48900
H  -1.33900 24.64700 23.47000
H  -0.91300 24.11200 25.10700
H  0.46500 17.84200 21.31600
H  -1.23400 15.45000 21.17400
H  -2.21000 18.69500 20.95800
H  -2.33700 17.30800 20.03900
H  -1.06600 18.56600 19.67200
H  1.02100 15.48400 20.55500
H  0.73600 14.25200 21.63700
H  2.84000 16.15500 21.92200
H  2.54000 14.77700 22.97100
H  1.78200 16.48000 23.26100
H  -1.39500 11.83300 24.12700
H  -2.65500 11.32000 25.21200
H  -0.99100 10.88000 25.62100
H  -2.52400 13.77200 30.18400
H  0.61300 13.71600 32.92200
H  0.93900 12.11900 32.36400
H  -0.31700 12.30400 33.47800
Mg 26.64700 50.40500 26.90700
C  24.51800 51.56000 29.51700
C  28.79100 49.21300 29.48000
C  28.85400 49.48600 24.63200
C  24.52400 51.78400 24.57100
N  26.71100 50.50700 29.20800
C  25.66800 50.91700 30.04200
C  25.93300 50.55300 31.50400
C  27.34000 50.00300 31.47500
C  27.62400 49.90900 29.95900
C  28.40700 50.80300 32.27300
C  24.87400 49.58600 32.14600
C  24.18500 50.21700 33.36200
H  24.20500 49.43800 34.68300
N  28.51600 49.58100 27.02700
C  29.17900 49.09100 28.12500
C  30.37900 48.45400 27.69600
C  30.49100 48.51700 26.29200
C  29.30900 49.27000 25.93700
C  31.40600 47.80800 28.67700
C  31.63200 48.01900 25.35800
O  31.61400 48.21100 24.19200
C  32.86600 47.22900 25.85900
N  26.69800 50.72700 24.89700
C  27.67400 50.15800 24.15600
C  27.28500 50.23900 22.64800
C  25.92600 51.07400 22.67700
C  25.69100 51.22100 24.11100
C  28.45200 50.99800 21.79100
C  24.77400 50.42600 21.84200
C  23.67900 49.51100 22.54100
N  24.85000 51.41700 26.95000
C  24.09500 52.00000 25.93800
C  22.83500 52.49400 26.49100
C  23.02700 52.47100 27.87300
C  24.26500 51.74800 28.07800
C  21.66000 52.98700 25.68400
C  22.47700 52.82400 29.12900
O  21.55400 53.55500 29.45500
C  23.38800 52.17500 30.22600
C  23.98400 53.25300 31.04400
O  24.91200 54.04900 30.85100
O  23.28100 53.30000 32.20900
C  23.66900 54.25300 33.25400
H  29.39400 48.75900 30.27000
H  29.37000 48.93300 23.84400
H  23.73700 52.14400 23.90600
H  25.95500 51.51400 32.01700
H  27.32800 49.01500 31.93600
H  29.33500 50.23100 32.30000
H  28.07500 50.98200 33.29600
H  28.49900 51.76400 31.76600
H  25.24800 48.60600 32.44200
H  24.11100 49.40500 31.38900
H  23.12000 50.35400 33.17500
H  24.53900 51.22300 33.58400
H  32.39600 48.26300 28.65000
H  31.61900 46.78900 28.35200
H  31.08700 47.77600 29.71900
H  32.73900 46.15000 25.95600
H  33.05900 47.72300 26.81100
H  33.70000 47.44300 25.19100
H  27.12000 49.26300 22.19300
H  26.12400 52.01500 22.16300
H  28.11100 51.72700 21.05600
H  28.95700 50.27100 21.15500
H  29.16900 51.42800 22.49000
H  25.28200 49.70400 21.20300
H  24.33700 51.13900 21.14200
H  22.82100 50.17700 22.44800
H  23.84800 49.21100 23.57500
H  23.67700 48.55000 22.02700
H  20.90600 52.26500 25.37000
H  22.06900 53.58700 24.87000
H  21.16700 53.69300 26.35100
H  22.86500 51.46900 30.87100
H  24.71800 54.03700 33.46100
H  23.12100 54.14300 34.18900
H  23.36400 55.26600 32.99200

