158

Mg 34.85500 2.95100 29.35600
C  32.79000 4.14900 31.94900
C  37.26800 2.43600 31.67900
C  36.83500 2.27600 26.72100
C  32.22300 3.52300 27.12600
N  34.97900 3.30400 31.53400
C  34.05800 3.74200 32.39800
C  34.51700 3.59400 33.84300
C  36.03400 3.34000 33.70100
C  36.12300 3.07000 32.18800
C  36.92000 4.46900 34.28400
C  33.77900 2.49300 34.62600
C  33.61300 2.79500 36.16300
H  34.31700 4.08700 36.70600
N  36.83400 2.33500 29.21300
C  37.71500 2.23600 30.26900
C  38.99700 1.83100 29.70500
C  38.88100 1.77000 28.28300
C  37.47700 2.16600 28.00200
C  40.23700 1.56800 30.51500
C  39.87800 1.31400 27.23800
O  39.61100 1.16900 26.10400
C  41.39300 1.06300 27.62300
N  34.64800 2.84300 27.27800
C  35.52700 2.36700 26.42300
C  34.98700 2.29900 24.99600
C  33.49500 2.64000 25.13300
C  33.45100 3.04700 26.62100
C  35.79400 3.11500 23.89200
C  32.40700 1.41400 24.83300
C  31.06700 1.92500 24.31800
N  32.87700 3.74100 29.46100
C  31.96900 3.81000 28.44400
C  30.73500 4.32800 28.99100
C  31.03700 4.54500 30.37000
C  32.31000 4.09400 30.59400
C  29.46600 4.51000 28.22100
C  30.43900 4.78500 31.63700
O  29.24800 4.99900 31.90100
C  31.58600 4.67300 32.78100
C  31.87400 5.96000 33.47800
O  32.51400 6.82200 32.96500
O  31.22400 6.01700 34.70500
C  31.46900 7.14800 35.62900
H  38.15600 2.34600 32.30800
H  37.38500 1.94300 25.83900
H  31.38700 3.63500 26.43300
H  34.41100 4.58100 34.29400
H  36.29500 2.47600 34.31300
H  37.25400 4.10700 35.25600
H  36.41200 5.42000 34.44400
H  37.72900 4.62200 33.57000
H  34.23900 1.50800 34.53500
H  32.81800 2.28900 34.15500
H  33.97200 1.97300 36.78200
H  32.54200 2.88300 36.34400
H  40.78100 0.62400 30.52700
H  40.00100 1.75800 31.56200
H  40.88900 2.40800 30.27600
H  41.76200 1.90200 28.21200
H  41.91800 1.06600 26.66800
H  41.54000 0.07900 28.06700
H  34.89700 1.27700 24.62900
H  33.15300 3.52400 24.59600
H  35.07600 3.73300 23.35400
H  36.42800 2.51500 23.23900
H  36.46700 3.80000 24.40900
H  32.30300 0.88100 25.77800
H  32.76900 0.67200 24.12100
H  30.20000 1.36800 24.67500
H  31.04100 1.93900 23.22800
H  30.93200 2.98800 24.51700
H  29.48300 3.79900 27.39400
H  29.42800 5.50300 27.77300
H  28.66500 4.44000 28.95700
H  31.30600 3.95400 33.55000
H  32.31400 7.77200 35.33800
H  31.57500 6.63100 36.58300
H  30.54300 7.71500 35.72500
Mg 30.74400 58.31900 39.55600
C  27.98500 56.48600 38.15500
C  32.87300 55.72300 38.47500
C  33.37800 60.14300 40.45000
C  28.52700 60.92600 40.24300
N  30.43100 56.42800 38.23000
C  29.23800 55.85900 37.87100
C  29.50700 54.43600 37.33600
C  31.04900 54.21500 37.61200
C  31.52500 55.54400 38.13300
C  31.31200 52.98900 38.54800
C  29.00000 54.31400 35.83200
C  29.60100 55.34800 34.93900
H  28.67600 56.30400 34.05200
N  32.82800 57.99900 39.43700
C  33.50900 56.91400 38.91700
C  34.92400 57.12400 39.03300
C  35.06300 58.36900 39.71500
C  33.74300 58.91100 39.91300
C  35.94100 56.19400 38.34000
C  36.43300 58.92500 40.07000
O  37.38200 58.23000 39.80200
C  36.69200 60.20700 40.69700
N  30.85300 60.18100 40.24900
C  32.06700 60.73400 40.60500
C  31.92700 62.20400 40.91600
C  30.39400 62.41600 41.05200
C  29.83000 61.06900 40.56000
C  32.86200 62.69300 42.04600
C  29.91500 63.68600 40.24700
C  30.11400 65.07800 40.96200
N  28.72000 58.62200 39.39600
C  27.92000 59.78700 39.70900
C  26.56600 59.46200 39.46100
C  26.58800 58.17400 38.92300
C  27.90900 57.68700 38.89800
C  25.44500 60.36600 39.87000
C  25.70400 57.19500 38.35200
O  24.47100 57.13800 38.21700
C  26.53200 56.00100 37.89900
C  26.09900 54.76100 38.63800
O  26.19300 54.65900 39.88600
O  25.40800 53.90800 37.78800
C  25.03500 52.59800 38.41400
H  33.57000 54.88400 38.40900
H  34.25100 60.68900 40.81300
H  27.84100 61.70600 40.57900
H  28.90300 53.77500 37.95900
H  31.54000 53.93400 36.68000
H  30.45000 52.32300 38.50400
H  31.36000 53.48500 39.51700
H  32.29300 52.54900 38.37200
H  27.91900 54.45300 35.80200
H  29.35900 53.32200 35.56000
H  30.12300 54.70300 34.23200
H  30.38300 56.01100 35.30800
H  36.69800 56.81000 37.85500
H  35.35400 55.51500 37.72100
H  36.49400 55.64500 39.10100
H  36.30700 60.99600 40.05100
H  37.76700 60.35700 40.79400
H  36.08500 60.13900 41.60000
H  32.21400 62.67300 39.97500
H  30.00500 62.54700 42.06100
H  33.49100 61.99700 42.60200
H  32.12900 63.08000 42.75400
H  33.43300 63.56900 41.73900
H  28.83600 63.73200 40.10200
H  30.53900 63.77200 39.35700
H  30.84000 65.61500 40.35200
H  30.50900 64.97400 41.97200
H  29.18400 65.64600 40.97100
H  24.54200 59.78700 39.67500
H  25.39500 61.41000 39.55900
H  25.52000 60.42700 40.95500
H  26.40600 55.82500 36.83100
H  25.69100 52.31900 39.23800
H  25.09700 51.82000 37.65300
H  24.09400 52.61900 38.96400

