158

Mg 35.69500 0.83100 30.16100
C  33.31800 1.99800 32.39400
C  38.00200 1.07800 32.54700
C  37.75800 -0.08200 27.88800
C  33.22600 1.35300 27.57800
N  35.71200 1.75800 32.25200
C  34.59500 1.83400 33.03700
C  34.97500 1.75800 34.54700
C  36.52700 1.87800 34.47100
C  36.76400 1.51500 33.01900
C  36.98500 3.33200 34.74600
C  34.50700 0.40200 35.17700
C  33.51300 0.57600 36.37400
H  33.99900 1.63300 37.42300
N  37.62500 0.42000 30.22300
C  38.41500 0.59200 31.30000
C  39.74600 0.11900 30.92500
C  39.68900 -0.24000 29.49800
C  38.28600 0.05200 29.14500
C  40.88100 -0.08900 31.86000
C  40.76400 -0.93300 28.54400
O  40.52600 -1.40900 27.42400
C  42.19000 -1.15700 29.04900
N  35.49300 0.57600 28.03900
C  36.51200 0.17100 27.35300
C  36.16300 0.00900 25.85900
C  34.63500 0.36000 25.82900
C  34.42600 0.77700 27.26200
C  37.07400 0.93500 24.94400
C  33.65900 -0.79500 25.36700
C  32.84300 -0.60400 24.07500
N  33.70400 1.62700 29.96000
C  32.87500 1.84300 28.84900
C  31.60000 2.38900 29.31300
C  31.68200 2.23000 30.73900
C  33.02100 1.94200 31.02800
C  30.42600 2.70800 28.48300
C  30.96400 2.30700 31.96100
O  29.77400 2.49200 32.04900
C  31.96100 2.19100 33.09700
C  32.02100 3.46600 33.81800
O  32.59500 4.49000 33.51100
O  31.33000 3.25800 34.97800
C  31.23000 4.40900 35.88600
H  38.82300 1.14600 33.26400
H  38.40800 -0.47100 27.10100
H  32.46000 1.30100 26.80200
H  34.61600 2.67200 35.02100
H  37.11200 1.11200 34.97900
H  36.74900 3.98400 33.90600
H  38.04800 3.29800 34.98500
H  36.56700 3.71200 35.67800
H  35.29900 -0.29100 35.46100
H  34.02500 -0.17900 34.39100
H  33.54400 -0.31800 36.99800
H  32.49000 0.70400 36.02000
H  41.72600 0.41300 31.38900
H  41.09000 -1.12300 32.13600
H  40.77900 0.46500 32.79300
H  42.74300 -1.71500 28.29300
H  42.15300 -1.86300 29.87900
H  42.51200 -0.17000 29.37900
H  36.17000 -1.06700 25.68900
H  34.29700 1.19300 25.21200
H  37.50400 1.65800 25.63800
H  36.39500 1.40500 24.23300
H  37.73500 0.35000 24.30500
H  32.98100 -1.07900 26.17200
H  34.16900 -1.75200 25.26200
H  33.31100 0.27300 23.62900
H  31.77500 -0.45300 24.23200
H  32.88300 -1.38300 23.31400
H  30.64200 2.58900 27.42100
H  30.14500 3.74600 28.65800
H  29.56100 2.12500 28.79700
H  31.70300 1.34600 33.73600
H  32.25400 4.46400 36.25700
H  30.54500 4.16300 36.69800
H  30.83900 5.33100 35.45500
Mg 6.87900 53.44300 40.82800
C  6.52200 50.04100 40.46700
C  10.36600 52.99100 40.50100
C  7.29300 56.77800 40.32600
C  3.41800 53.82700 40.84700
N  8.19300 51.75700 40.37500
C  7.83600 50.40200 40.37300
C  9.05200 49.49500 40.27600
C  10.26000 50.42600 40.51700
C  9.58400 51.83700 40.52100
C  11.10300 50.07400 41.83800
C  9.22600 48.70700 38.96200
C  9.10000 49.29300 37.56000
H  7.97900 48.81200 36.62600
N  8.56200 54.72500 40.59000
C  9.87300 54.31900 40.42400
C  10.71100 55.49400 40.21200
C  9.80100 56.59300 40.10600
C  8.48400 56.08300 40.33600
C  12.24400 55.52100 40.06400
C  10.18700 57.98800 39.65800
O  11.37800 58.17800 39.56400
C  9.20600 59.16100 39.42500
N  5.53700 55.04500 40.60600
C  5.99300 56.33200 40.54400
C  4.81000 57.33000 40.41500
C  3.57400 56.45200 40.98700
C  4.14000 55.03300 40.78000
C  4.90400 58.66000 41.20400
C  2.20600 56.77600 40.25200
C  0.89400 56.79200 41.06100
N  5.24500 52.18400 40.80700
C  3.94500 52.46600 40.89500
C  3.28000 51.22900 41.16800
C  4.22100 50.23100 41.04700
C  5.37800 50.89100 40.67300
C  1.72000 51.05400 41.36600
C  4.43200 48.82800 40.99800
O  3.67600 47.91100 41.19500
C  5.93600 48.66900 40.53200
C  5.80800 47.95900 39.18600
O  5.35400 48.44700 38.16500
O  6.08800 46.62400 39.29300
C  5.50200 45.84400 38.14400
H  11.44600 52.84100 40.56100
H  7.23400 57.84100 40.08200
H  2.35600 53.97400 41.05500
H  8.98100 48.74500 41.06400
H  11.09400 50.31900 39.82300
H  11.15100 50.97700 42.44500
H  12.15700 49.90600 41.61600
H  10.68700 49.34300 42.53200
H  8.39400 48.00900 39.04800
H  10.15700 48.16600 39.13200
H  9.99600 49.10100 36.96900
H  9.06700 50.37600 37.68400
H  12.59800 55.90700 39.10800
H  12.64000 54.51000 40.15800
H  12.72800 56.10600 40.84700
H  8.61200 58.94700 38.53700
H  9.70000 60.07700 39.09900
H  8.68600 59.20400 40.38100
H  4.72300 57.63500 39.37300
H  3.43700 56.71400 42.03700
H  5.78200 58.62800 41.84900
H  4.01500 58.86800 41.80000
H  5.01500 59.46900 40.48200
H  2.03800 56.09200 39.42000
H  2.25500 57.76700 39.80200
H  0.28900 57.65100 40.77100
H  1.09900 56.66800 42.12500
H  0.35000 55.89900 40.75300
H  1.18700 51.45200 40.50200
H  1.28500 51.57300 42.22000
H  1.49500 49.98900 41.41800
H  6.38700 48.08200 41.33200
H  5.98300 44.87200 38.02800
H  5.57800 46.25800 37.13900
H  4.44200 45.68700 38.34700

