158

Mg 17.33000 -0.54700 27.70500
C  15.97100 1.35800 30.31400
C  19.02900 -2.40400 29.97900
C  18.90600 -2.11500 25.13700
C  15.47200 1.34000 25.53900
N  17.36200 -0.54600 29.90300
C  16.80100 0.31300 30.78800
C  17.12500 -0.00800 32.22700
C  18.16900 -1.03700 32.10000
C  18.21200 -1.37700 30.58700
C  19.61100 -0.70600 32.66200
C  15.87700 -0.33300 33.08900
C  15.89200 0.27200 34.44000
H  17.22800 0.60700 34.98100
N  18.70700 -2.14100 27.55500
C  19.26100 -2.76800 28.62400
C  20.16200 -3.80700 28.16600
C  20.19200 -3.69100 26.76800
C  19.26400 -2.63400 26.42700
C  20.90000 -4.73400 29.17200
C  20.98300 -4.52000 25.71500
O  20.95300 -4.23200 24.49500
C  21.83600 -5.65100 26.17400
N  17.25200 -0.33000 25.66100
C  18.04000 -1.06500 24.80200
C  17.89400 -0.56600 23.35900
C  16.64100 0.32900 23.52600
C  16.38800 0.45700 24.98700
C  19.12600 0.13500 22.78200
C  15.33400 0.12800 22.66300
C  14.09500 -0.44400 23.33300
N  15.98400 1.06700 27.79800
C  15.27500 1.71400 26.84700
C  14.57200 2.85500 27.41500
C  14.86100 2.83500 28.81000
C  15.59200 1.60500 28.96200
C  13.58100 3.82300 26.76300
C  14.70400 3.48200 30.04000
O  14.06700 4.49500 30.34400
C  15.39600 2.51000 31.07600
C  16.37000 3.29400 31.91600
O  17.61800 3.31900 31.71300
O  15.74200 3.83100 33.03500
C  16.55000 4.58500 33.98100
H  19.63300 -2.90700 30.73700
H  19.39500 -2.58100 24.27900
H  14.91200 1.85200 24.75400
H  17.57200 0.92200 32.58000
H  17.84900 -1.94000 32.62000
H  19.88600 0.34600 32.72700
H  20.39400 -1.27200 32.15700
H  19.67500 -1.09100 33.68000
H  15.79200 -1.40200 33.28500
H  15.04300 0.08500 32.52600
H  15.38800 -0.49200 35.03000
H  15.13500 1.05500 34.38300
H  21.15200 -4.33100 30.15300
H  21.75800 -5.14100 28.63800
H  20.31700 -5.61900 29.42700
H  21.15900 -6.20200 26.82700
H  22.61200 -5.12800 26.73400
H  22.14100 -6.25200 25.31700
H  17.53600 -1.42000 22.78300
H  16.93100 1.30500 23.13900
H  19.87400 0.21700 23.57100
H  18.79200 1.13800 22.52000
H  19.44500 -0.40400 21.89000
H  15.55100 -0.66900 21.95300
H  15.01200 1.00600 22.10300
H  13.50500 0.37500 23.74300
H  14.35700 -1.21800 24.05400
H  13.50600 -0.95300 22.56900
H  14.17200 4.62200 26.31600
H  12.69500 4.19500 27.27600
H  13.14400 3.30500 25.90900
H  14.60700 2.18500 31.75500
H  16.23700 5.62800 34.03100
H  17.62700 4.49900 33.83800
H  16.21200 4.20200 34.94400
Mg 41.79000 8.26500 29.48300
C  43.54900 9.29200 32.21800
C  39.59100 6.56000 31.65400
C  39.85000 7.23900 26.88500
C  44.03500 9.52800 27.38400
N  41.73700 7.82800 31.67400
C  42.48300 8.49400 32.59400
C  41.91300 8.28200 34.03600
C  40.76300 7.17900 33.76900
C  40.68800 7.18500 32.25200
C  40.90700 5.78400 34.40700
C  41.47500 9.62500 34.72800
C  40.70000 9.67400 36.10300
H  41.27500 10.47900 37.27200
N  39.83700 7.11400 29.27200
C  39.09600 6.50000 30.28700
C  37.83200 6.11300 29.77100
C  37.90300 6.30800 28.32900
C  39.24600 6.86100 28.13800
C  36.76100 5.56500 30.74400
C  36.80200 6.12800 27.24300
O  36.92600 6.34000 26.08300
C  35.34500 5.71200 27.71600
N  42.09900 8.10300 27.51000
C  41.14800 7.67100 26.57000
C  41.60100 7.72300 25.17500
C  42.68800 8.78400 25.25300
C  42.99700 8.80600 26.80800
C  42.22400 6.35600 24.88200
C  42.18000 10.14700 24.70900
C  43.14300 10.87200 23.75500
N  43.59500 9.10000 29.69800
C  44.42000 9.63400 28.76600
C  45.57600 10.22500 29.37200
C  45.23500 10.15700 30.76900
C  44.03100 9.45400 30.87400
C  46.85900 10.85100 28.74300
C  45.62200 10.58300 32.13100
O  46.56600 11.24300 32.49600
C  44.47300 10.06400 33.13100
C  45.07200 9.29900 34.24500
O  45.70200 8.28200 34.14700
O  44.75600 9.80600 35.44000
C  45.19000 9.11600 36.60700
H  38.90700 6.18000 32.41600
H  39.25100 6.97900 26.01000
H  44.67000 10.00000 26.63100
H  42.80600 7.86600 34.50300
H  39.80200 7.58900 34.07900
H  41.73400 5.76200 35.11800
H  41.13200 5.01300 33.67100
H  39.98400 5.56800 34.94400
H  41.01700 10.28600 33.99300
H  42.41900 10.14500 34.89300
H  40.42800 8.68600 36.47300
H  39.76900 10.15600 35.80500
H  37.00800 5.50700 31.80400
H  36.36600 4.57600 30.51100
H  35.91500 6.22500 30.55200
H  34.91800 6.65000 28.07100
H  35.44800 4.93900 28.47800
H  34.80500 5.35400 26.83900
H  40.82800 7.82400 24.41200
H  43.58000 8.64200 24.64300
H  43.29500 6.46300 24.71200
H  41.96600 6.03600 23.87300
H  41.98200 5.56600 25.59300
H  41.98000 10.82700 25.53700
H  41.25500 10.09200 24.13500
H  44.05000 10.28700 23.59800
H  43.42900 11.83600 24.17500
H  42.70300 11.08000 22.78000
H  47.14200 11.75900 29.27500
H  46.77900 10.99300 27.66500
H  47.63500 10.13800 29.02000
H  43.95200 10.95000 33.49400
H  46.21800 9.46800 36.68400
H  45.11500 8.02800 36.57900
H  44.58700 9.47000 37.44300

