158

Mg 26.25400 49.85000 26.48800
C  24.27900 51.12500 29.00200
C  28.57800 48.87200 28.77100
C  28.34200 49.21700 23.95700
C  24.14700 51.55300 24.13800
N  26.35200 49.92500 28.63800
C  25.39000 50.36300 29.49200
C  25.65600 49.97100 30.97700
C  27.19200 49.46900 30.83700
C  27.38200 49.45200 29.32900
C  28.13400 50.45800 31.68200
C  24.63600 48.93400 31.53800
C  23.92400 49.31400 32.82700
H  24.74900 49.98300 34.04400
N  28.17800 49.07300 26.40600
C  28.99600 48.67600 27.44800
C  30.18000 48.11700 26.94200
C  30.04600 48.08900 25.51900
C  28.86900 48.84000 25.22000
C  31.26000 47.54500 27.84100
C  31.00800 47.53800 24.49200
O  30.86400 47.58100 23.25400
C  32.16500 46.79900 24.93200
N  26.28200 50.32300 24.45600
C  27.19400 49.81400 23.56300
C  26.88900 49.92800 21.98600
C  25.48800 50.68200 22.19300
C  25.25200 50.81500 23.68300
C  27.92300 50.66500 21.07300
C  24.30700 49.84800 21.41300
C  23.94600 50.21400 19.91900
N  24.49100 50.98600 26.47200
C  23.80100 51.69100 25.46800
C  22.63100 52.34000 26.05900
C  22.83500 52.13400 27.39500
C  23.97400 51.35400 27.63100
C  21.53800 53.23000 25.37800
C  22.30400 52.48600 28.70800
O  21.29600 53.04500 29.04000
C  23.14200 51.68900 29.84400
C  23.50400 52.65000 30.91000
O  24.53100 53.26300 30.95400
O  22.58800 52.71000 31.94700
C  22.80500 53.73000 33.00400
H  29.23000 48.49400 29.56100
H  28.96100 48.77000 23.17700
H  23.51600 51.89200 23.31400
H  25.54600 50.86400 31.59200
H  27.35300 48.45000 31.18900
H  27.87100 51.49300 31.46400
H  29.07500 50.18000 31.20600
H  28.06200 50.16200 32.72900
H  25.19200 48.01500 31.72200
H  23.92800 48.75000 30.72900
H  23.45600 48.37400 33.11800
H  23.09700 49.99700 32.63100
H  32.25900 47.78600 27.47700
H  31.25100 46.46300 27.96800
H  31.17100 47.98400 28.83500
H  32.97600 47.41900 25.31400
H  32.51600 46.27100 24.04600
H  31.86800 46.03700 25.65400
H  26.89300 48.89900 21.62400
H  25.53300 51.64000 21.67400
H  28.51400 51.30300 21.73100
H  27.50800 51.38100 20.36300
H  28.58300 50.01100 20.50300
H  23.43600 50.02800 22.04200
H  24.50700 48.78200 21.51900
H  24.52900 49.51200 19.32300
H  24.27700 51.22600 19.68900
H  22.86800 50.14200 19.77100
H  21.38400 52.82400 24.37800
H  21.58700 54.31300 25.49400
H  20.57200 52.92100 25.77900
H  22.68800 50.79900 30.28000
H  23.73300 53.63000 33.56700
H  22.03100 53.74800 33.77200
H  22.76900 54.72500 32.56200
Mg -9.94900 39.16000 39.63000
C  -8.53900 36.07900 39.38100
C  -6.73300 40.38200 38.57600
C  -11.39900 42.13800 38.77900
C  -13.03400 37.82400 40.05700
N  -7.75000 38.38900 39.24400
C  -7.54700 37.06100 39.09400
C  -6.02200 36.77300 38.70600
C  -5.45200 38.19700 38.94200
C  -6.69800 39.05200 38.92100
C  -4.61800 38.31400 40.30500
C  -5.87000 36.01100 37.37000
C  -5.16700 36.72600 36.22200
H  -5.65600 36.33400 34.76500
N  -9.20600 41.01200 38.91800
C  -7.87100 41.24700 38.47300
C  -7.79100 42.67600 38.10100
C  -9.09200 43.21400 38.15600
C  -9.98700 42.11400 38.57600
C  -6.52000 43.40400 37.71600
C  -9.42800 44.59800 37.60000
O  -8.61100 45.36100 37.15000
C  -10.86600 45.03700 37.55200
N  -11.97800 39.90200 39.27900
C  -12.29200 41.18500 39.13000
C  -13.84200 41.35800 39.08500
C  -14.32500 39.92800 39.50400
C  -13.06800 39.11800 39.60700
C  -14.43800 42.57800 39.88400
C  -15.45600 39.39700 38.63100
C  -15.12200 38.95500 37.23100
N  -10.64600 37.38400 39.83100
C  -11.91300 36.96000 40.17100
C  -11.81300 35.55700 40.45200
C  -10.56100 35.16600 39.99500
C  -9.85100 36.27700 39.67100
C  -12.92500 34.62300 40.86900
C  -9.74200 33.98000 39.70600
O  -9.92600 32.79700 39.74900
C  -8.38300 34.52800 39.21900
C  -7.36700 33.69800 39.99400
O  -7.27100 33.57600 41.20400
O  -6.60100 33.01500 39.09400
C  -5.53200 32.31400 39.70300
H  -5.80600 40.82900 38.21000
H  -12.00000 43.03900 38.63900
H  -13.98200 37.33700 40.29600
H  -5.51500 36.16900 39.45900
H  -4.75700 38.58100 38.19500
H  -4.25400 37.40500 40.78300
H  -5.28200 38.65000 41.10100
H  -3.75400 38.96500 40.16800
H  -6.84900 35.69600 37.01000
H  -5.31300 35.09200 37.55000
H  -4.10900 36.49800 36.35100
H  -5.38400 37.79300 36.27200
H  -6.33100 43.22200 36.65800
H  -5.66700 43.06200 38.30200
H  -6.55100 44.49300 37.73100
H  -11.26100 45.02100 38.56700
H  -11.44400 44.35100 36.93200
H  -10.95300 46.05200 37.16400
H  -13.95600 41.56100 38.02000
H  -14.81000 39.98600 40.47900
H  -15.10100 42.19000 40.65700
H  -15.10600 43.17000 39.25900
H  -13.68300 43.21000 40.35200
H  -16.25700 40.13100 38.53900
H  -15.89400 38.52700 39.12100
H  -15.59300 39.71600 36.61000
H  -15.51600 37.95300 37.06100
H  -14.08600 38.76300 36.94900
H  -12.67600 33.60300 40.57400
H  -13.84100 34.80400 40.30700
H  -13.24100 34.74000 41.90500
H  -8.37700 34.42100 38.13500
H  -5.93700 31.57700 40.39700
H  -4.83400 32.89600 40.30500
H  -4.86000 31.77700 39.03300

