158

Mg 0.91700 -1.52200 42.37000
C  4.55100 -1.17300 41.47600
C  0.48100 1.50900 40.93400
C  -2.18300 -2.29400 42.17500
C  1.80000 -4.97800 42.93000
N  2.29800 -0.11000 41.28500
C  3.75100 -0.06600 41.16300
C  4.24300 1.32500 40.82500
C  2.92500 2.19800 41.03200
C  1.78900 1.10000 41.03700
C  2.95400 3.05900 42.31000
C  4.95300 1.52000 39.44700
C  4.39400 0.78800 38.19800
H  5.40100 -0.14400 37.49900
N  -0.72400 -0.37400 41.98200
C  -0.69000 0.86100 41.30300
C  -2.00200 1.32100 41.16400
C  -2.85500 0.14700 41.47100
C  -1.94400 -0.90300 41.93700
C  -2.33300 2.69900 40.63400
C  -4.36800 0.07100 41.25500
O  -5.04500 1.01500 40.84100
C  -5.16400 -1.11800 41.57600
N  -0.02200 -3.35800 42.54300
C  -1.35000 -3.34600 42.55100
C  -1.92200 -4.70500 42.73400
C  -0.65300 -5.54200 43.06200
C  0.48000 -4.53900 42.87800
C  -3.08600 -4.86400 43.74400
C  -0.56000 -6.93000 42.20000
C  -0.36600 -8.26000 43.02600
N  2.82100 -2.86800 42.38200
C  2.94300 -4.21700 42.62900
C  4.31900 -4.56700 42.59100
C  5.01800 -3.40700 42.17400
C  4.01800 -2.40000 42.04900
C  4.84200 -5.92700 42.74000
C  6.32600 -2.80300 41.75800
O  7.40100 -3.29000 41.67700
C  6.03000 -1.37100 41.34700
C  6.89800 -0.48100 42.18900
O  7.76600 0.28300 41.71700
O  6.72500 -0.58700 43.58500
C  7.58300 0.21300 44.40300
H  0.42000 2.51600 40.51600
H  -3.21200 -2.65900 42.16400
H  2.01900 -6.04400 43.02700
H  4.99600 1.50600 41.59200
H  2.66600 2.91300 40.25200
H  2.06900 2.78900 42.88600
H  2.95400 4.12200 42.07100
H  3.88900 2.89600 42.84600
H  5.97800 1.26500 39.71700
H  4.93100 2.56900 39.15200
H  4.16500 1.62100 37.53400
H  3.43900 0.27700 38.31600
H  -3.09800 3.07900 41.31200
H  -2.59600 2.76200 39.57800
H  -1.46500 3.35400 40.70500
H  -6.23600 -0.97100 41.44600
H  -5.00900 -1.55100 42.56400
H  -5.03600 -1.90800 40.83600
H  -2.32400 -5.02200 41.77200
H  -0.75500 -5.80000 44.11600
H  -3.99200 -5.03800 43.16400
H  -3.15500 -3.82500 44.06500
H  -2.92200 -5.59900 44.53100
H  0.36600 -6.85600 41.63000
H  -1.39700 -7.09400 41.52200
H  -1.37000 -8.68500 43.00800
H  -0.10100 -8.06000 44.06400
H  0.38700 -8.90900 42.57900
H  4.37300 -6.29000 43.65400
H  5.92200 -5.98600 42.86700
H  4.66600 -6.45700 41.80300
H  6.39500 -1.34300 40.32000
H  8.06300 -0.37200 45.18900
H  7.00100 1.05600 44.77500
H  8.42400 0.67600 43.88600
Mg 30.55800 57.34600 40.83000
C  27.87700 55.78700 39.33100
C  32.59300 55.14600 39.21600
C  33.07100 59.41500 41.51200
C  28.24600 59.92800 41.79300
N  30.21500 55.76500 39.33700
C  29.04700 55.17500 38.97500
C  29.20300 54.09400 37.90500
C  30.73500 53.66900 38.23100
C  31.19100 54.93400 38.96600
C  30.80000 52.34600 39.04800
C  29.04700 54.62300 36.43000
C  28.61100 53.59600 35.38100
H  27.82500 54.05000 34.16500
N  32.59600 57.28600 40.52300
C  33.22200 56.25300 39.93100
C  34.60600 56.31600 40.19200
C  34.85500 57.65600 40.67600
C  33.50600 58.19700 41.00700
C  35.57000 55.36400 39.58800
C  36.24300 58.32400 40.90400
O  37.24500 57.75700 40.56900
C  36.37100 59.57800 41.67200
N  30.61400 59.36000 41.60200
C  31.76100 59.90600 41.80900
C  31.63700 61.29700 42.53200
C  30.06600 61.35400 42.80000
C  29.61000 60.12600 41.99900
C  32.56600 61.67000 43.72600
C  29.37600 62.75700 42.51200
C  28.19300 63.22400 43.41400
N  28.42400 57.74400 40.84500
C  27.64400 58.79200 41.22700
C  26.26300 58.58900 40.91100
C  26.30700 57.39700 40.18400
C  27.62200 56.90200 40.19100
C  25.09100 59.49400 41.24300
C  25.46400 56.45800 39.47200
O  24.24900 56.55300 39.25900
C  26.47000 55.35300 38.86500
C  26.10100 54.05000 39.46100
O  26.82700 53.33800 40.10900
O  24.96900 53.65200 38.88500
C  24.47700 52.28100 39.00200
H  33.22800 54.28600 38.99500
H  33.82300 60.13400 41.84500
H  27.45600 60.63400 42.05700
H  28.53600 53.26000 38.12200
H  31.28800 53.62500 37.29400
H  31.79300 52.21300 39.47900
H  30.51100 51.55900 38.35100
H  30.01300 52.27200 39.79900
H  30.03300 54.95300 36.10000
H  28.41000 55.50600 36.45900
H  28.03100 52.79000 35.83000
H  29.46500 53.10700 34.91000
H  35.48000 55.55100 38.51800
H  35.33200 54.31900 39.78600
H  36.61500 55.54200 39.84600
H  37.40100 59.91400 41.79400
H  36.02000 59.46500 42.69800
H  35.69400 60.29900 41.21200
H  31.87000 62.08200 41.81300
H  29.93700 61.05400 43.84000
H  32.01900 62.06100 44.58400
H  33.32900 62.39800 43.44900
H  33.27100 60.89400 44.02300
H  29.04100 62.65700 41.48000
H  30.14200 63.52200 42.64300
H  27.75400 62.30200 43.79700
H  27.45700 63.79600 42.84800
H  28.53300 63.67700 44.34500
H  25.22000 60.06000 42.16600
H  24.18900 58.88900 41.14800
H  24.97900 60.21000 40.42900
H  26.38800 55.50800 37.78900
H  24.94800 51.73900 39.82200
H  24.32900 51.82400 38.02300
H  23.47100 52.49100 39.36700

