158

Mg 23.68400 -5.79100 45.98300
C  25.86100 -3.55700 44.38600
C  21.10900 -4.68800 44.06800
C  21.99000 -8.63500 46.77700
C  26.61800 -7.18200 47.50400
N  23.54900 -4.45000 44.29600
C  24.54800 -3.52300 43.98100
C  24.05300 -2.50800 42.89300
C  22.49200 -2.80200 42.99200
C  22.35600 -4.04300 43.85500
C  21.60800 -1.60400 43.61400
C  24.64000 -2.79400 41.51900
C  25.26200 -1.62300 40.76200
H  25.11000 -1.57600 39.25300
N  21.76500 -6.56500 45.54400
C  20.80300 -5.91600 44.78000
C  19.56900 -6.68900 44.69600
C  19.92000 -7.94800 45.27000
C  21.27400 -7.82000 45.88400
C  18.29200 -6.25800 43.89000
C  19.06800 -9.16000 45.29400
O  17.93100 -9.09700 44.95400
C  19.65400 -10.53300 45.61600
N  24.29500 -7.70700 46.89700
C  23.33400 -8.63900 47.23100
C  23.92800 -9.68300 48.12400
C  25.36000 -9.12500 48.52300
C  25.49200 -7.97300 47.54000
C  23.11100 -10.05800 49.29600
C  26.35800 -10.25800 48.28400
C  27.46500 -10.27800 49.36100
N  25.82600 -5.38500 46.02800
C  26.82100 -6.00400 46.78400
C  28.04400 -5.26500 46.58300
C  27.75600 -4.27800 45.65300
C  26.40000 -4.44500 45.25100
C  29.40800 -5.51500 47.19500
C  28.36500 -3.18900 44.83800
O  29.45100 -2.63900 44.77300
C  27.08300 -2.67400 43.98500
C  26.80500 -1.25600 44.36400
O  26.39000 -0.92900 45.47100
O  27.17200 -0.51600 43.32400
C  27.13100 0.98100 43.56000
H  20.25400 -4.24400 43.55300
H  21.43200 -9.46900 47.20700
H  27.42700 -7.54600 48.14100
H  24.38500 -1.51300 43.18900
H  22.10500 -3.03600 42.00000
H  21.02400 -1.22600 42.77400
H  22.32000 -0.81300 43.84600
H  20.97800 -1.87100 44.46200
H  23.87300 -3.24100 40.88700
H  25.43700 -3.53600 41.52000
H  26.32500 -1.49300 40.96300
H  24.88100 -0.71700 41.23300
H  18.19100 -7.18700 43.32900
H  18.41300 -5.45100 43.16600
H  17.46500 -5.98600 44.54500
H  19.00200 -11.26700 45.14400
H  19.52100 -10.67300 46.68900
H  20.67400 -10.68700 45.26400
H  24.09100 -10.57900 47.52500
H  25.40600 -8.68900 49.52100
H  22.16600 -9.51400 49.30400
H  23.64200 -9.78400 50.20700
H  22.99300 -11.14100 49.31300
H  26.80300 -10.29800 47.29000
H  25.95200 -11.27000 48.31200
H  27.39100 -11.32700 49.64800
H  27.29500 -9.59700 50.19500
H  28.39700 -10.03400 48.85000
H  29.62200 -6.54800 46.92200
H  29.18700 -5.46300 48.26100
H  30.13100 -4.80000 46.80200
H  27.41000 -2.72200 42.94700
H  26.18500 1.23400 44.03800
H  27.21900 1.58000 42.65300
H  27.94900 1.16100 44.25700
Mg 40.48200 9.11500 29.30200
C  42.15200 10.41800 32.07100
C  38.31500 7.53300 31.61200
C  38.92200 7.73600 26.69300
C  43.04800 10.14100 27.25900
N  40.28900 9.03500 31.55800
C  41.00100 9.79200 32.46300
C  40.34500 9.75400 33.88700
C  39.24800 8.71300 33.60900
C  39.33900 8.35100 32.21800
C  39.20400 7.46900 34.59900
C  39.99200 11.17200 34.43800
C  39.27000 11.17000 35.82300
H  39.97000 11.91600 36.96200
N  38.74200 7.89500 29.15200
C  38.00200 7.37100 30.21700
C  36.90100 6.77800 29.60000
C  36.99900 6.84300 28.19200
C  38.28200 7.49300 27.92300
C  35.82000 6.13000 30.46600
C  36.05500 6.40500 27.11700
O  36.29400 6.58800 25.93100
C  34.79200 5.72800 27.53000
N  40.93200 8.95700 27.35700
C  40.05000 8.49200 26.41400
C  40.55100 8.56700 24.97900
C  41.86100 9.43200 25.11400
C  41.98600 9.55900 26.66400
C  40.81200 7.13300 24.37100
C  41.89800 10.78400 24.38600
C  41.10600 12.01200 24.94900
N  42.23300 10.13200 29.58200
C  43.17300 10.52400 28.61700
C  44.26900 11.27900 29.26200
C  43.84900 11.33900 30.61100
C  42.67100 10.52800 30.76900
C  45.49400 11.83300 28.64600
C  44.21000 11.88000 31.89700
O  45.18600 12.52300 32.23200
C  43.09500 11.31200 32.90000
C  43.76900 10.53300 34.03400
O  44.72000 9.82500 33.82400
O  43.23400 10.93700 35.23800
C  43.68200 10.12400 36.36400
H  37.60000 7.15500 32.34500
H  38.40300 7.37700 25.80100
H  43.81300 10.46200 26.54800
H  41.15100 9.25700 34.42700
H  38.33300 9.28000 33.77800
H  38.17600 7.42300 34.95900
H  39.83300 7.63800 35.47300
H  39.63400 6.58700 34.12400
H  39.34600 11.64400 33.69900
H  40.91000 11.74000 34.58800
H  39.18800 10.12500 36.12100
H  38.31400 11.67200 35.67200
H  35.96500 6.36700 31.52000
H  35.90900 5.07000 30.22900
H  34.81200 6.48900 30.25700
H  34.06500 6.48200 27.82900
H  34.85700 4.94500 28.28600
H  34.36600 5.21700 26.66700
H  39.75900 9.06000 24.41800
H  42.74500 8.86600 24.81900
H  41.86300 6.85200 24.31700
H  40.36000 7.06900 23.38100
H  40.33200 6.36800 24.98300
H  41.30200 10.59100 23.49400
H  42.91300 11.11400 24.16300
H  40.76000 11.90400 25.97700
H  40.22700 12.33800 24.39300
H  41.79100 12.85600 25.03400
H  45.25600 12.86400 28.38200
H  45.81600 11.32400 27.73800
H  46.28700 11.89500 29.39000
H  42.59600 12.23200 33.20400
H  44.74400 9.88600 36.29700
H  42.87400 9.42400 36.57900
H  43.54600 10.84000 37.17500

