158

Mg 40.79100 9.64400 29.43000
C  42.80000 10.76600 32.18700
C  38.61300 8.23500 31.47900
C  39.16400 8.50500 26.69200
C  43.46600 10.54500 27.37900
N  40.87300 9.37200 31.64300
C  41.66900 10.01500 32.54800
C  41.01600 9.92400 33.93900
C  39.81400 8.90200 33.68600
C  39.70000 8.85300 32.15700
C  39.90400 7.52200 34.36500
C  40.48000 11.28900 34.54800
C  40.07500 11.30100 36.05800
H  40.99200 12.09300 37.07200
N  39.14700 8.51900 29.09800
C  38.27800 8.05600 30.12700
C  37.11700 7.44800 29.57900
C  37.25500 7.67600 28.20700
C  38.53000 8.21800 27.95200
C  36.05700 6.70800 30.46000
C  36.17300 7.40200 27.12900
O  36.35100 7.47200 25.86800
C  34.85100 7.08900 27.58600
N  41.31600 9.41400 27.42500
C  40.40500 9.07900 26.45400
C  41.05200 9.03300 25.04500
C  42.25700 10.03900 25.27300
C  42.41000 9.91300 26.80600
C  41.33400 7.59400 24.60100
C  42.07100 11.56100 24.80700
C  40.68200 12.21100 25.18500
N  42.62500 10.66400 29.67500
C  43.60500 10.99200 28.69500
C  44.70000 11.79800 29.33600
C  44.40700 11.61700 30.73900
C  43.19100 10.93300 30.86900
C  45.98100 12.24200 28.70800
C  44.90300 11.92400 32.09300
O  45.97100 12.47800 32.37600
C  43.81800 11.41600 33.09400
C  44.31900 10.61900 34.20900
O  44.78000 9.50800 34.06000
O  43.97400 11.22200 35.41900
C  44.26500 10.27600 36.54100
H  37.74200 7.99200 32.09000
H  38.58600 8.41600 25.77000
H  44.10300 11.02000 26.63100
H  41.78700 9.47200 34.56200
H  38.86700 9.28800 34.06100
H  39.94200 6.82100 33.53100
H  39.00200 7.27600 34.92600
H  40.77200 7.47300 35.02100
H  39.69300 11.79900 33.99200
H  41.39400 11.88000 34.48700
H  40.02000 10.29700 36.47900
H  39.10200 11.78700 35.99000
H  36.51300 6.30400 31.36400
H  35.66100 5.84500 29.92400
H  35.28500 7.41000 30.77300
H  34.63900 7.78500 28.39800
H  34.89000 6.09400 28.02800
H  34.15800 7.17200 26.74900
H  40.48100 9.51200 24.25000
H  43.18200 9.59400 24.90600
H  40.90300 6.91200 25.33300
H  42.42100 7.51400 24.59800
H  40.93900 7.30000 23.62800
H  42.45000 11.66100 23.79000
H  42.82500 12.12500 25.35600
H  40.38400 12.67800 24.24600
H  40.90800 13.01300 25.88700
H  39.95000 11.49000 25.55000
H  45.96100 13.24700 28.28600
H  46.24900 11.48000 27.97600
H  46.66900 12.12300 29.54400
H  43.43500 12.29800 33.60700
H  43.85000 10.61400 37.49000
H  45.33400 10.17300 36.72600
H  43.78000 9.32300 36.32700
Mg 2.01200 42.19400 24.28700
C  2.90100 42.36100 27.67000
C  -1.06600 40.99300 25.31900
C  1.35900 41.27200 21.17400
C  5.37300 42.81100 23.59600
N  1.12800 41.57100 26.20900
C  1.56400 41.94700 27.48000
C  0.56400 41.66800 28.53800
C  -0.65100 41.07800 27.75700
C  -0.18400 41.24000 26.35100
C  -1.03000 39.64100 28.11500
C  0.23700 42.90800 29.44300
C  -0.90100 42.95800 30.48200
H  -1.73000 41.71400 30.83500
N  0.28400 41.37600 23.27500
C  -0.91300 41.03500 23.90400
C  -1.82100 40.67200 22.87400
C  -1.11000 40.69800 21.59000
C  0.20300 41.14300 21.95300
C  -3.15400 40.10700 23.16500
C  -1.56900 40.47100 20.16300
O  -0.90600 40.62400 19.13200
C  -3.01200 40.04000 19.95000
N  3.21600 41.96500 22.66100
C  2.72700 41.55100 21.44000
C  3.79700 41.63100 20.38200
C  4.91800 42.45700 21.04600
C  4.55100 42.35600 22.56300
C  4.23600 40.18600 19.87300
C  5.07500 43.87200 20.61500
C  3.98700 44.94700 20.74500
N  3.82200 42.67400 25.34700
C  5.09400 42.90500 24.98800
C  5.93300 43.24500 26.13100
C  5.12900 43.05600 27.23800
C  3.86200 42.68000 26.70700
C  7.33800 43.66000 26.06800
C  5.12100 42.91300 28.66400
O  6.03100 42.97900 29.42600
C  3.68100 42.49700 28.96900
C  3.83000 41.14000 29.60500
O  4.61500 40.27800 29.20900
O  2.87400 40.96800 30.58200
C  2.64300 39.60100 31.00700
H  -2.09400 40.76000 25.60300
H  1.28200 41.04700 20.10900
H  6.42700 42.87600 23.32000
H  0.93300 40.82400 29.12100
H  -1.43200 41.83500 27.82300
H  -0.65000 39.34100 29.09200
H  -0.62200 38.88000 27.45000
H  -2.11100 39.53200 28.19600
H  0.03000 43.75500 28.78900
H  1.15400 43.23700 29.93300
H  -1.61000 43.71000 30.13400
H  -0.46100 43.36800 31.39100
H  -3.83100 40.07900 22.31100
H  -3.70200 40.56400 23.98900
H  -3.02500 39.05100 23.39800
H  -3.15400 39.09000 20.46500
H  -3.03900 39.97900 18.86200
H  -3.75000 40.74600 20.33000
H  3.56500 42.02600 19.39300
H  5.90900 42.00600 20.99400
H  3.76400 39.93600 18.92300
H  3.87600 39.44300 20.58400
H  5.32400 40.13500 19.84000
H  5.04800 43.79000 19.52900
H  6.02000 44.26100 20.99300
H  3.29000 44.54900 21.48300
H  3.49500 45.05500 19.77900
H  4.39200 45.86900 21.16300
H  7.65300 44.12500 25.13400
H  7.93500 42.78000 26.30600
H  7.72000 44.38000 26.79200
H  3.27800 43.12700 29.76300
H  3.28100 39.37800 31.86200
H  2.82800 38.85800 30.23200
H  1.59900 39.63600 31.31900

