158

Mg -2.12300 16.97400 26.25700
C  -2.32200 14.72600 28.95700
C  -2.14200 19.51500 28.47300
C  -2.65000 19.02300 23.59200
C  -2.56500 14.20000 24.01800
N  -2.61900 17.06300 28.52900
C  -2.55800 16.04200 29.41900
C  -2.83000 16.58100 30.83000
C  -2.73400 18.11600 30.50200
C  -2.41100 18.27400 29.05300
C  -4.02100 18.89100 30.93500
C  -2.00700 16.01300 32.02100
C  -1.80600 17.02400 33.19500
H  -1.45800 16.48800 34.59700
N  -2.32400 18.97800 26.07600
C  -2.22500 19.91900 27.11100
C  -2.15300 21.25100 26.47400
C  -2.25600 21.09100 25.07400
C  -2.45600 19.63000 24.85300
C  -1.93900 22.42100 27.26500
C  -2.07200 22.11500 24.01500
O  -2.26100 21.84100 22.80000
C  -1.44900 23.36600 24.33300
N  -2.71900 16.65400 24.11000
C  -2.82600 17.70200 23.24000
C  -3.34000 17.18300 21.85500
C  -2.88200 15.66700 21.91600
C  -2.69400 15.47200 23.42200
C  -4.82800 17.38500 21.79400
C  -1.67600 15.18400 20.99700
C  -0.35200 15.20500 21.77000
N  -2.28300 14.86300 26.40500
C  -2.52400 13.92200 25.40000
C  -2.49100 12.56600 26.03400
C  -2.36900 12.91200 27.46700
C  -2.34300 14.28500 27.64100
C  -2.54400 11.25500 25.33400
C  -2.31300 12.33800 28.79000
O  -2.37300 11.16300 29.16700
C  -2.26500 13.51000 29.80000
C  -1.00900 13.41300 30.58900
O  0.10400 13.80500 30.26900
O  -1.19300 12.66600 31.73000
C  -0.12000 12.62100 32.71200
H  -2.12000 20.34400 29.18500
H  -3.00500 19.69500 22.80800
H  -2.67100 13.36400 23.32400
H  -3.87100 16.37000 31.07200
H  -1.85600 18.48100 31.03500
H  -4.71300 18.21200 31.43300
H  -4.56500 19.42200 30.15400
H  -3.80600 19.70300 31.63000
H  -0.97200 15.82700 31.73300
H  -2.41200 15.07900 32.41000
H  -2.64600 17.69500 33.37300
H  -0.96300 17.66600 32.93900
H  -2.48300 23.28100 26.87500
H  -0.86100 22.53600 27.14900
H  -2.04000 22.33200 28.34700
H  -0.53100 23.19300 24.89500
H  -2.11900 24.05500 24.84800
H  -1.33400 23.78200 23.33200
H  -2.85800 17.74200 21.05200
H  -3.74200 15.07000 21.61500
H  -5.25800 17.34600 22.79500
H  -5.38300 16.66300 21.19500
H  -5.03100 18.34200 21.31400
H  -1.61300 15.86800 20.15100
H  -2.00700 14.16500 20.79700
H  0.44400 14.91600 21.08400
H  -0.37000 14.44600 22.55200
H  -0.15500 16.22300 22.10400
H  -3.57300 10.90200 25.40800
H  -1.94700 10.48700 25.82600
H  -2.23900 11.37900 24.29500
H  -3.08400 13.52600 30.51900
H  0.77700 13.21400 32.53800
H  0.26600 11.60200 32.72500
H  -0.44400 13.02800 33.67000
Mg 2.04000 -0.43000 44.15900
C  5.42900 0.13400 43.29000
C  1.26000 2.47800 42.52800
C  -1.12100 -1.47000 44.40700
C  3.11000 -3.70500 45.23800
N  3.18600 1.12600 43.03900
C  4.51700 1.11300 42.81700
C  4.87700 2.26900 41.88000
C  3.67300 3.26500 42.09800
C  2.59600 2.28500 42.58600
C  4.08200 4.36600 43.15300
C  5.05500 1.83500 40.42400
C  6.19800 2.48500 39.65300
H  5.74600 3.18400 38.36900
N  0.27900 0.55200 43.76300
C  0.11400 1.67800 43.03000
C  -1.27300 2.07000 42.85100
C  -1.91700 0.96800 43.51200
C  -0.92200 -0.07800 43.94700
C  -1.78200 3.31400 42.10400
C  -3.35200 0.84400 43.54400
O  -4.11900 1.68000 43.04600
C  -4.05100 -0.24600 44.28300
N  1.12600 -2.30700 44.78200
C  -0.22600 -2.41500 44.79700
C  -0.54800 -3.88900 44.96300
C  0.75200 -4.52100 45.54800
C  1.72400 -3.53400 45.06100
C  -1.89900 -4.26900 45.67900
C  0.93300 -5.97000 45.13300
C  1.66500 -6.91700 46.07500
N  3.87500 -1.58700 44.32200
C  4.13100 -2.83800 44.85100
C  5.62000 -3.00100 44.81600
C  6.13600 -1.84600 44.22000
C  5.03200 -1.02900 43.95800
C  6.39400 -4.19900 45.28000
C  7.35800 -1.14600 43.78500
O  8.52400 -1.32900 43.94600
C  6.95200 0.13400 43.10900
C  7.48400 1.28600 43.90500
O  6.88300 1.74500 44.90500
O  8.57400 1.85300 43.34000
C  9.13500 3.04200 43.92300
H  0.99900 3.33600 41.90600
H  -2.07800 -1.93400 44.16200
H  3.34000 -4.71900 45.57100
H  5.83300 2.62800 42.26300
H  3.48700 3.69100 41.11200
H  3.15800 4.64400 43.65900
H  4.57900 5.22800 42.70700
H  4.67400 3.88800 43.93400
H  4.20000 1.96000 39.76000
H  5.15200 0.75200 40.50400
H  6.94300 1.72900 39.40600
H  6.77300 3.11800 40.32900
H  -2.39300 2.79200 41.36800
H  -0.93100 3.76100 41.59000
H  -2.31700 4.04500 42.71000
H  -4.98500 0.05000 44.76100
H  -3.42100 -0.71700 45.03700
H  -4.22200 -0.94900 43.46700
H  -0.69500 -4.43200 44.02900
H  0.72100 -4.39800 46.63000
H  -2.65900 -4.50600 44.93500
H  -2.15300 -3.42600 46.32000
H  -1.70100 -5.19100 46.22600
H  1.56500 -5.93200 44.24600
H  0.01400 -6.44800 44.79200
H  2.40800 -7.42200 45.45800
H  0.89100 -7.56200 46.49100
H  2.09100 -6.47600 46.97600
H  6.30900 -4.31700 46.36100
H  7.44900 -4.04800 45.04800
H  6.06900 -5.09400 44.74900
H  7.37200 0.31900 42.12100
H  9.96200 3.39600 43.30700
H  9.48500 2.85700 44.93800
H  8.35100 3.80000 43.88900

