158

Mg 45.54300 4.92500 46.67900
C  43.45000 7.71100 46.50300
C  42.85500 2.86900 46.45700
C  47.62900 2.37300 45.84400
C  48.34300 7.26700 46.15900
N  43.47100 5.25000 46.44100
C  42.81300 6.47400 46.40900
C  41.26000 6.27000 46.28700
C  41.07400 4.70900 46.13200
C  42.52800 4.25000 46.39500
C  39.95500 4.17100 47.12700
C  40.50600 7.07600 45.12400
C  41.21900 7.27700 43.74000
H  40.68700 6.77200 42.39500
N  45.34000 2.84400 46.53000
C  44.09900 2.21700 46.47200
C  44.37100 0.80400 46.20000
C  45.80000 0.65300 46.19600
C  46.34500 1.95300 46.23100
C  43.24200 -0.23500 45.91100
C  46.51900 -0.64700 46.15500
O  45.91900 -1.73900 46.08900
C  48.06900 -0.72900 46.17900
N  47.64200 4.86600 46.04300
C  48.25200 3.66400 45.76700
C  49.63400 3.82300 45.27600
C  49.90600 5.33700 45.39800
C  48.60400 5.93700 45.95000
C  50.50900 2.97400 46.21500
C  50.19900 5.99100 44.00600
C  51.53800 5.60800 43.44400
N  45.94400 7.05600 46.52000
C  47.03700 7.83700 46.41900
C  46.70300 9.23900 46.52700
C  45.29800 9.24600 46.64100
C  44.82600 7.89600 46.52300
C  47.65500 10.43600 46.51400
C  44.11100 10.06200 46.71800
O  44.00700 11.31300 46.64600
C  42.84100 9.11200 46.65000
C  42.18600 9.23100 48.02200
O  42.44300 8.60400 49.04100
O  41.19200 10.16700 47.87700
C  40.27800 10.28400 49.04100
H  42.04600 2.14200 46.35000
H  48.26200 1.67000 45.29700
H  49.18100 7.94600 45.99000
H  40.75100 6.76900 47.11100
H  40.81400 4.49500 45.09500
H  39.83900 4.81500 47.99900
H  40.33800 3.25400 47.57500
H  39.03700 4.13600 46.53900
H  40.26900 8.07600 45.48800
H  39.62000 6.48000 44.90600
H  42.23100 6.87400 43.79200
H  41.54700 8.31200 43.64400
H  43.45100 -0.57600 44.89700
H  42.25000 0.21000 45.98400
H  43.24700 -1.02000 46.66700
H  48.20900 -1.73800 46.56700
H  48.50000 0.03700 46.82400
H  48.37100 -0.67900 45.13300
H  49.75400 3.36300 44.29500
H  50.77500 5.46500 46.04400
H  50.42400 1.95400 45.83900
H  50.08800 2.95800 47.22000
H  51.54900 3.30200 46.18900
H  50.12200 7.07600 44.07300
H  49.42500 5.65000 43.31900
H  51.56600 4.72900 42.79900
H  52.29700 5.51800 44.22100
H  51.84100 6.40400 42.76400
H  47.79800 10.67500 47.56800
H  47.20500 11.36100 46.15200
H  48.56900 10.30500 45.93500
H  42.25800 9.37500 45.76700
H  39.50900 9.51200 49.03200
H  39.69300 11.20300 48.99200
H  40.69600 10.37400 50.04300
Mg 46.89200 16.72600 28.06700
C  45.82500 16.32500 31.24300
C  49.58800 18.60700 29.32900
C  48.13200 17.28000 24.93600
C  44.14200 14.96600 26.89100
N  47.50400 17.48300 30.05100
C  46.98100 17.06500 31.20300
C  47.81200 17.43200 32.42000
C  48.80700 18.37600 31.75400
C  48.60500 18.18800 30.28400
C  48.63600 19.88200 32.03700
C  48.40700 16.22500 33.18500
C  47.92900 16.17000 34.74700
H  47.98600 17.47600 35.60800
N  48.63500 17.83800 27.21800
C  49.60200 18.53900 27.93200
C  50.58700 19.05100 27.01400
C  50.14600 18.59200 25.69400
C  48.89200 17.92600 25.94200
C  51.72700 19.86700 27.41700
C  50.82900 18.78500 24.37100
O  50.31600 18.45500 23.30300
C  52.09700 19.49300 24.31600
N  46.26100 16.16100 26.22900
C  46.92600 16.50700 25.07500
C  46.10400 16.03300 23.83800
C  44.91000 15.25900 24.41500
C  45.11800 15.47000 25.92900
C  45.65000 17.21100 22.91500
C  44.71100 13.73600 23.98600
C  44.00900 13.48000 22.70100
N  45.20300 15.91900 28.88000
C  44.25800 15.08700 28.28100
C  43.32500 14.63700 29.29300
C  43.93800 15.01800 30.52600
C  45.09800 15.76100 30.16900
C  42.14700 13.76600 29.03600
C  43.84800 14.97200 31.97400
O  43.00800 14.43000 32.72400
C  45.06600 15.77500 32.39600
C  44.54900 16.90500 33.22800
O  44.23000 18.04700 32.81000
O  44.35100 16.51300 34.56000
C  43.46700 17.35900 35.38200
H  50.41000 19.14700 29.80200
H  48.37000 17.41200 23.87800
H  43.25000 14.53500 26.43100
H  47.24400 18.07000 33.09700
H  49.79800 18.04000 32.05900
H  49.55000 20.31100 31.62700
H  48.63300 20.10600 33.10400
H  47.71600 20.23000 31.56700
H  49.49300 16.30600 33.17300
H  48.04600 15.27000 32.80200
H  48.56400 15.41000 35.20300
H  46.89900 15.84000 34.87700
H  51.70100 20.80500 26.86100
H  52.57500 19.24100 27.13900
H  51.74100 20.10300 28.48100
H  52.02700 20.46700 24.80000
H  52.23400 19.64600 23.24600
H  52.88700 18.90200 24.77900
H  46.73600 15.41100 23.20600
H  44.00500 15.81700 24.17500
H  46.32600 17.23000 22.06000
H  45.48200 18.17000 23.40400
H  44.70200 16.92000 22.46300
H  44.08000 13.28200 24.75000
H  45.72900 13.34500 23.99700
H  43.10800 12.89400 22.88100
H  44.66900 12.91000 22.04600
H  43.75300 14.37800 22.13900
H  42.07900 13.60600 27.96000
H  41.27000 14.33000 29.35400
H  42.32300 12.79900 29.50700
H  45.67000 15.21500 33.11000
H  42.43200 17.04700 35.24600
H  43.60100 18.44100 35.35000
H  43.65500 17.15700 36.43700

