158

Mg 48.17400 35.13300 27.56800
C  46.22400 33.27900 29.82900
C  48.54400 37.50200 29.99900
C  49.71700 36.95600 25.21800
C  47.00600 32.94500 25.01600
N  47.48700 35.28900 29.61400
C  46.82200 34.36300 30.36300
C  46.94600 34.59700 31.83100
C  47.31900 36.14500 31.89800
C  47.85600 36.35700 30.40400
C  46.12100 37.13300 32.30000
C  48.06900 33.66500 32.35100
C  48.07800 33.38400 33.85000
H  47.20300 34.29900 34.79900
N  49.08800 36.95500 27.64800
C  49.17700 37.76600 28.75200
C  50.20400 38.76900 28.46000
C  50.63000 38.66000 27.10300
C  49.90200 37.44500 26.62700
C  50.67600 39.82600 29.55900
C  51.57600 39.46300 26.26500
O  51.79100 39.07300 25.09500
C  52.21100 40.66800 26.83800
N  48.24700 35.03500 25.36300
C  49.05200 35.90600 24.70600
C  48.96400 35.61500 23.21900
C  48.41900 34.10700 23.13000
C  47.83100 33.99400 24.59000
C  48.01800 36.58700 22.42700
C  49.39200 32.94300 22.75800
C  50.45400 32.43000 23.64000
N  46.99900 33.42700 27.36400
C  46.57800 32.65300 26.30200
C  45.56400 31.70400 26.67900
C  45.26300 31.99700 28.04700
C  46.24400 32.93800 28.43200
C  44.94500 30.65600 25.73500
C  44.43100 31.63400 29.26500
O  43.53400 30.83800 29.46600
C  45.13400 32.51600 30.48600
C  45.70200 31.34700 31.33700
O  46.45900 30.50000 30.84500
O  45.18200 31.35000 32.58000
C  45.74200 30.39000 33.51600
H  48.79500 38.10900 30.87100
H  50.07800 37.56000 24.38300
H  46.64400 32.20000 24.30500
H  46.06400 34.39000 32.43700
H  48.20300 36.29800 32.51700
H  46.29900 37.68100 33.22500
H  45.14000 36.66400 32.37900
H  46.05200 37.87400 31.50400
H  49.07600 34.03300 32.15500
H  47.84600 32.73400 31.82900
H  49.09700 33.46600 34.22800
H  47.72700 32.36700 34.02600
H  51.66000 39.53400 29.92500
H  49.96800 39.91800 30.38200
H  50.83900 40.78200 29.06100
H  53.02100 40.39700 27.51400
H  51.46500 41.30200 27.31700
H  52.72200 41.32600 26.13500
H  49.94500 35.55500 22.74800
H  47.57500 33.87500 22.48100
H  47.33400 36.95100 23.19400
H  47.59000 36.14600 21.52700
H  48.61400 37.44400 22.11300
H  49.83200 33.21900 21.80100
H  48.90800 32.01700 22.44600
H  51.29500 32.09700 23.03300
H  50.12500 31.56000 24.20800
H  50.72800 33.15200 24.41000
H  44.20800 29.99200 26.18600
H  45.65800 29.95100 25.30600
H  44.44700 31.24600 24.96500
H  44.38900 33.06300 31.06400
H  46.75400 30.11900 33.21600
H  45.05200 29.55300 33.62100
H  45.77900 30.96600 34.44000
Mg -4.06800 25.60500 25.93300
C  -2.73700 26.90000 28.91700
C  -6.18600 23.68500 27.76100
C  -4.70000 24.01200 23.18100
C  -1.42200 27.28800 24.22800
N  -4.42100 25.40100 28.11600
C  -3.81900 26.05300 29.09200
C  -4.60800 25.83000 30.39500
C  -5.45800 24.58300 30.08600
C  -5.40500 24.54000 28.55200
C  -4.98900 23.28300 30.72200
C  -5.54100 27.07500 30.64400
C  -5.97000 27.23600 32.15900
H  -5.53900 26.19400 33.21600
N  -5.37800 24.15100 25.48300
C  -6.21900 23.54300 26.34100
C  -7.08600 22.58800 25.63400
C  -6.74100 22.73200 24.22100
C  -5.55800 23.67200 24.24100
C  -8.19700 21.78800 26.22000
C  -7.26700 22.11000 22.90700
O  -6.97300 22.55800 21.83000
C  -8.50200 21.26900 23.03700
N  -3.19300 25.57800 23.96000
C  -3.61100 24.78000 23.04600
C  -2.84400 24.90000 21.75000
C  -1.87000 26.19400 22.02800
C  -2.15800 26.40300 23.51300
C  -2.17000 23.57700 21.24100
C  -2.26800 27.44100 21.10500
C  -1.17500 28.29300 20.51700
N  -2.50300 26.91800 26.39100
C  -1.59400 27.59500 25.58700
C  -0.75200 28.55600 26.36800
C  -1.19400 28.22700 27.69700
C  -2.22800 27.26100 27.65400
C  0.31100 29.47100 25.84800
C  -1.00300 28.59600 29.08700
O  -0.17000 29.34200 29.59700
C  -1.96000 27.73900 29.95800
C  -1.11600 26.87700 30.91800
O  -0.52000 25.83100 30.63400
O  -1.50600 27.24700 32.22600
C  -1.13600 26.28500 33.23200
H  -6.84200 23.00100 28.30400
H  -4.81300 23.42700 22.26600
H  -0.66600 27.93500 23.78000
H  -3.88700 25.66700 31.19500
H  -6.48400 24.77900 30.39700
H  -4.60100 23.47300 31.72300
H  -4.27300 22.82000 30.04200
H  -5.83400 22.60900 30.86000
H  -6.34800 27.02200 29.91300
H  -5.01700 28.01700 30.48400
H  -7.05600 27.30400 32.23100
H  -5.50400 28.20700 32.32900
H  -9.12200 22.21700 25.83400
H  -8.03400 21.80300 27.29700
H  -8.02900 20.73600 25.99000
H  -8.62200 20.75500 22.08300
H  -9.31000 21.96300 23.27200
H  -8.38900 20.48800 23.78900
H  -3.61200 25.10900 21.00500
H  -0.82900 25.88800 21.92700
H  -2.56100 23.32500 20.25500
H  -2.36800 22.85800 22.03700
H  -1.12100 23.78100 21.02900
H  -2.84600 28.22600 21.59200
H  -2.87500 27.08700 20.27200
H  -0.17300 27.90500 20.70100
H  -1.17200 29.28300 20.97400
H  -1.38900 28.35800 19.45000
H  0.72700 30.22300 26.51800
H  -0.10000 30.00700 24.99200
H  1.06100 28.73900 25.54800
H  -2.52800 28.45500 30.55200
H  -1.68900 25.35000 33.13600
H  -1.32100 26.65800 34.23900
H  -0.06300 26.09600 33.22000

