158

Mg 17.50300 -2.40600 27.89000
C  16.33300 -0.31600 30.45900
C  19.38100 -4.17300 30.11200
C  18.95300 -3.97600 25.16900
C  16.12000 -0.15900 25.64900
N  17.80100 -2.26000 30.06200
C  17.15900 -1.36000 30.91100
C  17.56500 -1.67000 32.33300
C  18.61500 -2.83500 32.22100
C  18.60900 -3.14500 30.70700
C  19.99800 -2.38300 32.72500
C  16.27300 -2.05100 33.13100
C  16.09400 -1.35500 34.52300
H  17.31700 -0.91700 35.30800
N  18.80100 -3.98600 27.68700
C  19.52000 -4.56100 28.74400
C  20.42100 -5.53100 28.25400
C  20.26300 -5.53300 26.80000
C  19.30700 -4.45600 26.49100
C  21.42400 -6.29600 29.19700
C  20.86600 -6.42000 25.75100
O  20.56900 -6.31500 24.57200
C  21.99200 -7.44000 26.14100
N  17.53200 -2.17800 25.69800
C  18.15000 -2.92500 24.81500
C  17.99100 -2.45900 23.33100
C  17.06500 -1.33800 23.59100
C  16.83200 -1.22600 25.09100
C  19.37000 -2.04300 22.61300
C  15.81700 -1.25300 22.68900
C  14.49200 -1.91300 23.16400
N  16.40400 -0.64600 28.01000
C  15.82400 0.05700 27.00700
C  14.85900 0.95500 27.53300
C  15.11100 0.91500 28.92500
C  16.03900 -0.08200 29.11800
C  13.94200 1.88500 26.85400
C  14.79300 1.58300 30.25400
O  14.14900 2.64200 30.46400
C  15.50500 0.74600 31.26100
C  16.40800 1.67800 31.99900
O  17.53800 2.06400 31.60800
O  15.74500 2.13900 33.10200
C  16.56100 3.06400 33.86000
H  20.03800 -4.70000 30.80700
H  19.34800 -4.32400 24.21200
H  15.56400 0.53100 25.01100
H  17.99600 -0.70800 32.60900
H  18.26600 -3.62500 32.88600
H  20.55700 -2.01000 31.86700
H  20.47200 -3.24700 33.19100
H  19.79400 -1.55000 33.39700
H  16.11600 -3.12700 33.21100
H  15.40900 -1.75200 32.53800
H  15.50300 -1.99000 35.18200
H  15.40000 -0.52700 34.37600
H  22.27600 -6.79700 28.73600
H  20.81200 -6.95600 29.81100
H  21.78000 -5.39800 29.70200
H  22.84400 -6.95400 26.61500
H  22.17100 -8.04000 25.24800
H  21.48900 -7.91700 26.98200
H  17.52100 -3.23800 22.73000
H  17.64600 -0.44500 23.35700
H  20.26900 -2.28100 23.18300
H  19.45700 -0.97800 22.39700
H  19.56600 -2.61500 21.70600
H  16.17100 -1.75100 21.78700
H  15.50200 -0.29000 22.28700
H  13.61200 -1.27100 23.19400
H  14.54000 -2.50000 24.08200
H  14.10200 -2.56500 22.38300
H  13.36200 2.17200 27.73100
H  13.29300 1.28200 26.21900
H  14.48500 2.75000 26.47500
H  14.75900 0.36900 31.96000
H  16.16800 3.35200 34.83500
H  16.61100 3.99200 33.29100
H  17.64300 2.92700 33.88300
Mg 26.66900 50.88300 27.29200
C  24.48600 51.74000 29.89800
C  28.88100 49.69200 29.76700
C  28.68100 49.96500 24.81800
C  24.16600 51.92500 25.00500
N  26.69200 50.84300 29.53100
C  25.62000 51.21100 30.36800
C  25.94300 50.77700 31.82200
C  27.46400 50.27600 31.79700
C  27.68600 50.29300 30.28500
C  28.43100 51.15700 32.63400
C  24.89400 49.75900 32.49500
C  24.12000 50.24500 33.73900
H  23.95200 49.24800 34.87200
N  28.55800 50.03400 27.26800
C  29.31500 49.61300 28.42100
C  30.60100 49.25400 27.91300
C  30.67700 49.34300 26.48500
C  29.26500 49.80400 26.09400
C  31.64200 48.76300 28.89200
C  31.81200 49.09400 25.51000
O  31.63200 49.05000 24.30300
C  33.20900 48.82600 26.10100
N  26.45400 51.10500 25.23100
C  27.50200 50.58000 24.37900
C  27.07000 50.62800 22.88400
C  25.63100 51.24000 22.98500
C  25.37100 51.40600 24.48800
C  27.94500 51.56500 22.05100
C  24.62700 50.22000 22.38800
C  23.81000 50.74300 21.19800
N  24.76200 51.77200 27.31300
C  23.84800 52.05100 26.33300
C  22.71600 52.66200 26.93000
C  22.87100 52.57600 28.29900
C  24.16300 52.05600 28.56300
C  21.51400 53.26700 26.19200
C  22.17200 52.73900 29.57000
O  21.09000 53.20600 29.95000
C  23.21500 52.23400 30.60700
C  23.54800 53.35600 31.43200
O  24.07200 54.39400 31.06000
O  23.09400 53.07300 32.75300
C  23.39700 53.94900 33.87700
H  29.44900 49.28000 30.60400
H  29.24100 49.55900 23.97400
H  23.29000 52.16000 24.39700
H  25.86400 51.66500 32.44900
H  27.55200 49.26800 32.20100
H  28.70500 50.62000 33.54200
H  27.89800 52.01700 33.03800
H  29.31400 51.58200 32.15700
H  25.28600 48.76500 32.71200
H  24.09600 49.62500 31.76500
H  23.14300 50.66600 33.50100
H  24.71100 51.03900 34.19600
H  32.42600 49.47800 29.14300
H  32.18700 47.97400 28.37500
H  31.18700 48.32400 29.78000
H  33.45500 49.27800 27.06200
H  33.80600 49.32300 25.33600
H  33.38800 47.75000 26.11100
H  27.12700 49.58300 22.57900
H  25.54200 52.25800 22.60700
H  28.59500 52.15600 22.69600
H  27.45100 52.12100 21.25400
H  28.62900 50.90300 21.52000
H  23.94500 49.81800 23.13700
H  25.12200 49.31600 22.03200
H  23.92900 51.80900 21.00400
H  22.73900 50.65200 21.37700
H  24.19900 50.23900 20.31300
H  20.73300 53.41900 26.93700
H  21.17100 52.49100 25.50800
H  21.70300 54.22500 25.70700
H  22.70200 51.40800 31.10000
H  23.95800 54.82700 33.55700
H  23.99600 53.36800 34.57800
H  22.47200 54.20200 34.39400

