158

Mg 26.43100 -1.55900 29.58300
C  28.49900 -1.41600 32.40300
C  23.68500 -1.27300 31.55400
C  24.37900 -1.73400 26.78200
C  29.20700 -2.34900 27.66900
N  26.11700 -1.50100 31.80900
C  27.10000 -1.26700 32.71400
C  26.55800 -0.83100 34.07000
C  24.98100 -0.82400 33.77200
C  24.90000 -1.30900 32.32500
C  24.12900 -1.72900 34.72400
C  27.00300 0.52600 34.66600
C  27.86200 0.40600 35.89100
H  27.66500 1.38800 37.02300
N  24.31900 -1.53300 29.20200
C  23.34900 -1.32700 30.21500
C  22.06200 -1.29600 29.60100
C  22.25200 -1.32000 28.20300
C  23.63400 -1.60800 28.00100
C  20.78000 -1.32000 30.39600
C  21.18600 -1.23400 27.03900
O  21.41500 -1.48500 25.84300
C  19.75500 -0.96700 27.39200
N  26.74100 -1.88500 27.60600
C  25.69500 -1.98000 26.62400
C  26.36000 -2.11500 25.18900
C  27.85200 -2.25400 25.50700
C  27.95200 -2.13300 27.02800
C  25.72600 -3.31700 24.35400
C  28.82300 -1.34300 24.67500
C  29.00200 0.14400 25.18100
N  28.44200 -1.82300 29.92500
C  29.46800 -2.13900 29.07400
C  30.73400 -2.17900 29.79500
C  30.33100 -1.82500 31.08500
C  28.98000 -1.66200 31.12800
C  32.03500 -2.46700 29.18500
C  30.89400 -1.75000 32.36600
O  32.02600 -1.88400 32.81500
C  29.68400 -1.44800 33.34900
C  29.66200 -2.42300 34.49000
O  29.11000 -3.51200 34.50200
O  30.22000 -1.88500 35.60600
C  30.21900 -2.78600 36.77100
H  22.79300 -1.04600 32.14200
H  23.78800 -1.88800 25.87700
H  30.02100 -2.54700 26.96900
H  26.82400 -1.67000 34.71300
H  24.66900 0.21900 33.72600
H  23.26600 -1.12300 34.99800
H  24.64800 -2.12400 35.59800
H  23.70800 -2.55200 34.14500
H  26.11000 1.14500 34.75600
H  27.69500 0.90800 33.91600
H  28.90700 0.53100 35.60600
H  27.72400 -0.57600 36.34300
H  20.37800 -0.30900 30.46100
H  20.98200 -1.56900 31.43700
H  20.16000 -2.05900 29.88900
H  19.23700 -1.89000 27.65200
H  19.17500 -0.59800 26.54600
H  19.77500 -0.20600 28.17200
H  26.13500 -1.14700 24.74100
H  28.21400 -3.27600 25.39900
H  26.39800 -4.17500 24.38200
H  25.67800 -3.14400 23.27900
H  24.72300 -3.64800 24.62400
H  28.42600 -1.20700 23.67000
H  29.82800 -1.72100 24.48700
H  30.06700 0.37300 25.19000
H  28.67400 0.22600 26.21700
H  28.51300 0.84000 24.49900
H  31.81800 -2.60600 28.12600
H  32.53900 -3.27000 29.72300
H  32.49200 -1.49700 29.38000
H  29.79300 -0.47900 33.83600
H  29.21400 -3.04700 37.10200
H  30.76400 -2.23800 37.53900
H  30.76200 -3.69400 36.50800
Mg 41.18900 6.81900 29.50400
C  42.91300 8.44000 32.29000
C  38.92300 5.68400 31.76900
C  39.75100 5.53800 26.92200
C  43.86700 7.91200 27.50100
N  40.99900 7.06800 31.83300
C  41.78500 7.70600 32.72300
C  41.22100 7.48000 34.19200
C  40.05400 6.47500 33.94100
C  39.99100 6.35200 32.42400
C  40.21300 5.02600 34.50100
C  40.78400 8.83600 34.76900
C  40.56700 8.90700 36.23100
H  41.18600 10.07600 37.07200
N  39.48800 5.84700 29.34900
C  38.63200 5.50900 30.41300
C  37.48900 4.84500 29.84800
C  37.64600 4.90600 28.44200
C  39.02200 5.44100 28.17000
C  36.41100 4.29500 30.69700
C  36.55200 4.49100 27.36700
O  36.72900 4.53100 26.15400
C  35.14700 4.22100 27.74900
N  41.73400 6.73700 27.48300
C  40.92200 6.17000 26.57100
C  41.54200 6.20300 25.16900
C  42.73600 7.09100 25.38300
C  42.82400 7.25500 26.88600
C  41.88800 4.73900 24.55300
C  42.69300 8.51400 24.66400
C  41.73800 9.65500 25.18000
N  43.12300 7.82900 29.80500
C  44.02100 8.25800 28.85400
C  45.15900 8.97600 29.51400
C  44.71400 9.07800 30.83000
C  43.47300 8.37900 30.99400
C  46.50100 9.42500 28.88600
C  45.14200 9.55400 32.15100
O  46.15400 10.18600 32.48000
C  43.94700 9.19500 33.12100
C  44.48300 8.43500 34.29300
O  45.26100 7.51300 34.14900
O  43.89200 8.81600 35.52000
C  44.25900 7.99800 36.67100
H  38.16200 5.41000 32.50300
H  39.19100 5.15900 26.06400
H  44.53800 8.19100 26.68600
H  41.99400 7.12700 34.87400
H  39.18500 6.92400 34.42200
H  39.89500 4.18200 33.88900
H  39.59300 4.92700 35.39200
H  41.24000 4.84200 34.81600
H  39.82600 9.12800 34.34100
H  41.41800 9.62900 34.37300
H  40.92200 8.04500 36.79700
H  39.48000 8.93200 36.30900
H  35.54500 4.93500 30.53300
H  36.67400 4.42100 31.74700
H  36.17900 3.23500 30.58600
H  34.60900 5.12200 28.04500
H  35.41400 3.43900 28.46100
H  34.65900 3.82600 26.85900
H  40.76200 6.71800 24.60900
H  43.65300 6.58100 25.08600
H  41.57600 4.66600 23.51200
H  41.32800 3.93800 25.03500
H  42.94800 4.53300 24.70500
H  42.56400 8.46200 23.58300
H  43.73800 8.82100 24.60900
H  42.35700 10.39200 25.69200
H  41.00500 9.29100 25.90100
H  41.16300 10.10000 24.36800
H  46.86500 8.53500 28.37300
H  47.14100 9.58000 29.75500
H  46.46900 10.32700 28.27500
H  43.54900 10.11800 33.54100
H  43.79500 7.04300 36.42700
H  43.73000 8.40500 37.53200
H  45.34400 7.97600 36.77700

