158

Mg 47.59400 25.33200 29.51600
C  48.37400 27.74800 31.90200
C  46.07800 23.46700 32.05800
C  47.15500 22.90900 27.26900
C  49.34300 27.22500 27.05000
N  47.28100 25.54000 31.79200
C  47.73400 26.65400 32.48400
C  47.33000 26.45400 34.05500
C  46.87600 24.88500 34.04000
C  46.75000 24.59400 32.56600
C  47.88500 23.90000 34.69800
C  46.37800 27.52500 34.48000
C  46.35800 27.91800 35.93200
H  47.21500 27.18500 36.97100
N  46.71400 23.50800 29.63500
C  46.06800 22.91400 30.71300
C  45.49700 21.65600 30.30900
C  45.79500 21.52200 28.86600
C  46.64100 22.64000 28.54600
C  44.70600 20.74700 31.13300
C  45.28600 20.52900 27.82800
O  45.35200 20.66300 26.58900
C  44.59400 19.29900 28.42600
N  48.10800 25.15000 27.45900
C  47.78300 24.05800 26.74500
C  48.35200 24.09600 25.33200
C  48.81600 25.60700 25.23000
C  48.74900 26.05900 26.65500
C  49.51100 23.18200 25.11200
C  47.94000 26.49100 24.25400
C  48.65200 26.96400 22.95300
N  48.61500 27.05800 29.36800
C  49.24800 27.71300 28.34400
C  49.62900 29.05600 28.78500
C  49.28700 29.16400 30.16300
C  48.74500 27.87400 30.48200
C  50.22500 30.09000 27.81200
C  49.29300 30.04200 31.32500
O  49.65000 31.17400 31.50800
C  48.83300 29.09300 32.44200
C  49.96100 28.89800 33.40700
O  51.07300 28.63300 33.01900
O  49.48300 29.01500 34.69600
C  50.52300 28.68400 35.63000
H  45.57300 22.91100 32.85100
H  47.22100 22.06600 26.57900
H  49.87700 27.83600 26.32000
H  48.29000 26.67000 34.52400
H  45.86400 24.72900 34.41400
H  48.31100 23.27000 33.91700
H  47.33500 23.22000 35.34900
H  48.57100 24.54500 35.24700
H  45.45600 26.94500 34.43700
H  46.13700 28.34500 33.80400
H  45.30200 27.94400 36.19900
H  46.62000 28.97600 35.90200
H  45.01400 19.70200 31.15200
H  43.63100 20.74800 30.95500
H  44.76600 21.15500 32.14200
H  45.14500 18.76300 29.19800
H  44.33500 18.63000 27.60500
H  43.68600 19.74600 28.83200
H  47.54600 23.72500 24.69800
H  49.85000 25.71700 24.90400
H  50.24700 23.49700 24.37300
H  48.98700 22.36900 24.60900
H  49.94800 22.76200 26.01800
H  47.59200 27.39600 24.75100
H  47.08600 25.91200 23.90400
H  48.18600 26.39000 22.15200
H  49.72000 26.74900 22.95000
H  48.37000 28.00100 22.77000
H  51.31400 30.10400 27.77400
H  49.96100 31.07700 28.19300
H  49.83400 29.88600 26.81500
H  47.97900 29.50600 32.98000
H  50.82400 27.65500 35.43100
H  50.19300 28.69900 36.66900
H  51.37600 29.36300 35.63700
Mg 49.26100 46.14400 42.65300
C  45.74300 46.23500 41.66100
C  49.41300 42.95300 41.51200
C  52.55200 46.30300 42.94100
C  48.96700 49.60000 43.13100
N  47.72600 44.76000 41.77400
C  46.40900 44.95900 41.50100
C  45.82900 43.59600 41.04600
C  46.97500 42.56200 41.11500
C  48.11900 43.45600 41.60300
C  46.84600 41.39700 42.14200
C  44.89600 43.52300 39.76000
C  45.57800 43.82900 38.34800
H  45.50500 42.65400 37.35300
N  50.77500 44.70700 42.44200
C  50.64500 43.42300 42.02300
C  51.90400 42.77500 41.93900
C  52.86600 43.69600 42.36700
C  52.05800 44.97600 42.67300
C  51.93200 41.28000 41.55000
C  54.33600 43.50400 42.40100
O  54.78400 42.38400 42.22400
C  55.27400 44.55600 42.66900
N  50.55100 47.78800 43.02700
C  51.90200 47.59800 43.07300
C  52.61800 49.00600 43.16500
C  51.41700 50.01400 43.04000
C  50.24600 49.06800 43.13400
C  53.46200 49.19100 44.41300
C  51.46900 50.79400 41.70500
C  51.47300 52.32600 41.79100
N  47.61700 47.61500 42.67300
C  47.69200 48.97900 42.88900
C  46.37400 49.59700 42.76000
C  45.56300 48.51500 42.35800
C  46.38400 47.38000 42.30000
C  45.93800 51.07100 42.91600
C  44.24400 48.17400 41.93800
O  43.25800 48.81800 41.90900
C  44.30700 46.70200 41.37500
C  43.32900 45.82900 42.18000
O  42.38200 45.15400 41.67400
O  43.66300 45.78800 43.48000
C  42.83800 44.92700 44.41900
H  49.49600 41.93200 41.13300
H  53.60100 46.60300 42.97700
H  48.79900 50.65100 43.37800
H  45.14400 43.46700 41.88400
H  47.26700 42.31000 40.09500
H  45.85900 41.33000 42.60000
H  47.45900 41.56100 43.02800
H  47.06100 40.43800 41.67000
H  44.11600 44.26500 39.93000
H  44.42500 42.54100 39.78400
H  46.58700 44.22200 38.47300
H  45.01000 44.65200 37.91600
H  52.38600 41.30100 40.55900
H  51.01500 40.73100 41.33500
H  52.45400 40.73400 42.33400
H  55.01000 45.34400 41.96300
H  56.25300 44.16000 42.40400
H  55.11000 44.93100 43.68000
H  53.27900 49.02700 42.29800
H  51.29200 50.65900 43.90900
H  54.51400 49.06800 44.15300
H  53.09400 48.51500 45.18400
H  53.42900 50.16700 44.89700
H  50.55900 50.55600 41.15400
H  52.30700 50.43100 41.11000
H  50.58900 52.76400 41.32800
H  52.27400 52.65300 41.12900
H  51.67600 52.60800 42.82400
H  45.23200 51.39300 42.15100
H  46.82400 51.69800 43.01400
H  45.43700 51.17700 43.87900
H  44.00200 46.58400 40.33500
H  43.12300 45.11600 45.45400
H  42.81000 43.84900 44.26100
H  41.78600 45.15300 44.24100

