158

Mg 36.17800 48.42100 26.55300
C  36.40600 46.26900 29.40200
C  34.47400 50.68400 28.48300
C  35.46800 50.11500 23.69200
C  37.09600 45.62200 24.62300
N  35.36300 48.31600 28.61500
C  35.64600 47.46800 29.67900
C  35.36700 48.14500 31.06100
C  34.46800 49.39000 30.62500
C  34.76400 49.50500 29.12300
C  32.92700 49.24700 30.97200
C  36.74900 48.54700 31.78300
C  36.78500 48.33400 33.28900
H  36.52200 49.55600 34.12900
N  35.31100 50.25100 26.16700
C  34.64000 50.98100 27.11800
C  34.12000 52.16700 26.39500
C  34.39800 51.97500 25.05300
C  35.09300 50.73100 24.94300
C  33.45800 53.35600 27.12500
C  34.04000 52.92900 23.80600
O  34.28600 52.63900 22.64200
C  33.23000 54.16300 23.98200
N  36.27700 47.92400 24.39200
C  35.98100 48.85600 23.44600
C  36.05500 48.19600 22.05100
C  36.92900 46.88100 22.36700
C  36.79600 46.77400 23.92200
C  34.64700 47.95700 21.44900
C  38.36900 46.80500 21.80200
C  38.55800 45.84300 20.70500
N  36.76500 46.43000 26.82400
C  37.14800 45.35100 25.96000
C  37.51900 44.19900 26.62200
C  37.37700 44.50200 27.98600
C  36.85600 45.86200 28.09000
C  37.97600 42.91600 26.10200
C  37.51600 44.04200 29.37800
O  37.84700 42.94300 29.68500
C  37.07000 45.23900 30.31800
C  36.12300 44.72200 31.34100
O  34.95300 44.47000 31.10600
O  36.65400 44.73600 32.64700
C  35.55900 44.50100 33.66000
H  33.97500 51.44000 29.09200
H  35.06200 50.49000 22.75000
H  37.45300 44.82300 23.96900
H  34.76400 47.40100 31.58200
H  34.79900 50.28800 31.14500
H  32.70700 48.23800 31.32200
H  32.39500 49.38600 30.03100
H  32.57200 49.97600 31.70100
H  37.05100 49.57000 31.56200
H  37.49700 47.91700 31.30100
H  37.74500 47.88900 33.55300
H  36.06300 47.59200 33.63100
H  33.91100 54.31200 26.86200
H  33.49800 53.23400 28.20800
H  32.41200 53.31900 26.82200
H  32.36600 53.93300 24.60500
H  32.91200 54.57600 23.02500
H  33.75000 54.94200 24.53800
H  36.65400 48.79200 21.36200
H  36.45500 45.94000 22.08400
H  34.55500 48.26300 20.40700
H  33.93000 48.50700 22.05800
H  34.36500 46.90400 21.43200
H  39.16200 46.55200 22.50600
H  38.68400 47.79400 21.46900
H  39.59400 45.50700 20.76400
H  38.47600 46.35800 19.74800
H  37.89900 44.98300 20.82800
H  38.66600 42.36200 26.73700
H  38.46700 43.04900 25.13800
H  37.09500 42.27700 26.03900
H  38.00600 45.68600 30.65400
H  34.68600 45.13900 33.80000
H  36.03500 44.31400 34.62300
H  35.06000 43.55800 33.43600
Mg -10.79000 17.46000 41.83300
C  -7.25500 16.83800 41.75500
C  -10.08000 20.73900 40.99300
C  -13.93700 17.63500 40.79700
C  -11.06000 13.87000 41.87100
N  -8.86900 18.64100 41.43400
C  -7.58600 18.20900 41.52900
C  -6.65100 19.27800 40.98500
C  -7.46000 20.53300 41.33400
C  -8.91500 20.00600 41.33900
C  -7.00000 21.31300 42.61300
C  -6.42700 19.11100 39.38300
C  -5.00300 18.71800 39.03900
H  -4.92200 17.46400 38.19400
N  -11.91500 18.97100 41.06900
C  -11.47600 20.26200 40.81500
C  -12.62900 21.02000 40.31100
C  -13.76300 20.14900 40.23200
C  -13.22700 18.84000 40.75100
C  -12.44800 22.48100 39.79700
C  -15.10600 20.56000 39.76400
O  -15.36800 21.73500 39.62800
C  -16.24700 19.64200 39.67200
N  -12.24400 15.91200 41.10900
C  -13.52100 16.31300 40.90600
C  -14.47800 15.07600 40.90200
C  -13.45200 13.89000 41.03100
C  -12.15800 14.60300 41.37400
C  -15.49200 15.20300 42.01000
C  -13.32300 13.07200 39.69000
C  -13.66400 11.57300 39.75400
N  -9.45600 15.75400 41.97700
C  -9.75700 14.35100 42.09400
C  -8.56400 13.55000 42.34700
C  -7.54100 14.49900 42.26900
C  -8.13300 15.81200 41.97400
C  -8.44800 12.10300 42.74600
C  -6.12600 14.68700 42.29000
O  -5.25800 13.86300 42.37900
C  -5.87300 16.26600 41.93900
C  -5.09300 16.88800 43.01600
O  -5.45600 17.78000 43.81100
O  -3.80300 16.42100 42.89500
C  -3.01200 16.68300 44.06600
H  -9.92700 21.80800 40.83000
H  -15.02400 17.58800 40.70300
H  -11.22700 12.79300 41.94500
H  -5.67900 19.27500 41.47800
H  -7.44000 21.23600 40.50100
H  -6.20100 20.76400 43.11100
H  -7.86400 21.34300 43.27700
H  -6.66300 22.31500 42.34700
H  -6.70700 20.05700 38.91800
H  -7.05800 18.27100 39.09200
H  -4.41300 18.54400 39.93800
H  -4.59200 19.56900 38.49600
H  -11.42500 22.85700 39.79800
H  -13.05100 23.00800 40.53700
H  -12.70800 22.39200 38.74200
H  -16.58300 19.27200 40.64100
H  -15.90600 18.83400 39.02500
H  -17.03700 20.08600 39.06700
H  -15.16400 15.14000 40.05700
H  -13.63900 13.09400 41.75200
H  -15.18100 14.66600 42.90600
H  -16.38500 14.65000 41.72000
H  -15.83700 16.18600 42.32900
H  -12.24400 13.11900 39.54300
H  -13.95400 13.45400 38.88600
H  -12.86700 10.94200 40.14600
H  -13.76800 11.19600 38.73600
H  -14.57100 11.29700 40.29100
H  -9.35600 11.50500 42.83300
H  -7.91400 12.01100 43.69100
H  -7.85700 11.64200 41.95500
H  -5.21900 16.22800 41.06800
H  -3.63000 16.51500 44.94800
H  -2.68300 17.72100 44.01300
H  -2.14800 16.02200 43.99600

