158

Mg 41.83700 7.57100 29.23600
C  43.50800 9.17400 31.77900
C  39.64200 6.22500 31.55600
C  40.35500 5.91100 26.72300
C  44.14300 8.82400 26.96300
N  41.72000 7.69300 31.46300
C  42.41700 8.48800 32.27200
C  41.86500 8.42900 33.70800
C  40.81000 7.25200 33.62500
C  40.71300 6.99200 32.14200
C  41.11900 5.99500 34.49800
C  41.34500 9.81500 34.03700
C  40.48200 10.00900 35.28500
H  40.98800 11.01300 36.37300
N  40.19500 6.26500 29.16700
C  39.36700 5.87900 30.23100
C  38.31000 4.98900 29.75700
C  38.48500 4.87700 28.38500
C  39.74700 5.71300 28.05000
C  37.33200 4.32300 30.58200
C  37.57800 4.29600 27.33200
O  37.94100 4.18900 26.12100
C  36.24800 3.66900 27.71300
N  42.24200 7.27600 27.11900
C  41.53000 6.62000 26.31700
C  42.08000 6.54300 24.88000
C  42.97900 7.82900 24.86300
C  43.17000 8.01100 26.38000
C  42.88600 5.18100 24.62800
C  42.41800 9.05300 24.07400
C  41.31200 9.84100 24.69300
N  43.53100 8.78200 29.35100
C  44.36500 9.09400 28.35300
C  45.40400 9.87000 28.93400
C  45.12400 10.02100 30.35000
C  43.95200 9.26000 30.48600
C  46.58400 10.38900 28.19700
C  45.51900 10.58900 31.58500
O  46.45200 11.35000 31.90600
C  44.49700 10.12400 32.59400
C  45.33500 9.42400 33.64200
O  45.98200 8.35000 33.54800
O  45.25400 10.11500 34.83500
C  45.98000 9.41800 36.01600
H  38.86400 5.88500 32.24200
H  39.91000 5.45300 25.83700
H  44.86800 9.31100 26.30800
H  42.59200 8.20000 34.48700
H  39.81000 7.61800 33.86000
H  40.31300 5.73500 35.18500
H  42.04800 6.20000 35.03000
H  41.38300 5.14800 33.86500
H  40.82100 10.11500 33.12900
H  42.17900 10.47900 34.26500
H  40.39100 9.03600 35.76700
H  39.54100 10.34900 34.85200
H  36.29700 4.66200 30.63100
H  37.62500 4.38000 31.63000
H  37.24700 3.25800 30.36500
H  35.76000 3.40500 26.77500
H  35.65300 4.34000 28.33200
H  36.34000 2.75400 28.29700
H  41.30600 6.62700 24.11600
H  43.85600 7.56800 24.27200
H  42.49200 4.80900 23.68300
H  42.70800 4.39400 25.36200
H  43.96700 5.28100 24.52700
H  42.11700 8.69500 23.09000
H  43.23800 9.74300 23.87500
H  40.71400 9.26000 25.39500
H  40.71100 10.31000 23.91400
H  41.72700 10.67800 25.25500
H  46.45700 10.40800 27.11500
H  47.36700 9.63900 28.30800
H  47.08900 11.25100 28.63200
H  44.15500 11.06000 33.03600
H  47.05200 9.57100 35.88700
H  45.79900 8.34500 36.09100
H  45.64000 9.81400 36.97300
Mg 34.04900 48.50100 25.33200
C  34.42300 47.17300 28.64600
C  32.71500 51.42500 26.81600
C  33.53200 49.74100 22.21600
C  35.24300 45.61300 24.03800
N  33.61000 49.20300 27.43400
C  33.89900 48.50800 28.55600
C  33.70800 49.34300 29.84700
C  33.07400 50.70000 29.27800
C  33.15400 50.47900 27.75900
C  31.66100 50.97800 29.76500
C  35.07200 49.57400 30.62400
C  35.00900 49.43900 32.16000
H  33.59300 49.42300 32.84000
N  33.16200 50.32700 24.64600
C  32.67700 51.33200 25.43900
C  32.24300 52.39000 24.54000
C  32.46500 51.98700 23.18700
C  33.08500 50.59100 23.25600
C  31.78300 53.73400 25.16000
C  32.15800 52.69900 21.94600
O  32.25600 52.25400 20.81800
C  31.71500 54.08900 22.00200
N  34.21300 47.71000 23.38500
C  34.13700 48.48800 22.28400
C  34.60700 47.75800 21.02100
C  35.15300 46.42200 21.56700
C  34.89200 46.60600 23.13100
C  33.56500 47.43600 19.95600
C  36.61500 46.14200 21.21500
C  37.66600 46.91600 22.06500
N  34.67200 46.72200 26.09300
C  35.11000 45.61000 25.44600
C  35.49300 44.61600 26.39500
C  35.16600 45.15200 27.62300
C  34.73600 46.47900 27.42000
C  36.05700 43.21700 26.04000
C  35.17800 44.81300 29.05800
O  35.41200 43.72700 29.56500
C  34.70800 46.14000 29.74900
C  33.54000 45.67100 30.56400
O  32.39900 45.61000 30.16700
O  33.88300 45.22400 31.79600
C  32.83500 45.11800 32.86000
H  32.33600 52.29000 27.36500
H  33.46600 50.27100 21.26400
H  35.69800 44.64500 23.82000
H  32.89300 48.80800 30.33400
H  33.65500 51.60300 29.46300
H  31.59500 52.06000 29.87600
H  31.39100 50.53500 30.72300
H  30.92500 50.86400 28.96900
H  35.47900 50.58100 30.53200
H  35.74500 48.85700 30.15500
H  35.56600 50.26300 32.60500
H  35.46700 48.47100 32.36200
H  32.47300 54.49800 24.80100
H  31.80000 53.74800 26.25000
H  30.83000 54.16000 24.84600
H  30.67000 54.23000 22.27800
H  31.66200 54.61700 21.05000
H  32.36600 54.72800 22.59900
H  35.35100 48.35300 20.49100
H  34.56700 45.54200 21.30200
H  33.29800 48.39900 19.52200
H  32.68000 46.87500 20.25600
H  34.06300 46.83000 19.20000
H  36.66300 46.46700 20.17500
H  36.73400 45.06000 21.27600
H  37.20700 47.52700 22.84200
H  38.04700 47.61700 21.32200
H  38.47900 46.33100 22.49500
H  36.81500 43.00500 26.79400
H  36.60900 43.10500 25.10700
H  35.34800 42.38900 26.00800
H  35.49800 46.42000 30.44500
H  32.04600 45.82600 32.60700
H  33.20500 45.37600 33.85300
H  32.36900 44.13400 32.81500

