158

Mg -2.23200 17.87400 27.34500
C  -2.61500 15.56900 30.17200
C  -2.33300 20.25300 29.61300
C  -2.24600 19.78800 24.80200
C  -2.96100 15.01300 25.26700
N  -2.62000 17.88500 29.62600
C  -2.52900 16.90700 30.59100
C  -2.52500 17.48900 32.03300
C  -2.83800 18.96500 31.71100
C  -2.63600 19.04600 30.17000
C  -4.19800 19.53300 32.03700
C  -1.20800 17.19900 32.83100
C  -0.87300 18.11300 34.02600
H  -0.60300 17.43700 35.35200
N  -2.09500 19.78100 27.26200
C  -2.07500 20.64300 28.27300
C  -1.84000 21.93200 27.68700
C  -1.62300 21.78500 26.26200
C  -2.01700 20.39100 26.08000
C  -1.95300 23.21000 28.51500
C  -1.31900 22.80100 25.20700
O  -1.22200 22.55900 24.01900
C  -0.99800 24.23300 25.66600
N  -2.46900 17.40100 25.36500
C  -2.50600 18.46100 24.48300
C  -2.83100 17.94800 23.02800
C  -2.98900 16.48200 23.24600
C  -2.78000 16.29900 24.71700
C  -3.92400 18.69800 22.41100
C  -2.12300 15.59100 22.32700
C  -0.65000 15.43200 22.67200
N  -2.67300 15.68900 27.56600
C  -2.94100 14.70900 26.65700
C  -2.90700 13.43200 27.28600
C  -2.91600 13.72300 28.64400
C  -2.77000 15.12000 28.83600
C  -2.80800 12.11400 26.65400
C  -2.90000 13.15800 29.98800
O  -2.89700 11.92200 30.25900
C  -2.81100 14.38900 30.99500
C  -1.70000 14.07100 31.91800
O  -0.51400 14.18400 31.72700
O  -2.29800 13.45700 33.07800
C  -1.34600 13.32600 34.19000
H  -2.11100 21.11500 30.24600
H  -2.24800 20.56300 24.03300
H  -3.21900 14.14400 24.65800
H  -3.32900 16.94700 32.53000
H  -2.30100 19.75500 32.23600
H  -4.91800 19.61100 31.22200
H  -4.24600 20.40600 32.68800
H  -4.63900 18.74100 32.64200
H  -0.37700 17.21600 32.12600
H  -1.47400 16.23900 33.27400
H  -1.74600 18.75600 34.14200
H  -0.01000 18.73700 33.79300
H  -2.29300 23.05000 29.53800
H  -2.57100 23.93400 27.98400
H  -1.02200 23.77500 28.46800
H  -0.34100 24.19500 26.53500
H  -1.95200 24.74600 25.78900
H  -0.57200 24.74500 24.80300
H  -1.94900 18.12600 22.41300
H  -4.03100 16.16600 23.19200
H  -3.71000 19.76700 22.41200
H  -4.97000 18.56000 22.68400
H  -3.92500 18.59600 21.32600
H  -2.13300 15.99200 21.31300
H  -2.69000 14.66200 22.27400
H  -0.42000 15.83300 23.65900
H  -0.06800 15.95000 21.91000
H  -0.27000 14.41200 22.71900
H  -2.20500 11.50300 27.32600
H  -2.37600 12.15500 25.65400
H  -3.82000 11.73800 26.50200
H  -3.81700 14.51900 31.39500
H  -1.89800 13.37300 35.12800
H  -0.63900 14.15600 34.18000
H  -0.89100 12.34700 34.03900
Mg 53.62700 24.36100 43.86700
C  50.98100 26.52800 43.48100
C  51.72900 21.70600 42.95700
C  56.47500 22.49700 43.34600
C  55.63200 27.15100 44.46200
N  51.63400 24.19000 43.25300
C  50.61600 25.17600 43.27800
C  49.30400 24.52100 42.95900
C  49.54900 22.96900 43.07500
C  51.08000 22.92500 43.10900
C  48.85100 22.29000 44.23000
C  48.60500 25.10900 41.60300
C  49.52900 25.24600 40.37800
H  49.31100 24.28900 39.22700
N  54.00000 22.28700 43.46400
C  53.05400 21.36400 43.22000
C  53.64900 20.07900 43.14100
C  55.06600 20.26500 43.19300
C  55.25100 21.71300 43.34700
C  52.73800 18.82900 42.95900
C  56.03600 19.11900 43.02700
O  55.64700 17.97400 42.73900
C  57.53000 19.44000 43.04700
N  55.76700 24.81600 43.86500
C  56.66900 23.87900 43.52200
C  58.12600 24.55800 43.48300
C  57.82100 26.01800 44.06400
C  56.28600 26.03400 44.11500
C  59.19200 23.77600 44.36700
C  58.38400 27.19800 43.25200
C  59.45500 28.06700 44.06600
N  53.35500 26.42600 44.01100
C  54.19200 27.39600 44.37600
C  53.54100 28.72700 44.56900
C  52.25600 28.42100 44.21800
C  52.18100 27.04800 43.84500
C  54.18000 29.98200 45.09400
C  50.85400 28.85900 44.19400
O  50.42000 29.95400 44.60500
C  50.00300 27.70500 43.60000
C  49.75300 28.25000 42.20000
O  50.60600 28.59800 41.38900
O  48.37300 28.46800 41.98300
C  48.10200 29.34600 40.80800
H  50.98900 20.91400 42.82700
H  57.40100 22.00500 43.03800
H  56.17700 28.05700 44.73600
H  48.58700 24.96200 43.65100
H  49.13600 22.57800 42.14600
H  49.56600 21.78500 44.87900
H  48.27600 21.52600 43.70900
H  48.12500 22.80600 44.85900
H  48.16000 26.08500 41.79700
H  47.90900 24.32500 41.30300
H  50.54300 25.07600 40.73900
H  49.46700 26.23900 39.93300
H  51.75800 18.95600 43.41900
H  52.98900 17.94100 43.53800
H  52.73500 18.40800 41.95300
H  58.04500 18.51200 42.79800
H  57.75900 19.60700 44.09900
H  57.71700 20.16500 42.25500
H  58.40100 24.50200 42.43000
H  58.10500 26.08900 45.11400
H  60.10200 23.63300 43.78500
H  58.82200 22.75900 44.50200
H  59.57500 24.27600 45.25600
H  57.57500 27.84200 42.90500
H  58.97700 26.78300 42.43700
H  60.38400 28.16700 43.50500
H  59.77200 27.63300 45.01400
H  58.98400 29.05000 44.02800
H  55.05500 30.25400 44.50400
H  54.44500 29.77500 46.13100
H  53.42700 30.76900 45.14500
H  49.04800 27.63900 44.12000
H  48.68500 30.26700 40.79100
H  47.10300 29.77400 40.88500
H  48.12400 28.84400 39.84100

