158

Mg 5.53600 53.66200 41.31100
C  5.17800 50.12000 40.95700
C  8.79300 53.25800 40.28300
C  5.55100 56.76400 40.95600
C  1.98400 53.59500 41.94300
N  6.79000 51.92800 40.76100
C  6.52200 50.60500 40.59400
C  7.61900 49.80500 39.84700
C  8.81700 50.71900 40.09500
C  8.13500 52.07300 40.43400
C  9.85800 50.27300 41.15000
C  7.33600 49.45900 38.34900
C  6.51700 50.43500 37.48300
H  7.39700 51.22500 36.42600
N  7.03100 54.87500 40.77000
C  8.29100 54.55500 40.34800
C  9.00300 55.70900 40.01400
C  8.07900 56.85400 40.16100
C  6.80600 56.19800 40.61100
C  10.41700 55.62800 39.42800
C  8.40700 58.33600 39.75300
O  9.54500 58.67100 39.55600
C  7.33500 59.30100 39.68600
N  3.94600 54.93900 41.21900
C  4.27200 56.27800 41.20900
C  3.12200 57.20000 41.60100
C  1.94700 56.15600 41.75000
C  2.61500 54.78500 41.63200
C  3.27200 58.18900 42.84300
C  0.86600 56.38600 40.67400
C  -0.51500 56.01800 41.29600
N  3.94600 52.18800 41.57400
C  2.60100 52.37400 41.88300
C  2.05700 51.03200 42.17600
C  3.00800 50.19900 41.78900
C  4.14200 50.89800 41.34100
C  0.71900 50.66300 42.69600
C  3.25900 48.79900 41.57600
O  2.50000 47.82800 41.76700
C  4.70400 48.70300 41.09300
C  4.59200 47.92500 39.87600
O  3.81100 48.28000 38.95000
O  5.11800 46.62600 39.93200
C  4.68400 45.74300 38.81200
H  9.86800 53.25400 40.08800
H  5.56800 57.85400 40.90200
H  0.96300 53.86800 42.21800
H  7.79100 48.84400 40.33200
H  9.42900 50.87800 39.20700
H  9.36100 50.34700 42.11700
H  10.75600 50.88100 41.03800
H  10.08300 49.22500 40.95300
H  6.76800 48.53300 38.44900
H  8.30200 49.24300 37.89300
H  5.86400 51.16500 37.96000
H  5.88200 49.72000 36.95900
H  10.44400 55.59500 38.33900
H  10.98300 54.78100 39.81700
H  10.94300 56.53000 39.74100
H  7.76600 60.12400 39.11500
H  7.07500 59.63000 40.69200
H  6.49300 58.86200 39.15100
H  2.93300 57.88300 40.77300
H  1.50000 56.15900 42.74400
H  4.28200 58.20500 43.25400
H  2.62400 57.89000 43.66800
H  3.03900 59.16300 42.41400
H  0.99500 55.61300 39.91600
H  0.88600 57.36800 40.20100
H  -1.26300 56.80900 41.25800
H  -0.51600 55.60700 42.30600
H  -0.87500 55.16600 40.71900
H  0.14900 50.07600 41.97600
H  0.25000 51.53000 43.16100
H  0.99100 49.95800 43.48100
H  5.43200 48.30000 41.79700
H  4.84700 46.21200 37.84200
H  3.61200 45.55400 38.85700
H  5.29700 44.84100 38.81800
Mg -12.53100 15.97100 41.62600
C  -9.38400 14.43400 41.29300
C  -11.15900 18.64900 40.03500
C  -15.57900 17.07800 41.45300
C  -13.79900 12.64100 42.51600
N  -10.51300 16.44300 40.72500
C  -9.38300 15.70600 40.71800
C  -8.24000 16.31700 40.00100
C  -8.69200 17.82500 39.88000
C  -10.20600 17.67400 40.26900
C  -7.97400 18.80300 40.90600
C  -7.91700 15.59100 38.64800
C  -6.42900 15.25700 38.50400
H  -5.83200 15.97900 37.29200
N  -13.22400 17.64600 40.99100
C  -12.55200 18.66500 40.34300
C  -13.42000 19.73100 40.10200
C  -14.70600 19.37700 40.52300
C  -14.53800 17.96400 41.00300
C  -13.10900 20.94400 39.43500
C  -15.94600 20.28600 40.48800
O  -15.88700 21.42500 40.02400
C  -17.26600 19.78100 41.00000
N  -14.42600 14.96600 41.97400
C  -15.51300 15.72900 41.93500
C  -16.78000 14.93600 42.29800
C  -16.21600 13.45000 42.52700
C  -14.72500 13.65900 42.33600
C  -17.44200 15.54700 43.48900
C  -16.76700 12.40100 41.55300
C  -17.14900 11.05900 42.20300
N  -11.79300 14.02100 41.94300
C  -12.39200 12.77800 42.27500
C  -11.33400 11.72800 42.38300
C  -10.14600 12.36200 42.09200
C  -10.53500 13.69300 41.70900
C  -11.51800 10.24400 42.85100
C  -8.71300 12.18300 42.01800
O  -7.96100 11.30400 42.30300
C  -8.10100 13.47100 41.48700
C  -7.10600 13.89200 42.53700
O  -7.33600 13.97900 43.71800
O  -5.86100 14.11300 41.95400
C  -4.87400 14.66100 42.90700
H  -10.82500 19.63400 39.70400
H  -16.57400 17.51100 41.33300
H  -14.05900 11.65500 42.90700
H  -7.32300 16.31900 40.59100
H  -8.53300 18.11500 38.84100
H  -7.20000 18.23900 41.42600
H  -8.65400 19.16900 41.67600
H  -7.53900 19.55700 40.25100
H  -8.17000 16.26100 37.82600
H  -8.61500 14.76300 38.52900
H  -6.26100 14.19000 38.36100
H  -5.86200 15.41900 39.42100
H  -13.29600 21.82900 40.04300
H  -13.85900 21.07400 38.65400
H  -12.17000 20.94900 38.88100
H  -17.69900 19.13100 40.24000
H  -17.84700 20.70300 41.02800
H  -17.19600 19.33900 41.99400
H  -17.49900 14.96800 41.48000
H  -16.42500 13.09200 43.53500
H  -17.30200 16.62600 43.42700
H  -17.05100 15.22000 44.45200
H  -18.52300 15.45100 43.38300
H  -16.06400 12.26800 40.73100
H  -17.73700 12.71200 41.16600
H  -18.19600 10.75700 42.22000
H  -16.90400 11.07100 43.26500
H  -16.44000 10.26500 41.97100
H  -12.12500 10.28400 43.75600
H  -10.59000 9.69300 43.00400
H  -12.16900 9.75900 42.12400
H  -7.67600 13.24100 40.51000
H  -4.03200 13.97200 42.98500
H  -5.20700 14.95100 43.90400
H  -4.55200 15.62100 42.50400

