158

Mg 40.88000 40.84100 27.01900
C  40.21300 43.22700 29.53700
C  42.10300 38.77600 29.43100
C  41.90100 38.85800 24.56300
C  40.12600 43.45800 24.64100
N  40.93000 40.98300 29.23600
C  40.57500 42.03200 30.05400
C  40.70900 41.73400 31.59600
C  41.43900 40.34100 31.49000
C  41.46000 39.94200 29.92900
C  42.81300 40.22100 32.21900
C  39.37700 41.70600 32.39500
C  39.37100 42.68700 33.61400
H  38.73900 42.10900 34.86400
N  41.81000 39.06300 27.03000
C  42.25900 38.31600 28.05800
C  42.91300 37.06800 27.63500
C  42.66700 36.97200 26.23700
C  42.08600 38.31900 25.88700
C  43.57000 36.02900 28.66500
C  43.02500 35.89500 25.19700
O  42.87100 36.03100 23.96600
C  43.53200 34.55300 25.63200
N  40.99000 41.08200 24.92800
C  41.35000 40.06300 24.08600
C  41.36900 40.48000 22.63200
C  40.60100 41.84500 22.68300
C  40.53800 42.20200 24.17500
C  42.75100 40.53800 21.87500
C  39.28600 41.77400 21.91900
C  38.12900 40.99800 22.59400
N  40.23500 42.87000 27.02000
C  39.95000 43.77400 25.96500
C  39.55200 45.06200 26.50700
C  39.63000 44.88500 27.95800
C  40.02700 43.54100 28.13200
C  39.08300 46.21500 25.61400
C  39.33500 45.55600 29.15800
O  38.97900 46.71500 29.33700
C  39.84200 44.53900 30.31400
C  40.91300 45.15900 31.05700
O  42.01600 45.43500 30.62900
O  40.53000 45.26600 32.35800
C  41.41500 45.91000 33.34000
H  42.61600 38.22100 30.22000
H  42.19800 38.15100 23.78600
H  39.91500 44.20300 23.87100
H  41.42200 42.46200 31.98400
H  40.83500 39.62000 32.04000
H  43.71900 40.39500 31.63800
H  42.86100 39.20500 32.61100
H  42.75200 40.95500 33.02300
H  39.28200 40.78600 32.97200
H  38.44500 41.84400 31.84500
H  38.69800 43.50800 33.36600
H  40.37000 42.97600 33.94200
H  44.26100 35.33900 28.18000
H  42.67200 35.49300 28.97000
H  44.04800 36.63900 29.43100
H  44.59100 34.76100 25.78200
H  43.48100 33.83900 24.81000
H  42.91100 34.17600 26.44400
H  40.83800 39.65100 22.16500
H  41.23200 42.57200 22.17100
H  43.60800 40.23400 22.47400
H  43.06900 41.45400 21.37700
H  42.79400 39.76800 21.10500
H  39.47000 41.21500 21.00200
H  38.87300 42.72900 21.59300
H  38.14100 40.79800 23.66500
H  38.13800 40.00900 22.13700
H  37.14200 41.39800 22.36000
H  38.01400 46.24800 25.40400
H  39.55300 46.25400 24.63200
H  39.36500 47.13100 26.13400
H  39.08100 44.20900 31.02100
H  41.71600 45.26300 34.16400
H  40.71900 46.56600 33.86200
H  42.30200 46.37400 32.91000
Mg 0.44200 44.39900 24.09400
C  2.30800 44.02400 27.01100
C  -2.53200 43.97400 25.77200
C  -1.22400 43.82900 21.11700
C  3.55100 44.61400 22.40700
N  -0.01300 44.09000 26.09700
C  0.90400 43.97200 27.17400
C  0.10000 44.05900 28.53200
C  -1.34900 43.93200 28.06400
C  -1.34300 43.97900 26.55000
C  -2.03900 42.67400 28.63300
C  0.46800 45.25000 29.41100
C  0.67700 45.14600 30.94900
H  0.81700 43.75200 31.53600
N  -1.62900 44.09500 23.54000
C  -2.76300 44.01100 24.37100
C  -3.96100 44.20900 23.59000
C  -3.55000 44.10000 22.21700
C  -2.06200 43.92400 22.25000
C  -5.21300 44.57800 24.29800
C  -4.46800 44.19300 21.01700
O  -3.95900 44.11500 19.87700
C  -6.03600 44.27100 21.22000
N  1.02600 44.07800 22.16400
C  0.12800 43.89300 21.12800
C  0.89300 43.84600 19.85900
C  2.30100 44.38800 20.18900
C  2.27600 44.41700 21.70800
C  0.94200 42.32000 19.31000
C  2.73600 45.73000 19.56400
C  3.93900 45.77300 18.57200
N  2.47800 44.37900 24.50600
C  3.61800 44.41300 23.75000
C  4.79100 44.36700 24.49500
C  4.29400 44.25800 25.79800
C  2.91800 44.21600 25.75800
C  6.19000 44.40100 24.03700
C  4.75100 44.27200 27.14700
O  5.90700 44.43100 27.50800
C  3.50100 44.11600 28.07500
C  3.68700 42.89500 28.88600
O  3.07100 41.82100 28.82700
O  4.72700 43.17800 29.74600
C  5.13300 42.03200 30.58100
H  -3.46400 44.00800 26.34000
H  -1.72500 43.70500 20.15400
H  4.41100 44.83300 21.77000
H  0.37700 43.16700 29.09400
H  -1.99900 44.75600 28.35900
H  -1.56900 42.11200 29.44000
H  -2.24300 42.00700 27.79600
H  -2.98300 43.08400 28.99200
H  -0.28100 46.03700 29.32500
H  1.25100 45.80100 28.88900
H  -0.12300 45.63300 31.50700
H  1.60500 45.68000 31.15400
H  -5.88700 44.95100 23.52800
H  -5.02700 45.31000 25.08400
H  -5.61100 43.63100 24.66500
H  -6.48000 43.59700 21.95300
H  -6.39500 43.93000 20.24900
H  -6.26900 45.32700 21.36300
H  0.45500 44.62100 19.23000
H  3.03700 43.61500 19.96800
H  1.95700 41.92200 19.30200
H  0.56200 42.50400 18.30500
H  0.22600 41.67500 19.81900
H  3.01300 46.51200 20.27100
H  1.83900 46.10900 19.07400
H  4.16900 44.75300 18.26400
H  4.69700 46.42800 19.00200
H  3.60900 46.36900 17.72200
H  6.82400 44.68700 24.87700
H  6.22900 45.07300 23.18000
H  6.34800 43.38000 23.69000
H  3.53700 44.94100 28.78600
H  6.04400 42.26000 31.13300
H  5.28000 41.11900 30.00400
H  4.31700 41.82300 31.27300

