158

Mg 46.45400 15.63100 27.46300
C  44.53100 15.47600 30.43900
C  48.64300 17.66800 29.05800
C  48.22200 16.03800 24.52900
C  43.93700 14.00300 25.73600
N  46.56200 16.46600 29.50300
C  45.69100 16.31500 30.59600
C  46.24000 16.95600 31.83300
C  47.48400 17.82300 31.30600
C  47.58000 17.28800 29.89300
C  47.29200 19.31700 31.25400
C  46.56200 15.91900 32.97200
C  46.04200 16.27400 34.37000
H  46.97900 15.96900 35.53300
N  48.32200 16.48900 26.94700
C  49.01000 17.40600 27.73800
C  50.17200 17.80900 27.04300
C  50.11500 17.31500 25.76100
C  48.88600 16.49800 25.71000
C  51.29500 18.68500 27.67000
C  51.04000 17.42400 24.47200
O  50.90000 16.72600 23.51200
C  52.26800 18.26400 24.50200
N  46.14100 15.09600 25.37100
C  46.98900 15.32000 24.32400
C  46.45900 14.71900 23.01500
C  45.24200 13.84900 23.51800
C  45.12900 14.24000 24.96700
C  46.18000 15.70900 21.95300
C  45.40100 12.31300 23.29500
C  46.56100 11.68700 24.11300
N  44.60600 14.97300 27.92600
C  43.70300 14.28000 27.11100
C  42.53400 13.86300 27.92100
C  42.88500 14.37400 29.20700
C  44.11900 15.01000 29.15900
C  41.27600 13.28500 27.45900
C  42.29600 14.58100 30.49600
O  41.17000 14.33900 30.85100
C  43.36000 15.22900 31.40700
C  42.85700 16.51700 32.03500
O  42.89500 17.62400 31.46900
O  42.35000 16.37200 33.32700
C  42.36200 17.57700 34.11600
H  49.27900 18.46200 29.45500
H  48.69500 16.49600 23.65800
H  43.17500 13.32700 25.34300
H  45.51200 17.60800 32.31600
H  48.35200 17.64600 31.94100
H  46.39100 19.57300 31.81200
H  47.20200 19.68900 30.23300
H  48.22600 19.70900 31.65600
H  47.64100 15.77100 33.00500
H  46.05300 14.98400 32.73700
H  45.13100 15.75700 34.66900
H  45.77100 17.32100 34.50900
H  51.03400 19.68400 28.01800
H  52.16700 18.65900 27.01700
H  51.60400 18.12600 28.55400
H  52.82800 18.25700 23.56700
H  52.81900 17.72200 25.27000
H  52.00900 19.27600 24.81400
H  47.27400 14.06200 22.70900
H  44.37400 14.16100 22.93800
H  45.98800 16.67700 22.41500
H  45.31100 15.45000 21.35000
H  46.99700 15.76300 21.23300
H  45.53400 12.20900 22.21800
H  44.50800 11.75200 23.57000
H  47.35100 11.38500 23.42600
H  46.14800 10.95700 24.80900
H  46.99000 12.48700 24.71600
H  41.27100 13.53800 26.39900
H  40.55300 13.87400 28.02500
H  41.11700 12.23000 27.68000
H  43.59800 14.60300 32.26700
H  41.71400 18.34800 33.69800
H  43.36900 17.98700 34.18600
H  41.94600 17.28700 35.08100
Mg -1.32600 34.20900 27.67000
C  -2.94400 32.66100 30.47200
C  0.18700 36.30900 29.65900
C  -0.57700 36.01300 24.87200
C  -3.31700 32.02900 25.68700
N  -1.61000 34.53800 29.81500
C  -2.13600 33.70800 30.73200
C  -1.53900 34.02700 32.19400
C  -0.55400 35.23700 31.88700
C  -0.62400 35.35000 30.29600
C  -0.64800 36.57900 32.68500
C  -0.92000 32.84300 33.00100
C  -1.55800 32.25800 34.24700
H  -0.67400 32.13100 35.46500
N  -0.20700 35.87700 27.28300
C  0.37700 36.60600 28.28200
C  1.23400 37.56200 27.65000
C  1.08900 37.38300 26.27400
C  0.04800 36.39700 26.03500
C  2.15900 38.44600 28.41000
C  1.83300 37.98400 25.17400
O  1.80600 37.60800 24.02800
C  2.59900 39.24800 25.53800
N  -1.83900 34.10000 25.59300
C  -1.55200 35.03700 24.70900
C  -2.15200 34.71800 23.30100
C  -2.70100 33.24100 23.54200
C  -2.62000 33.07300 24.99200
C  -3.16900 35.70900 22.73000
C  -2.03300 32.03200 22.82800
C  -0.53600 31.87500 22.58800
N  -2.58400 32.53700 27.96200
C  -3.31900 31.81100 27.04800
C  -4.18700 30.88200 27.70800
C  -4.01500 31.18200 29.04200
C  -3.15300 32.20700 29.14300
C  -5.05500 29.85800 27.16500
C  -4.43800 30.85000 30.37100
O  -5.21900 30.00000 30.74600
C  -3.70200 31.77700 31.39600
C  -4.64700 32.61400 32.20700
O  -5.27100 33.54500 31.76500
O  -4.53800 32.24500 33.48100
C  -5.38100 33.06200 34.48000
H  0.83300 36.75100 30.42000
H  -0.27200 36.48200 23.93400
H  -3.89800 31.31800 25.09600
H  -2.29500 34.51200 32.81300
H  0.46200 34.87000 32.03000
H  -1.29700 36.42800 33.54800
H  -1.22600 37.20900 32.00900
H  0.26500 37.07800 33.00800
H  0.07300 33.20200 33.27000
H  -0.67700 32.08300 32.25900
H  -2.00700 31.29500 34.00400
H  -2.35800 32.92400 34.57000
H  3.16100 38.07600 28.19100
H  2.05100 38.47400 29.49400
H  2.07700 39.51800 28.23400
H  1.87500 39.91100 26.01200
H  3.10600 39.76800 24.72500
H  3.38000 38.83300 26.17500
H  -1.37300 34.71700 22.53800
H  -3.75000 33.25000 23.24800
H  -3.81600 36.04300 23.54100
H  -3.85000 35.30700 21.98000
H  -2.69300 36.53900 22.20900
H  -2.52700 31.96700 21.85800
H  -2.35900 31.03300 23.11600
H  0.02400 32.62100 23.15200
H  -0.34800 32.06400 21.53100
H  -0.29600 30.85400 22.88400
H  -4.87200 29.66400 26.10800
H  -6.06100 30.24300 27.33300
H  -4.94900 28.92200 27.71300
H  -2.99000 31.20000 31.98500
H  -4.84500 33.20800 35.41700
H  -6.32500 32.57200 34.71700
H  -5.59000 34.06400 34.10400

