158

Mg 35.46100 48.21100 26.39300
C  36.07500 46.19600 29.08600
C  34.35000 50.75000 28.44500
C  34.99200 50.16500 23.75300
C  36.51200 45.70600 24.19900
N  35.18200 48.41600 28.50600
C  35.53900 47.43100 29.44700
C  35.29400 47.99900 30.89900
C  34.45700 49.37300 30.57000
C  34.70800 49.54300 29.04700
C  32.93800 49.34000 30.84900
C  36.66300 48.29100 31.61100
C  36.78600 48.02000 33.10800
H  36.22800 49.20700 33.88900
N  34.82400 50.24200 26.14300
C  34.37700 51.11200 27.08000
C  34.02700 52.33700 26.50800
C  34.33100 52.25100 25.14300
C  34.81100 50.86200 24.94900
C  33.53700 53.55400 27.20200
C  34.30000 53.34600 24.08600
O  34.71100 53.05900 22.94400
C  33.80200 54.72300 24.36500
N  35.62100 47.93000 24.24900
C  35.31400 48.89100 23.39100
C  35.32100 48.45800 21.94000
C  35.96700 47.02300 22.07600
C  36.06500 46.82200 23.57100
C  33.81500 48.35000 21.39200
C  37.40200 46.86400 21.41600
C  38.53900 47.52000 22.16800
N  36.00100 46.28400 26.55900
C  36.54400 45.44700 25.60700
C  36.97600 44.16600 26.30000
C  36.78200 44.44000 27.67400
C  36.26600 45.72400 27.77900
C  37.59200 43.02300 25.56500
C  36.92700 43.91900 28.96500
O  37.24300 42.78300 29.29400
C  36.55100 45.10500 29.98100
C  35.60400 44.64500 31.00200
O  34.43600 44.29300 30.77100
O  36.19100 44.64600 32.27600
C  35.42900 43.99100 33.28200
H  33.91600 51.50200 29.10700
H  34.70500 50.82800 22.93400
H  36.80000 44.90400 23.51600
H  34.64000 47.31100 31.43500
H  34.84700 50.24700 31.09100
H  32.65800 50.10600 31.57100
H  32.68400 48.36500 31.26700
H  32.32200 49.49500 29.96300
H  36.99700 49.28600 31.31700
H  37.44000 47.68000 31.15200
H  37.81500 47.76700 33.36100
H  36.19000 47.13300 33.32700
H  32.80700 54.16500 26.67100
H  34.34300 54.20900 27.53200
H  32.97300 53.27100 28.09000
H  34.15600 55.38800 23.57800
H  34.36400 55.11100 25.21500
H  32.73500 54.88900 24.51800
H  35.90500 49.14900 21.33200
H  35.33200 46.29700 21.56800
H  33.03100 48.52400 22.12900
H  33.60800 47.34100 21.03500
H  33.66000 49.10900 20.62500
H  37.27900 47.43400 20.49500
H  37.45600 45.83000 21.07500
H  38.17100 48.18700 22.94800
H  39.11100 48.11100 21.45300
H  39.14700 46.70900 22.57100
H  37.70200 43.31800 24.52100
H  37.03500 42.08600 25.56200
H  38.52700 42.75900 26.05900
H  37.47500 45.25900 30.53800
H  34.95900 43.05800 32.97200
H  34.57100 44.62700 33.49800
H  36.02000 43.68900 34.14800
Mg -5.60600 24.88700 26.95000
C  -4.59000 26.76900 29.75100
C  -7.37500 23.05300 29.16600
C  -6.87500 23.24300 24.33300
C  -3.79500 26.96400 24.96800
N  -5.86800 24.93800 29.21800
C  -5.45600 25.81900 30.12900
C  -6.07400 25.55700 31.52000
C  -6.76100 24.16300 31.31600
C  -6.67800 24.00600 29.79800
C  -6.13700 22.87900 32.06300
C  -7.00800 26.70900 31.98000
C  -7.06100 27.19600 33.53900
H  -6.52000 26.23100 34.61200
N  -6.98800 23.38000 26.72100
C  -7.69100 22.79700 27.79000
C  -8.63400 21.82100 27.21300
C  -8.48000 21.80700 25.76600
C  -7.44500 22.89200 25.56500
C  -9.56100 20.95900 28.09500
C  -9.10300 20.95000 24.73200
O  -9.06600 21.27100 23.53000
C  -10.07500 19.90200 25.14200
N  -5.26800 25.00500 24.95300
C  -5.92300 24.19100 24.07200
C  -5.36800 24.44400 22.61600
C  -4.45300 25.68900 22.84700
C  -4.50000 25.87700 24.37000
C  -4.56200 23.25600 22.02600
C  -4.92600 27.01600 22.00500
C  -4.10000 27.22100 20.70900
N  -4.35100 26.46600 27.23600
C  -3.69100 27.25300 26.27400
C  -2.96200 28.25000 26.92900
C  -3.23500 28.08200 28.31700
C  -4.16400 27.07800 28.45300
C  -2.02600 29.20300 26.28900
C  -3.00200 28.63600 29.61500
O  -2.34000 29.57200 30.03400
C  -3.94300 27.87600 30.62600
C  -3.16700 27.38600 31.80300
O  -2.44100 26.41500 31.84900
O  -3.21200 28.28800 32.88300
C  -2.25800 28.20900 34.02700
H  -7.79100 22.32400 29.86400
H  -7.12000 22.55100 23.52500
H  -3.25400 27.60500 24.26900
H  -5.32700 25.35500 32.28800
H  -7.79800 24.08900 31.64300
H  -5.35400 23.31400 32.68500
H  -5.77000 22.14300 31.34800
H  -6.91800 22.50700 32.72600
H  -8.01900 26.51000 31.62400
H  -6.57300 27.56000 31.45400
H  -8.05600 27.52200 33.84200
H  -6.54300 28.14500 33.68000
H  -9.44400 19.93300 27.74900
H  -10.57800 21.33900 28.00500
H  -9.36900 21.00700 29.16700
H  -9.81300 19.22200 25.95200
H  -10.45900 19.26700 24.34300
H  -10.98100 20.37200 25.52500
H  -6.24300 24.62400 21.99300
H  -3.40000 25.47000 22.67500
H  -4.32100 22.44800 22.71700
H  -3.61100 23.58600 21.60800
H  -5.22900 22.87600 21.25200
H  -4.93700 27.93000 22.59900
H  -5.93300 26.89600 21.60500
H  -3.35900 26.46100 20.46000
H  -3.52100 28.14300 20.75700
H  -4.72700 27.30800 19.82200
H  -1.43500 29.64200 27.09400
H  -2.38100 29.93400 25.56300
H  -1.26900 28.62500 25.76000
H  -4.72300 28.56400 30.95400
H  -1.29400 27.78200 33.75000
H  -2.61000 27.75300 34.95200
H  -1.99300 29.21300 34.35900

