158

Mg 44.99700 4.76600 47.80200
C  43.03200 7.65300 46.96600
C  42.21300 2.85700 47.25100
C  46.93000 2.05000 47.82400
C  47.81100 6.91000 47.38800
N  42.94600 5.21500 47.12000
C  42.40000 6.42900 46.81300
C  40.90500 6.26700 46.52600
C  40.49100 4.82800 47.04800
C  41.96400 4.22500 47.23400
C  39.69400 4.84100 48.34600
C  40.53500 6.54400 45.00800
C  39.76000 7.79700 44.68200
H  39.98900 8.44600 43.37000
N  44.57800 2.72300 47.56400
C  43.40200 2.09100 47.38700
C  43.54600 0.62500 47.39300
C  44.93400 0.39800 47.59200
C  45.54100 1.72300 47.67100
C  42.35300 -0.26300 47.00200
C  45.60000 -0.92900 47.63700
O  44.97000 -1.91300 47.34100
C  47.10300 -1.09300 47.99300
N  47.03000 4.51100 47.40500
C  47.64100 3.33600 47.70500
C  49.18700 3.49200 47.86600
C  49.40200 4.93800 47.36600
C  47.98300 5.52200 47.39300
C  49.77100 3.20200 49.25500
C  50.04400 5.02700 45.93900
C  51.58800 5.44300 45.80400
N  45.34800 6.86000 47.52700
C  46.55100 7.56200 47.43900
C  46.18700 9.00600 47.49400
C  44.82800 9.10400 47.33600
C  44.37800 7.76200 47.28700
C  47.11300 10.08800 47.68200
C  43.75500 10.05400 47.22300
O  43.71800 11.30100 47.38600
C  42.49400 9.16800 46.89100
C  41.45800 9.36100 47.93400
O  41.30100 8.59200 48.89200
O  40.73500 10.50300 47.75000
C  39.80600 11.04500 48.77600
H  41.28600 2.29700 47.11100
H  47.67200 1.26300 47.97300
H  48.70700 7.53100 47.43900
H  40.43000 6.97200 47.20800
H  39.84400 4.37800 46.29500
H  39.38300 5.86700 48.54400
H  40.25900 4.34600 49.13600
H  38.75200 4.33400 48.14000
H  39.96700 5.66200 44.71100
H  41.46100 6.49300 44.43500
H  39.83200 8.44000 45.55900
H  38.71200 7.51500 44.78900
H  42.37200 -0.26900 45.91200
H  41.34300 0.12800 47.13100
H  42.42900 -1.28800 47.36500
H  47.65500 -0.81700 47.09500
H  47.30100 -2.16000 48.09200
H  47.24400 -0.59100 48.95000
H  49.63500 2.73600 47.22200
H  50.05300 5.56300 47.97700
H  50.12900 4.12700 49.70700
H  50.65300 2.56100 49.25400
H  48.96200 2.77000 49.84400
H  49.52100 5.81500 45.39600
H  50.18900 4.12400 45.34600
H  51.55100 6.38200 45.25300
H  52.20800 4.62200 45.44500
H  51.93000 5.60800 46.82600
H  46.51900 10.74200 48.32000
H  47.27700 10.65800 46.76700
H  48.09700 9.87500 48.10100
H  42.12000 9.50800 45.92500
H  38.81200 10.93300 48.34200
H  39.98100 12.09700 49.00100
H  39.87800 10.61900 49.77700
Mg 35.44300 3.51400 29.91400
C  33.18000 4.46800 32.51900
C  37.87600 3.40000 32.18200
C  37.55000 3.02400 27.30500
C  32.81700 4.09500 27.69200
N  35.48800 4.10300 32.11000
C  34.45400 4.22100 32.98600
C  34.92000 4.25300 34.46100
C  36.45800 4.03800 34.26600
C  36.61600 3.83400 32.75900
C  37.33900 5.19200 34.82500
C  34.10800 3.08800 35.25700
C  33.60300 3.45200 36.61800
H  34.29300 4.55100 37.40000
N  37.41200 3.24700 29.79300
C  38.29500 3.18300 30.85500
C  39.60300 2.78600 30.43000
C  39.51800 2.60800 28.96200
C  38.09100 2.90600 28.63100
C  40.80000 2.65000 31.38300
C  40.66700 2.21200 27.97900
O  40.53500 2.30400 26.77100
C  42.04300 1.87100 28.55900
N  35.25600 3.58600 27.80900
C  36.20400 3.27000 26.97500
C  35.68900 3.27900 25.51500
C  34.17300 3.48200 25.66400
C  34.03400 3.79100 27.13200
C  36.40700 4.24800 24.64400
C  33.32700 2.29400 25.20400
C  33.53900 1.04500 26.09000
N  33.40700 4.18600 30.06500
C  32.47900 4.30600 29.05400
C  31.18000 4.57300 29.65800
C  31.44800 4.81500 30.95400
C  32.81200 4.46600 31.17700
C  29.98200 4.74200 28.82800
C  30.82200 5.09300 32.21600
O  29.64800 5.45600 32.43800
C  31.93300 4.97100 33.34000
C  31.91000 6.25900 34.12700
O  32.36400 7.35100 33.74500
O  31.29600 6.08400 35.36300
C  31.36200 7.20000 36.27300
H  38.70600 3.31400 32.88700
H  38.15800 2.86100 26.41200
H  32.03600 4.15200 26.93100
H  34.75900 5.25200 34.86600
H  36.71600 3.08200 34.72200
H  37.93800 5.45500 33.95400
H  38.04900 4.76700 35.53500
H  36.75100 6.00400 35.25400
H  34.79800 2.24600 35.31100
H  33.26300 2.61400 34.75800
H  33.68000 2.49800 37.14000
H  32.55400 3.74000 36.54900
H  41.41100 1.76900 31.18500
H  40.46900 2.47800 32.40700
H  41.35100 3.57800 31.23200
H  42.57800 1.63600 27.64000
H  41.96600 1.00300 29.21400
H  42.32900 2.79700 29.05800
H  35.96500 2.33000 25.05500
H  33.77800 4.39400 25.21700
H  37.09300 3.60700 24.09000
H  37.08300 4.89300 25.20600
H  35.70500 4.74200 23.97200
H  33.61000 2.14300 24.16200
H  32.26200 2.52200 25.25600
H  33.74200 0.16700 25.47600
H  32.63100 0.94000 26.68200
H  34.37300 1.25700 26.75900
H  30.13900 4.32600 27.83300
H  29.83900 5.81100 28.67100
H  29.07900 4.32000 29.27000
H  31.65100 4.11400 33.95200
H  30.61400 7.91700 35.93400
H  32.36400 7.62000 36.18200
H  31.19200 6.82600 37.28300

