158

Mg 43.51700 4.22800 47.30900
C  41.20100 6.87200 47.19600
C  40.76700 2.10000 46.74500
C  45.65000 1.67100 46.78200
C  46.14400 6.52400 47.02000
N  41.22000 4.44300 47.01600
C  40.54300 5.59300 47.10000
C  39.03900 5.31500 47.20000
C  38.89400 3.76500 47.30700
C  40.37600 3.39200 46.95700
C  38.22500 3.22800 48.58200
C  38.27500 6.05800 46.05400
C  38.59500 5.60400 44.60300
H  39.30000 6.67900 43.71200
N  43.30100 2.14200 46.87600
C  42.05600 1.48500 46.69400
C  42.30100 0.08200 46.57200
C  43.67500 -0.16000 46.50200
C  44.29700 1.25200 46.74400
C  41.23900 -0.95900 46.25600
C  44.26500 -1.47600 46.08800
O  43.63000 -2.50500 45.91300
C  45.72900 -1.54900 45.90500
N  45.58900 4.11200 46.90500
C  46.21400 2.91800 46.83900
C  47.76500 3.09400 47.06400
C  47.95600 4.66500 47.09400
C  46.48800 5.16700 46.99600
C  48.30300 2.23600 48.29500
C  48.94100 5.21600 45.99200
C  50.35200 5.27900 46.48500
N  43.73900 6.26500 47.30500
C  44.84100 7.12600 47.21100
C  44.44100 8.52200 47.45100
C  43.03500 8.40800 47.40600
C  42.60600 7.09500 47.20700
C  45.27700 9.70200 47.73500
C  41.81900 9.22600 47.60300
O  41.76000 10.41900 47.84700
C  40.57700 8.26300 47.45900
C  39.71700 8.34900 48.71200
O  40.24700 8.19400 49.83400
O  38.37200 8.36800 48.44200
C  37.44700 8.24700 49.56100
H  39.92200 1.40900 46.74100
H  46.34500 0.83300 46.86700
H  47.01900 7.13700 47.24800
H  38.68100 5.64500 48.17500
H  38.31400 3.32800 46.49500
H  38.73700 2.34400 48.96400
H  37.18400 2.97900 48.37200
H  38.29400 3.91700 49.42400
H  38.35600 7.14500 46.06600
H  37.25800 5.71600 46.24700
H  37.60400 5.37700 44.21000
H  39.29200 4.77100 44.69800
H  41.37700 -1.84200 46.88000
H  41.42100 -1.11600 45.19300
H  40.26700 -0.54900 46.53000
H  46.21900 -1.25600 46.83400
H  45.95400 -0.79200 45.15300
H  46.21000 -2.46600 45.56400
H  48.21900 2.65500 46.17600
H  48.32300 5.02800 48.05400
H  47.42800 1.82500 48.79900
H  48.85600 2.98700 48.86000
H  48.88200 1.34700 48.04400
H  48.57100 6.20300 45.71300
H  48.93700 4.63100 45.07300
H  50.48600 5.20600 47.56500
H  50.73900 6.26200 46.21800
H  50.90200 4.48500 45.97900
H  45.18700 9.87000 48.80800
H  44.79500 10.51600 47.19400
H  46.31600 9.54600 47.44600
H  40.09900 8.65500 46.56100
H  37.81900 8.82200 50.41000
H  37.23200 7.20500 49.79900
H  36.45400 8.56800 49.24700
Mg 48.56800 34.67000 27.38500
C  46.41800 33.23000 29.92300
C  48.58100 37.57100 29.33500
C  49.84700 36.16700 24.70300
C  47.80800 31.82400 25.39900
N  47.60900 35.27000 29.46300
C  46.89100 34.48600 30.36500
C  46.74700 35.26200 31.69600
C  47.04000 36.73300 31.22000
C  47.74800 36.56300 29.90100
C  45.79000 37.55200 31.09600
C  47.72700 34.55200 32.71300
C  48.69300 35.49100 33.46900
H  48.04200 36.45100 34.37500
N  49.31000 36.54900 27.15400
C  49.31400 37.57300 28.06900
C  50.37300 38.47800 27.64900
C  50.61200 38.19900 26.24600
C  49.91500 36.92700 25.96100
C  50.82400 39.62900 28.53200
C  51.40100 39.05400 25.26900
O  51.61800 38.67300 24.11700
C  52.04500 40.35800 25.66800
N  48.70600 34.01900 25.36000
C  49.34300 34.82100 24.45700
C  49.52400 34.14400 23.06000
C  49.29400 32.68100 23.49100
C  48.52800 32.79200 24.80100
C  48.45700 34.63000 22.04600
C  50.61900 31.84700 23.60600
C  50.52400 30.33300 23.70800
N  47.44500 32.82200 27.62800
C  47.32800 31.74500 26.72300
C  46.58000 30.69400 27.40200
C  46.19300 31.25300 28.68000
C  46.72600 32.54500 28.73000
C  46.18600 29.26700 26.90800
C  45.43100 30.89200 29.91000
O  44.85000 29.88400 30.16400
C  45.34500 32.35500 30.63400
C  45.45500 32.00800 32.07500
O  46.52300 31.59400 32.61500
O  44.27500 32.44500 32.66500
C  44.16400 32.19300 34.10800
H  48.76300 38.49600 29.88600
H  50.23200 36.66600 23.81100
H  47.59600 30.95700 24.77100
H  45.73300 35.15000 32.08000
H  47.78000 37.17500 31.88600
H  45.62600 37.96600 32.09100
H  44.95400 36.94700 30.74600
H  45.87900 38.33400 30.34200
H  48.21400 33.77200 32.12600
H  47.26300 34.01800 33.54200
H  49.48300 35.88500 32.82900
H  49.15100 34.79500 34.17200
H  51.86500 39.86600 28.31000
H  50.77100 39.40400 29.59700
H  50.39400 40.59400 28.26400
H  51.35900 40.86900 26.34300
H  52.27800 40.99800 24.81700
H  52.93300 40.12400 26.25500
H  50.48500 34.35400 22.59000
H  48.65000 32.14900 22.79000
H  47.83300 35.37200 22.54500
H  47.70600 33.95400 21.63600
H  49.05400 34.90200 21.17500
H  51.14500 32.10000 24.52700
H  51.19700 32.17400 22.74300
H  50.69400 30.17300 24.77300
H  51.22800 29.85300 23.02700
H  49.49500 30.02900 23.51400
H  46.91500 28.79400 26.24900
H  45.24600 29.37200 26.36700
H  45.99700 28.63500 27.77600
H  44.35700 32.75800 30.40900
H  44.75900 31.40500 34.57000
H  43.10900 31.94200 34.21400
H  44.30200 33.15000 34.61100

