158

Mg 40.60500 8.77400 30.31600
C  42.88100 10.20900 32.67400
C  38.61600 8.05600 32.94000
C  38.41800 7.80000 28.09900
C  42.94700 9.56000 27.90300
N  40.77600 9.02600 32.62600
C  41.71800 9.72800 33.30800
C  41.39500 9.78300 34.82000
C  40.04200 8.99400 34.85800
C  39.78700 8.68100 33.41800
C  39.97100 7.79500 35.86900
C  41.40600 11.27300 35.39600
C  40.51200 11.62300 36.57500
H  40.96100 12.67300 37.62000
N  38.83600 7.88100 30.49800
C  38.13800 7.66400 31.62900
C  36.83900 7.11800 31.37000
C  36.72000 7.07900 29.93200
C  37.94900 7.57000 29.45000
C  35.85500 6.81900 32.47400
C  35.54700 6.67200 29.03000
O  35.69000 6.54500 27.80000
C  34.19900 6.50700 29.54800
N  40.76700 8.45300 28.28100
C  39.66400 8.20100 27.56400
C  40.06100 8.20400 25.99800
C  41.43400 8.93300 25.99200
C  41.73300 9.00600 27.51300
C  39.92700 6.77800 25.30500
C  41.45100 10.24100 25.24500
C  40.47500 11.36600 25.64600
N  42.61300 9.49800 30.24900
C  43.31400 9.86300 29.18000
C  44.54100 10.45100 29.60100
C  44.36800 10.70700 30.94900
C  43.17700 10.06100 31.31900
C  45.66800 10.85600 28.68200
C  44.94400 11.41100 32.02100
O  45.96300 12.04400 32.01900
C  44.04600 11.02500 33.33400
C  44.90700 10.16500 34.12700
O  45.27600 9.03300 33.83000
O  45.11600 10.81200 35.32700
C  45.79400 9.91400 36.34200
H  37.93600 7.83400 33.76500
H  37.73200 7.60400 27.27200
H  43.73600 9.89900 27.22800
H  42.12800 9.11400 35.27100
H  39.34100 9.75500 35.20100
H  40.88000 7.58900 36.43300
H  39.76200 6.80600 35.45900
H  39.22600 8.04300 36.62500
H  41.24200 11.90800 34.52600
H  42.40500 11.52400 35.75400
H  40.36200 10.67300 37.09000
H  39.62900 12.02900 36.08100
H  34.95200 7.40100 32.29200
H  36.18900 6.95200 33.50300
H  35.57500 5.76800 32.41100
H  33.72400 7.41400 29.91900
H  34.07300 5.77400 30.34500
H  33.60500 6.04500 28.75800
H  39.41200 8.95400 25.54700
H  42.20900 8.34500 25.50000
H  39.04200 6.62200 24.68800
H  40.14600 5.93100 25.95600
H  40.74800 6.67300 24.59600
H  41.32300 10.06600 24.17700
H  42.44000 10.61200 25.51100
H  40.98600 12.32300 25.54400
H  40.15600 11.20900 26.67700
H  39.63500 11.43200 24.95500
H  45.38500 10.77300 27.63300
H  46.49400 10.18000 28.90700
H  45.94900 11.89100 28.87700
H  43.74600 11.96000 33.80700
H  45.13000 9.62700 37.15800
H  46.53200 10.59500 36.76600
H  46.21400 8.96600 36.00500
Mg 16.73500 52.04200 25.91900
C  18.49100 50.79400 28.60900
C  14.29800 53.01000 28.08300
C  14.97100 52.97000 23.22600
C  19.36400 50.83800 23.79000
N  16.35900 51.80100 28.18500
C  17.28300 51.41000 29.06700
C  16.90000 51.43100 30.52200
C  15.35500 52.02100 30.28900
C  15.30200 52.33300 28.77000
C  14.19500 51.15300 30.79000
C  17.82900 52.41300 31.30500
C  17.61100 52.67400 32.77500
H  16.55700 51.81700 33.39300
N  14.91700 52.91400 25.68000
C  14.11100 53.25400 26.73500
C  12.94500 54.01400 26.16300
C  13.09700 54.05600 24.71400
C  14.33100 53.30600 24.47200
C  11.94900 54.61500 27.07800
C  12.24200 54.63600 23.66100
O  12.54200 54.66600 22.47300
C  11.04200 55.42900 24.02400
N  17.18400 51.91900 23.77800
C  16.29400 52.37800 22.94700
C  16.85000 52.32600 21.48800
C  18.27300 51.81000 21.66000
C  18.32000 51.48500 23.16800
C  15.92500 51.54100 20.49200
C  19.37100 52.83400 21.34900
C  20.79100 52.30100 20.88600
N  18.42500 50.95500 26.06600
C  19.44000 50.56300 25.11200
C  20.44600 49.78900 25.77700
C  20.07500 49.78200 27.13800
C  18.85100 50.52800 27.24800
C  21.64500 49.37900 25.22000
C  20.58000 49.41700 28.44500
O  21.55900 48.81200 28.76500
C  19.49300 49.98000 29.47000
C  18.99300 48.80000 30.12900
O  18.19400 48.03300 29.67300
O  19.21300 48.92000 31.51500
C  18.45000 47.95600 32.40300
H  13.59400 53.27100 28.87600
H  14.54500 53.19100 22.24500
H  20.13400 50.49700 23.09500
H  16.84900 50.41900 30.92300
H  15.21600 52.98300 30.78200
H  13.53500 51.70300 31.46100
H  14.50800 50.22500 31.27000
H  13.58900 50.80800 29.95300
H  17.72700 53.39100 30.83600
H  18.85800 52.07400 31.18500
H  17.25100 53.68000 32.98800
H  18.59600 52.45700 33.18700
H  10.91300 54.27600 27.07100
H  12.00600 55.62700 26.67600
H  12.33400 54.65000 28.09700
H  11.36600 56.26900 24.63800
H  10.32600 54.85000 24.60800
H  10.56800 55.77300 23.10500
H  16.90100 53.36900 21.17400
H  18.42800 50.88700 21.10100
H  16.56000 51.04900 19.75600
H  15.24500 52.30200 20.11200
H  15.25400 50.85500 21.01000
H  19.64000 53.44000 22.21500
H  18.98900 53.49400 20.57100
H  20.69900 51.23900 20.65700
H  21.47100 52.55800 21.69800
H  20.95500 52.91900 20.00400
H  22.48000 50.05300 25.40900
H  21.67600 49.17400 24.14900
H  21.96900 48.43200 25.65200
H  20.06100 50.54500 30.20900
H  18.32400 46.97700 31.94100
H  17.54600 48.39600 32.82300
H  19.01100 47.76900 33.31900

