158

Mg 35.82000 2.06900 29.69400
C  33.43700 3.13500 32.19200
C  38.10800 2.23400 32.27100
C  38.19600 1.75400 27.38900
C  33.25700 2.16600 27.30100
N  35.73000 2.40100 31.92100
C  34.60100 2.67700 32.75600
C  35.04000 2.79700 34.22400
C  36.57400 2.86700 34.13000
C  36.83600 2.42700 32.74200
C  37.29100 4.19600 34.52600
C  34.42500 1.61300 34.99700
C  34.29200 1.58200 36.52200
H  34.70700 2.86100 37.30700
N  37.91700 1.88700 29.82200
C  38.67600 2.01600 30.97200
C  40.03900 1.74200 30.69000
C  40.13000 1.70600 29.22700
C  38.71500 1.82900 28.71300
C  41.17400 1.58700 31.69300
C  41.39900 1.52900 28.34700
O  41.35000 1.45700 27.11300
C  42.78200 1.32400 29.04500
N  35.72900 1.89600 27.67100
C  36.85600 1.72800 26.94600
C  36.51800 1.45500 25.45600
C  34.99500 1.28700 25.52100
C  34.55000 1.73300 26.93200
C  37.00700 2.51300 24.32700
C  34.42700 -0.13500 25.19200
C  33.91500 -0.45100 23.79400
N  33.77200 2.59300 29.61500
C  32.85600 2.60400 28.60500
C  31.56500 3.16800 29.12400
C  31.75000 3.40000 30.44900
C  33.10100 2.97100 30.75300
C  30.38600 3.50100 28.31100
C  31.18200 3.82600 31.70800
O  30.00700 4.18700 31.91700
C  32.18400 3.75300 32.86400
C  32.44400 5.08500 33.42300
O  33.16500 5.92400 32.92200
O  31.73100 5.23000 34.64400
C  31.66100 6.49200 35.38600
H  38.91000 2.26400 33.01200
H  38.85000 1.47400 26.56100
H  32.45100 2.10800 26.56600
H  34.63000 3.75100 34.55700
H  36.91000 2.07600 34.80100
H  37.08900 5.01500 33.83600
H  38.34000 3.90900 34.58700
H  37.03200 4.65800 35.47900
H  34.79600 0.69600 34.54000
H  33.35200 1.52700 34.82700
H  34.87800 0.74200 36.89500
H  33.28900 1.24000 36.77700
H  41.75400 2.48500 31.48100
H  41.79600 0.70900 31.51800
H  40.70700 1.52800 32.67600
H  43.62800 1.37500 28.35900
H  42.83700 0.46900 29.71800
H  42.79800 2.20700 29.68400
H  36.92600 0.49800 25.13300
H  34.46200 2.00900 24.90200
H  37.68500 3.23700 24.77900
H  36.14800 3.04400 23.91800
H  37.67100 2.04700 23.59900
H  33.66400 -0.27900 25.95600
H  35.15100 -0.84200 25.59600
H  33.90500 0.49500 23.25400
H  32.91400 -0.87800 23.72500
H  34.57300 -1.09800 23.21400
H  30.68300 3.37400 27.27000
H  30.02100 4.50900 28.50800
H  29.51400 2.87700 28.50800
H  31.79900 3.05300 33.60500
H  30.68500 6.81200 35.75000
H  31.96200 7.30500 34.72600
H  32.26400 6.38400 36.28800
Mg -5.46800 25.16300 25.64400
C  -3.98400 26.69100 28.41700
C  -6.81000 22.77600 27.77100
C  -6.49200 23.56900 23.03100
C  -3.48000 27.24100 23.54600
N  -5.30600 24.72100 27.81600
C  -4.77300 25.61800 28.76000
C  -5.20900 25.26200 30.19900
C  -5.79500 23.81100 29.96000
C  -6.01800 23.72600 28.44500
C  -4.86400 22.59200 30.41700
C  -6.30900 26.23800 30.76400
C  -6.34900 26.58600 32.24500
H  -5.89700 25.49300 33.24700
N  -6.51500 23.39200 25.44100
C  -7.02700 22.55900 26.39000
C  -7.79500 21.50700 25.76500
C  -7.89800 21.80600 24.36600
C  -6.94700 22.95000 24.19900
C  -8.47700 20.35400 26.57100
C  -8.68700 21.19400 23.26200
O  -8.72200 21.66900 22.14500
C  -9.42000 19.94200 23.47400
N  -4.90400 25.28200 23.60100
C  -5.56200 24.47100 22.69400
C  -5.17800 24.79700 21.21200
C  -4.12100 26.01500 21.47400
C  -4.17300 26.22400 22.90400
C  -4.73700 23.62600 20.31800
C  -4.39600 27.21800 20.48500
C  -5.66000 28.04300 20.84300
N  -4.12100 26.64500 25.96100
C  -3.39600 27.46700 24.97400
C  -2.75800 28.51300 25.65700
C  -2.94500 28.29900 27.01800
C  -3.73900 27.13400 27.16200
C  -2.08300 29.71100 25.10900
C  -2.65400 28.80400 28.36300
O  -2.16800 29.84300 28.75000
C  -3.42300 27.80300 29.35900
C  -2.39900 27.14600 30.23800
O  -1.41700 26.55600 29.84700
O  -2.65600 27.37700 31.57900
C  -1.71100 26.80500 32.56200
H  -7.19100 22.09600 28.53600
H  -6.89300 23.03000 22.17000
H  -2.94600 27.92800 22.88600
H  -4.35800 25.28100 30.88000
H  -6.73000 23.76600 30.51700
H  -4.60700 21.97400 29.55600
H  -5.36000 22.03500 31.21200
H  -3.93900 22.97600 30.84800
H  -7.27300 25.88000 30.40500
H  -6.16700 27.14000 30.16900
H  -7.37600 26.70100 32.59400
H  -5.74900 27.47200 32.45400
H  -7.91200 19.51100 26.17400
H  -9.53400 20.35200 26.30300
H  -8.33300 20.35300 27.65200
H  -8.92900 19.26100 24.16800
H  -9.24200 19.40400 22.54200
H  -10.48800 20.00400 23.68400
H  -6.05700 25.25900 20.76300
H  -3.07500 25.79300 21.26400
H  -5.15700 23.65100 19.31200
H  -5.04800 22.65900 20.71300
H  -3.68600 23.76000 20.06300
H  -4.62800 26.67100 19.57200
H  -3.45400 27.76400 20.43900
H  -6.15000 27.51100 21.65900
H  -6.35900 28.02800 20.00700
H  -5.42900 29.07700 21.09700
H  -1.01200 29.58500 25.26700
H  -2.48500 30.60800 25.58100
H  -2.25100 29.76500 24.03400
H  -4.15100 28.35400 29.95600
H  -0.73400 27.28200 32.49400
H  -1.60100 25.72100 32.52600
H  -2.17400 26.95200 33.53800

