158

Mg 44.31800 3.22400 47.39000
C  41.58000 5.12100 46.33600
C  42.17200 0.43100 47.46200
C  46.96500 1.19300 47.42000
C  46.33000 6.02700 47.15400
N  42.08400 2.87300 46.95400
C  41.15700 3.79800 46.60000
C  39.76100 3.19000 46.38600
C  39.95000 1.76100 47.13900
C  41.48700 1.62700 47.12300
C  39.16300 1.74600 48.50300
C  39.39100 3.06800 44.89100
C  37.93700 3.42700 44.40300
H  37.96000 4.52100 43.26000
N  44.56600 1.16900 47.51900
C  43.57800 0.17800 47.55200
C  44.12700 -1.13100 47.71800
C  45.54000 -0.88200 47.84600
C  45.77600 0.52100 47.50400
C  43.35600 -2.41400 48.00200
C  46.60200 -1.90200 48.26100
O  46.26900 -3.05600 48.53600
C  48.04300 -1.62000 48.41300
N  46.33700 3.54000 47.51900
C  47.27900 2.54800 47.42200
C  48.70900 3.20900 47.41000
C  48.40900 4.68500 47.67800
C  46.92900 4.78800 47.39700
C  49.69800 2.54700 48.44000
C  49.29400 5.68500 46.84600
C  49.57900 7.00600 47.57300
N  44.05200 5.18800 46.92500
C  44.97100 6.18100 46.79400
C  44.35100 7.40400 46.38500
C  42.97900 7.06300 46.18600
C  42.85000 5.68600 46.49600
C  45.02500 8.73500 46.14400
C  41.69900 7.55100 45.79800
O  41.34100 8.68900 45.44700
C  40.74200 6.34700 45.94700
C  39.71700 6.64000 46.97600
O  40.07700 6.83000 48.13800
O  38.45500 6.48400 46.40700
C  37.47100 6.42900 47.50900
H  41.56700 -0.41600 47.79200
H  47.90100 0.65500 47.25800
H  46.92000 6.94400 47.08000
H  39.04400 3.80400 46.93100
H  39.51500 0.95400 46.54900
H  39.85700 1.56700 49.32400
H  38.48900 0.89700 48.39800
H  38.57600 2.63900 48.72100
H  39.52800 2.01500 44.64700
H  40.12500 3.68800 44.37700
H  37.24800 3.74100 45.18700
H  37.53400 2.49000 44.01800
H  42.31100 -2.60400 47.75600
H  43.47800 -2.68500 49.05100
H  43.95600 -3.09400 47.39700
H  48.60100 -1.60900 47.47600
H  48.52800 -2.42300 48.96800
H  48.24400 -0.77300 49.07000
H  49.01800 3.10400 46.37000
H  48.51200 4.90900 48.74000
H  50.53100 2.08900 47.90800
H  49.20800 1.66900 48.86000
H  50.12100 3.22500 49.18200
H  48.77200 5.98400 45.93700
H  50.20500 5.14300 46.59200
H  49.65900 7.79300 46.82300
H  50.49500 6.90400 48.15600
H  48.74500 7.21800 48.24200
H  44.45000 9.36700 45.46800
H  46.01500 8.53700 45.73300
H  45.24700 9.12700 47.13700
H  40.16200 6.06000 45.07000
H  37.46400 7.45900 47.86700
H  37.84000 5.77200 48.29600
H  36.44900 6.12500 47.28100
Mg 47.39800 14.81000 27.81600
C  45.38600 14.77300 30.75900
C  49.44900 16.98000 29.42500
C  48.87100 15.19600 24.95900
C  44.70000 13.23000 26.13000
N  47.35600 15.68100 29.94200
C  46.55600 15.54000 31.00200
C  47.12600 15.97200 32.32800
C  48.37500 16.77300 31.81500
C  48.42900 16.48500 30.28000
C  48.29200 18.34800 32.13300
C  47.36800 14.81800 33.30000
C  47.00700 15.12700 34.76800
H  46.94100 16.61900 35.27400
N  48.98100 15.87200 27.29000
C  49.72700 16.63000 28.08300
C  50.87700 17.22200 27.39000
C  50.85300 16.70300 26.08300
C  49.51500 15.88700 26.00300
C  51.89400 18.12000 28.10700
C  51.88900 16.77800 24.94500
O  51.63000 16.20500 23.87200
C  53.23400 17.49500 25.01200
N  46.75700 14.41100 25.80400
C  47.66000 14.57800 24.85000
C  47.18600 13.96900 23.52300
C  45.74700 13.38500 23.85800
C  45.70200 13.73400 25.35500
C  47.33900 14.80500 22.20200
C  45.47900 12.06100 23.30500
C  46.12100 10.88800 24.04300
N  45.57300 13.95400 28.35200
C  44.58800 13.36700 27.51400
C  43.47400 13.07800 28.36300
C  43.71500 13.61400 29.64200
C  44.98700 14.18100 29.57000
C  42.21600 12.28400 27.98200
C  43.12400 13.79700 30.94300
O  42.03800 13.52200 31.36600
C  44.28500 14.44800 31.79900
C  43.69600 15.67300 32.53400
O  43.54500 16.82500 32.15100
O  43.34400 15.23300 33.76900
C  42.68500 16.23800 34.57800
H  50.25600 17.37200 30.04700
H  49.40300 15.27100 24.00900
H  43.92300 12.63600 25.64300
H  46.52100 16.74700 32.79900
H  49.23000 16.39600 32.37400
H  48.04400 18.98100 31.28100
H  49.29300 18.59800 32.48400
H  47.65100 18.46700 33.00700
H  48.44800 14.75700 33.16000
H  46.92000 13.86800 33.00900
H  47.71000 14.58100 35.39700
H  45.98500 14.76000 34.85800
H  52.30600 18.89500 27.46100
H  52.71400 17.55600 28.55100
H  51.28100 18.65300 28.83400
H  53.80700 16.80100 25.62800
H  53.04400 18.45400 25.49300
H  53.69100 17.51900 24.02300
H  47.79000 13.06700 23.42300
H  45.00600 13.94400 23.28600
H  46.90700 14.25100 21.36800
H  48.37500 15.10300 22.04200
H  46.69800 15.67700 22.33600
H  45.73300 12.14500 22.24800
H  44.41300 11.94600 23.50300
H  45.41300 10.18200 24.47700
H  46.81500 11.23300 24.80900
H  46.58000 10.29600 23.25100
H  42.24400 11.34200 28.52900
H  42.14400 12.09600 26.91100
H  41.35900 12.92000 28.20300
H  44.63500 13.75200 32.56100
H  41.82700 16.69900 34.08700
H  43.24800 17.11200 34.90400
H  42.34500 15.88500 35.55200

