158

Mg 9.11500 3.22600 27.44000
C  10.28100 1.68000 30.32500
C  7.45300 5.46200 29.47200
C  7.76300 4.46100 24.70700
C  10.73000 0.64900 25.44300
N  8.93200 3.52000 29.65500
C  9.46500 2.74400 30.70400
C  9.21200 3.41600 32.13800
C  8.24600 4.58300 31.74400
C  8.17300 4.50900 30.18500
C  6.88500 4.54800 32.53600
C  10.61500 3.80000 32.73500
C  10.63500 4.98800 33.68100
H  11.10800 4.79900 35.07200
N  7.87400 4.83000 27.16000
C  7.30400 5.67700 28.09900
C  6.70000 6.74500 27.38800
C  6.78500 6.50100 25.93500
C  7.50200 5.19600 25.87600
C  6.04600 7.76200 28.15000
C  6.22400 7.35200 24.85700
O  6.45400 7.13000 23.65800
C  5.37300 8.62400 25.14700
N  9.10100 2.54600 25.40500
C  8.52100 3.31800 24.54800
C  8.64300 2.74300 23.16700
C  9.46100 1.43600 23.26700
C  9.81600 1.53900 24.79700
C  7.21500 2.52600 22.49500
C  10.64200 1.21100 22.25700
C  10.39900 0.07000 21.26900
N  10.29500 1.47800 27.74800
C  10.78400 0.55100 26.90700
C  11.57100 -0.38100 27.69200
C  11.40400 0.05100 29.02100
C  10.59200 1.17500 29.02200
C  12.24600 -1.64600 27.34800
C  11.80900 -0.25000 30.38900
O  12.58800 -1.11300 30.77900
C  11.18900 0.81900 31.27200
C  10.38400 0.22200 32.41100
O  9.37400 -0.41800 32.25900
O  11.02100 0.42000 33.60900
C  10.39200 -0.08900 34.85200
H  6.99800 6.21700 30.11700
H  7.30400 4.79500 23.77500
H  11.21000 -0.18000 24.91800
H  8.60400 2.75300 32.75500
H  8.64300 5.56900 31.98300
H  6.50400 5.55100 32.72900
H  7.18700 4.35100 33.56500
H  6.28300 3.78400 32.04400
H  11.24900 3.99500 31.87000
H  10.99000 2.93400 33.28000
H  9.65700 5.46200 33.77500
H  11.45000 5.62300 33.33400
H  5.86900 7.66100 29.22100
H  5.01100 7.70900 27.81300
H  6.44500 8.73200 27.85200
H  6.02500 9.21000 25.79500
H  4.54900 8.37200 25.81300
H  5.12800 9.19800 24.25300
H  9.08700 3.51300 22.53600
H  8.88900 0.51000 23.20600
H  7.06200 1.52400 22.09400
H  7.06100 3.18300 21.63900
H  6.37400 2.62600 23.18200
H  11.56200 1.03000 22.81400
H  10.74600 2.18800 21.78500
H  9.33400 -0.12600 21.14400
H  10.86300 -0.84900 21.62700
H  10.76100 0.48400 20.32800
H  13.20500 -1.42900 26.87800
H  11.60600 -2.17300 26.64100
H  12.16800 -2.18900 28.29000
H  11.96900 1.48200 31.64400
H  9.90800 0.71400 35.40800
H  11.29300 -0.47100 35.33100
H  9.73500 -0.94600 34.70100
Mg -10.35400 17.17300 43.48800
C  -6.84200 16.86000 43.10700
C  -10.11900 20.43100 42.36600
C  -13.63500 17.18300 43.15700
C  -10.43900 13.62300 43.83200
N  -8.57400 18.45500 42.71300
C  -7.27800 18.17600 42.73400
C  -6.39800 19.48800 42.35600
C  -7.52400 20.59900 42.45000
C  -8.82500 19.81100 42.47000
C  -7.28400 21.61500 43.60900
C  -5.57300 19.20900 40.97800
C  -5.94100 20.05900 39.76100
H  -5.52500 19.52500 38.46000
N  -11.69300 18.55800 42.97600
C  -11.40700 19.85200 42.51800
C  -12.63500 20.57500 42.24900
C  -13.67800 19.70200 42.55500
C  -13.04000 18.36700 42.92200
C  -12.70800 22.03000 41.86500
C  -15.15300 20.05600 42.52700
O  -15.49900 21.22800 42.31700
C  -16.23600 19.07400 42.80200
N  -11.86200 15.64700 43.48700
C  -13.12300 15.95500 43.38400
C  -13.99500 14.76800 43.77600
C  -13.04800 13.55600 43.71200
C  -11.67400 14.31200 43.64000
C  -14.90900 14.90300 44.98000
C  -13.24200 12.67300 42.45100
C  -13.59900 11.20800 42.76900
N  -8.93200 15.46500 43.59300
C  -9.09400 14.15300 43.73800
C  -7.84200 13.45900 43.68500
C  -6.92600 14.50900 43.48100
C  -7.61600 15.70700 43.38700
C  -7.57000 12.01000 43.77600
C  -5.50600 14.79900 43.29500
O  -4.54200 14.07300 43.17800
C  -5.44500 16.37000 43.13100
C  -4.62600 16.97300 44.29700
O  -3.37600 16.85000 44.35700
O  -5.37700 17.51300 45.27500
C  -4.74800 17.79500 46.57600
H  -10.11400 21.51300 42.21500
H  -14.72400 17.16600 43.07500
H  -10.44500 12.53800 43.95500
H  -5.71700 19.68900 43.18300
H  -7.56000 21.27000 41.59200
H  -8.03400 21.44300 44.38200
H  -7.47900 22.58500 43.15200
H  -6.32800 21.56700 44.12900
H  -5.71700 18.16600 40.69700
H  -4.51800 19.34500 41.21700
H  -5.63000 21.07200 40.01700
H  -7.02800 20.06600 39.84000
H  -13.49400 22.14000 41.11800
H  -11.79200 22.36300 41.37800
H  -13.00700 22.71100 42.66200
H  -16.26700 18.78300 43.85200
H  -16.04100 18.27700 42.08500
H  -17.20600 19.45700 42.48500
H  -14.72900 14.63900 42.98100
H  -13.14900 13.08000 44.68700
H  -14.93500 14.12200 45.74000
H  -15.95100 15.00800 44.67700
H  -14.61800 15.83200 45.46900
H  -12.38500 12.66200 41.77700
H  -14.05700 13.03900 41.82600
H  -14.51700 10.97000 42.23100
H  -13.56400 11.02000 43.84200
H  -12.86100 10.57700 42.27400
H  -6.97200 11.66400 44.61900
H  -7.02300 11.67000 42.89600
H  -8.52300 11.48300 43.72600
H  -4.83000 16.57800 42.25500
H  -5.30900 17.78500 47.51100
H  -4.18200 18.70500 46.38000
H  -4.00700 17.01500 46.74900

