158

Mg 54.44300 23.98600 43.06500
C  52.04700 26.43200 42.63300
C  52.13900 21.70200 42.16100
C  56.99400 21.85500 42.23800
C  56.90700 26.54200 42.99100
N  52.25500 24.03500 42.63400
C  51.49200 25.13800 42.47000
C  50.10700 24.75500 41.99300
C  50.11400 23.20100 42.13900
C  51.61500 22.94300 42.30900
C  49.38400 22.63300 43.32100
C  49.81300 25.14000 40.56300
C  51.00300 24.92900 39.53900
H  50.66100 24.75200 38.07700
N  54.51400 21.98600 42.48100
C  53.42600 21.14900 42.24400
C  53.89700 19.86400 41.81400
C  55.31000 19.92000 41.96700
C  55.67500 21.31600 42.25100
C  53.04400 18.63500 41.54400
C  56.22100 18.66900 41.81800
O  55.76800 17.58600 41.36900
C  57.66200 18.72600 42.09200
N  56.65500 24.10900 42.73000
C  57.50000 23.07600 42.49900
C  58.97900 23.45400 42.34200
C  58.87300 24.99500 42.59800
C  57.37600 25.22600 42.79600
C  60.02300 22.74900 43.24800
C  59.55400 25.88800 41.49800
C  58.75100 26.16000 40.22400
N  54.44800 26.01200 43.10700
C  55.47800 26.93400 43.03100
C  54.98900 28.27300 43.11600
C  53.63300 28.12600 43.05700
C  53.34800 26.72600 42.95200
C  55.80600 29.44500 43.00700
C  52.35900 28.83500 43.12600
O  52.10800 29.96700 43.41100
C  51.29000 27.82500 42.61300
C  50.81300 28.30400 41.32300
O  51.50700 28.25300 40.31000
O  49.50100 28.76000 41.33600
C  49.03200 29.14300 40.02700
H  51.44800 20.86600 42.02900
H  57.83300 21.22300 41.93900
H  57.64700 27.34400 43.03100
H  49.43200 25.18300 42.73300
H  49.63900 22.71500 41.28800
H  49.64600 23.29400 44.14700
H  49.77900 21.67400 43.65800
H  48.30300 22.52600 43.23200
H  49.41400 26.15300 40.49700
H  49.08700 24.48700 40.08000
H  51.60600 24.09200 39.89000
H  51.68300 25.77100 39.67000
H  52.99900 18.54600 40.45900
H  52.05100 18.78900 41.96900
H  53.51400 17.75700 41.98800
H  58.14800 17.75100 42.06200
H  57.99300 19.13800 43.04500
H  58.04600 19.30300 41.25000
H  59.25700 23.33800 41.29400
H  59.40400 25.15700 43.53600
H  60.65000 22.08200 42.65700
H  59.51100 22.22500 44.05500
H  60.71200 23.49800 43.63900
H  60.50600 25.40100 41.28200
H  59.86000 26.80800 41.99600
H  58.67200 27.23500 40.05900
H  57.73900 25.76100 40.28800
H  59.29000 25.70000 39.39500
H  55.17600 30.33300 43.06100
H  56.24700 29.40000 42.01100
H  56.55000 29.36600 43.79900
H  50.48000 27.81300 43.34100
H  49.38800 30.15800 39.84700
H  47.94400 29.18000 40.08500
H  49.40600 28.47900 39.24800
Mg -12.69500 17.12700 41.39300
C  -9.87600 15.04900 40.96300
C  -10.93800 19.65100 39.85800
C  -15.68500 18.92500 40.97200
C  -14.58300 14.41100 42.40700
N  -10.63900 17.26100 40.51400
C  -9.65400 16.36000 40.57900
C  -8.28200 16.89000 40.07400
C  -8.58600 18.40900 39.74600
C  -10.17900 18.46100 40.05500
C  -7.72500 19.45500 40.54600
C  -7.76900 16.15000 38.77600
C  -6.17900 16.25700 38.66500
H  -5.54100 16.10400 37.28400
N  -13.19900 19.05100 40.52900
C  -12.31000 19.93600 39.97800
C  -13.07700 21.16800 39.65700
C  -14.44000 21.00700 40.00000
C  -14.48900 19.57700 40.43400
C  -12.42000 22.36100 39.14000
C  -15.51300 22.03600 39.78000
O  -15.25300 23.13000 39.27000
C  -16.88000 21.81700 40.20100
N  -14.84400 16.73600 41.68200
C  -15.84500 17.63000 41.51300
C  -17.20300 17.07300 41.91900
C  -16.89100 15.58700 42.29200
C  -15.35400 15.51100 42.10600
C  -18.08500 17.92700 42.91500
C  -17.66600 14.42300 41.60200
C  -18.14000 13.26600 42.47900
N  -12.37700 15.15800 41.74400
C  -13.21700 14.17300 42.19100
C  -12.43900 12.84200 42.35600
C  -11.14000 13.21600 41.92000
C  -11.17200 14.57300 41.52500
C  -12.96100 11.54700 42.83900
C  -9.80500 12.76000 41.74200
O  -9.43000 11.60900 41.97200
C  -8.87600 13.93100 41.18500
C  -7.92100 14.39300 42.21200
O  -8.18400 14.89300 43.29000
O  -6.62200 14.01000 41.78400
C  -5.48600 14.55100 42.56200
H  -10.32700 20.48400 39.50500
H  -16.64900 19.40200 40.78300
H  -15.17400 13.55600 42.74300
H  -7.55600 16.75900 40.87600
H  -8.43700 18.69100 38.70400
H  -8.38300 19.93600 41.27000
H  -7.29300 20.19600 39.87400
H  -6.96500 18.88100 41.07600
H  -8.20200 16.56500 37.86600
H  -8.00900 15.09000 38.85300
H  -5.67500 15.53500 39.30700
H  -6.04700 17.30500 38.93300
H  -12.56600 23.24500 39.76100
H  -12.84000 22.61000 38.16500
H  -11.36800 22.26400 38.87300
H  -16.92000 21.57300 41.26200
H  -17.31900 21.01900 39.60100
H  -17.45000 22.73400 40.05000
H  -17.71400 16.96000 40.96300
H  -17.13100 15.40600 43.34000
H  -18.09000 17.26300 43.77900
H  -19.11300 18.09300 42.59100
H  -17.57900 18.82000 43.28200
H  -17.11200 13.93200 40.80200
H  -18.47700 14.97900 41.13200
H  -17.81400 13.43500 43.50500
H  -17.86000 12.28300 42.10200
H  -19.22600 13.28500 42.57300
H  -13.86200 11.57800 43.45200
H  -12.15200 11.20200 43.48300
H  -13.08000 11.03200 41.88500
H  -8.25800 13.57700 40.36000
H  -5.32500 15.62500 42.46600
H  -4.70900 14.01700 42.01600
H  -5.41400 14.24200 43.60500

