158

Mg 25.21300 0.97300 29.91700
C  27.04700 1.07800 32.81200
C  22.31900 1.34000 31.80200
C  23.36700 0.60000 27.16700
C  28.15400 0.48600 28.15000
N  24.69900 1.12300 32.05700
C  25.65500 1.31700 33.00700
C  24.93600 1.74700 34.32600
C  23.44000 1.80400 34.08400
C  23.43900 1.41800 32.57900
C  22.63500 0.67100 34.88300
C  25.48900 3.20700 34.72400
C  26.21900 3.30000 36.08400
H  25.64900 4.21100 37.20200
N  23.13000 0.90700 29.48200
C  22.16500 1.16700 30.38900
C  20.88600 1.19000 29.74600
C  21.17900 0.89200 28.33000
C  22.57400 0.73900 28.31200
C  19.53400 1.42200 30.46600
C  20.17400 0.74400 27.23900
O  20.39900 0.52500 26.05700
C  18.62700 0.80200 27.62200
N  25.67700 0.48500 27.99000
C  24.73700 0.60500 26.96400
C  25.46500 0.59900 25.60800
C  26.92100 0.78100 26.00200
C  26.94200 0.53800 27.48900
C  25.21800 -0.60300 24.71700
C  27.43800 2.20800 25.63700
C  26.64500 3.46100 26.21400
N  27.22400 0.78800 30.32400
C  28.28500 0.55300 29.54000
C  29.45400 0.35400 30.36000
C  29.05100 0.66100 31.66200
C  27.67800 0.85600 31.59900
C  30.86200 0.11700 29.86000
C  29.50000 0.96200 33.02700
O  30.61500 0.95300 33.54100
C  28.23100 1.30200 33.83600
C  28.18300 0.38200 34.98800
O  27.75000 -0.76200 35.03800
O  28.65700 1.06700 36.08400
C  28.53800 0.21000 37.29000
H  21.46600 1.72000 32.36800
H  22.79800 0.49700 26.24100
H  29.02300 0.52700 27.49000
H  25.20700 1.01100 35.08300
H  22.91100 2.74400 34.24000
H  21.92400 1.18600 35.53000
H  23.30400 0.11300 35.53800
H  22.08500 0.03500 34.19000
H  24.56900 3.78300 34.82000
H  26.10400 3.55200 33.89200
H  27.18900 3.70100 35.78900
H  26.47000 2.28900 36.40500
H  19.12100 2.38000 30.14900
H  19.60600 1.63600 31.53200
H  18.86800 0.58400 30.26100
H  18.27200 1.55900 28.32100
H  18.38600 -0.23100 27.87100
H  17.98900 1.07400 26.78100
H  25.12000 1.47300 25.05400
H  27.54500 0.05400 25.48400
H  26.15700 -0.91100 24.25600
H  24.60300 -0.32800 23.86000
H  24.89200 -1.50200 25.24100
H  27.33000 2.23300 24.55300
H  28.51000 2.19200 25.83300
H  25.81400 3.25400 26.88800
H  26.16100 3.99100 25.39200
H  27.26100 4.11400 26.83200
H  31.07200 0.12200 28.79000
H  31.03500 -0.85800 30.31600
H  31.53900 0.75100 30.43300
H  28.31600 2.31500 34.22900
H  28.66100 0.89800 38.12700
H  29.30700 -0.56300 37.28200
H  27.53400 -0.20500 37.38200
Mg 26.94500 50.51400 26.24700
C  25.31300 51.47900 29.19000
C  29.59100 49.45800 28.39800
C  28.82300 49.81600 23.53200
C  24.44400 51.96900 24.40200
N  27.49700 50.60300 28.54200
C  26.46000 50.78400 29.49800
C  26.97000 50.30600 30.88400
C  28.46000 49.93200 30.59300
C  28.49100 49.96800 29.08300
C  29.54100 50.87600 31.16600
C  26.19700 49.08500 31.54500
C  25.44500 49.29700 32.85900
H  26.37100 49.47700 34.05800
N  28.93700 49.76700 26.02500
C  29.84300 49.29700 27.00300
C  31.08600 48.83600 26.37600
C  30.90800 49.05800 24.96600
C  29.51800 49.60400 24.81200
C  32.19900 48.22600 27.15000
C  31.80900 48.88500 23.80800
O  31.54300 49.19900 22.65900
C  33.29700 48.41100 24.09700
N  26.82400 50.98500 24.30400
C  27.59100 50.40600 23.29800
C  26.96300 50.58600 21.89600
C  25.53100 51.13900 22.28900
C  25.61500 51.37300 23.78500
C  27.78400 51.47900 20.91100
C  24.25000 50.48200 21.74400
C  23.29900 51.41700 20.96800
N  25.17700 51.57300 26.70600
C  24.25400 52.07900 25.81800
C  23.13700 52.57300 26.49400
C  23.47900 52.42200 27.84700
C  24.77800 51.77100 27.89800
C  21.92100 53.14600 25.85700
C  23.18100 52.64600 29.15800
O  22.23700 53.20900 29.58100
C  24.19000 51.99200 30.21900
C  24.74700 53.00800 31.17600
O  25.40800 53.99300 30.86900
O  24.29600 52.72600 32.45000
C  24.52000 53.81100 33.43300
H  30.34900 49.11100 29.10400
H  29.24800 49.43500 22.60100
H  23.66400 52.35000 23.74000
H  27.00400 51.12900 31.59800
H  28.67600 48.91200 30.91100
H  30.25200 50.41500 31.85200
H  29.13800 51.70700 31.74500
H  30.06500 51.30400 30.31200
H  26.89400 48.26400 31.71100
H  25.49200 48.64800 30.83800
H  24.85300 48.38600 32.94100
H  24.76200 50.14500 32.81400
H  32.13100 48.15400 28.23600
H  33.16200 48.71900 27.02200
H  32.24000 47.15500 26.95400
H  33.81400 49.34700 24.31000
H  33.80200 47.84600 23.31400
H  33.45400 47.88800 25.04000
H  26.94100 49.57800 21.48300
H  25.58300 52.10700 21.79100
H  28.53800 52.03300 21.47000
H  27.24300 52.21900 20.32200
H  28.30200 50.88200 20.16000
H  23.66600 50.12200 22.59100
H  24.55800 49.57900 21.21700
H  23.83900 51.64700 20.04900
H  23.09900 52.36700 21.46300
H  22.36400 50.90000 20.74900
H  21.70000 52.58500 24.94900
H  22.08000 54.18200 25.55600
H  21.15000 53.08500 26.62500
H  23.65200 51.23900 30.79500
H  24.76800 54.79400 33.03500
H  25.46600 53.52800 33.89600
H  23.77000 53.77100 34.22400

