158

Mg 49.38100 34.59000 27.22000
C  47.42600 33.81600 29.98100
C  50.00900 37.56600 28.70100
C  51.16100 35.64300 24.37200
C  48.24100 31.95500 25.49400
N  48.82200 35.45300 29.27800
C  48.05600 35.00000 30.27600
C  47.82900 35.98400 31.39500
C  48.49000 37.26300 30.81300
C  49.13900 36.75400 29.50100
C  47.63000 38.56400 30.62900
C  48.48500 35.54300 32.75100
C  47.43500 35.38300 33.86000
H  47.30800 36.64000 34.77400
N  50.52200 36.29400 26.67900
C  50.69200 37.37900 27.46600
C  51.55600 38.28300 26.81200
C  51.95000 37.79100 25.55300
C  51.23100 36.49100 25.50900
C  51.88600 39.61800 27.39900
C  52.78900 38.47100 24.49200
O  53.03400 37.94700 23.42100
C  53.40100 39.76800 24.74300
N  49.57800 33.99900 25.21400
C  50.46800 34.49300 24.25900
C  50.40000 33.67700 22.95300
C  49.62800 32.41700 23.40200
C  49.09200 32.78800 24.76900
C  49.81700 34.55500 21.79400
C  50.40500 31.06400 23.37900
C  50.38900 30.29400 22.02600
N  48.15300 33.11800 27.61300
C  47.85300 32.03400 26.86900
C  47.04800 31.09900 27.61200
C  46.73100 31.87800 28.73300
C  47.52500 33.06300 28.77800
C  46.57500 29.75200 27.17800
C  45.88100 31.92700 29.92500
O  45.04700 31.11600 30.33900
C  46.19600 33.17800 30.72300
C  46.68200 32.65600 31.95000
O  47.83300 32.31100 32.16300
O  45.59800 32.43200 32.83000
C  45.86700 31.98000 34.20600
H  50.14500 38.58500 29.06700
H  51.81300 35.78300 23.50800
H  47.88200 31.04900 25.00300
H  46.74800 36.08600 31.49000
H  49.38100 37.46000 31.40900
H  48.30700 39.37500 30.89700
H  46.73500 38.52200 31.25000
H  47.19900 38.46700 29.63200
H  49.07200 36.33100 33.22400
H  49.11100 34.65900 32.63700
H  47.75700 34.62500 34.57400
H  46.46100 35.10000 33.46100
H  52.81800 39.65300 27.96400
H  51.08400 39.89800 28.08200
H  51.84000 40.46800 26.71800
H  54.17600 39.78400 25.50900
H  52.59900 40.50200 24.82500
H  53.89600 40.04000 23.81000
H  51.42300 33.42900 22.67200
H  48.73800 32.38200 22.77400
H  49.53200 35.54800 22.14200
H  48.89400 34.10900 21.42300
H  50.57500 34.59700 21.01200
H  50.04900 30.36300 24.13400
H  51.44600 31.27500 23.62300
H  49.89600 29.32400 22.08800
H  51.39400 30.25500 21.60600
H  49.84100 30.86500 21.27600
H  46.71000 29.11200 28.05000
H  47.33200 29.43900 26.45900
H  45.50500 29.70900 26.97400
H  45.33300 33.83300 30.84200
H  45.20000 31.12700 34.33200
H  45.56000 32.72900 34.93500
H  46.90800 31.68500 34.34500
Mg 10.09100 48.29200 26.29900
C  8.12200 48.79000 29.21400
C  12.77900 49.75800 27.95200
C  11.68100 48.05200 23.53700
C  7.03700 47.99100 24.59700
N  10.33300 49.15200 28.36100
C  9.47800 49.16400 29.38300
C  10.20100 49.64600 30.67600
C  11.51200 50.22300 30.09600
C  11.55100 49.68200 28.71300
C  11.59200 51.76900 30.00600
C  10.38100 48.49800 31.77400
C  9.77200 48.74900 33.13100
H  9.55600 47.53800 34.00700
N  11.95000 48.65700 25.85800
C  12.99300 49.19600 26.67700
C  14.27800 49.17800 25.89300
C  13.93900 48.63200 24.56000
C  12.49000 48.44100 24.58900
C  15.52800 49.62300 26.43900
C  14.85000 48.34900 23.39600
O  14.48000 47.87800 22.31700
C  16.25400 48.52900 23.50800
N  9.37100 48.02700 24.38200
C  10.31900 47.91200 23.43500
C  9.69900 47.55500 22.07100
C  8.18900 47.64000 22.33600
C  8.15600 47.81100 23.82500
C  10.11100 48.47700 20.86600
C  7.42300 46.43200 21.89500
C  6.74300 46.62700 20.55600
N  8.04800 48.20400 26.76900
C  6.91400 48.11200 25.98700
C  5.72800 48.21200 26.75300
C  6.12800 48.35300 28.05000
C  7.57600 48.43200 27.95800
C  4.33000 48.12500 26.18700
C  5.76200 48.52900 29.40100
O  4.59600 48.54100 29.89500
C  7.00300 48.68300 30.23500
C  7.10400 47.46500 31.15600
O  7.67900 46.40100 30.97200
O  6.20200 47.62000 32.17900
C  5.83300 46.43100 33.01900
H  13.58200 50.24800 28.50700
H  12.30600 47.82800 22.67000
H  6.07400 47.96500 24.08300
H  9.63300 50.40600 31.21200
H  12.41000 49.84400 30.58400
H  11.28500 52.13500 29.02700
H  12.59000 52.17200 30.18000
H  10.91500 52.21000 30.73700
H  11.44400 48.36600 31.97500
H  10.05600 47.52500 31.40600
H  8.78900 49.10300 32.82300
H  10.15200 49.60900 33.68200
H  15.36400 50.39100 27.19500
H  16.03300 50.20000 25.66500
H  16.16300 48.86200 26.89300
H  16.63000 48.04400 24.40900
H  16.47000 49.59700 23.47400
H  16.77100 48.04700 22.67900
H  10.00500 46.53000 21.86000
H  7.82800 48.53500 21.82800
H  9.26200 48.80100 20.26400
H  10.89300 48.02900 20.25300
H  10.66600 49.36600 21.16500
H  6.68400 46.26600 22.67900
H  8.09900 45.57800 21.86300
H  5.88200 47.27800 20.70800
H  6.37000 45.65800 20.22600
H  7.44600 47.04000 19.83200
H  3.68800 48.85900 26.67500
H  4.04800 47.07800 26.29700
H  4.28700 48.39000 25.13100
H  6.90600 49.57600 30.85200
H  4.76200 46.24500 32.94300
H  6.24000 46.67900 34.00000
H  6.39800 45.58800 32.62200

