158

Mg 2.35800 -1.46800 44.29100
C  5.38200 -0.02700 43.26600
C  0.64200 0.83500 42.40700
C  -0.45600 -3.10200 44.97900
C  4.21300 -4.20200 45.57600
N  2.97500 0.22800 43.14500
C  4.25100 0.64900 42.80400
C  4.18300 1.85500 41.86000
C  2.62900 2.21500 41.76600
C  2.02400 0.97700 42.47800
C  2.16300 3.64700 42.40300
C  4.99100 1.72200 40.58000
C  6.03600 2.82600 40.23000
H  5.93800 3.52900 38.85700
N  0.26200 -1.17000 43.82400
C  -0.17900 -0.16900 42.99300
C  -1.59800 -0.32900 42.79400
C  -1.95100 -1.48600 43.51100
C  -0.70500 -1.97400 44.08900
C  -2.38700 0.64700 41.93000
C  -3.34500 -2.09100 43.49400
O  -4.24700 -1.68300 42.78900
C  -3.65200 -3.32800 44.33200
N  1.92900 -3.46400 45.10700
C  0.72300 -3.68200 45.55500
C  0.71500 -4.97000 46.38500
C  2.24000 -5.41600 46.37400
C  2.81300 -4.28600 45.70000
C  0.05800 -5.00300 47.87000
C  2.43400 -6.83700 45.74200
C  3.36400 -7.66600 46.57200
N  4.33300 -2.08800 44.35400
C  4.91300 -3.20500 44.93000
C  6.36800 -3.16900 44.68900
C  6.57200 -1.91000 44.08900
C  5.32600 -1.26100 43.96400
C  7.27600 -4.19300 45.29400
C  7.55600 -0.97900 43.65200
O  8.79500 -1.10100 43.70500
C  6.84700 0.29300 43.07100
C  7.27700 1.47300 43.85900
O  6.85800 1.68300 44.98100
O  8.27100 2.24500 43.25600
C  8.78500 3.38900 44.04500
H  0.02500 1.54700 41.85400
H  -1.36100 -3.53500 45.41200
H  4.71700 -5.03100 46.07800
H  4.65200 2.67700 42.40000
H  2.31200 2.24300 40.72300
H  1.44700 3.61100 43.22500
H  1.67300 4.17800 41.58800
H  2.99200 4.22400 42.81100
H  4.32700 1.68800 39.71600
H  5.42000 0.72400 40.66400
H  6.99000 2.30100 40.17100
H  5.96200 3.52200 41.06500
H  -2.64000 0.24100 40.95100
H  -1.96200 1.63500 41.75300
H  -3.34600 0.86200 42.40100
H  -4.68300 -3.54600 44.05300
H  -3.59100 -3.01800 45.37500
H  -2.98200 -4.12000 43.99900
H  0.12000 -5.69000 45.82300
H  2.53900 -5.41200 47.42200
H  0.09800 -4.12000 48.50700
H  0.68500 -5.63700 48.49700
H  -0.96100 -5.33200 47.66800
H  3.01500 -6.73500 44.82600
H  1.57300 -7.45800 45.49500
H  3.36300 -8.65300 46.11000
H  3.01700 -7.71800 47.60400
H  4.31800 -7.14000 46.60000
H  7.21900 -5.08900 44.67600
H  7.01700 -4.59100 46.27500
H  8.25900 -3.79700 45.03500
H  7.32100 0.58600 42.13500
H  9.49700 3.10400 44.81900
H  7.96600 3.86600 44.58400
H  9.14200 4.22100 43.43800
Mg 35.69400 0.99400 28.96300
C  33.63800 2.61200 31.39300
C  38.20200 1.08100 31.36300
C  37.85300 0.23400 26.55400
C  33.35800 2.09900 26.57200
N  35.83200 1.63200 31.09700
C  34.81300 2.10200 31.87300
C  35.21800 2.13900 33.41800
C  36.82700 1.99600 33.39200
C  36.99100 1.51000 31.85500
C  37.66500 3.24400 33.84500
C  34.51300 0.99500 34.16800
C  34.43600 1.20900 35.65900
H  35.06500 2.41600 36.34700
N  37.69200 0.54700 28.92700
C  38.55000 0.65900 30.02600
C  39.91300 0.32400 29.58900
C  39.85200 -0.03400 28.14500
C  38.42100 0.17800 27.83300
C  41.10500 0.27500 30.55500
C  40.91200 -0.44300 27.19000
O  40.65000 -0.66400 25.98200
C  42.30600 -0.80100 27.59800
N  35.59600 1.09500 26.85800
C  36.62000 0.66900 26.11700
C  36.22500 0.61000 24.63100
C  34.65800 0.90100 24.74900
C  34.51800 1.47900 26.13300
C  37.05600 1.47600 23.70100
C  33.77100 -0.37000 24.60300
C  32.95700 -0.38100 23.35100
N  33.84800 2.13200 28.96400
C  33.01400 2.38200 27.93300
C  31.83300 3.02200 28.42700
C  32.03200 3.07900 29.78700
C  33.29100 2.60500 30.05300
C  30.66700 3.42400 27.63500
C  31.44700 3.44300 31.07300
O  30.34300 3.89700 31.33700
C  32.44300 3.20100 32.16600
C  32.59000 4.49400 32.95000
O  33.17500 5.54700 32.60700
O  31.91900 4.32700 34.23100
C  31.52200 5.63100 34.85900
H  39.00600 1.23500 32.08600
H  38.49800 -0.06000 25.72400
H  32.61500 2.13800 25.77200
H  35.05400 3.14400 33.80700
H  36.94700 1.13600 34.05100
H  36.97300 3.97900 34.25600
H  38.17500 3.66900 32.98000
H  38.37700 3.10800 34.65800
H  34.92600 -0.00700 34.05500
H  33.48900 0.98600 33.79400
H  34.81100 0.29800 36.12500
H  33.39500 1.35900 35.94500
H  41.49800 -0.70700 30.81700
H  40.93200 0.80200 31.49300
H  41.94200 0.60400 29.94000
H  42.76900 -1.33400 26.76700
H  42.36300 -1.42700 28.48800
H  42.81800 0.16100 27.60100
H  36.28500 -0.41600 24.26700
H  34.35100 1.72000 24.09900
H  37.85300 1.99700 24.23200
H  36.43700 2.16200 23.12200
H  37.43200 0.81000 22.92400
H  33.00900 -0.30200 25.37900
H  34.40000 -1.25800 24.66900
H  33.18600 0.40900 22.63600
H  31.89800 -0.37000 23.60900
H  33.08700 -1.33600 22.84400
H  30.82700 4.38500 27.14500
H  29.72400 3.43900 28.18200
H  30.49100 2.75100 26.79500
H  32.04700 2.45300 32.85300
H  31.02500 6.30200 34.15800
H  32.46900 6.04500 35.20600
H  30.89200 5.44600 35.72900

