158

Mg 23.80700 -6.47700 46.62200
C  26.50000 -4.42100 45.68200
C  22.02500 -4.91500 44.18000
C  21.45400 -8.65400 47.35700
C  26.06300 -8.25700 48.57800
N  24.30600 -4.94700 44.99500
C  25.38000 -4.10800 44.94100
C  25.29300 -3.00900 43.78000
C  23.78800 -3.16200 43.34200
C  23.31700 -4.41000 44.21900
C  22.90400 -1.89400 43.48100
C  26.27400 -3.17800 42.59800
C  26.97700 -1.84500 42.23300
H  27.03200 -1.34700 40.73600
N  21.99100 -6.78900 45.80600
C  21.36100 -5.96400 44.88300
C  19.96800 -6.40800 44.76900
C  19.72100 -7.39800 45.71500
C  21.08300 -7.70800 46.36600
C  18.99300 -5.81600 43.75000
C  18.45800 -8.04900 45.96100
O  17.43200 -7.73400 45.32700
C  18.24300 -9.12700 47.01100
N  23.82700 -8.19200 47.73500
C  22.67100 -8.84000 47.93000
C  22.91300 -10.12200 48.81700
C  24.34300 -9.98400 49.29000
C  24.80400 -8.76700 48.47000
C  21.89800 -10.11000 50.00300
C  25.20500 -11.23500 49.04100
C  25.72600 -11.63800 47.69200
N  25.87500 -6.21200 47.25900
C  26.67900 -7.13100 48.00100
C  28.01800 -6.55300 48.15700
C  28.00300 -5.42400 47.34500
C  26.67800 -5.35800 46.73400
C  29.22800 -7.25000 48.85000
C  28.78600 -4.36500 46.74600
O  30.02700 -4.19100 46.81700
C  27.86500 -3.72900 45.65100
C  27.91100 -2.28900 45.80500
O  28.65200 -1.51300 45.26400
O  26.88500 -1.87900 46.55100
C  26.66700 -0.44000 46.69800
H  21.47800 -4.25000 43.50800
H  20.69100 -9.36400 47.68100
H  26.71000 -8.82500 49.25000
H  25.52500 -2.08500 44.30800
H  23.85600 -3.46700 42.29800
H  22.53700 -1.51900 42.52500
H  23.37100 -1.00000 43.89400
H  22.06400 -2.17300 44.11700
H  25.86900 -3.63200 41.69300
H  27.05800 -3.86700 42.90900
H  27.99200 -1.99300 42.60100
H  26.54100 -1.04100 42.82500
H  18.84300 -6.46200 42.88500
H  19.30500 -4.81100 43.46900
H  18.02800 -5.74100 44.25100
H  17.19000 -9.39500 47.09800
H  18.61400 -8.74600 47.96300
H  18.78000 -10.03800 46.74700
H  22.82500 -10.95300 48.11800
H  24.36500 -9.75300 50.35500
H  22.18900 -10.23800 51.04600
H  21.22200 -10.95600 49.87600
H  21.42600 -9.12900 49.95200
H  24.66700 -12.09200 49.44400
H  25.97300 -11.12900 49.80700
H  26.73500 -12.02600 47.83200
H  25.88900 -10.68700 47.18500
H  25.12000 -12.38500 47.17800
H  28.98900 -8.31300 48.80800
H  29.29500 -6.92300 49.88700
H  30.18700 -7.01200 48.38900
H  28.42400 -3.77600 44.71600
H  27.42400 0.08300 47.28200
H  25.78800 -0.20900 47.30000
H  26.53300 0.06400 45.74100
Mg 9.79400 47.81000 26.50500
C  7.69900 48.18700 29.42800
C  12.31400 49.22200 28.34500
C  11.62500 47.35800 23.89600
C  6.86600 47.53900 24.69600
N  9.97200 48.51000 28.70800
C  9.02500 48.46700 29.68700
C  9.72000 48.91600 31.00400
C  10.97700 49.69000 30.53100
C  11.15900 49.04800 29.15400
C  10.73700 51.21100 30.34800
C  10.19800 47.71600 31.93300
C  10.05900 47.87600 33.41800
H  9.75200 46.66000 34.33500
N  11.77500 48.25700 26.12400
C  12.64400 48.73800 27.03700
C  14.00000 48.62600 26.46600
C  13.82800 47.99100 25.21700
C  12.38600 47.86200 25.01400
C  15.24600 48.96100 27.29800
C  14.82600 47.55000 24.14800
O  14.45000 47.09000 23.09400
C  16.25900 47.61300 24.36500
N  9.30000 47.70200 24.47700
C  10.28700 47.35300 23.58200
C  9.70000 46.81600 22.31300
C  8.15600 46.95000 22.58000
C  8.06600 47.46700 23.98900
C  10.18400 47.60500 21.08600
C  7.38700 45.61800 22.30500
C  6.19900 45.71000 21.41000
N  7.69400 47.75700 26.92900
C  6.61700 47.65300 26.10200
C  5.40600 47.61300 26.77500
C  5.80200 47.79700 28.08500
C  7.17100 47.95100 28.13500
C  4.03500 47.33800 26.37400
C  5.32100 47.79500 29.47300
O  4.22500 47.65500 29.94400
C  6.56900 48.03300 30.41700
C  6.69800 46.92900 31.34700
O  7.27500 45.85800 31.13500
O  6.01300 47.22200 32.50000
C  5.64100 46.04600 33.36800
H  13.10100 49.72300 28.91100
H  12.20900 46.98100 23.05300
H  5.96500 47.31300 24.12200
H  8.99500 49.54400 31.52300
H  11.85700 49.50500 31.14700
H  11.39300 51.79300 30.99500
H  9.73100 51.52200 30.62800
H  10.88100 51.51500 29.31100
H  11.26200 47.52300 31.80100
H  9.72000 46.75400 31.74500
H  9.33300 48.64100 33.69400
H  11.02200 48.24200 33.77400
H  15.07400 48.89000 28.37200
H  15.70700 49.93400 27.13300
H  15.91500 48.15600 26.99500
H  16.51700 46.88200 25.13100
H  16.48600 48.58900 24.79300
H  16.77500 47.45400 23.41800
H  9.98400 45.76500 22.25400
H  7.80300 47.72000 21.89400
H  10.61500 48.51000 21.51600
H  9.45000 47.81100 20.30700
H  10.95600 46.97600 20.64100
H  6.98000 45.23200 23.23900
H  8.00000 44.81700 21.89300
H  5.97700 46.74200 21.13800
H  5.27600 45.40800 21.90400
H  6.31500 45.22200 20.44200
H  3.48400 48.27300 26.47100
H  3.54200 46.62900 27.03900
H  3.93500 46.93500 25.36600
H  6.44400 48.95400 30.98600
H  6.10500 46.14500 34.34900
H  5.92500 45.05700 33.00900
H  4.57200 46.07200 33.58100

