158

Mg 41.43100 8.64000 29.24300
C  43.18300 9.61000 32.15900
C  39.18900 6.86300 31.22400
C  40.01600 7.55300 26.44900
C  44.06500 9.95400 27.37700
N  41.18400 8.37800 31.37800
C  42.01300 8.89700 32.42000
C  41.39800 8.53700 33.73300
C  40.37500 7.37400 33.43500
C  40.28900 7.42100 31.89300
C  40.81000 5.93000 33.90100
C  40.77900 9.75300 34.53300
C  40.88200 9.69600 36.02800
H  41.58000 10.89000 36.66700
N  39.81200 7.30500 28.92700
C  38.97700 6.79100 29.83400
C  37.90200 6.17200 29.14000
C  38.07900 6.47100 27.74300
C  39.37600 7.08500 27.62700
C  36.75800 5.39200 29.85100
C  37.19300 6.00500 26.60900
O  37.66400 5.92200 25.49000
C  35.87300 5.45500 26.89500
N  42.12900 8.46800 27.31800
C  41.29500 8.07300 26.28500
C  41.95900 8.26900 24.90900
C  43.30200 8.94700 25.21100
C  43.21700 9.08100 26.73600
C  42.12200 6.88800 24.23800
C  43.51800 10.33000 24.48000
C  42.50100 11.47800 24.75800
N  43.22500 9.68900 29.62600
C  44.19600 10.19600 28.77800
C  45.18700 10.86600 29.51300
C  44.83200 10.66100 30.85400
C  43.67400 9.88300 30.88900
C  46.36300 11.58500 28.93600
C  45.27900 10.96600 32.19000
O  46.11700 11.71700 32.64500
C  44.21000 10.28200 33.08600
C  44.77800 9.25100 34.00200
O  45.22500 8.16700 33.72900
O  44.72800 9.76100 35.26900
C  45.18100 9.02800 36.43100
H  38.47900 6.25600 31.78900
H  39.35300 7.40600 25.59300
H  44.86400 10.45800 26.83000
H  42.19000 8.02300 34.27600
H  39.33300 7.51000 33.72500
H  41.06400 5.33100 33.02600
H  40.05600 5.51700 34.57100
H  41.68600 6.04300 34.54000
H  39.70200 9.80000 34.37800
H  41.20000 10.68500 34.15700
H  41.44500 8.78800 36.24600
H  39.94600 9.59000 36.57600
H  36.98200 5.32200 30.91500
H  36.49400 4.38900 29.51600
H  35.83100 5.96500 29.82500
H  35.17600 5.49800 26.05800
H  35.35900 6.06300 27.64000
H  36.10400 4.44500 27.23400
H  41.26000 8.95300 24.42800
H  44.11400 8.23600 25.06100
H  41.78400 6.03700 24.83000
H  43.13100 6.76100 23.84600
H  41.44400 6.88700 23.38400
H  43.49600 10.11600 23.41200
H  44.55700 10.59000 24.68500
H  42.02300 11.08700 25.65600
H  41.77300 11.40600 23.95000
H  42.94500 12.46800 24.85600
H  46.33700 11.99400 27.92600
H  47.10900 10.79200 28.97900
H  46.59000 12.40900 29.61200
H  43.62600 10.96300 33.70600
H  44.34000 8.73100 37.05800
H  45.85000 9.53900 37.12300
H  45.74200 8.16800 36.06500
Mg 48.34500 24.69900 27.53800
C  49.26700 26.98200 29.85800
C  47.66900 22.42000 30.04600
C  47.65100 22.35400 25.14000
C  49.76300 26.70700 25.04300
N  48.38300 24.70300 29.76400
C  48.82900 25.74800 30.51600
C  48.52200 25.58200 32.05500
C  48.23300 24.00500 32.09300
C  48.12100 23.61600 30.53900
C  49.29800 23.12900 32.80200
C  47.27400 26.41300 32.43800
C  46.69300 26.05000 33.76400
H  46.52200 27.14800 34.82300
N  47.67500 22.70200 27.54800
C  47.44300 21.95000 28.64200
C  46.81700 20.69000 28.27000
C  46.70200 20.71700 26.81500
C  47.30200 22.01000 26.42800
C  46.36800 19.68600 29.26000
C  46.13100 19.69700 25.86600
O  46.03600 19.97300 24.67800
C  45.54700 18.43200 26.41200
N  48.71900 24.61000 25.41900
C  48.25800 23.53700 24.71800
C  48.50100 23.73600 23.18800
C  49.03900 25.24700 23.09100
C  49.19400 25.56700 24.54300
C  49.54900 22.73000 22.42200
C  48.04400 26.20200 22.37600
C  48.67300 27.36700 21.57100
N  49.16200 26.49000 27.41200
C  49.73600 27.19800 26.36200
C  50.19700 28.45300 26.88200
C  49.95800 28.46000 28.20900
C  49.38200 27.23200 28.49700
C  50.85600 29.53100 26.03400
C  50.11600 29.18000 29.42400
O  50.56700 30.29400 29.62600
C  49.63100 28.27100 30.55500
C  50.70000 28.10400 31.51800
O  51.72900 27.49600 31.23500
O  50.33800 28.60000 32.77900
C  51.32900 28.44100 33.85700
H  47.27300 21.81600 30.86400
H  47.38300 21.63600 24.36100
H  49.95100 27.40400 24.22300
H  49.35700 25.93900 32.65900
H  47.22000 23.73900 32.39400
H  48.89600 22.19000 33.18200
H  49.92500 23.63400 33.53700
H  49.93300 22.91400 31.94300
H  46.48700 26.22700 31.70700
H  47.58200 27.45800 32.44900
H  47.28900 25.26400 34.22800
H  45.72100 25.61500 33.53400
H  45.39200 19.21400 29.14800
H  46.51600 20.05200 30.27600
H  47.02100 18.81300 29.27800
H  45.51300 17.77000 25.54700
H  44.54600 18.66100 26.78000
H  46.24200 17.93000 27.08500
H  47.57200 23.58100 22.64000
H  50.03600 25.32100 22.65500
H  50.41300 23.37200 22.25100
H  49.17500 22.27500 21.50600
H  49.80200 22.02600 23.21500
H  47.51500 26.75900 23.14900
H  47.34800 25.57300 21.82100
H  48.40000 28.34400 21.96800
H  48.50500 27.24700 20.50100
H  49.76100 27.42600 21.52700
H  50.92800 29.20800 24.99500
H  51.88000 29.84400 26.24200
H  50.08400 30.29700 26.09900
H  48.80100 28.86000 30.94400
H  52.33900 28.23100 33.50500
H  50.98200 27.58000 34.42700
H  51.43500 29.34200 34.46100

