158

Mg 2.19200 -1.43000 44.14600
C  5.50900 -0.53500 43.36100
C  1.14000 1.35900 42.31300
C  -0.86400 -2.70100 44.17500
C  3.49800 -4.48000 45.55900
N  3.20800 0.19100 42.94900
C  4.53600 0.39500 42.83000
C  4.90800 1.63000 41.95100
C  3.44000 2.39200 41.84100
C  2.56300 1.25100 42.39900
C  3.39900 3.75800 42.51300
C  5.60400 1.16200 40.60700
C  6.69000 2.11700 40.11400
H  6.49600 2.94600 38.83000
N  0.39000 -0.71200 43.52600
C  0.14300 0.44200 42.77000
C  -1.23800 0.62900 42.59700
C  -1.87700 -0.42800 43.29000
C  -0.79000 -1.38500 43.72100
C  -1.94800 1.85100 41.90700
C  -3.34100 -0.59100 43.51500
O  -4.19300 0.19200 43.12200
C  -3.84500 -1.82300 44.19600
N  1.40200 -3.35300 44.81600
C  0.08500 -3.57800 44.64400
C  -0.25900 -5.05200 44.94900
C  1.11500 -5.48000 45.74200
C  2.06600 -4.41600 45.36300
C  -1.52200 -5.30400 45.79800
C  1.65300 -6.92700 45.39200
C  1.68100 -7.89000 46.58400
N  4.08500 -2.32300 44.47800
C  4.47200 -3.56900 45.03900
C  5.92400 -3.73500 45.00400
C  6.32600 -2.51300 44.49100
C  5.20700 -1.79100 44.08900
C  6.74600 -4.97400 45.41900
C  7.48200 -1.73700 44.10400
O  8.63100 -2.13800 44.22100
C  7.02700 -0.43700 43.43000
C  7.47800 0.78000 44.09200
O  6.98700 1.27700 45.08700
O  8.44000 1.45300 43.30000
C  8.75600 2.83200 43.62600
H  0.82800 2.22900 41.73000
H  -1.81600 -3.19800 43.97700
H  3.85000 -5.42200 45.98500
H  5.61800 2.14500 42.59700
H  3.23300 2.52000 40.77800
H  2.47000 3.89500 43.06600
H  3.32300 4.52700 41.74400
H  4.23600 4.06800 43.13800
H  4.82700 1.01300 39.85800
H  6.06400 0.18200 40.73500
H  7.53200 1.44100 39.96300
H  7.07700 2.72500 40.93200
H  -1.46100 2.42800 41.12000
H  -2.39800 2.39200 42.73900
H  -2.80000 1.43100 41.37200
H  -4.78400 -1.54600 44.67500
H  -3.19500 -2.12100 45.01900
H  -3.97700 -2.65300 43.50200
H  -0.17100 -5.64900 44.04200
H  0.92000 -5.27500 46.79400
H  -1.19900 -5.65500 46.77800
H  -2.18100 -5.98300 45.25700
H  -2.03700 -4.36600 46.00900
H  2.59000 -7.05700 44.85100
H  0.82400 -7.28600 44.78200
H  0.82500 -8.55900 46.48400
H  1.40900 -7.33700 47.48200
H  2.68300 -8.31400 46.63300
H  6.63000 -5.57000 44.51300
H  6.26900 -5.42600 46.28900
H  7.78600 -4.71700 45.61900
H  7.54100 -0.55300 42.47500
H  8.06800 3.52600 43.14300
H  9.76800 3.06400 43.29500
H  8.80500 2.99800 44.70200
Mg 24.46000 -4.86500 45.37800
C  27.04800 -2.66300 43.93500
C  22.19300 -3.33600 43.25200
C  22.52900 -7.48300 45.88900
C  27.08300 -6.23500 47.41300
N  24.65800 -3.16100 43.78400
C  25.76600 -2.37900 43.39500
C  25.36000 -1.30500 42.45500
C  23.80000 -1.52300 42.39100
C  23.48500 -2.77000 43.21500
C  22.91300 -0.31700 42.91000
C  25.95900 -1.33600 40.96900
C  26.00600 0.00900 40.13800
H  25.20300 -0.06100 38.80300
N  22.54300 -5.35100 44.62700
C  21.75900 -4.55800 43.81100
C  20.62200 -5.34400 43.57800
C  20.69200 -6.55900 44.26800
C  21.97000 -6.56000 44.95400
C  19.49400 -4.92800 42.63700
C  19.58600 -7.68400 44.21700
O  18.61300 -7.57800 43.46100
C  19.72600 -8.94100 45.06000
N  24.69900 -6.47000 46.63400
C  23.72700 -7.44700 46.63500
C  24.14500 -8.57700 47.61200
C  25.40600 -7.99200 48.30700
C  25.79300 -6.85800 47.39500
C  23.08300 -9.11700 48.57500
C  26.52000 -8.96900 48.58400
C  26.97600 -9.21600 50.04900
N  26.56700 -4.54700 45.68100
C  27.53500 -5.19000 46.55100
C  28.81800 -4.53300 46.44700
C  28.58700 -3.51900 45.48500
C  27.27500 -3.62400 44.95000
C  30.10500 -4.86700 47.25900
C  29.30800 -2.45700 44.81000
O  30.42400 -2.08800 45.03600
C  28.30700 -1.87300 43.77400
C  28.15600 -0.44400 44.02300
O  28.06600 0.03000 45.14800
O  28.13500 0.22400 42.85700
C  28.10600 1.69200 42.98900
H  21.44700 -2.81900 42.64500
H  22.00100 -8.43800 45.90000
H  27.83500 -6.62100 48.10400
H  25.50400 -0.36600 42.98900
H  23.53100 -1.59500 41.33700
H  23.55000 0.53700 43.13800
H  22.48200 -0.67200 43.84700
H  22.15100 -0.06400 42.17200
H  25.40500 -2.09800 40.42100
H  26.99500 -1.67300 40.96700
H  27.03400 0.31000 39.93800
H  25.69900 0.86900 40.73200
H  19.49100 -5.47500 41.69400
H  19.55800 -3.84800 42.50300
H  18.55400 -5.16000 43.13700
H  19.73900 -8.79600 46.14100
H  20.58400 -9.48400 44.66300
H  18.84600 -9.55200 44.86400
H  24.53200 -9.39900 47.00900
H  25.13800 -7.44500 49.21100
H  22.19200 -8.50600 48.42800
H  23.33500 -9.07200 49.63400
H  22.81800 -10.16100 48.41000
H  27.46300 -8.73000 48.09300
H  26.33900 -10.00400 48.29300
H  26.40500 -10.01700 50.51900
H  26.90900 -8.25600 50.56100
H  28.02800 -9.49800 50.06000
H  30.73600 -3.97800 47.25700
H  30.59900 -5.72000 46.79400
H  29.67700 -5.08000 48.23900
H  28.70700 -2.03300 42.77300
H  29.09400 2.15200 43.02300
H  27.60900 2.06800 43.88300
H  27.64900 2.04600 42.06500

