158

Mg 9.55100 4.07900 27.35900
C  10.36200 2.47000 30.31300
C  7.75500 6.32400 29.07300
C  8.23700 5.25500 24.39900
C  10.63700 1.22000 25.54500
N  8.95400 4.24900 29.50300
C  9.63700 3.59100 30.51000
C  9.40700 4.27900 31.82900
C  8.29900 5.35500 31.49200
C  8.35200 5.36700 29.88800
C  6.91200 5.18600 32.05500
C  10.79000 4.86500 32.58900
C  10.80200 4.59900 34.08800
H  12.15700 4.59700 34.83600
N  8.30300 5.65700 26.76600
C  7.69100 6.51500 27.64700
C  6.99900 7.61700 26.92900
C  7.18200 7.25200 25.51500
C  7.95000 5.97300 25.53100
C  6.20300 8.73500 27.63400
C  6.72900 8.02300 24.26700
O  6.98900 7.69200 23.07400
C  5.86800 9.15500 24.40400
N  9.62400 3.45200 25.17600
C  8.94500 4.08900 24.20800
C  9.04100 3.35300 22.83900
C  10.01300 2.16100 23.21900
C  10.03500 2.23900 24.74600
C  7.64800 2.86200 22.37100
C  11.40500 2.02500 22.46400
C  11.25000 1.10300 21.21800
N  10.54600 2.32200 27.75600
C  10.95300 1.24800 26.92500
C  11.56200 0.25600 27.71900
C  11.33000 0.65500 29.04400
C  10.69500 1.92000 29.00800
C  12.33300 -0.95400 27.33400
C  11.64100 0.27000 30.42000
O  12.20700 -0.68000 30.92600
C  11.02800 1.49800 31.32100
C  10.04700 0.85400 32.21900
O  9.00600 0.29200 31.91100
O  10.62100 0.74200 33.52200
C  9.83600 0.04700 34.56300
H  7.20800 7.04300 29.68700
H  7.79700 5.70300 23.50600
H  10.75000 0.19700 25.18100
H  8.91000 3.54400 32.46200
H  8.62200 6.29600 31.93600
H  6.17000 5.37500 31.27900
H  6.63400 6.01700 32.70300
H  6.86900 4.23900 32.59300
H  10.75700 5.95000 32.49200
H  11.70000 4.54400 32.08200
H  10.19900 3.74800 34.40300
H  10.34800 5.46700 34.56600
H  6.81200 9.59900 27.90100
H  5.66300 8.22800 28.43400
H  5.37700 9.18100 27.08100
H  6.34700 10.05000 24.80300
H  4.99700 8.93000 25.02000
H  5.42000 9.48200 23.46600
H  9.36000 4.06500 22.07800
H  9.42900 1.25400 23.06300
H  7.21800 3.40100 21.52700
H  6.95000 2.98500 23.19900
H  7.75200 1.84100 22.00300
H  12.22200 1.74200 23.12800
H  11.73400 2.96700 22.02400
H  12.22200 0.66500 20.98700
H  10.84300 1.67500 20.38500
H  10.52200 0.31400 21.40500
H  13.01700 -0.71900 26.51800
H  11.72800 -1.82300 27.07400
H  13.05500 -1.32800 28.06000
H  11.71100 1.98900 32.01400
H  9.37000 -0.85500 34.16700
H  8.90300 0.54800 34.82300
H  10.51100 -0.03900 35.41400
Mg 35.22700 48.61000 24.95500
C  35.52100 47.16500 28.21400
C  33.83800 51.34500 26.51800
C  34.74400 49.87500 22.01800
C  36.21900 45.55500 23.67100
N  34.75400 49.11500 27.11500
C  35.10400 48.50000 28.26400
C  34.79500 49.33100 29.47100
C  34.08700 50.57000 28.88600
C  34.11900 50.30700 27.39600
C  32.61700 50.89200 29.40900
C  36.01100 49.61100 30.41600
C  35.82500 49.20600 31.82200
H  34.58700 49.48400 32.62400
N  34.64700 50.43500 24.39100
C  34.06000 51.43400 25.14500
C  33.71900 52.55900 24.33500
C  33.96800 52.12600 23.00200
C  34.52900 50.78200 23.09300
C  33.49400 53.99800 24.89400
C  33.70200 52.96900 21.75300
O  34.11700 52.64400 20.63500
C  33.16300 54.34300 21.83500
N  35.34000 47.74400 23.02800
C  35.15100 48.53200 21.95300
C  35.92300 47.83600 20.71900
C  36.50500 46.47700 21.30000
C  36.05700 46.61400 22.78400
C  34.93600 47.83500 19.53000
C  38.04700 46.24800 21.14400
C  38.58200 45.94800 19.75300
N  35.60800 46.65400 25.73600
C  36.02000 45.55800 25.09200
C  36.26300 44.42600 25.94200
C  36.04100 45.01300 27.26200
C  35.70800 46.38200 27.04700
C  36.59700 43.07800 25.51400
C  36.01200 44.76800 28.71300
O  36.24500 43.70800 29.29000
C  35.64800 46.19700 29.35500
C  34.36600 45.92800 30.03500
O  33.25100 45.87500 29.51400
O  34.68200 45.61000 31.34600
C  33.56400 45.03900 32.10400
H  33.28900 52.12400 27.05300
H  34.73700 50.36200 21.04100
H  36.63900 44.63500 23.26000
H  34.03000 48.80500 30.04300
H  34.76700 51.41300 29.01000
H  32.12500 50.02000 29.83900
H  32.04400 51.39400 28.62900
H  32.80500 51.61000 30.20800
H  36.33000 50.65300 30.38500
H  36.85700 49.02900 30.05200
H  36.66800 49.40200 32.48400
H  35.89400 48.11800 31.80000
H  34.28500 54.66100 24.54500
H  33.61700 54.11300 25.97100
H  32.55100 54.45500 24.59200
H  33.90200 55.04100 22.23000
H  32.14200 54.42000 22.20900
H  33.13400 54.70600 20.80800
H  36.79100 48.48400 20.59800
H  35.90400 45.63500 20.95700
H  33.89300 47.80300 19.84600
H  35.23300 46.98600 18.91500
H  35.02200 48.73000 18.91300
H  38.24100 45.34500 21.72200
H  38.60500 47.04600 21.63500
H  39.44700 46.61100 19.77800
H  37.89600 46.20600 18.94700
H  39.02000 44.95300 19.67800
H  36.30900 42.85000 24.48800
H  36.14100 42.34800 26.18200
H  37.67900 42.94900 25.54700
H  36.52600 46.36800 29.97800
H  33.52100 45.38100 33.13800
H  33.73200 43.96300 32.09000
H  32.64300 45.30300 31.58400

