158

Mg 0.42300 7.92800 24.83900
C  1.16400 9.53600 27.93200
C  0.35000 5.02800 26.55700
C  0.36600 6.42800 21.90600
C  1.11300 10.96500 23.29600
N  0.75100 7.36000 27.00100
C  0.94100 8.15000 28.12300
C  0.87700 7.38100 29.40700
C  0.59200 5.97100 28.90900
C  0.54100 6.12600 27.38500
C  1.65100 4.83400 29.33100
C  -0.17700 7.82500 30.48300
C  0.21600 7.63200 31.99000
H  1.46400 6.87900 32.44000
N  0.31400 6.03900 24.29900
C  0.29000 4.94500 25.19300
C  0.16900 3.70800 24.47100
C  0.07800 4.09700 23.10400
C  0.30400 5.55500 23.05600
C  0.08200 2.33700 25.09400
C  -0.10800 3.25600 21.86600
O  -0.06100 3.71400 20.67200
C  -0.43200 1.82700 22.05000
N  0.82500 8.63300 22.84300
C  0.60300 7.85200 21.77200
C  0.52200 8.67800 20.46000
C  0.93400 10.07900 20.91900
C  0.92300 9.93600 22.47000
C  1.49100 8.17200 19.24900
C  -0.00300 11.22200 20.31700
C  -1.25800 11.62200 21.07600
N  0.87400 9.92000 25.41000
C  1.21500 11.01300 24.69400
C  1.39800 12.11600 25.62800
C  1.35200 11.54200 26.85700
C  1.12900 10.22700 26.70600
C  1.55000 13.51800 25.13300
C  1.54400 11.92200 28.28200
O  1.93800 13.05400 28.75600
C  1.34700 10.59000 28.96400
C  2.39300 10.44800 30.04100
O  3.38900 9.66200 29.90100
O  2.09100 11.24800 31.09100
C  3.11200 11.13900 32.09500
H  0.29900 4.11500 27.15400
H  0.41000 5.85800 20.97600
H  1.28500 11.88600 22.73400
H  1.89500 7.38200 29.79700
H  -0.40300 5.65800 29.22500
H  1.76200 4.79700 30.41400
H  2.59800 5.14600 28.89100
H  1.44900 3.85400 28.89800
H  -1.09900 7.32300 30.19000
H  -0.22800 8.91000 30.38700
H  -0.70400 7.31200 32.48100
H  0.27800 8.65800 32.35100
H  -0.96100 2.13000 25.32900
H  0.78900 2.23900 25.91800
H  0.40700 1.54400 24.42000
H  0.38700 1.15300 22.30000
H  -0.84400 1.39200 21.14000
H  -1.14200 1.70800 22.86900
H  -0.49900 8.79200 20.09500
H  1.98600 10.20100 20.65900
H  0.88400 7.84600 18.40400
H  2.05600 7.30400 19.58800
H  2.18400 8.91300 18.85000
H  -0.27500 11.02300 19.28000
H  0.56900 12.14400 20.21000
H  -2.14400 11.59200 20.44200
H  -1.19700 12.64200 21.45300
H  -1.33200 10.79800 21.78600
H  0.58300 13.67400 24.65600
H  2.44000 13.57000 24.50600
H  1.74500 14.13300 26.01200
H  0.40700 10.78100 29.48300
H  2.96600 10.18200 32.59600
H  2.99500 11.91300 32.85300
H  4.15800 11.14000 31.78800
Mg -12.20800 16.22100 42.20000
C  -9.01500 14.93800 41.29200
C  -11.29400 19.13600 40.77800
C  -15.46200 17.19000 42.41000
C  -13.12400 12.92000 42.83100
N  -10.43400 16.82500 40.99100
C  -9.20500 16.20200 40.76100
C  -8.16400 17.10300 40.14000
C  -8.86000 18.49000 40.09600
C  -10.31200 18.13200 40.57600
C  -8.18000 19.57900 41.00700
C  -7.64200 16.49800 38.81200
C  -6.13300 16.56300 38.62900
H  -5.54300 17.44500 37.43900
N  -13.27100 17.90200 41.72300
C  -12.67100 18.98900 41.26900
C  -13.63800 20.07200 41.13100
C  -14.88500 19.50700 41.49400
C  -14.60500 18.16100 41.92800
C  -13.30700 21.42300 40.55600
C  -16.31000 20.16700 41.34400
O  -16.45700 21.36400 41.03700
C  -17.55600 19.38000 41.68200
N  -14.05600 15.25500 42.47200
C  -15.25100 15.81100 42.62800
C  -16.34900 14.85200 43.24800
C  -15.62600 13.44300 43.06400
C  -14.11100 13.90800 42.84000
C  -16.57800 15.16600 44.82400
C  -16.06300 12.78200 41.74300
C  -17.03300 11.59000 41.76200
N  -11.22100 14.34200 42.35600
C  -11.74500 13.09900 42.61000
C  -10.73000 12.06300 42.60900
C  -9.61500 12.78500 42.15700
C  -9.97000 14.13500 42.00100
C  -10.95200 10.61600 42.84200
C  -8.23500 12.65400 41.77100
O  -7.49700 11.69200 41.78900
C  -7.74100 14.05400 41.24500
C  -6.58900 14.55000 42.01400
O  -6.64200 15.03000 43.15300
O  -5.41400 14.47900 41.31800
C  -4.23400 14.99000 42.03900
H  -10.93300 20.04600 40.29300
H  -16.48300 17.44900 42.70000
H  -13.38700 11.89300 43.09400
H  -7.37000 17.06400 40.88600
H  -9.08900 18.90300 39.11400
H  -7.16700 19.36400 41.34700
H  -8.90600 19.64400 41.81800
H  -8.03900 20.45000 40.36700
H  -8.00500 17.07400 37.96100
H  -7.95800 15.45500 38.77300
H  -5.92400 15.56200 38.25200
H  -5.63900 16.76700 39.57800
H  -13.22200 21.33700 39.47300
H  -12.34300 21.86100 40.81400
H  -14.10800 22.11300 40.81900
H  -18.36900 20.09200 41.54200
H  -17.42600 19.24400 42.75600
H  -17.65700 18.42200 41.17100
H  -17.26000 14.94200 42.65800
H  -15.79500 12.88800 43.98700
H  -15.78200 15.73200 45.30700
H  -16.87500 14.25800 45.35100
H  -17.48100 15.77700 44.81600
H  -15.21100 12.41100 41.17300
H  -16.56400 13.54100 41.14300
H  -17.84800 11.81700 41.07500
H  -17.44700 11.45800 42.76200
H  -16.43900 10.75900 41.38100
H  -11.59600 10.46600 43.70900
H  -10.07700 9.99600 43.03800
H  -11.47500 10.21600 41.97400
H  -7.43700 13.86300 40.21600
H  -3.37500 14.71200 41.42800
H  -4.14800 14.47900 42.99800
H  -4.13600 16.07300 42.10300

