158

Mg 42.20000 40.97900 26.37300
C  41.43300 43.40900 28.67600
C  42.96600 38.77300 28.90400
C  42.80000 38.80100 24.04900
C  42.15100 43.65000 23.92200
N  42.16200 41.10100 28.56100
C  41.68400 42.18200 29.29600
C  41.74100 41.83000 30.78100
C  42.38300 40.41600 30.84400
C  42.42800 39.99800 29.32700
C  43.71900 40.38900 31.57500
C  40.37200 41.92000 31.54400
C  40.37600 42.78500 32.90200
H  39.67900 42.27000 34.16400
N  42.90700 39.10500 26.47400
C  43.25900 38.35800 27.54700
C  43.63400 36.98100 27.09500
C  43.58600 36.95400 25.70900
C  43.08500 38.32000 25.35000
C  43.91900 35.83500 28.03100
C  44.09500 35.95000 24.70400
O  43.98000 36.03300 23.48800
C  44.68900 34.67100 25.15400
N  42.31700 41.18700 24.23200
C  42.48700 40.06200 23.47900
C  42.70900 40.46100 21.94200
C  42.49000 42.05100 21.98700
C  42.29100 42.35700 23.44800
C  44.11500 40.01800 21.33300
C  41.30500 42.45000 21.17700
C  40.03900 42.91600 21.79700
N  41.86200 43.09600 26.26300
C  41.86500 43.99800 25.21000
C  41.50000 45.29500 25.65000
C  41.22900 45.10100 27.04600
C  41.53300 43.72800 27.35500
C  41.35200 46.57800 24.85900
C  40.89100 45.84900 28.30500
O  40.68400 47.05600 28.57500
C  41.03800 44.69600 29.40600
C  42.15700 45.25100 30.33200
O  43.33300 45.12300 30.00300
O  41.72800 45.79500 31.50000
C  42.81600 46.20600 32.39000
H  43.13200 38.01000 29.66600
H  43.03200 38.11300 23.23400
H  42.26900 44.44300 23.18000
H  42.39100 42.62300 31.15300
H  41.73700 39.71600 31.37400
H  44.47700 40.44700 30.79400
H  43.84000 39.41100 32.04100
H  43.85800 41.18200 32.31000
H  40.24500 40.88900 31.87500
H  39.54300 42.31200 30.95400
H  40.05500 43.80800 32.70600
H  41.37200 42.83000 33.34200
H  44.42700 34.96100 27.62300
H  42.93500 35.43200 28.27300
H  44.41800 36.09900 28.96400
H  45.57400 34.85800 25.76300
H  44.97100 34.07200 24.28800
H  43.88100 34.29800 25.78300
H  41.95400 40.00500 21.30200
H  43.34400 42.57500 21.55700
H  43.89800 39.49200 20.40300
H  44.57300 39.26800 21.97900
H  44.76400 40.82200 20.98600
H  40.95000 41.55800 20.66200
H  41.75900 43.11700 20.44400
H  40.19700 43.88300 22.27500
H  39.83200 42.13900 22.53300
H  39.26200 42.78000 21.04500
H  40.34300 46.98200 24.77500
H  41.86700 46.56500 23.89800
H  41.75600 47.34900 25.51500
H  40.17200 44.70100 30.06800
H  43.36200 45.42900 32.92600
H  42.28300 46.86200 33.07800
H  43.60300 46.78200 31.90300
Mg 0.72800 42.97100 26.44400
C  3.13000 42.45600 28.85600
C  -1.58000 41.78600 28.59000
C  -1.37800 42.71500 23.84700
C  3.38900 43.20200 23.97800
N  0.74800 42.51000 28.55300
C  1.83200 42.37900 29.39400
C  1.40900 42.20000 30.91100
C  -0.16100 41.81200 30.77600
C  -0.34100 41.97600 29.21500
C  -0.48500 40.29600 31.23700
C  1.66200 43.52600 31.64600
C  1.86700 43.52000 33.20200
H  1.45000 42.33000 34.07300
N  -1.32600 42.61900 26.32500
C  -2.09900 42.05900 27.29800
C  -3.42100 41.84900 26.75900
C  -3.40400 42.17700 25.38000
C  -1.97700 42.55500 25.12500
C  -4.58900 41.37300 27.56600
C  -4.50900 42.24500 24.33800
O  -4.31400 42.59700 23.17000
C  -5.90700 41.84200 24.72700
N  0.97800 42.80200 24.16900
C  -0.09600 42.90800 23.39300
C  0.28400 43.07700 21.87900
C  1.78300 43.52700 22.04200
C  2.06500 43.13500 23.50400
C  0.03000 41.85000 21.04100
C  2.16500 45.04200 21.68500
C  2.47400 46.01800 22.77600
N  2.78600 42.93700 26.35800
C  3.74000 43.06200 25.35700
C  5.04300 43.16100 25.89400
C  4.87200 42.85900 27.26700
C  3.48000 42.81600 27.49700
C  6.31000 43.45500 25.13500
C  5.55600 42.65700 28.52600
O  6.75900 42.68300 28.76600
C  4.39600 42.56300 29.62200
C  4.73200 41.41400 30.54700
O  4.78800 40.22500 30.31400
O  5.02300 42.00900 31.79000
C  5.19600 41.09300 32.94200
H  -2.43300 41.41700 29.16400
H  -2.06200 42.80800 23.00000
H  4.25300 43.33900 23.32400
H  2.04000 41.49200 31.44800
H  -0.85300 42.46700 31.30500
H  0.34900 39.83900 31.76900
H  -0.81100 39.74700 30.35300
H  -1.30400 40.50400 31.92600
H  0.79200 44.15800 31.46700
H  2.44600 44.07300 31.12300
H  1.45400 44.42400 33.64900
H  2.94900 43.54600 33.32700
H  -5.27400 42.20300 27.73400
H  -4.28200 41.03500 28.55600
H  -5.13000 40.56700 27.06900
H  -5.98600 40.78600 24.98700
H  -6.46900 42.09400 23.82800
H  -6.19800 42.50600 25.54100
H  -0.39100 43.85000 21.51100
H  2.40200 42.88900 21.41200
H  0.36000 41.09700 21.75600
H  0.65400 41.87400 20.14800
H  -0.99800 41.55600 20.83400
H  1.38100 45.53300 21.10800
H  3.01900 44.98900 21.01000
H  3.46100 46.47000 22.69100
H  2.47800 45.67300 23.81000
H  1.72500 46.80500 22.69300
H  6.58700 44.50900 25.09700
H  6.07500 43.10900 24.12800
H  7.13400 42.90300 25.58700
H  4.32400 43.54200 30.09700
H  6.24500 40.93700 33.19600
H  4.69900 40.13200 32.80300
H  4.86600 41.55900 33.87000

