158

Mg 46.86200 34.90700 26.21800
C  45.37700 33.77600 29.00400
C  47.59100 37.91400 27.74200
C  48.12400 36.06800 23.25100
C  46.10800 31.85400 24.59000
N  46.46000 35.74600 28.09500
C  46.04500 35.00300 29.13000
C  46.12200 35.80900 30.43300
C  46.65900 37.23000 29.97100
C  46.95900 36.88100 28.53800
C  45.67500 38.46600 30.05400
C  47.10900 35.11000 31.40600
C  46.81400 35.09700 32.89000
H  45.95800 36.21200 33.49000
N  47.77200 36.79400 25.57200
C  47.88100 37.88900 26.33700
C  48.49400 38.92900 25.56600
C  48.72900 38.41200 24.25000
C  48.27700 37.02200 24.33100
C  48.83900 40.24600 26.13600
C  49.34000 39.12000 23.01900
O  49.52400 38.60300 21.87600
C  50.04700 40.41900 23.22200
N  46.94600 34.14300 24.16200
C  47.68700 34.78800 23.18100
C  47.73700 33.93200 21.92400
C  46.95700 32.59000 22.29100
C  46.74700 32.80100 23.78400
C  47.25700 34.57800 20.63200
C  47.87500 31.34100 22.08300
C  48.56700 31.18100 20.71300
N  45.91200 33.14100 26.63800
C  45.66600 31.98200 25.88800
C  44.95100 31.11400 26.69000
C  44.72600 31.75500 27.87700
C  45.39100 32.99700 27.83300
C  44.62100 29.73800 26.27700
C  44.14400 31.58600 29.17500
O  43.46000 30.70800 29.64700
C  44.59900 32.95400 29.97600
C  45.17800 32.37500 31.20100
O  46.26700 31.81300 31.35700
O  44.20900 32.54000 32.16100
C  44.40900 31.69300 33.33800
H  47.89400 38.78600 28.32400
H  48.42500 36.52300 22.30400
H  45.88500 30.92800 24.05600
H  45.13400 35.83100 30.89200
H  47.53700 37.60800 30.49500
H  44.69300 38.25500 30.47700
H  45.51100 38.91200 29.07300
H  46.08000 39.25100 30.69300
H  48.10100 35.56200 31.38100
H  47.18200 34.09100 31.02700
H  47.81200 35.16100 33.32500
H  46.36100 34.15400 33.19400
H  48.38800 41.11700 25.66000
H  49.89700 40.47900 26.25200
H  48.38000 40.34800 27.12000
H  49.31500 41.22500 23.16700
H  50.84700 40.64800 22.51800
H  50.50000 40.48800 24.21100
H  48.80700 33.81100 21.75200
H  46.05300 32.44200 21.70000
H  46.63400 35.42700 20.91100
H  46.62700 33.81400 20.17400
H  48.08300 34.87400 19.98600
H  47.30300 30.44000 22.30600
H  48.64600 31.30900 22.85200
H  49.28900 30.36800 20.78800
H  49.18900 32.03900 20.45900
H  47.79800 31.03700 19.95400
H  43.60000 29.77500 25.89900
H  44.62800 28.97700 27.05800
H  45.35200 29.40500 25.54000
H  43.67400 33.49100 30.18500
H  44.63100 32.48400 34.05400
H  45.12200 30.86800 33.31000
H  43.40500 31.31700 33.53500
Mg -10.45400 39.20000 40.21700
C  -8.66200 36.31700 39.07800
C  -7.58100 41.15400 39.60800
C  -12.44300 41.93800 40.22800
C  -13.32400 37.16700 40.19900
N  -8.37900 38.77800 39.53000
C  -7.97400 37.60300 38.99000
C  -6.69400 37.75200 38.24700
C  -6.16200 39.09300 38.86600
C  -7.41800 39.74000 39.39100
C  -5.21500 38.89300 40.10500
C  -6.76300 37.84000 36.72100
C  -6.17200 36.70800 35.89100
H  -7.00300 36.16100 34.69800
N  -10.06000 41.26900 39.97600
C  -8.81500 41.90200 39.71800
C  -8.99200 43.32300 39.61100
C  -10.34900 43.58800 39.85400
C  -11.02700 42.24500 40.05400
C  -7.82200 44.26800 39.24100
C  -10.98900 44.93000 39.83000
O  -10.29500 45.88200 39.53900
C  -12.48600 45.13500 39.94900
N  -12.57000 39.52200 40.17500
C  -13.11800 40.73300 40.34100
C  -14.64200 40.71600 40.38200
C  -14.89300 39.11400 40.18000
C  -13.54700 38.56800 40.17300
C  -15.09900 41.16300 41.74600
C  -15.70100 38.89100 38.91500
C  -16.58600 37.57900 38.82800
N  -10.88500 37.12000 39.99600
C  -12.06800 36.47700 40.12500
C  -11.78300 35.08000 40.14500
C  -10.47400 34.95500 39.66100
C  -9.97200 36.24700 39.62300
C  -12.75300 34.08300 40.57300
C  -9.37600 34.02300 39.26300
O  -9.34000 32.79200 39.40400
C  -8.21500 34.92000 38.73400
C  -6.89000 34.53000 39.41500
O  -6.61200 34.67800 40.59100
O  -6.02700 33.96300 38.50700
C  -4.72700 33.51100 38.98700
H  -6.67600 41.73000 39.40400
H  -13.18500 42.72700 40.36400
H  -14.21200 36.53300 40.24900
H  -6.12500 36.87500 38.55400
H  -5.65800 39.66000 38.08400
H  -4.22500 39.19800 39.76500
H  -5.24800 37.85700 40.44300
H  -5.41400 39.53300 40.96500
H  -6.44700 38.81000 36.33500
H  -7.81200 37.83100 36.42300
H  -6.01700 35.88700 36.59100
H  -5.14500 36.89000 35.57400
H  -8.14800 45.09000 38.60400
H  -7.09000 43.65900 38.71000
H  -7.20300 44.66900 40.04300
H  -12.82100 46.17100 39.89600
H  -12.92400 44.69300 40.84400
H  -13.02500 44.69800 39.10900
H  -14.95400 41.34600 39.54900
H  -15.34200 38.67600 41.07100
H  -15.58000 42.14100 41.72100
H  -14.28400 41.29000 42.45800
H  -15.81300 40.41500 42.09100
H  -14.99300 38.95700 38.08900
H  -16.35800 39.75700 38.83700
H  -16.07400 36.72900 38.37600
H  -17.57500 37.82700 38.44200
H  -16.78800 37.32400 39.86800
H  -12.92000 34.23100 41.64000
H  -12.28600 33.10500 40.45400
H  -13.67400 34.21700 40.00600
H  -8.15300 34.80800 37.65100
H  -4.44300 32.75700 38.25300
H  -4.95800 33.10300 39.97100
H  -3.97100 34.28100 39.13900

