158

Mg 17.77400 -1.90000 26.11200
C  16.81400 -0.08100 29.04200
C  19.50000 -4.00600 28.28500
C  18.72500 -3.47800 23.37700
C  16.31200 0.62400 24.19400
N  18.24600 -1.82500 28.39500
C  17.61800 -1.16700 29.36000
C  17.96500 -1.68000 30.78400
C  19.09100 -2.76300 30.43900
C  18.89000 -2.89900 28.94800
C  20.56100 -2.41300 30.85300
C  16.75700 -2.28500 31.60300
C  16.76100 -1.95500 33.14800
H  18.10400 -1.98200 33.84600
N  18.83900 -3.64000 25.87300
C  19.46900 -4.40200 26.84200
C  20.09300 -5.55800 26.14700
C  19.88000 -5.41000 24.66000
C  19.20300 -4.15300 24.60900
C  20.85100 -6.66600 26.86000
C  20.31100 -6.33900 23.53000
O  19.97000 -6.09600 22.38100
C  21.09900 -7.60900 23.92700
N  17.72500 -1.36700 24.07300
C  18.08800 -2.22400 23.08500
C  18.00500 -1.52700 21.70400
C  17.00200 -0.32400 21.99000
C  17.02300 -0.32800 23.52200
C  19.37100 -1.16800 21.10600
C  15.59400 -0.42300 21.39400
C  15.19300 0.74700 20.43100
N  16.74600 -0.20800 26.48100
C  16.07600 0.63100 25.58900
C  15.29200 1.54700 26.27100
C  15.56700 1.35600 27.63100
C  16.45700 0.22200 27.67900
C  14.38600 2.55700 25.61500
C  15.38200 1.86200 28.99300
O  14.83500 2.90400 29.40100
C  16.12500 0.87700 29.94400
C  17.11500 1.65800 30.73300
O  17.97600 2.40100 30.25700
O  17.06300 1.43900 32.12200
C  17.90200 2.18800 33.03300
H  20.05100 -4.65500 28.96900
H  19.04600 -3.93800 22.44000
H  15.83500 1.40500 23.59800
H  18.46500 -0.87100 31.31600
H  18.89600 -3.72400 30.91400
H  20.61500 -1.36400 31.14700
H  21.26300 -2.39400 30.01900
H  20.94500 -3.04300 31.65500
H  16.81200 -3.37300 31.59800
H  15.76000 -2.04100 31.23700
H  16.19100 -2.76400 33.60600
H  16.36000 -0.97600 33.41300
H  20.99300 -6.62700 27.94000
H  21.84700 -6.62400 26.42000
H  20.48700 -7.64800 26.55900
H  20.51600 -8.18700 24.64400
H  22.05800 -7.25100 24.29900
H  21.18700 -8.19500 23.01100
H  17.46800 -2.25300 21.09300
H  17.40800 0.63600 21.67100
H  19.67900 -0.14000 21.29800
H  19.18700 -1.32300 20.04300
H  20.20900 -1.74300 21.49900
H  14.83200 -0.53400 22.16500
H  15.46500 -1.38700 20.90200
H  14.28600 1.22700 20.79800
H  15.06800 0.31700 19.43700
H  15.97000 1.49100 20.25600
H  13.46600 2.02200 25.38300
H  14.91500 3.04800 24.79800
H  14.09400 3.31300 26.34500
H  15.48200 0.32600 30.63100
H  17.26600 2.90200 33.55800
H  18.69500 2.83200 32.65400
H  18.42200 1.39900 33.57500
Mg 47.56000 45.30000 43.79100
C  44.19600 44.96500 43.03200
C  48.06900 42.13200 42.70900
C  50.76600 45.94600 43.93800
C  46.98000 48.72300 44.54000
N  46.32800 43.85300 42.91800
C  44.98900 43.89700 42.65300
C  44.53700 42.65400 41.90200
C  45.56000 41.59600 42.43600
C  46.73500 42.55900 42.74100
C  45.05100 40.83700 43.69600
C  44.51100 42.82700 40.36700
C  43.10600 42.72000 39.64600
H  43.11200 41.84700 38.29300
N  49.24800 44.11900 43.45700
C  49.25800 42.90700 42.88600
C  50.68700 42.44800 42.83000
C  51.49600 43.52100 43.34100
C  50.50600 44.59000 43.57200
C  51.03300 41.05100 42.35800
C  52.95000 43.42000 43.67800
O  53.63800 42.48800 43.30300
C  53.73800 44.56300 44.41300
N  48.65800 47.13600 44.00700
C  50.02300 47.13500 44.05000
C  50.65300 48.43000 44.47500
C  49.46400 49.33100 44.62700
C  48.27500 48.37600 44.42500
C  51.61200 48.42900 45.72400
C  49.42300 50.54000 43.59300
C  49.28900 51.90300 44.23300
N  45.92200 46.63600 43.88300
C  45.84200 47.91500 44.15800
C  44.42500 48.41300 44.13500
C  43.71500 47.26100 43.73300
C  44.70000 46.19100 43.56200
C  43.86900 49.74500 44.41900
C  42.38900 46.71100 43.32700
O  41.32100 47.31500 43.28000
C  42.69400 45.14500 42.91800
C  42.04100 44.35500 44.06100
O  41.15900 43.56600 43.89100
O  42.57300 44.67400 45.29900
C  42.32800 43.89500 46.47900
H  48.23400 41.05800 42.60000
H  51.83000 46.12100 44.11000
H  46.65400 49.74700 44.73200
H  43.54600 42.46800 42.31600
H  45.83000 40.89400 41.64700
H  44.00300 40.97200 43.96400
H  45.61800 41.19000 44.55700
H  45.27600 39.79800 43.45400
H  45.22900 42.12900 39.93700
H  44.89600 43.79800 40.05700
H  42.76600 43.65700 39.20600
H  42.30100 42.24300 40.20600
H  51.88700 40.92300 41.69300
H  50.23500 40.49500 41.86400
H  51.30100 40.47000 43.24000
H  54.00500 45.37000 43.73100
H  54.68000 44.19700 44.82100
H  53.13700 45.07300 45.16700
H  51.17600 48.81200 43.59800
H  49.43800 49.71400 45.64700
H  51.46200 49.24400 46.43200
H  52.59600 48.54800 45.27000
H  51.46500 47.44200 46.16200
H  48.58400 50.27300 42.95100
H  50.37200 50.56700 43.05700
H  48.28300 52.12100 44.59300
H  49.60100 52.59600 43.45300
H  49.95500 51.96200 45.09400
H  43.98000 50.38100 43.54100
H  44.54200 50.07900 45.20900
H  42.80800 49.60500 44.62600
H  42.31000 44.90800 41.92600
H  41.85500 44.58300 47.17900
H  43.22300 43.68600 47.06500
H  41.83900 42.93300 46.32600

