158

Mg 53.97600 24.68800 44.58100
C  51.32300 26.73700 44.13800
C  51.69600 22.04700 43.62000
C  56.54200 22.66800 43.99200
C  56.07600 27.40200 45.19100
N  51.77500 24.37900 43.90400
C  50.96700 25.46800 43.87300
C  49.51300 25.01000 43.54600
C  49.53900 23.49200 43.98200
C  51.05900 23.29000 43.80600
C  48.94900 23.15300 45.40500
C  49.18700 25.19800 42.04300
C  50.37900 25.30300 41.05900
H  49.96800 24.99900 39.57200
N  54.13600 22.62200 44.05900
C  53.10100 21.73100 43.72100
C  53.69900 20.47700 43.37500
C  55.08500 20.53100 43.67700
C  55.30400 21.99900 43.95900
C  52.86200 19.22100 43.04100
C  56.15900 19.46000 43.57400
O  55.84000 18.32100 43.34100
C  57.59800 19.64900 44.01400
N  55.99500 25.03600 44.40100
C  56.89600 24.04500 44.16700
C  58.38100 24.53900 44.31100
C  58.18700 26.10500 44.55900
C  56.64600 26.22800 44.73300
C  59.21400 23.92900 45.51200
C  58.86400 27.04500 43.44500
C  58.10500 27.11200 42.15900
N  53.77800 26.66300 44.82700
C  54.69100 27.68100 45.12800
C  53.92900 28.92200 45.27400
C  52.64900 28.56400 44.86000
C  52.60100 27.19300 44.60400
C  54.54000 30.17100 45.71900
C  51.32700 29.12800 44.63900
O  50.99700 30.28400 44.66200
C  50.41100 27.95600 44.20100
C  49.72700 28.46500 42.95900
O  50.24900 28.55800 41.84300
O  48.39600 28.77100 43.27100
C  47.64300 29.12400 42.07000
H  51.08900 21.16600 43.40100
H  57.41700 22.04000 43.80900
H  56.80000 28.16300 45.49100
H  48.85500 25.63700 44.14900
H  48.90300 23.00300 43.24300
H  49.68400 22.75600 46.10500
H  48.09100 22.49100 45.29100
H  48.54600 24.02700 45.91700
H  48.49100 26.03700 42.06200
H  48.60400 24.33600 41.71900
H  51.21700 24.65200 41.31000
H  50.74900 26.32700 41.10700
H  51.86200 19.46300 42.68200
H  52.70500 18.70200 43.98700
H  53.47900 18.70600 42.30500
H  58.06200 18.68700 44.23200
H  57.62500 20.19500 44.95700
H  58.24000 20.14900 43.28900
H  58.86800 24.40700 43.34500
H  58.54500 26.46600 45.52400
H  60.16100 23.62600 45.06500
H  58.67800 23.06200 45.89600
H  59.45000 24.71400 46.23100
H  59.86600 26.62900 43.33700
H  58.97800 28.05500 43.84000
H  57.16000 26.57000 42.12500
H  58.65500 26.83800 41.25900
H  57.79700 28.14600 42.00500
H  54.18500 30.93600 45.02800
H  55.62700 30.14400 45.78500
H  54.03700 30.38400 46.66300
H  49.68600 27.90400 45.01200
H  48.14900 29.81000 41.39100
H  46.79700 29.75000 42.35300
H  47.29300 28.29700 41.45200
Mg 26.89100 49.50000 26.39200
C  24.83500 50.59200 29.23500
C  29.01100 48.29000 28.69400
C  28.57800 48.62300 23.85700
C  24.41200 50.94000 24.36000
N  26.88900 49.54400 28.67300
C  25.96500 49.89300 29.61400
C  26.38700 49.54000 31.07100
C  27.84900 49.10300 30.82300
C  27.92600 48.98900 29.31000
C  28.81500 50.15400 31.46100
C  25.45600 48.46800 31.73500
C  24.93400 48.78300 33.17100
H  25.96600 49.42700 34.13700
N  28.56300 48.59400 26.34000
C  29.36700 48.16300 27.33800
C  30.64000 47.68000 26.73600
C  30.53500 47.91700 25.32100
C  29.21100 48.37300 25.11400
C  31.76300 47.12000 27.61700
C  31.54400 47.74400 24.23700
O  31.38200 47.98800 23.03800
C  32.97600 47.44300 24.61100
N  26.53000 49.73400 24.41700
C  27.37500 49.20200 23.56900
C  26.89300 49.29300 22.12100
C  25.51600 50.07500 22.22800
C  25.40400 50.27300 23.77300
C  27.86800 49.68100 20.98100
C  24.33000 49.26100 21.69700
C  23.08500 50.03800 21.38100
N  25.07900 50.74400 26.65300
C  24.13100 51.16000 25.68500
C  23.00200 51.71400 26.35900
C  23.20000 51.61000 27.76900
C  24.51700 50.94200 27.89500
C  21.77300 52.29900 25.74200
C  22.65000 51.69100 29.10000
O  21.63600 52.17400 29.54100
C  23.64900 51.05200 30.09700
C  24.05900 52.07900 30.98400
O  24.94300 52.93000 30.81400
O  23.28800 52.06700 32.14800
C  23.66100 53.11700 33.16800
H  29.75000 47.92200 29.40800
H  29.19900 48.35000 23.00100
H  23.68900 51.36400 23.65900
H  26.33300 50.45900 31.65600
H  28.10000 48.12900 31.24100
H  29.84800 49.87400 31.25900
H  28.67700 50.07300 32.53900
H  28.56500 51.14800 31.08800
H  25.98000 47.53000 31.91800
H  24.52400 48.39300 31.17400
H  24.61000 47.81300 33.54900
H  23.98000 49.31000 33.15900
H  31.64500 47.46000 28.64600
H  32.69800 47.64800 27.42800
H  31.68800 46.03300 27.60300
H  33.65700 47.24500 23.78300
H  32.86300 46.44100 25.02400
H  33.32600 48.16500 25.34800
H  26.50200 48.30300 21.88800
H  25.53600 51.10600 21.87600
H  28.75600 50.19800 21.34300
H  27.29100 50.38200 20.37900
H  28.07500 48.85100 20.30500
H  24.12900 48.59600 22.53700
H  24.61800 48.60100 20.87900
H  22.37700 49.53500 22.04000
H  22.73000 50.10900 20.35300
H  23.26500 51.04800 21.75000
H  21.33400 51.44300 25.22900
H  21.97400 53.09000 25.02000
H  21.07100 52.71800 26.46200
H  23.18500 50.18100 30.55900
H  23.68800 54.01000 32.54400
H  24.62200 52.99600 33.66900
H  22.84600 53.16200 33.89100

