158

Mg 2.50500 -1.38700 43.59500
C  5.81900 -0.75600 43.27500
C  1.75100 1.27700 41.61900
C  -0.65600 -2.37600 43.77500
C  3.38800 -4.47700 45.35000
N  3.65300 0.14000 42.52900
C  5.01900 0.16400 42.51300
C  5.51100 1.28800 41.55600
C  4.18400 1.94200 41.03100
C  3.09100 1.12500 41.73000
C  4.11300 3.47100 41.36700
C  6.34100 0.74700 40.28000
C  7.56200 1.60500 39.82600
H  7.41300 2.50100 38.59300
N  0.68200 -0.53700 42.88300
C  0.58200 0.56900 42.11300
C  -0.86900 0.73700 41.69700
C  -1.60600 -0.29800 42.32800
C  -0.56000 -1.09900 43.10400
C  -1.38500 1.72800 40.60500
C  -3.07100 -0.49400 42.22700
O  -3.75500 0.22500 41.46700
C  -3.77400 -1.75000 42.75800
N  1.50600 -3.12700 44.47600
C  0.18900 -3.26100 44.36800
C  -0.34200 -4.51400 45.06900
C  0.95200 -5.22700 45.48400
C  2.01400 -4.21800 45.14200
C  -1.26900 -4.17800 46.19300
C  1.21600 -6.55300 44.72800
C  1.73200 -7.67700 45.61300
N  4.21100 -2.44200 44.29300
C  4.37600 -3.63000 44.93700
C  5.80200 -3.84800 45.12000
C  6.46100 -2.76500 44.50300
C  5.41200 -1.86300 43.98200
C  6.46400 -5.09900 45.89500
C  7.69700 -2.08200 44.16100
O  8.88100 -2.32500 44.35300
C  7.34900 -0.82000 43.43300
C  7.97500 0.29400 44.16400
O  7.67900 0.62800 45.29700
O  8.90400 0.96400 43.37300
C  9.30200 2.35000 43.83800
H  1.38900 1.96800 40.85500
H  -1.69800 -2.69300 43.86400
H  3.66300 -5.45900 45.74200
H  6.11700 2.01800 42.09300
H  4.00600 1.82100 39.96300
H  4.05700 4.13600 40.50500
H  4.91800 3.69100 42.06900
H  3.14400 3.67800 41.81900
H  5.60200 0.68100 39.48100
H  6.72600 -0.25800 40.45600
H  8.33100 0.85600 39.63600
H  7.96600 2.15200 40.67700
H  -1.85400 1.31500 39.71200
H  -0.52500 2.27800 40.22400
H  -1.96300 2.50800 41.10200
H  -4.81100 -1.72800 42.42300
H  -3.72200 -1.89900 43.83700
H  -3.18600 -2.50900 42.24300
H  -0.99700 -5.02900 44.36700
H  1.02700 -5.42100 46.55400
H  -0.98100 -3.18900 46.55000
H  -1.10300 -4.89400 46.99700
H  -2.31700 -4.23300 45.90100
H  1.96500 -6.25000 43.99600
H  0.32700 -6.84900 44.17100
H  2.70400 -8.03100 45.27000
H  1.10000 -8.56400 45.56600
H  1.87000 -7.42700 46.66400
H  6.12000 -6.05100 45.48900
H  6.08200 -5.02400 46.91300
H  7.55300 -5.05100 45.90100
H  7.88500 -0.81900 42.48400
H  9.68500 2.94200 43.00600
H  10.10500 2.13100 44.54200
H  8.55700 2.93900 44.37300
Mg 30.75900 58.71700 38.91000
C  27.62400 57.12300 38.33300
C  32.40000 55.90800 37.78400
C  33.59200 60.61600 38.55700
C  28.98500 61.72600 39.41300
N  30.05100 56.81200 38.02300
C  28.72500 56.32000 38.00400
C  28.73000 54.90800 37.47100
C  30.19700 54.46800 37.58000
C  31.00500 55.81600 37.81500
C  30.42400 53.44700 38.71100
C  28.26200 54.89600 35.99800
C  26.83300 54.35600 35.58900
H  25.95700 55.30200 34.75300
N  32.72600 58.30000 38.45000
C  33.19200 57.07700 38.12800
C  34.64200 57.15400 38.16200
C  35.08200 58.43200 38.34300
C  33.81700 59.25200 38.44800
C  35.57700 55.99000 37.98900
C  36.49300 58.96800 38.42600
O  37.41900 58.25400 38.04600
C  36.74400 60.27800 38.98300
N  31.14000 60.95500 38.84200
C  32.41000 61.44300 38.78500
C  32.40200 62.98800 38.93300
C  30.86600 63.33100 39.22900
C  30.31100 61.93800 39.18200
C  33.38000 63.68400 39.92600
C  30.20500 64.26700 38.21700
C  29.47100 65.53200 38.66600
N  28.67100 59.29200 38.89100
C  28.14200 60.58100 39.15900
C  26.67200 60.42800 39.20500
C  26.41200 59.07300 38.88800
C  27.65800 58.46700 38.77700
C  25.77400 61.54100 39.55200
C  25.39600 58.05200 38.75600
O  24.20900 58.19200 38.80500
C  26.15500 56.74600 38.26900
C  25.76800 55.59800 39.11800
O  26.06700 55.53300 40.28900
O  24.93400 54.72800 38.45400
C  24.30700 53.67800 39.27900
H  33.00000 55.01800 37.58200
H  34.41400 61.33200 38.49100
H  28.40700 62.57700 39.78100
H  28.03200 54.23700 37.97200
H  30.61100 54.07400 36.65100
H  31.13700 52.66800 38.44300
H  29.51000 53.04000 39.14200
H  30.83200 53.94200 39.59300
H  28.94100 54.27100 35.41700
H  28.32000 55.92600 35.64700
H  26.32600 54.05700 36.50600
H  26.76700 53.43300 35.01400
H  35.12600 55.05700 37.65200
H  36.06100 55.76700 38.94000
H  36.38600 56.20700 37.29100
H  37.77200 60.50600 39.26500
H  36.10800 60.40600 39.85900
H  36.52600 61.05400 38.24900
H  32.59600 63.36100 37.92700
H  30.72700 63.56600 40.28400
H  34.06500 62.99100 40.41300
H  32.81400 64.25500 40.66100
H  33.99200 64.37900 39.35000
H  29.59100 63.62800 37.58200
H  31.03200 64.61900 37.60000
H  29.79700 66.41800 38.12000
H  29.64600 65.59400 39.74000
H  28.38500 65.47900 38.59100
H  26.37300 62.19400 40.18800
H  24.84000 61.23300 40.02300
H  25.44500 62.04300 38.64300
H  25.80300 56.64400 37.24300
H  23.91100 54.10700 40.19900
H  25.19500 53.19400 39.68700
H  23.73600 53.02200 38.62200

