158

Mg 53.32600 23.96100 44.37300
C  51.07500 26.35700 43.29500
C  51.38500 21.54100 42.94800
C  55.92500 21.85000 44.46000
C  55.39600 26.52200 45.43600
N  51.50000 23.96500 43.21500
C  50.75900 25.05100 42.83100
C  49.55700 24.55200 41.90900
C  49.43800 23.11500 42.38000
C  50.88400 22.79400 42.85400
C  48.32000 22.78400 43.40900
C  49.71600 24.85900 40.37400
C  51.16300 25.26000 39.88600
H  51.37100 25.83100 38.50200
N  53.57500 21.99500 43.92800
C  52.65200 21.15400 43.40800
C  53.06800 19.77100 43.43100
C  54.37100 19.78500 43.93900
C  54.69200 21.25500 44.11600
C  52.29800 18.56300 42.83800
C  55.24500 18.54800 44.19800
O  54.76200 17.41900 43.91600
C  56.51500 18.66100 44.97400
N  55.38600 24.21500 44.64800
C  56.22500 23.17300 44.79500
C  57.63500 23.58800 45.05200
C  57.49800 25.04800 45.50500
C  55.96200 25.29900 45.18700
C  58.52100 22.69700 46.07100
C  58.52600 26.10700 44.98000
C  58.35700 26.73500 43.65400
N  53.18000 25.99000 44.60900
C  54.09400 26.93500 45.15000
C  53.47400 28.22100 45.15900
C  52.24600 28.03700 44.55600
C  52.15400 26.70000 44.15700
C  54.02400 29.47600 45.80200
C  51.01500 28.61900 44.13100
O  50.54400 29.77700 44.36700
C  50.19800 27.52400 43.22800
C  49.95300 28.02000 41.85400
O  50.83700 28.57700 41.16900
O  48.59600 27.88800 41.53600
C  48.20400 28.39600 40.20900
H  50.74500 20.77000 42.51300
H  56.80500 21.20300 44.47200
H  56.12200 27.22000 45.85900
H  48.80800 25.26400 42.25700
H  49.22700 22.46600 41.53000
H  47.30400 22.83400 43.01800
H  48.32600 23.64300 44.08000
H  48.68000 21.94500 44.00500
H  48.87900 25.49500 40.08500
H  49.57400 23.90300 39.87100
H  51.83500 24.42900 40.09900
H  51.51800 26.04300 40.55600
H  51.91300 18.13900 43.76600
H  52.94100 17.82900 42.35200
H  51.53100 18.89600 42.13900
H  56.50500 17.78000 45.61600
H  56.61800 19.52200 45.63400
H  57.39800 18.67900 44.33500
H  57.94700 23.53800 44.00900
H  57.29500 25.13500 46.57200
H  58.80200 23.39200 46.86300
H  59.48800 22.35900 45.69900
H  57.95400 21.85200 46.46300
H  59.54300 25.90600 45.31600
H  58.18700 26.87000 45.68200
H  59.33100 26.83900 43.17700
H  57.66900 27.58000 43.65200
H  57.80700 26.04500 43.01400
H  54.15100 30.13000 44.94000
H  55.02000 29.49100 46.24400
H  53.27400 29.80300 46.52200
H  49.25400 27.40100 43.75800
H  48.22600 29.48600 40.20600
H  47.17300 28.05000 40.14500
H  48.76100 27.93500 39.39300
Mg 26.52200 49.59600 27.30900
C  24.47500 50.82100 29.97000
C  28.83400 48.64000 29.77300
C  28.67400 48.69100 24.86600
C  24.42000 51.02200 25.02800
N  26.55700 49.68500 29.65100
C  25.58600 50.15900 30.44400
C  25.98800 49.93700 31.93300
C  27.44500 49.35200 31.87700
C  27.64400 49.20400 30.32000
C  28.57200 50.26600 32.53600
C  24.93200 49.10500 32.77100
C  24.27100 49.77800 33.99400
H  24.26100 48.97000 35.32900
N  28.46300 48.88000 27.27700
C  29.20200 48.48200 28.42500
C  30.54000 48.06400 27.96400
C  30.51500 48.07900 26.57100
C  29.18800 48.51400 26.19600
C  31.53100 47.62400 29.02600
C  31.60900 47.69100 25.56000
O  31.54000 47.89000 24.35800
C  33.02000 47.23500 26.03800
N  26.57000 49.89800 25.26100
C  27.52300 49.36900 24.44000
C  27.09200 49.34900 22.96500
C  25.73400 50.03800 22.99200
C  25.57500 50.36000 24.51100
C  27.99700 49.94300 21.89100
C  24.52400 49.12700 22.50900
C  23.79500 49.72700 21.30000
N  24.72800 50.57700 27.46700
C  24.02200 51.22400 26.44200
C  22.82200 51.73700 26.89200
C  22.89700 51.57400 28.30400
C  24.13100 50.97400 28.57700
C  21.76800 52.39600 26.05000
C  22.28700 51.93400 29.52300
O  21.28000 52.48200 29.74300
C  23.21600 51.32800 30.63100
C  23.45900 52.35400 31.62200
O  24.31700 53.19300 31.60000
O  22.43700 52.34000 32.53400
C  22.48200 53.29800 33.59100
H  29.39800 48.41000 30.68000
H  29.25900 48.22200 24.07200
H  23.69200 51.37400 24.29400
H  26.02600 50.93700 32.36400
H  27.61400 48.34900 32.26700
H  28.17300 50.93000 33.30300
H  28.91100 50.84300 31.67500
H  29.47600 49.74500 32.85100
H  25.35800 48.20400 33.21300
H  24.24500 48.85000 31.96400
H  23.24500 50.00500 33.70500
H  24.69800 50.78100 34.02200
H  32.52400 48.01200 28.80000
H  31.59000 46.55300 28.83600
H  31.23800 47.84200 30.05300
H  33.70500 47.91400 26.54600
H  33.51200 46.65200 25.26000
H  32.87100 46.41100 26.73600
H  27.05700 48.28000 22.75500
H  25.78200 51.01800 22.51700
H  28.53500 49.12200 21.41600
H  28.82800 50.58600 22.17700
H  27.44500 50.43200 21.08800
H  23.80600 48.90900 23.30000
H  24.85600 48.11000 22.30300
H  22.81700 50.10800 21.59500
H  23.51400 48.92500 20.61700
H  24.39900 50.51400 20.84900
H  21.53400 51.91300 25.10100
H  22.13000 53.40500 25.85000
H  20.86900 52.62900 26.61900
H  22.72200 50.51700 31.16600
H  22.32700 54.34000 33.31000
H  23.36400 53.14900 34.21500
H  21.57300 53.06100 34.14300

