158

Mg 48.00300 16.35100 28.03100
C  46.30700 16.11000 30.98500
C  50.45000 18.13400 29.67200
C  49.45700 16.95300 25.02500
C  45.27300 15.00600 26.37100
N  48.35200 17.03100 30.13400
C  47.48700 16.73800 31.25200
C  48.19800 17.14000 32.56100
C  49.32100 18.11800 32.06700
C  49.36300 17.83100 30.52500
C  49.10000 19.64200 32.32100
C  48.71000 16.06500 33.56900
C  48.73800 16.43400 35.05100
H  48.09100 17.75600 35.51200
N  49.78300 17.35200 27.48100
C  50.72000 17.93100 28.31100
C  51.91600 18.13000 27.48700
C  51.63200 17.78400 26.12900
C  50.24500 17.34200 26.20300
C  53.17000 18.65100 28.02300
C  52.52700 17.97900 24.85800
O  52.08700 17.84100 23.73700
C  53.89500 18.66400 24.96600
N  47.57000 15.86600 25.96300
C  48.29900 16.29900 24.89800
C  47.61500 15.97500 23.49900
C  46.31800 15.22600 24.03200
C  46.40900 15.25800 25.55500
C  47.32700 17.28100 22.73400
C  45.98900 13.80500 23.59400
C  45.68200 13.56100 22.14900
N  46.12200 15.71800 28.50400
C  45.15300 15.14500 27.75300
C  44.02500 14.83000 28.52900
C  44.45400 15.14700 29.85800
C  45.74300 15.65000 29.75900
C  42.67000 14.23200 28.09400
C  43.95400 15.25200 31.17300
O  42.90500 15.00200 31.69600
C  45.17700 15.84400 32.03300
C  44.65800 16.98000 32.84800
O  44.71300 18.22100 32.64100
O  43.94500 16.42900 33.90100
C  43.63000 17.39200 34.98100
H  51.25900 18.49200 30.31300
H  49.85000 17.13700 24.02300
H  44.51000 14.42800 25.84600
H  47.43100 17.74000 33.05100
H  50.27300 17.82500 32.51000
H  49.78200 19.89000 33.13400
H  48.03100 19.77100 32.49400
H  49.42000 20.23600 31.46500
H  49.71200 15.71400 33.32500
H  47.98200 15.28400 33.35200
H  49.77900 16.49700 35.36500
H  48.33100 15.55400 35.55000
H  53.67100 19.40400 27.41500
H  53.90000 17.89200 28.30400
H  52.94400 19.14400 28.96800
H  53.79300 19.69900 25.29000
H  54.33000 18.74900 23.97000
H  54.59900 18.09500 25.57200
H  48.28200 15.32500 22.93300
H  45.35100 15.68100 23.81700
H  46.31400 17.29100 22.33100
H  48.08800 17.39800 21.96300
H  47.38900 18.22300 23.27700
H  45.21200 13.27400 24.14500
H  46.87700 13.20700 23.79800
H  45.99600 12.53300 21.97300
H  46.26900 14.29500 21.59700
H  44.64900 13.72100 21.84100
H  42.82600 13.25600 27.63500
H  42.08900 14.91800 27.47800
H  42.02800 14.06000 28.95800
H  45.66300 15.16100 32.72900
H  43.24700 16.86300 35.85400
H  42.81500 18.09100 34.79300
H  44.48100 18.02800 35.22700
Mg 36.92600 49.29400 25.44200
C  37.01200 47.10500 28.25700
C  34.87100 51.32000 27.40100
C  36.06900 50.91000 22.67100
C  38.15000 46.61100 23.48100
N  36.13700 49.18400 27.60400
C  36.43200 48.33000 28.62400
C  36.03300 48.74800 30.02100
C  35.07300 49.91100 29.61700
C  35.37100 50.20400 28.15200
C  33.54300 49.76400 30.04000
C  37.35300 49.16200 30.63500
C  37.63200 48.63000 32.01900
H  36.38600 48.51200 32.93200
N  35.83200 50.96100 25.14400
C  35.16600 51.67600 26.06500
C  34.77600 53.02100 25.49300
C  35.05400 52.92500 24.07100
C  35.67800 51.55000 23.90800
C  34.42400 54.23200 26.38300
C  34.84100 53.88900 23.00300
O  35.04500 53.54600 21.84700
C  34.45900 55.31600 23.27000
N  37.17100 48.80500 23.44700
C  36.68200 49.67000 22.45900
C  36.96800 49.17700 21.04600
C  37.83700 47.88600 21.36600
C  37.69100 47.71800 22.80900
C  35.75400 48.99800 20.13700
C  39.34200 48.06100 20.89900
C  40.44700 48.60600 21.84500
N  37.52300 47.30800 25.74800
C  38.09400 46.41500 24.87700
C  38.35900 45.18700 25.60000
C  38.04000 45.48800 26.96700
C  37.47200 46.67500 26.98300
C  38.68500 43.86200 25.03300
C  37.94700 44.87400 28.25500
O  38.16300 43.73200 28.55900
C  37.51700 45.99800 29.20300
C  36.41300 45.39400 30.04300
O  35.26200 45.28800 29.67800
O  36.89400 45.08100 31.30200
C  35.89100 44.78400 32.32000
H  34.24600 51.96400 28.02300
H  35.88500 51.42100 21.72300
H  38.73500 45.87000 22.93200
H  35.45600 47.99400 30.55600
H  35.39200 50.80600 30.15200
H  32.87400 49.78000 29.17900
H  33.39900 50.72200 30.54000
H  33.29200 48.94600 30.71400
H  37.49000 50.23900 30.73400
H  38.17700 48.81000 30.01400
H  38.19000 49.38200 32.57700
H  38.31000 47.77900 32.07900
H  33.82300 54.97300 25.85500
H  35.27900 54.72900 26.84100
H  33.79700 53.93000 27.22200
H  35.18300 55.74700 23.96200
H  33.44400 55.32800 23.66800
H  34.47600 55.81500 22.30100
H  37.57000 49.96200 20.58900
H  37.56100 47.00500 20.78800
H  35.83400 48.19400 19.40600
H  35.51600 49.90500 19.58100
H  34.86600 48.80100 20.73800
H  39.38100 48.61400 19.96100
H  39.70800 47.06900 20.63600
H  39.96300 48.96800 22.75200
H  41.08000 49.33900 21.34400
H  40.96600 47.66400 22.02200
H  39.07300 43.22900 25.83100
H  39.50600 43.92400 24.31900
H  37.85800 43.41200 24.48300
H  38.38900 46.38400 29.73200
H  35.54500 43.75400 32.24500
H  34.97800 45.37400 32.24300
H  36.36100 45.12500 33.24300

