158

Mg 2.13500 -0.25400 42.89600
C  5.66100 -0.03800 42.61400
C  1.82700 2.53400 40.93200
C  -1.08100 -0.98800 42.41800
C  2.67400 -3.46000 44.23600
N  3.55700 1.09500 41.87800
C  4.98300 1.03200 41.91800
C  5.57300 2.12700 41.06500
C  4.36800 3.12300 40.89700
C  3.20100 2.20100 41.18200
C  4.39500 4.37100 41.90500
C  6.04200 1.58500 39.67200
C  7.46300 2.06200 39.23800
H  7.55500 2.52200 37.77500
N  0.54200 0.69500 41.97000
C  0.64800 1.85000 41.23400
C  -0.70900 2.20000 40.83600
C  -1.59900 1.32600 41.38900
C  -0.74500 0.25900 41.93500
C  -1.04200 3.57100 40.03200
C  -3.21900 1.46400 41.41200
O  -3.75200 2.38100 40.87200
C  -4.07500 0.39500 42.00600
N  0.96200 -2.07400 43.14200
C  -0.36700 -2.04300 43.00100
C  -0.98000 -3.32400 43.52500
C  0.11700 -4.02200 44.31700
C  1.34800 -3.18100 43.85700
C  -2.26200 -3.08400 44.42200
C  0.41800 -5.54100 43.97500
C  -0.28200 -6.57300 44.87400
N  3.77600 -1.47300 43.47200
C  3.78000 -2.73200 43.96500
C  5.21400 -3.22800 44.06700
C  5.98100 -2.13800 43.58800
C  5.04500 -1.13700 43.26200
C  5.71500 -4.58700 44.61200
C  7.28300 -1.68700 43.35400
O  8.34000 -2.31900 43.52900
C  7.14100 -0.29200 42.67900
C  7.80100 0.76500 43.54800
O  7.71500 0.82600 44.76300
O  8.59000 1.65000 42.77700
C  9.11400 2.85800 43.42400
H  1.71000 3.43000 40.31800
H  -2.14000 -1.23300 42.31600
H  2.84500 -4.39000 44.78200
H  6.33400 2.70100 41.59300
H  4.22800 3.50500 39.88600
H  5.44900 4.64200 41.95500
H  3.97200 3.96100 42.82300
H  3.83800 5.23900 41.55300
H  5.28400 1.80500 38.92000
H  5.99200 0.49800 39.73300
H  8.25800 1.34100 39.42900
H  7.75900 2.91800 39.84600
H  -0.17500 4.04600 39.57300
H  -1.44600 4.22200 40.80700
H  -1.79400 3.55100 39.24300
H  -5.13900 0.54100 41.82200
H  -3.86500 0.29200 43.07100
H  -3.91600 -0.58200 41.55100
H  -1.33600 -3.84100 42.63400
H  0.13000 -3.73000 45.36700
H  -2.29500 -2.01400 44.62600
H  -2.15400 -3.63800 45.35500
H  -3.13900 -3.42200 43.87100
H  1.46800 -5.83300 43.96900
H  0.05100 -5.72200 42.96500
H  -1.06900 -5.97600 45.33600
H  0.31900 -7.05300 45.64700
H  -0.80500 -7.29500 44.24800
H  4.98500 -5.29600 45.00200
H  6.44400 -4.42300 45.40600
H  6.26800 -5.08000 43.81200
H  7.69100 -0.33200 41.73900
H  8.61200 3.72000 42.98400
H  10.15600 2.95500 43.11800
H  9.10700 2.78200 44.51100
Mg 25.07400 -7.46100 47.82400
C  26.79500 -4.95500 46.10900
C  22.49800 -7.18300 45.63800
C  23.70500 -10.10000 49.40800
C  28.14500 -8.15500 49.49900
N  24.75600 -6.04900 46.13000
C  25.60100 -5.17700 45.47900
C  24.93000 -4.45600 44.33200
C  23.59700 -5.29100 44.16800
C  23.51500 -6.18800 45.47200
C  22.30100 -4.43600 43.75200
C  25.89100 -4.21400 43.11400
C  26.12600 -2.72800 42.79800
H  25.54400 -2.39500 41.48100
N  23.29900 -8.47100 47.57500
C  22.39000 -8.21000 46.62200
C  21.30100 -9.12100 46.81100
C  21.59800 -9.91200 47.90900
C  22.88600 -9.47600 48.41600
C  20.05400 -9.17500 45.87600
C  20.69500 -10.93300 48.40700
O  19.59900 -11.10800 47.87200
C  21.00000 -11.61000 49.75400
N  25.79300 -8.89600 49.35100
C  25.01000 -9.84700 49.81800
C  25.79000 -10.87600 50.74500
C  27.27000 -10.36800 50.53200
C  27.03500 -9.06400 49.76900
C  25.47500 -10.60500 52.22500
C  28.21400 -11.29900 49.66500
C  29.64100 -11.48500 50.17100
N  27.05200 -6.73300 47.82000
C  28.13400 -7.05000 48.62700
C  29.26800 -6.13900 48.30500
C  28.77700 -5.26600 47.34300
C  27.43400 -5.68800 47.03800
C  30.55800 -6.12700 48.96500
C  29.10900 -4.07900 46.64400
O  30.12900 -3.35800 46.58400
C  27.86700 -3.86300 45.75300
C  27.46600 -2.49900 46.32200
O  26.66100 -2.45200 47.23700
O  28.08600 -1.49200 45.76600
C  27.55300 -0.11500 46.02900
H  21.75300 -7.11000 44.84200
H  23.40500 -10.97900 49.98100
H  29.07800 -8.25400 50.05700
H  24.56900 -3.50000 44.71000
H  23.85300 -5.93800 43.32900
H  21.47200 -4.96200 44.22400
H  22.26900 -4.36300 42.66500
H  22.38500 -3.46000 44.22800
H  25.46700 -4.70500 42.23800
H  26.86700 -4.68700 43.22300
H  27.17800 -2.47300 42.91900
H  25.65200 -2.04300 43.50200
H  19.29700 -8.82700 46.57900
H  19.87400 -10.20100 45.55500
H  20.07900 -8.41900 45.09200
H  21.68500 -12.43200 49.54800
H  20.06500 -12.02900 50.12800
H  21.36800 -10.89800 50.49300
H  25.50800 -11.89000 50.46300
H  27.73100 -10.14300 51.49400
H  26.12300 -9.84400 52.66000
H  25.47600 -11.55200 52.76400
H  24.50900 -10.13400 52.41100
H  28.30100 -10.86100 48.67100
H  27.73500 -12.27200 49.55000
H  29.95700 -12.49900 50.41600
H  29.77900 -11.05500 51.16300
H  30.38200 -11.10000 49.47000
H  30.45500 -5.96500 50.03800
H  31.28600 -5.48100 48.47500
H  31.01000 -7.08700 48.71800
H  28.15500 -3.62700 44.72900
H  26.47800 -0.15000 46.20700
H  27.67300 0.35100 45.05100
H  28.01600 0.40800 46.86500

