158

Mg -1.94000 17.67100 27.34400
C  -2.52100 15.29600 29.92700
C  -2.39400 20.10900 29.68500
C  -1.73200 19.97800 24.90500
C  -2.31300 15.07200 25.05100
N  -2.59000 17.65000 29.59600
C  -2.53200 16.56000 30.46800
C  -2.45700 16.94500 31.89700
C  -2.61000 18.54700 31.76000
C  -2.61500 18.82000 30.24900
C  -3.86600 19.12000 32.45800
C  -1.16500 16.54400 32.72300
C  -0.90100 17.33100 33.99300
H  -0.62000 16.57900 35.27600
N  -1.91500 19.77600 27.31400
C  -2.14700 20.59200 28.41600
C  -2.12900 21.98500 27.98400
C  -1.84900 21.99600 26.58600
C  -1.86100 20.54600 26.23700
C  -2.56000 23.12500 28.95700
C  -1.79500 23.15000 25.67200
O  -1.65000 23.07900 24.43200
C  -2.13200 24.48100 26.16000
N  -2.09000 17.50900 25.31300
C  -1.94000 18.61000 24.50800
C  -2.11300 18.23000 23.03100
C  -2.18100 16.70500 23.10400
C  -2.30400 16.37400 24.59200
C  -3.39500 18.86200 22.37300
C  -1.06000 16.03200 22.28500
C  0.31200 15.96400 22.97700
N  -2.18500 15.57900 27.43500
C  -2.33400 14.68200 26.41700
C  -2.58100 13.35200 26.91600
C  -2.59200 13.52500 28.28800
C  -2.39700 14.92000 28.57700
C  -2.77200 12.15000 26.00600
C  -2.63000 12.83000 29.57300
O  -2.72200 11.69900 29.94600
C  -2.58300 13.96600 30.60100
C  -1.42900 13.70600 31.45900
O  -0.26000 14.06000 31.29000
O  -1.91500 12.89000 32.50700
C  -0.96500 12.81100 33.59000
H  -2.58800 20.89700 30.41600
H  -1.67400 20.79700 24.18400
H  -2.38900 14.21100 24.38500
H  -3.31400 16.40400 32.29800
H  -1.85300 19.13600 32.27800
H  -3.54700 19.46500 33.44200
H  -4.56600 18.29100 32.56600
H  -4.38400 19.91300 31.92000
H  -0.21800 16.54100 32.18300
H  -1.48300 15.59200 33.14900
H  -1.71500 18.02600 34.20200
H  -0.07400 18.00100 33.75600
H  -3.62400 23.25400 28.75500
H  -2.03100 24.06400 28.79500
H  -2.53400 22.85900 30.01400
H  -3.16400 24.52200 26.50900
H  -1.89100 25.28400 25.46300
H  -1.49100 24.85800 26.95700
H  -1.20600 18.57000 22.53200
H  -3.11200 16.27400 22.73400
H  -3.93400 19.48900 23.08300
H  -4.08700 18.10200 22.01100
H  -3.04300 19.46100 21.53200
H  -0.79800 16.46000 21.31700
H  -1.45100 15.03600 22.07900
H  0.30300 16.36800 23.99000
H  0.88300 16.65400 22.35600
H  0.75400 14.97200 22.88200
H  -1.91200 12.13300 25.33800
H  -3.75800 12.20900 25.54500
H  -2.75700 11.26400 26.64200
H  -3.48400 13.99700 31.21300
H  -1.57800 12.53800 34.44800
H  -0.35500 13.68200 33.83100
H  -0.31000 11.96600 33.37400
Mg 29.97700 58.57900 38.69700
C  27.61500 56.56000 37.32600
C  32.44000 56.18000 38.08400
C  32.31900 61.01200 39.28400
C  27.53500 61.20400 38.69700
N  30.00500 56.51600 37.65000
C  28.85300 55.88600 37.36200
C  29.12300 54.39100 37.12100
C  30.66100 54.26400 37.45100
C  31.09100 55.69500 37.80500
C  31.03000 53.26500 38.49000
C  28.78400 53.84300 35.67000
C  29.21600 54.63600 34.42200
H  28.08700 55.06000 33.48100
N  32.10000 58.49800 38.81400
C  32.88900 57.43000 38.48200
C  34.30100 57.79900 38.73700
C  34.23500 59.18500 39.20800
C  32.84600 59.64400 39.07500
C  35.49200 56.88100 38.57200
C  35.48400 59.92300 39.58300
O  36.60700 59.42400 39.64000
C  35.48500 61.44600 39.92100
N  29.94200 60.74600 39.01700
C  31.02700 61.44800 39.39000
C  30.75800 62.93300 39.39100
C  29.21400 62.93700 39.46900
C  28.81100 61.56100 39.04600
C  31.55400 63.86100 40.39400
C  28.47700 64.12300 38.69000
C  28.54100 64.01500 37.10500
N  28.04600 58.88000 38.07200
C  27.13100 59.96400 38.20500
C  25.79700 59.63000 37.71500
C  25.86900 58.19000 37.57600
C  27.28200 57.92400 37.65600
C  24.51800 60.48800 37.56600
C  25.10100 56.99900 37.27900
O  23.90900 56.70500 37.14200
C  26.25600 55.88100 37.03600
C  25.77900 54.74200 37.92400
O  26.05100 54.56400 39.10000
O  24.90200 53.95600 37.21300
C  24.23400 52.93100 37.98200
H  33.13000 55.33400 38.05400
H  32.98400 61.86000 39.45800
H  26.74400 61.94000 38.85400
H  28.51200 53.81200 37.81400
H  31.11500 54.04600 36.48400
H  30.15700 52.92800 39.05000
H  31.76500 53.66000 39.19100
H  31.44500 52.36000 38.04700
H  27.76800 53.45100 35.61700
H  29.38200 52.93500 35.59100
H  29.90200 54.02100 33.83800
H  29.60400 55.57000 34.82900
H  36.11200 57.36700 37.81800
H  35.16900 55.93200 38.14400
H  36.12800 56.66100 39.43000
H  36.46000 61.83400 40.21400
H  34.79300 61.59700 40.75000
H  35.10400 62.09700 39.13400
H  30.96300 63.31500 38.39100
H  28.95000 63.14600 40.50600
H  32.29900 64.48800 39.90400
H  32.02600 63.30500 41.20400
H  30.83800 64.52100 40.88500
H  28.84800 65.12000 38.93100
H  27.47400 64.01700 39.10500
H  28.93900 64.90800 36.62300
H  27.55400 63.76000 36.71700
H  29.06800 63.14300 36.71800
H  23.76700 60.01400 36.93400
H  24.69300 61.49300 37.18000
H  23.99000 60.54600 38.51700
H  26.21100 55.47400 36.02600
H  23.72600 52.27200 37.27900
H  23.54200 53.43100 38.65900
H  24.92600 52.27100 38.50600

