158

Mg 35.29100 3.47800 29.61400
C  32.76500 4.02600 32.15200
C  37.63300 3.63400 31.96500
C  37.48100 2.40400 27.26800
C  32.86900 3.80900 27.11900
N  35.17700 4.04700 31.75700
C  34.12500 4.05000 32.61900
C  34.58100 3.99700 34.06700
C  36.14000 4.26700 33.92800
C  36.32800 3.91400 32.46800
C  36.61900 5.67900 34.33200
C  34.35800 2.56600 34.68300
C  34.33000 2.50900 36.17700
H  35.15100 3.56400 36.85900
N  37.30300 3.08000 29.59600
C  38.06400 3.17100 30.70100
C  39.42600 2.86200 30.32700
C  39.47100 2.40600 28.94000
C  38.05300 2.53400 28.54400
C  40.41400 2.75400 31.48300
C  40.59300 1.67800 28.11400
O  40.44800 1.12400 26.98700
C  42.04000 1.61200 28.70400
N  35.18300 3.30000 27.52100
C  36.20200 2.79500 26.76200
C  35.81400 2.58100 25.28500
C  34.27500 3.06200 25.23300
C  34.10600 3.38800 26.65900
C  36.72700 3.42700 24.29800
C  33.36400 1.91600 24.68700
C  32.35700 2.45800 23.66100
N  33.16300 3.88600 29.55700
C  32.33300 3.92500 28.51900
C  30.99100 4.18400 28.90700
C  31.10600 4.23900 30.36000
C  32.45100 4.03300 30.73900
C  29.75600 4.28500 28.04400
C  30.34500 4.22900 31.58500
O  29.12600 4.17100 31.68900
C  31.40100 4.16800 32.80200
C  31.42000 5.47800 33.62300
O  31.72300 6.58000 33.22300
O  31.02000 5.18500 34.91100
C  31.20600 6.15600 36.03000
H  38.33700 3.86100 32.76700
H  38.18300 2.05900 26.50600
H  32.17200 3.72900 26.28200
H  33.97100 4.66500 34.67500
H  36.67400 3.51000 34.50300
H  36.60700 5.73900 35.42000
H  35.84000 6.32400 33.92600
H  37.57600 5.87100 33.84600
H  35.18200 1.93900 34.34000
H  33.40200 2.25100 34.26400
H  34.74300 1.54400 36.47200
H  33.30000 2.56000 36.52900
H  40.35500 3.56200 32.21300
H  41.46600 2.79900 31.20200
H  40.10900 1.81900 31.95200
H  42.38100 2.63500 28.86500
H  42.67300 1.10500 27.97600
H  42.06900 1.15000 29.69100
H  35.82900 1.51200 25.07300
H  34.17900 4.05100 24.78400
H  37.48700 2.84700 23.77400
H  37.32200 4.16900 24.83200
H  36.24100 4.06400 23.55900
H  32.79300 1.54300 25.53800
H  33.89800 1.10000 24.20100
H  32.55600 3.46200 23.28800
H  31.33300 2.41000 24.03400
H  32.34600 1.73900 22.84200
H  28.89200 4.02600 28.65600
H  29.75400 3.38600 27.42800
H  29.64700 5.15900 27.40200
H  31.26000 3.30000 33.44700
H  30.25300 6.62900 36.26600
H  31.88500 7.00300 35.93000
H  31.55800 5.64000 36.92300
Mg 40.48100 9.64600 28.59100
C  42.19700 10.58200 31.53700
C  38.24300 7.89300 30.86200
C  38.68100 8.70700 25.96800
C  43.14400 10.69600 26.57200
N  40.26600 9.21300 31.00500
C  41.05900 9.79800 31.90700
C  40.57600 9.38300 33.32900
C  39.62600 8.19600 33.09600
C  39.36200 8.46600 31.59300
C  40.22900 6.80100 33.38500
C  39.99000 10.58500 34.11400
C  40.46100 10.70900 35.55600
H  40.88300 12.13600 35.89600
N  38.74200 8.57700 28.44700
C  38.02500 7.86800 29.40600
C  36.80800 7.28700 28.81200
C  36.80500 7.56300 27.39300
C  38.12100 8.34600 27.25700
C  35.79300 6.54200 29.65000
C  35.79300 7.26300 26.29600
O  35.94500 7.50100 25.08800
C  34.45300 6.75900 26.74600
N  40.96200 9.66400 26.53700
C  39.95200 9.36600 25.69200
C  40.43100 9.59500 24.19700
C  41.76100 10.33000 24.36600
C  42.03500 10.24100 25.88200
C  40.46900 8.31100 23.30300
C  41.93700 11.70700 23.72900
C  41.23800 12.89600 24.24400
N  42.35800 10.44500 28.93400
C  43.33700 10.83800 28.00600
C  44.31800 11.55200 28.81400
C  43.90300 11.52100 30.17700
C  42.71000 10.78200 30.22800
C  45.53500 12.14700 28.22200
C  44.22800 12.02400 31.55900
O  45.14900 12.72300 32.01900
C  43.16200 11.39200 32.46100
C  43.77100 10.39800 33.47000
O  44.27000 9.31000 33.22100
O  43.77600 10.94700 34.73000
C  44.18900 10.08000 35.84500
H  37.64100 7.21200 31.46800
H  38.03900 8.54900 25.09900
H  43.83000 11.11300 25.83200
H  41.45500 8.97800 33.83100
H  38.76100 8.25400 33.75700
H  41.28100 6.95500 33.62600
H  40.29700 6.28500 32.42700
H  39.72800 6.17700 34.12500
H  38.91400 10.42400 34.18400
H  40.21900 11.52300 33.60900
H  41.26400 10.04300 35.87200
H  39.57500 10.54000 36.16700
H  35.97200 6.36100 30.71000
H  35.63000 5.58300 29.15800
H  34.87500 7.11900 29.75500
H  33.95100 6.47600 25.82100
H  33.82000 7.57700 27.08900
H  34.54600 5.97200 27.49400
H  39.69500 10.28600 23.78600
H  42.56300 9.70900 23.96500
H  39.40400 8.22100 23.09000
H  40.65600 7.38900 23.85400
H  41.13100 8.38500 22.44100
H  41.75000 11.53800 22.66900
H  43.00000 11.89300 23.87800
H  40.59600 13.23700 23.43200
H  41.90300 13.71900 24.50700
H  40.56800 12.69700 25.08100
H  45.65000 13.05800 28.81000
H  45.40000 12.38300 27.16700
H  46.34300 11.41600 28.26400
H  42.72500 12.14700 33.11400
H  43.81600 10.51100 36.77400
H  45.27500 10.13400 35.92500
H  44.01300 9.00800 35.76100

