158

Mg 6.89200 53.46400 40.92500
C  6.61500 49.93300 40.94500
C  10.28000 53.00700 40.13600
C  6.96100 56.65300 39.86400
C  3.37300 53.59000 40.80300
N  8.16900 51.63600 40.43000
C  7.90500 50.35600 40.67400
C  9.18700 49.48600 40.69300
C  10.36600 50.56500 40.72100
C  9.56100 51.83100 40.39900
C  11.18200 50.62600 42.04600
C  9.30900 48.47800 39.51200
C  9.11700 49.03000 38.08500
H  7.81400 48.76300 37.31100
N  8.47300 54.69700 40.20400
C  9.80100 54.35400 39.94400
C  10.54400 55.54800 39.65400
C  9.58300 56.62100 39.55300
C  8.26700 56.05600 39.87900
C  12.03500 55.57100 39.53800
C  9.90700 58.12700 39.36300
O  11.07400 58.41400 39.13600
C  8.93300 59.21400 39.58400
N  5.37800 54.93000 40.39600
C  5.69500 56.15000 40.08200
C  4.52100 57.10100 40.07900
C  3.33700 56.07000 40.30900
C  4.07400 54.79600 40.56600
C  4.63900 58.22800 41.16800
C  2.21800 55.92400 39.17400
C  0.75500 56.08600 39.64300
N  5.21800 52.11900 41.09200
C  3.89400 52.29200 41.09300
C  3.18200 51.14600 41.54700
C  4.21800 50.19900 41.45500
C  5.42400 50.82600 41.09900
C  1.71900 50.95500 41.97900
C  4.52400 48.76500 41.59700
O  3.83200 47.79200 41.92900
C  6.04800 48.63200 41.37100
C  6.09700 47.60800 40.31800
O  5.72300 47.78800 39.13600
O  6.57100 46.45300 40.88400
C  6.51100 45.29300 40.01200
H  11.33800 52.79200 40.29700
H  6.86900 57.67000 39.47800
H  2.28900 53.72400 40.79000
H  9.16600 49.00600 41.67200
H  11.16600 50.31000 40.02600
H  11.70600 49.68500 42.21700
H  10.58000 50.80100 42.93800
H  11.76300 51.54800 42.02900
H  8.71700 47.57000 39.62500
H  10.30500 48.03800 39.45700
H  9.90600 48.64200 37.44100
H  9.28400 50.08700 38.29600
H  12.44400 56.18800 40.33900
H  12.35000 56.04800 38.61000
H  12.41100 54.55600 39.66500
H  8.60600 59.04300 40.60900
H  8.06700 59.21200 38.92200
H  9.43000 60.18100 39.66000
H  4.43300 57.49000 39.06400
H  2.80200 56.43500 41.18600
H  4.04600 58.14000 42.07800
H  4.57600 59.19800 40.67600
H  5.67900 58.25100 41.49600
H  2.30900 54.96900 38.65700
H  2.36800 56.69700 38.42000
H  0.23600 55.14300 39.47100
H  0.26000 56.86700 39.06600
H  0.67300 56.31500 40.70600
H  1.30700 50.17100 41.34300
H  1.10900 51.84800 41.84600
H  1.75000 50.67800 43.03300
H  6.41300 48.31600 42.34800
H  7.20300 45.51600 39.20000
H  5.50800 45.15600 39.60900
H  6.77800 44.42100 40.60900
Mg 17.25900 52.61900 25.68300
C  18.58600 51.08000 28.59000
C  14.72400 53.89300 27.68900
C  15.73600 53.64800 22.87900
C  19.68300 50.97800 23.76400
N  16.70800 52.44200 27.93900
C  17.42300 51.81600 28.92600
C  16.75800 51.95100 30.26400
C  15.44500 52.70400 29.90900
C  15.60400 53.01000 28.38800
C  14.05500 51.99900 30.37200
C  17.61100 52.53800 31.37500
C  17.69800 51.88800 32.80100
H  16.45900 51.00100 33.09900
N  15.52800 53.54000 25.36300
C  14.56100 53.92800 26.33400
C  13.43700 54.65200 25.64900
C  13.71500 54.56600 24.26300
C  15.01200 53.82600 24.09700
C  12.29700 55.30900 26.44200
C  13.00900 55.20900 23.16800
O  13.41100 55.11600 22.01100
C  11.82700 56.07900 23.49500
N  17.56900 52.16500 23.59300
C  16.91600 52.88200 22.70700
C  17.56800 52.87400 21.27500
C  18.80300 51.96700 21.60600
C  18.68600 51.65400 23.06900
C  16.72000 52.25500 20.13300
C  20.18100 52.66600 21.18500
C  21.43800 51.82100 20.95000
N  18.89500 51.36200 26.08000
C  19.78700 50.79500 25.18700
C  20.79200 49.95400 25.95200
C  20.33600 50.02300 27.28300
C  19.19400 50.90200 27.27900
C  21.93600 49.20500 25.30900
C  20.58200 49.56900 28.66500
O  21.43800 48.80200 29.08100
C  19.47500 50.29800 29.58100
C  18.83900 49.17300 30.37500
O  17.88100 48.47500 30.04500
O  19.54700 49.01700 31.56300
C  19.13800 47.88700 32.37200
H  13.98500 54.42700 28.28900
H  15.23500 53.93800 21.95300
H  20.54300 50.58400 23.21900
H  16.48100 50.91000 30.43400
H  15.30700 53.69000 30.35300
H  14.32200 51.02300 30.77600
H  13.42100 51.85900 29.49700
H  13.54600 52.54700 31.16500
H  17.08800 53.47700 31.55300
H  18.63400 52.77700 31.08500
H  17.82000 52.61200 33.60600
H  18.55700 51.22300 32.88800
H  11.28600 55.04800 26.12800
H  12.29700 56.39600 26.36300
H  12.44900 55.21600 27.51700
H  11.04500 55.46400 23.94100
H  11.41100 56.48800 22.57400
H  12.09700 56.92000 24.13200
H  17.71700 53.91700 20.99500
H  18.83800 50.94400 21.22900
H  16.02500 51.46300 20.41400
H  17.32800 51.78300 19.36100
H  16.00300 52.99200 19.77100
H  20.58600 53.22000 22.03200
H  19.94300 53.35800 20.37700
H  21.74100 51.98700 19.91600
H  21.31400 50.73900 20.99500
H  22.22300 52.10800 21.64900
H  22.16700 48.24900 25.78000
H  22.85800 49.69700 25.62100
H  21.93800 49.16800 24.22000
H  19.96700 51.01900 30.23300
H  18.10800 47.87500 32.72900
H  19.93500 47.89800 33.11500
H  19.37900 47.09100 31.66700

