158

Mg 24.37000 -4.79500 45.40900
C  26.35100 -2.70700 43.60300
C  21.73400 -4.12600 43.35600
C  22.89400 -7.65000 46.52700
C  27.30900 -5.84400 47.17600
N  24.16200 -3.64800 43.55000
C  25.05800 -2.78100 43.03900
C  24.42800 -1.96200 41.86400
C  22.93400 -2.31500 42.01600
C  22.91300 -3.39100 43.10800
C  22.04200 -1.14100 42.43400
C  25.10100 -2.29100 40.47900
C  25.72400 -1.12100 39.65300
H  25.34400 -0.82700 38.18400
N  22.65000 -5.72100 45.02200
C  21.65100 -5.26700 44.14400
C  20.54300 -6.16200 44.15000
C  20.78100 -7.10300 45.16500
C  22.17200 -6.83000 45.60800
C  19.43800 -6.03900 43.11800
C  19.76300 -8.13200 45.56200
O  18.59200 -8.19600 45.11700
C  20.11000 -9.08000 46.62700
N  24.96200 -6.52100 46.78600
C  24.19200 -7.57600 47.00900
C  24.99200 -8.72000 47.81400
C  26.36400 -8.02300 48.12500
C  26.27700 -6.75500 47.24500
C  24.17400 -9.16500 49.11400
C  27.68200 -8.83400 47.93800
C  28.69800 -8.69200 49.06600
N  26.42800 -4.32700 45.54900
C  27.46900 -4.72700 46.35700
C  28.64700 -3.89200 46.15900
C  28.19700 -3.08600 45.01300
C  26.87600 -3.41500 44.68900
C  29.91200 -3.88800 47.03300
C  28.69400 -2.06600 44.10100
O  29.72300 -1.44300 44.07700
C  27.45100 -1.72000 43.14900
C  27.02200 -0.34700 43.36600
O  26.37400 0.12000 44.29100
O  27.50200 0.49500 42.37200
C  27.32100 1.96800 42.54200
H  20.78800 -3.94500 42.84000
H  22.54700 -8.64500 46.81200
H  28.19000 -6.11000 47.76500
H  24.67500 -0.97400 42.25300
H  22.52700 -2.76800 41.11200
H  22.49400 -0.20500 42.10400
H  21.85300 -1.22100 43.50400
H  21.09300 -1.29400 41.91900
H  24.35800 -2.78300 39.85100
H  25.84400 -3.06700 40.65800
H  26.76400 -1.41600 39.51400
H  25.56800 -0.19400 40.20400
H  19.81400 -5.69600 42.15400
H  18.66000 -5.35200 43.44900
H  18.91400 -6.98200 42.96000
H  19.22300 -9.59400 46.99800
H  20.62400 -8.56700 47.44000
H  20.75100 -9.84700 46.19100
H  25.18100 -9.64300 47.26600
H  26.28000 -7.70600 49.16500
H  23.13300 -8.92400 48.89600
H  24.43800 -8.53200 49.96100
H  24.32500 -10.21600 49.36100
H  28.17000 -8.45200 47.04200
H  27.49900 -9.89900 47.79600
H  29.45200 -8.00900 48.67500
H  29.19900 -9.63900 49.26500
H  28.26900 -8.43800 50.03500
H  30.49900 -4.71700 46.63900
H  29.69300 -4.28500 48.02500
H  30.38200 -2.90500 47.03000
H  27.55800 -1.91100 42.08100
H  27.42500 2.29100 43.57800
H  26.35700 2.27000 42.13100
H  28.16500 2.37300 41.98300
Mg -5.89200 24.64500 26.44800
C  -4.35600 25.84500 29.28900
C  -8.01900 22.70600 28.45200
C  -6.70200 22.87700 23.65300
C  -3.48600 26.45400 24.52800
N  -6.03600 24.18700 28.59800
C  -5.34500 24.85800 29.57500
C  -5.86800 24.51700 30.98300
C  -6.90500 23.33400 30.64900
C  -7.12700 23.51900 29.15100
C  -6.14100 21.97200 31.02700
C  -6.59500 25.73700 31.68700
C  -6.29400 26.01100 33.13500
H  -5.85500 24.83300 34.02800
N  -7.22600 23.13100 26.09300
C  -8.06000 22.50200 27.05100
C  -8.98600 21.66800 26.33100
C  -8.63700 21.65600 24.92900
C  -7.47300 22.59900 24.83700
C  -10.15500 20.98800 27.06800
C  -9.21400 20.87800 23.73100
O  -8.76100 20.95800 22.60200
C  -10.44800 20.06200 23.88000
N  -5.09600 24.60900 24.43000
C  -5.65900 23.78100 23.45700
C  -4.83900 23.92000 22.12500
C  -4.25600 25.34000 22.35400
C  -4.25000 25.48000 23.85500
C  -3.89300 22.77500 21.79000
C  -4.88400 26.57700 21.66800
C  -3.85200 27.41400 20.76400
N  -4.31300 26.02500 26.75200
C  -3.44700 26.68500 25.90500
C  -2.44400 27.46900 26.69800
C  -2.86900 27.25400 28.04700
C  -3.92400 26.28200 28.02400
C  -1.50000 28.57900 26.28000
C  -2.59700 27.63600 29.51600
O  -1.88000 28.49000 30.09600
C  -3.55900 26.64400 30.28500
C  -2.81300 25.81300 31.19600
O  -2.07500 24.95700 30.90600
O  -3.09500 26.24400 32.47400
C  -2.14400 25.80600 33.55700
H  -8.71100 22.10300 29.04500
H  -7.07200 22.65600 22.65000
H  -2.77200 26.96200 23.87600
H  -5.01600 24.14500 31.55200
H  -7.87900 23.43300 31.12800
H  -5.92400 21.42500 30.10900
H  -6.90300 21.38500 31.54100
H  -5.31800 22.06700 31.73600
H  -7.66200 25.52500 31.74600
H  -6.52300 26.65700 31.10700
H  -7.07300 26.59900 33.62000
H  -5.49400 26.75100 33.13300
H  -11.07900 21.54400 26.91100
H  -9.99300 20.78100 28.12600
H  -10.40000 19.98600 26.71700
H  -10.74500 19.75300 22.87800
H  -11.18000 20.76900 24.27000
H  -10.47000 19.24200 24.59800
H  -5.51300 23.89200 21.27000
H  -3.19600 25.27400 22.10800
H  -2.96000 23.20300 21.42300
H  -4.29000 21.99900 21.13500
H  -3.61200 22.39100 22.77100
H  -5.17600 27.21700 22.50000
H  -5.69200 26.21900 21.02900
H  -3.78800 28.37700 21.27100
H  -4.20900 27.44200 19.73500
H  -2.84400 27.01700 20.64800
H  -0.54500 28.32800 26.74200
H  -1.77800 29.63000 26.35900
H  -1.38300 28.46400 25.20200
H  -4.23800 27.22300 30.91000
H  -2.34800 24.73900 33.64800
H  -2.37700 26.35800 34.46800
H  -1.13000 25.91000 33.17000

