158

Mg 47.02800 34.44800 27.61000
C  45.18300 32.88800 30.12200
C  47.18100 37.14800 29.82500
C  47.99600 36.31800 25.07200
C  46.24500 31.81300 25.46300
N  46.27800 34.89500 29.68000
C  45.67100 34.08700 30.56800
C  45.71800 34.58900 31.96300
C  45.95800 36.09700 31.73400
C  46.52300 36.04300 30.31700
C  44.78500 37.06400 31.86600
C  46.91700 33.84000 32.61400
C  46.88800 33.55400 34.07200
H  46.07700 34.65000 34.91400
N  47.51600 36.53200 27.43400
C  47.67600 37.36500 28.50900
C  48.31200 38.56700 27.92800
C  48.56000 38.40500 26.58800
C  47.99500 37.06400 26.30100
C  48.46400 39.82900 28.85200
C  49.31400 39.29700 25.62500
O  49.63400 38.84400 24.51700
C  49.77600 40.62900 25.95500
N  47.09000 34.11800 25.49900
C  47.57500 35.05400 24.68400
C  47.64500 34.50100 23.23900
C  47.14800 33.00600 23.36500
C  46.84100 32.91200 24.87300
C  46.70900 35.27900 22.32500
C  48.26900 31.87200 23.01000
C  47.63900 30.60200 22.38200
N  46.13900 32.59900 27.73900
C  45.80300 31.66100 26.81400
C  45.07000 30.59400 27.44200
C  44.88100 31.03200 28.78500
C  45.40700 32.27400 28.88200
C  44.75600 29.29800 26.78500
C  44.16600 30.73600 29.94900
O  43.46000 29.71400 30.18200
C  44.19700 31.91400 30.88600
C  44.47300 31.45100 32.23600
O  45.44000 30.82000 32.67200
O  43.37600 31.66400 32.98700
C  43.33900 31.32100 34.35900
H  47.28800 38.06300 30.41200
H  48.30600 36.97700 24.25800
H  45.99200 30.98100 24.80400
H  44.79300 34.29900 32.46100
H  46.62600 36.64700 32.39800
H  44.77500 37.76300 31.02900
H  44.87600 37.84800 32.61800
H  43.77700 36.66500 31.97600
H  47.78600 34.46000 32.39800
H  47.06900 32.88200 32.11800
H  47.91300 33.37800 34.39700
H  46.49300 32.56100 34.28600
H  47.52900 40.38200 28.94400
H  49.26400 40.47600 28.49100
H  48.71500 39.41000 29.82700
H  49.92700 41.11900 24.99300
H  50.67900 40.59800 26.56500
H  49.03100 41.11300 26.58700
H  48.59300 34.63100 22.71800
H  46.22300 32.86500 22.80400
H  46.19500 36.09200 22.83700
H  45.84500 34.78500 21.88000
H  47.28500 35.71300 21.50700
H  48.82100 31.55400 23.89500
H  49.01200 32.24000 22.30200
H  47.54900 29.89800 23.20900
H  48.34000 30.11400 21.70300
H  46.69000 30.77900 21.87600
H  45.08600 29.27900 25.74700
H  43.66600 29.26700 26.79500
H  45.18200 28.43700 27.30000
H  43.23100 32.41800 30.86400
H  43.98800 32.00600 34.90500
H  43.74200 30.33400 34.58900
H  42.35000 31.51000 34.77500
Mg 30.00500 59.56100 39.29100
C  27.11200 57.99600 38.11400
C  31.81500 56.74500 38.35800
C  32.78200 61.46600 39.13500
C  27.99900 62.56900 39.87200
N  29.57900 57.75900 38.23200
C  28.33400 57.32400 37.84000
C  28.41700 55.95700 37.05500
C  29.79400 55.47300 37.54100
C  30.47200 56.74000 38.02200
C  29.73600 54.46200 38.72900
C  28.45000 56.09200 35.50800
C  27.17700 55.42600 34.83400
H  26.18100 56.23200 34.02800
N  32.04200 59.08700 39.18200
C  32.54500 57.89600 38.75700
C  33.95500 57.97200 38.76200
C  34.30900 59.35000 39.08200
C  33.01800 60.04400 39.16900
C  34.91900 56.87000 38.45400
C  35.69000 59.82800 39.31600
O  36.65800 59.06300 39.16900
C  35.98600 61.20300 39.77400
N  30.29100 61.71200 39.66200
C  31.55700 62.17700 39.40500
C  31.59900 63.70500 39.54500
C  30.12800 64.06500 40.00800
C  29.41000 62.68500 39.83200
C  32.64600 64.24600 40.47800
C  29.55600 65.28300 39.18300
C  28.41500 66.06100 39.71500
N  27.93500 60.18500 39.23200
C  27.25300 61.35900 39.51200
C  25.83400 61.22600 39.18000
C  25.75100 59.86500 38.72400
C  27.02000 59.28100 38.75800
C  24.81300 62.33100 39.31000
C  24.83700 58.89100 38.23300
O  23.64400 58.92400 38.24400
C  25.65300 57.60800 37.89400
C  25.21900 56.53100 38.81300
O  25.30500 56.48800 40.00600
O  24.57100 55.65600 38.03400
C  23.89400 54.52800 38.77600
H  32.40100 55.90200 37.98500
H  33.62000 62.10900 38.85700
H  27.35600 63.42300 40.09800
H  27.66100 55.24000 37.37400
H  30.40800 54.94700 36.81000
H  30.59300 54.65300 39.37500
H  29.72000 53.41000 38.44500
H  28.85400 54.63100 39.34800
H  29.29400 55.59800 35.02600
H  28.59400 57.15800 35.33500
H  26.61300 54.89100 35.59800
H  27.40100 54.65800 34.09400
H  35.57300 57.14700 37.62700
H  34.55000 55.87400 38.21200
H  35.52700 56.85200 39.35800
H  36.69700 61.20700 40.60100
H  35.13000 61.77700 40.12800
H  36.50900 61.68900 38.95000
H  31.70400 64.09800 38.53300
H  30.09800 64.22700 41.08600
H  33.55900 64.41800 39.90800
H  32.95600 63.60300 41.30200
H  32.28600 65.17700 40.91700
H  29.29800 64.95700 38.17500
H  30.36600 66.01300 39.18100
H  28.80300 67.06100 39.90800
H  27.94400 65.62600 40.59700
H  27.76700 66.15200 38.84400
H  24.00400 61.93300 39.92200
H  24.41100 62.42400 38.30100
H  25.17700 63.30200 39.64700
H  25.34700 57.34700 36.88100
H  23.48400 53.80500 38.07100
H  23.02000 54.87900 39.32400
H  24.61200 54.09400 39.47300

