158

Mg 43.75300 4.50800 47.56700
C  41.57000 7.17900 47.33200
C  41.04800 2.39600 46.98400
C  45.88800 1.96600 47.27800
C  46.40700 6.79200 47.70100
N  41.68000 4.72400 47.05200
C  40.96200 5.96500 47.07000
C  39.50000 5.73600 46.79100
C  39.32600 4.21700 47.02500
C  40.78000 3.71800 47.11100
C  38.32500 3.80000 48.21100
C  39.12600 6.29400 45.32200
C  37.88900 7.13500 45.30600
H  37.15800 7.00100 43.98600
N  43.51700 2.43900 47.16500
C  42.33400 1.72200 47.06300
C  42.61300 0.33400 46.86700
C  44.02300 0.08200 46.96800
C  44.55300 1.53100 47.12200
C  41.49800 -0.63600 46.59400
C  44.71700 -1.19200 46.95900
O  44.04700 -2.16600 46.90500
C  46.16500 -1.37600 47.09600
N  45.77600 4.42900 47.44000
C  46.44900 3.23500 47.45700
C  48.02800 3.43600 47.59200
C  48.18000 4.98000 47.64600
C  46.67500 5.43100 47.56900
C  48.69100 2.84000 48.76900
C  48.96000 5.74600 46.51400
C  49.99800 6.86600 46.93000
N  43.97000 6.55400 47.53400
C  45.05800 7.30000 47.68800
C  44.69100 8.70700 47.74000
C  43.24000 8.73100 47.68200
C  42.86700 7.37100 47.50100
C  45.71100 9.87400 47.73400
C  42.14400 9.55700 47.66300
O  42.03800 10.72200 47.78700
C  40.93800 8.56000 47.48300
C  39.98800 8.69700 48.66500
O  40.15200 8.16800 49.72600
O  38.91300 9.48900 48.34300
C  37.86900 9.68700 49.35700
H  40.22400 1.71400 46.76300
H  46.68900 1.23300 47.16000
H  47.33500 7.36500 47.65700
H  39.01900 6.19900 47.65200
H  38.82600 3.87100 46.12100
H  37.85900 4.61600 48.76300
H  38.93600 3.30100 48.96300
H  37.49800 3.17800 47.86900
H  38.98800 5.48400 44.60600
H  39.97400 6.90700 45.01800
H  38.19700 8.16100 45.50600
H  37.21300 7.03400 46.15500
H  41.65200 -1.10500 45.62200
H  40.49700 -0.20800 46.64600
H  41.54500 -1.37500 47.39400
H  46.45300 -1.28100 48.14300
H  46.61200 -0.59900 46.47700
H  46.39700 -2.34100 46.64400
H  48.47500 3.16500 46.63500
H  48.57700 5.27300 48.61800
H  48.02700 2.10600 49.22700
H  48.74400 3.53900 49.60300
H  49.68100 2.43500 48.56200
H  48.17700 6.13500 45.86200
H  49.52900 5.06700 45.88000
H  50.20700 6.89800 48.00000
H  49.42400 7.76200 46.69500
H  50.85100 6.83600 46.25200
H  45.22600 10.58500 47.06500
H  46.62800 9.45800 47.31700
H  45.81100 10.22700 48.76100
H  40.42000 8.83400 46.56400
H  36.98600 9.32300 48.83100
H  37.78200 10.74300 49.61200
H  37.98500 9.04900 50.23300
Mg 39.84600 9.27000 29.09400
C  41.96700 10.36200 31.70600
C  37.62800 8.18700 31.43100
C  38.03700 7.90600 26.58500
C  42.26000 10.14000 26.82400
N  39.78800 9.33600 31.23400
C  40.74400 9.81300 32.13300
C  40.30200 9.76600 33.57200
C  39.04100 8.93100 33.50300
C  38.72000 8.88500 31.94800
C  39.13500 7.63700 34.31500
C  39.97300 11.21300 34.15000
C  39.07400 11.31200 35.45600
H  39.41100 12.40300 36.47900
N  37.94900 8.41000 28.96700
C  37.23900 7.95200 30.05100
C  36.03100 7.24700 29.62400
C  36.19400 7.12700 28.19000
C  37.39400 7.86800 27.84300
C  34.98900 6.65200 30.56700
C  35.30300 6.30600 27.21700
O  35.61300 6.06000 26.05500
C  34.07200 5.65000 27.71000
N  40.10900 9.03800 26.99900
C  39.25200 8.40500 26.19000
C  39.55200 8.70900 24.72100
C  40.82500 9.55000 24.81800
C  41.11100 9.54000 26.26600
C  39.53000 7.44700 23.84400
C  40.67300 11.04500 24.31500
C  40.02200 12.23600 25.17500
N  41.75900 9.99600 29.21100
C  42.66300 10.38100 28.20400
C  43.81700 10.96800 28.75400
C  43.62700 10.87300 30.11700
C  42.37300 10.33300 30.38200
C  44.94300 11.53200 28.00900
C  44.20900 11.23000 31.31200
O  45.36200 11.55400 31.54400
C  43.20300 10.80100 32.46300
C  43.91100 9.84600 33.29000
O  44.43000 8.79500 32.90100
O  43.87500 10.18200 34.63800
C  44.30100 9.27400 35.67600
H  37.00300 7.82100 32.24800
H  37.43300 7.66700 25.70700
H  42.92100 10.60100 26.08700
H  41.12600 9.32100 34.13000
H  38.25100 9.51500 33.97600
H  38.31300 7.70000 35.02800
H  40.00600 7.64200 34.97000
H  39.08300 6.72100 33.72700
H  39.51300 11.83700 33.38400
H  40.93600 11.70700 34.27900
H  39.14900 10.35700 35.97600
H  38.03600 11.38500 35.13300
H  34.00700 7.05000 30.31100
H  35.07300 6.93100 31.61800
H  34.78500 5.59400 30.40500
H  34.42500 4.89800 28.41500
H  33.50800 5.09800 26.95900
H  33.34300 6.30500 28.18800
H  38.75600 9.40200 24.44900
H  41.68400 9.11700 24.30500
H  40.43800 7.10900 23.34500
H  38.82700 7.60500 23.02600
H  39.18400 6.54100 24.34000
H  40.20500 11.10500 23.33200
H  41.68200 11.36300 24.05300
H  39.73200 12.05600 26.21000
H  39.12200 12.56200 24.65200
H  40.67400 13.10400 25.26600
H  44.69700 11.87800 27.00600
H  45.70900 10.75700 28.01900
H  45.27700 12.42900 28.53100
H  43.09600 11.67100 33.11100
H  43.79100 8.34000 35.44100
H  43.89800 9.56800 36.64600
H  45.36300 9.05200 35.77300

