158

Mg 25.14800 1.44600 30.40800
C  27.27900 1.57500 33.42400
C  22.46800 1.55900 32.50600
C  23.27500 1.53500 27.70400
C  28.07000 1.18300 28.57700
N  24.97900 1.68800 32.73000
C  25.93500 1.75400 33.70100
C  25.27100 1.99900 35.03600
C  23.69100 1.92400 34.75100
C  23.69500 1.73100 33.24600
C  22.81900 1.00500 35.52900
C  25.82500 3.35300 35.72900
C  26.37100 3.12800 37.20000
H  25.90500 4.05900 38.30100
N  23.08900 1.57000 30.07100
C  22.12500 1.55900 31.09600
C  20.86900 1.72100 30.47900
C  21.05200 1.74700 29.06400
C  22.52800 1.65200 28.88100
C  19.54200 1.89500 31.16100
C  20.09000 1.81200 27.87800
O  20.48000 1.83300 26.70000
C  18.61100 1.72700 28.22200
N  25.63200 1.25100 28.48900
C  24.63600 1.49700 27.51700
C  25.25200 1.72100 26.10900
C  26.79400 1.43800 26.34700
C  26.88400 1.28400 27.87600
C  24.51600 0.84200 24.94100
C  27.73500 2.53400 25.71500
C  28.90200 1.95900 24.88700
N  27.29200 1.26900 30.84600
C  28.36700 1.15200 29.97300
C  29.53400 1.13000 30.73200
C  29.14900 1.28600 32.09300
C  27.77600 1.36200 32.09600
C  30.91600 1.08700 30.20200
C  29.72600 1.47800 33.46400
O  30.85700 1.61400 33.84700
C  28.47700 1.65300 34.40400
C  28.43000 0.53200 35.37000
O  27.98400 -0.56600 35.12200
O  28.93900 0.93100 36.54800
C  28.90700 0.17100 37.78700
H  21.66900 1.77500 33.21800
H  22.79400 1.47800 26.72500
H  28.93200 1.15000 27.90700
H  25.50700 1.10400 35.61200
H  23.26900 2.86300 35.10900
H  22.19300 0.35700 34.91600
H  22.14100 1.61400 36.12700
H  23.43700 0.38600 36.18100
H  25.04900 4.11800 35.69700
H  26.70500 3.82900 35.29800
H  27.39600 3.48100 37.08700
H  26.27900 2.05500 37.36800
H  19.04000 2.82900 30.90500
H  19.67100 2.08600 32.22600
H  18.83100 1.07200 31.08200
H  18.45700 0.81700 28.80200
H  17.96000 1.79200 27.35000
H  18.35200 2.58600 28.84000
H  25.09200 2.76300 25.83400
H  27.01500 0.46900 25.89900
H  23.88900 0.06300 25.37600
H  25.28600 0.32200 24.37100
H  23.94400 1.44600 24.23700
H  28.21400 3.15500 26.47200
H  27.11200 3.21500 25.13500
H  28.98500 0.87300 24.90200
H  29.85800 2.38200 25.19600
H  28.79800 2.20100 23.83000
H  31.48800 1.55700 31.00200
H  31.09500 1.59000 29.25100
H  31.13200 0.02200 30.12000
H  28.53800 2.62700 34.88900
H  28.05200 0.47300 38.39100
H  29.78500 0.21400 38.43100
H  28.90000 -0.88200 37.50500
Mg 1.95500 41.35900 26.42900
C  3.80100 41.98900 29.20200
C  -0.84200 40.53900 28.20200
C  0.50500 40.30000 23.54500
C  4.84700 42.20500 24.48500
N  1.50400 41.29100 28.49000
C  2.40300 41.64100 29.51500
C  1.71500 41.62700 30.87200
C  0.24700 41.19800 30.51800
C  0.26900 41.04700 28.98800
C  -0.20400 39.81000 31.12300
C  1.77600 43.03000 31.60100
C  2.24300 43.19600 33.07300
H  1.91000 41.97200 33.94800
N  0.13200 40.41700 26.01500
C  -0.92400 40.21200 26.86600
C  -2.02000 39.54900 26.20400
C  -1.56700 39.45500 24.79400
C  -0.24500 39.99800 24.73000
C  -3.35000 39.00900 26.86300
C  -2.30100 38.86600 23.54600
O  -1.84200 38.83000 22.41400
C  -3.73400 38.35200 23.79600
N  2.59200 41.31700 24.24200
C  1.74100 40.88300 23.29300
C  2.39500 40.95400 21.88900
C  3.80600 41.66700 22.15500
C  3.73300 41.75600 23.73600
C  2.58000 39.54800 21.14800
C  3.97300 43.00700 21.35000
C  4.11500 44.43500 22.12600
N  3.87900 42.02100 26.68200
C  4.91500 42.31400 25.84300
C  6.04400 42.77100 26.60500
C  5.66400 42.63200 27.96300
C  4.35700 42.13200 27.93200
C  7.37900 43.34000 26.09700
C  6.00900 42.79100 29.31000
O  7.04500 43.18500 29.85700
C  4.91500 42.23000 30.17400
C  5.45500 40.89500 30.78000
O  6.02000 39.99200 30.13800
O  5.15200 40.74700 32.06600
C  5.40800 39.51000 32.73200
H  -1.81900 40.32200 28.64000
H  0.06000 39.92500 22.62100
H  5.64900 42.56000 23.83400
H  2.27100 40.85000 31.39700
H  -0.52400 41.88200 30.87200
H  0.54300 39.49600 31.85100
H  -0.27400 39.01100 30.38600
H  -1.15400 39.88400 31.65300
H  0.75100 43.39500 31.65500
H  2.48200 43.72300 31.14400
H  1.94600 44.16900 33.46300
H  3.33200 43.18000 33.04100
H  -4.17400 39.70800 26.71900
H  -3.08300 38.87800 27.91100
H  -3.67700 38.05000 26.46100
H  -4.42100 39.05300 24.27000
H  -3.70300 37.44300 24.39700
H  -4.05800 38.11900 22.78200
H  1.78600 41.52300 21.18700
H  4.53300 40.99100 21.70500
H  1.99400 38.76500 21.63000
H  3.55000 39.19900 20.79600
H  1.88600 39.66500 20.31600
H  3.09800 43.10200 20.70800
H  4.82600 42.88900 20.68200
H  3.33600 45.13100 21.81600
H  5.04200 44.90600 21.79900
H  3.84300 44.46900 23.18100
H  8.13000 42.63500 25.74200
H  7.86600 44.03400 26.78200
H  7.12200 44.04500 25.30600
H  4.64000 42.91200 30.97800
H  4.93000 39.64100 33.70300
H  6.44800 39.24300 32.92400
H  4.89600 38.67600 32.25300

