158

Mg 1.90600 -0.99400 44.37000
C  5.05100 0.25300 43.42900
C  0.54700 1.64400 42.33700
C  -1.11200 -2.44700 44.33000
C  3.41800 -3.81100 45.49300
N  2.79000 0.72500 42.94700
C  4.03600 1.02600 42.84400
C  4.19300 2.32300 41.97900
C  2.76600 2.67200 41.52300
C  1.98900 1.67200 42.39400
C  2.33000 4.18100 41.54800
C  5.25300 2.00200 40.78700
C  6.51900 2.92100 40.65200
H  7.77600 2.31500 39.97700
N  -0.01900 -0.39900 43.73000
C  -0.33200 0.66500 42.94200
C  -1.79000 0.80300 42.72600
C  -2.30100 -0.36300 43.31800
C  -1.11400 -1.14200 43.79700
C  -2.55400 1.80800 41.81300
C  -3.76300 -0.76600 43.33700
O  -4.55600 -0.08800 42.69300
C  -4.32000 -1.98100 43.94600
N  1.23800 -2.84700 44.78500
C  -0.06600 -3.21700 44.87700
C  -0.21200 -4.67900 45.46900
C  1.23900 -5.13000 45.71700
C  2.01200 -3.82800 45.28700
C  -1.10100 -4.72200 46.90000
C  1.65500 -6.33900 44.86100
C  1.17900 -7.70500 45.32000
N  3.88100 -1.69000 44.55000
C  4.34000 -2.93000 45.07000
C  5.78700 -2.87700 45.22300
C  6.09600 -1.64500 44.63500
C  4.92300 -0.97100 44.17300
C  6.68200 -3.87700 45.87600
C  7.21400 -0.73600 44.39200
O  8.34600 -0.83400 44.80800
C  6.61500 0.49100 43.59000
C  6.86100 1.70500 44.44500
O  6.29900 1.83900 45.54500
O  7.79900 2.48900 43.89100
C  7.84700 3.77400 44.57400
H  0.02900 2.40600 41.75000
H  -2.09000 -2.93300 44.33700
H  3.81300 -4.70800 45.97500
H  4.47600 3.22200 42.52600
H  2.71500 2.32600 40.49100
H  1.70800 4.21500 42.44300
H  1.71100 4.33700 40.66400
H  3.17100 4.87400 41.51700
H  4.82200 2.04700 39.78600
H  5.60000 0.97500 40.89700
H  6.71500 3.19500 41.68900
H  6.19200 3.83000 40.14700
H  -3.21600 1.42300 41.03700
H  -1.81800 2.26100 41.14800
H  -3.15900 2.50400 42.39300
H  -4.10100 -2.83700 43.30800
H  -5.40300 -1.87300 43.99700
H  -3.94100 -2.20500 44.94300
H  -0.61400 -5.17100 44.58300
H  1.50600 -5.30200 46.75900
H  -1.98400 -5.35800 46.83500
H  -1.40000 -3.69400 47.10500
H  -0.54600 -5.01500 47.79100
H  2.73900 -6.44600 44.90100
H  1.46800 -6.17200 43.80100
H  0.50100 -8.19800 44.62300
H  0.51100 -7.52400 46.16200
H  1.99500 -8.40100 45.51700
H  6.15400 -4.82900 45.84700
H  6.99500 -3.57200 46.87500
H  7.59300 -4.07300 45.31000
H  7.18600 0.62600 42.67100
H  8.78700 4.23200 44.26800
H  7.90800 3.71800 45.66000
H  6.98000 4.37900 44.30800
Mg 26.56000 50.29100 26.94000
C  24.56900 51.53500 29.55300
C  29.03300 49.70500 29.17000
C  28.41700 49.10300 24.43900
C  24.11200 51.58700 24.72700
N  26.81400 50.84100 29.09700
C  25.76500 51.01900 29.95500
C  26.14900 50.68800 31.38100
C  27.63300 50.58900 31.21700
C  27.86400 50.30700 29.70200
C  28.52100 51.68200 31.82400
C  25.47200 49.42000 32.03100
C  24.56100 49.69100 33.27000
H  24.82900 48.75800 34.44800
N  28.52700 49.55700 26.85900
C  29.34700 49.42600 27.85200
C  30.57600 48.79500 27.32700
C  30.47500 48.81000 25.96300
C  29.03000 49.14400 25.67000
C  31.75400 48.61800 28.23300
C  31.51000 48.60600 24.91500
O  31.25800 48.65400 23.69700
C  32.90400 48.12000 25.27200
N  26.44300 50.55500 24.85400
C  27.30600 49.87600 24.01900
C  26.79400 49.93100 22.54400
C  25.37500 50.60000 22.72300
C  25.30400 51.02800 24.17100
C  27.76600 50.70000 21.60700
C  24.23900 49.62300 22.27900
C  23.97400 48.45800 23.24600
N  24.73100 51.34800 27.06500
C  23.79500 51.64700 26.12900
C  22.66100 52.19900 26.68100
C  22.88900 52.05100 28.09700
C  24.16800 51.69300 28.21100
C  21.49100 52.77800 25.98000
C  22.28900 52.17400 29.36400
O  21.19300 52.53800 29.77800
C  23.48300 51.90700 30.42200
C  23.66400 53.03600 31.30000
O  24.36600 54.00600 31.04100
O  22.92700 52.86900 32.47100
C  23.13800 53.88900 33.58100
H  29.72600 49.34500 29.93300
H  28.89700 48.70300 23.54400
H  23.33600 51.92100 24.03600
H  25.79700 51.44700 32.08000
H  28.04200 49.67400 31.64600
H  29.13000 51.41900 32.68900
H  27.80500 52.44200 32.13700
H  29.08000 52.15200 31.01500
H  26.22600 48.74000 32.42700
H  24.91300 48.90100 31.25200
H  23.50700 49.51000 33.05700
H  24.73500 50.69800 33.65000
H  31.54300 48.65500 29.30100
H  32.40100 49.45400 27.96500
H  32.24300 47.70200 27.90200
H  33.51600 48.90700 25.71300
H  33.30300 47.89600 24.28300
H  32.80600 47.19000 25.83300
H  26.60800 48.91400 22.19900
H  25.35700 51.49100 22.09600
H  28.60100 51.03400 22.22200
H  27.37000 51.62500 21.18700
H  28.07000 50.03600 20.79700
H  24.41500 49.13700 21.32000
H  23.37900 50.29200 22.23300
H  24.22100 47.56000 22.68000
H  22.89600 48.46200 23.40900
H  24.39200 48.58300 24.24500
H  21.49400 52.13200 25.10200
H  21.67400 53.78300 25.60200
H  20.66500 52.55900 26.65600
H  23.24700 51.00100 30.98000
H  23.60700 54.76900 33.14000
H  23.85900 53.47700 34.28700
H  22.21800 54.28300 34.01300

