158

Mg 45.52900 17.34000 28.89700
C  44.04500 16.48800 31.83900
C  47.78000 19.40100 30.57600
C  47.01500 18.15600 25.82700
C  43.09100 15.49500 27.18400
N  45.70700 18.00400 30.87800
C  45.13700 17.33500 31.97300
C  45.88600 17.66000 33.25100
C  46.65900 18.94200 32.78800
C  46.73400 18.78800 31.30300
C  46.03500 20.27100 33.23200
C  46.70800 16.58200 33.88400
C  46.65200 16.56900 35.51300
H  46.58500 17.87100 36.23800
N  47.12800 18.51500 28.32800
C  47.89300 19.35000 29.13900
C  48.72900 20.18900 28.33900
C  48.61900 19.79300 26.99800
C  47.56200 18.81200 27.01100
C  49.62700 21.25600 28.85600
C  49.15300 20.44200 25.71200
O  48.61200 20.28000 24.64800
C  50.32700 21.36100 25.77400
N  45.27000 16.73800 26.75200
C  45.93700 17.25300 25.71600
C  45.37200 16.68900 24.41900
C  44.05400 15.85700 24.84100
C  44.12200 16.01400 26.35500
C  45.14800 17.79300 23.34100
C  44.06100 14.31000 24.36200
C  44.61800 13.20900 25.25000
N  43.94700 16.26100 29.36500
C  43.05700 15.57900 28.60300
C  41.92300 14.96100 29.44700
C  42.42000 15.27400 30.74300
C  43.53600 16.06700 30.63000
C  40.69200 14.12600 29.03800
C  42.15500 15.04800 32.14000
O  41.24400 14.34700 32.66000
C  43.15700 15.82000 32.86300
C  42.56700 16.72900 33.75900
O  41.83100 17.65700 33.42400
O  42.89000 16.41400 35.05800
C  42.29900 17.30100 36.11200
H  48.52700 19.99900 31.10200
H  47.55500 18.31000 24.89000
H  42.28200 14.90800 26.74300
H  45.13800 17.99300 33.97000
H  47.68000 19.02800 33.15900
H  45.87200 20.92000 32.37100
H  46.78000 20.76700 33.85500
H  45.20100 20.18200 33.92800
H  47.73200 16.62500 33.51200
H  46.30300 15.61800 33.57800
H  47.59000 16.04100 35.68700
H  45.86300 15.91600 35.88700
H  50.66000 20.97900 28.64700
H  49.45800 21.56500 29.88700
H  49.31600 22.17700 28.36300
H  50.03700 22.36400 26.08800
H  50.63300 21.31400 24.72900
H  51.05700 20.93500 26.46300
H  46.15500 16.01300 24.07800
H  43.16300 16.42000 24.56400
H  45.84300 17.62700 22.51800
H  45.30300 18.79000 23.75200
H  44.14100 17.80400 22.92300
H  44.52400 14.16900 23.38500
H  43.03400 14.00400 24.16500
H  43.83000 12.47900 25.44200
H  45.12300 13.56200 26.14900
H  45.45300 12.76500 24.70800
H  40.78500 13.99500 27.96000
H  39.85800 14.75400 29.35000
H  40.81400 13.19900 29.59800
H  43.80700 15.16100 33.44000
H  42.68900 18.30500 35.94600
H  42.58600 16.81600 37.04500
H  41.21500 17.18800 36.11800
Mg 1.05400 41.84100 25.78300
C  2.52300 42.15400 28.99200
C  -1.78900 40.72100 27.29800
C  -0.11400 41.06700 22.78800
C  4.07100 42.97800 24.44200
N  0.48000 41.54300 27.88900
C  1.19500 41.74300 29.05400
C  0.30300 41.77500 30.29900
C  -1.06200 41.12900 29.81800
C  -0.80900 41.10600 28.24400
C  -1.46900 39.75800 30.49600
C  0.16100 43.15500 30.90800
C  0.42700 43.30800 32.40000
H  0.03600 42.10000 33.20200
N  -0.76400 41.03800 25.10600
C  -1.76900 40.61500 25.87900
C  -2.81500 40.11500 24.98500
C  -2.35700 40.34600 23.61300
C  -1.02400 40.88500 23.79900
C  -4.08300 39.29900 25.41600
C  -2.98500 39.96600 22.36800
O  -2.42800 40.00100 21.29300
C  -4.50500 39.62200 22.32900
N  1.83100 42.01800 23.93200
C  1.20300 41.43300 22.88900
C  2.00100 41.44200 21.59100
C  3.19100 42.50000 21.97700
C  3.06900 42.52100 23.57100
C  2.60600 40.02300 21.22900
C  3.00300 43.89400 21.31000
C  4.24300 44.52300 20.63800
N  2.88100 42.50300 26.50600
C  4.02200 42.89400 25.83500
C  5.09700 43.17100 26.75900
C  4.50900 42.90800 27.97400
C  3.20700 42.51600 27.81000
C  6.56900 43.53600 26.49200
C  4.81900 42.75200 29.40700
O  5.90200 42.83800 29.98200
C  3.49900 42.39200 30.10900
C  3.70000 41.15900 30.97200
O  3.31800 40.01800 30.55100
O  4.06500 41.46800 32.26900
C  4.22900 40.32100 33.25800
H  -2.66900 40.29800 27.78800
H  -0.44600 40.90800 21.76000
H  4.85800 43.45100 23.85000
H  0.84000 41.06100 30.92300
H  -1.92600 41.78300 29.93700
H  -1.20600 38.89000 29.89100
H  -2.54600 39.65100 30.62600
H  -1.04300 39.43000 31.44400
H  -0.84200 43.57000 30.80800
H  0.92100 43.73100 30.38000
H  -0.11300 44.18600 32.75500
H  1.51100 43.40700 32.44700
H  -4.01500 38.94700 26.44600
H  -4.23400 38.38700 24.83800
H  -4.91900 39.90200 25.06200
H  -4.71800 38.56800 22.50400
H  -4.81700 39.89300 21.32100
H  -4.95500 40.32900 23.02700
H  1.31800 41.80700 20.82300
H  4.21500 42.15900 21.82900
H  2.65500 39.27900 22.02400
H  3.61600 40.15800 20.84200
H  2.00000 39.58200 20.43700
H  2.69000 44.66100 22.01800
H  2.25200 43.83000 20.52200
H  4.54900 45.35100 21.27700
H  4.01800 44.88400 19.63500
H  5.07700 43.82400 20.57900
H  6.82300 44.53300 26.85400
H  6.75300 43.30300 25.44300
H  7.18200 42.81300 27.03000
H  3.32500 43.25100 30.75600
H  4.17100 40.61300 34.30600
H  5.24600 39.98600 33.05300
H  3.58700 39.47500 33.01300

