158

Mg 30.15100 57.37800 39.94700
C  27.65200 55.29300 38.35400
C  32.43700 55.26700 39.17600
C  32.44500 59.88400 40.32600
C  27.52700 59.76500 40.29700
N  30.01500 55.53900 38.73100
C  28.94800 54.73800 38.35700
C  29.39400 53.32000 38.06900
C  30.82600 53.23500 38.70100
C  31.14500 54.74600 38.98200
C  31.07500 52.32600 39.88400
C  29.17500 52.62600 36.74100
C  29.62700 53.41200 35.47800
H  28.69000 53.87600 34.39400
N  32.18800 57.49200 39.89300
C  32.99300 56.52000 39.52800
C  34.41100 56.96300 39.46800
C  34.34400 58.25000 39.86300
C  32.94400 58.61600 39.97000
C  35.49700 55.97300 39.05400
C  35.60900 59.17300 39.89000
O  36.65600 58.67300 39.50800
C  35.58700 60.58800 40.29200
N  29.96400 59.53500 40.32700
C  31.04300 60.30500 40.50200
C  30.60800 61.77400 40.73700
C  29.15000 61.59600 41.31300
C  28.80200 60.19500 40.70500
C  31.46300 62.64800 41.73300
C  28.07800 62.67500 40.94200
C  26.82500 62.80200 41.89300
N  28.10000 57.53800 39.58600
C  27.17500 58.59200 39.81600
C  25.85200 58.15300 39.46500
C  26.01100 56.91300 38.81100
C  27.39100 56.55400 38.92500
C  24.62900 59.02600 39.52900
C  25.28400 55.84200 38.20100
O  24.09600 55.81100 38.00400
C  26.36900 54.74000 37.87100
C  25.86600 53.49700 38.55200
O  25.94200 53.24200 39.72800
O  25.29100 52.68000 37.69000
C  24.76600 51.37800 38.20500
H  33.24100 54.52900 39.13900
H  33.21700 60.65200 40.40300
H  26.71200 60.49200 40.31500
H  28.91500 52.59600 38.72800
H  31.44200 52.85900 37.88400
H  30.36800 51.49800 39.92600
H  31.18300 52.95900 40.76600
H  31.99900 51.78500 39.67900
H  28.11700 52.40100 36.60600
H  29.70900 51.67600 36.72000
H  30.27700 52.74400 34.91400
H  30.06900 54.34400 35.83100
H  35.95300 55.40800 39.86800
H  36.40100 56.44200 38.66600
H  35.15400 55.23100 38.33300
H  36.61000 60.94200 40.16600
H  35.24700 60.57600 41.32800
H  35.00400 61.24200 39.64300
H  30.73200 62.23200 39.75600
H  29.20500 61.51300 42.39900
H  31.92400 63.53800 41.30400
H  32.20700 61.99500 42.19100
H  30.85300 63.08400 42.52400
H  27.72200 62.46300 39.93300
H  28.53100 63.65800 40.81400
H  25.90200 62.72800 41.31700
H  26.79800 63.79800 42.33500
H  26.74700 62.03300 42.66200
H  24.56700 59.42800 40.54000
H  23.66500 58.59100 39.26500
H  24.72800 59.85300 38.82700
H  26.47500 54.48000 36.81800
H  23.87800 51.53500 38.81800
H  25.54100 50.92500 38.82200
H  24.38700 50.69900 37.44100
Mg 4.65300 54.20000 41.41700
C  3.57600 50.88600 41.13500
C  7.33500 53.23100 39.29700
C  5.57500 57.43200 41.12400
C  1.66400 55.00900 42.88400
N  5.30700 52.26600 40.23800
C  4.72000 51.10000 40.37300
C  5.47000 50.07800 39.55000
C  6.78100 50.74000 39.25800
C  6.48000 52.23600 39.58900
C  7.98600 50.06700 40.00800
C  4.64800 49.86800 38.13800
C  4.71700 48.42900 37.62800
H  5.38400 48.23200 36.31000
N  6.20900 55.18700 40.41700
C  7.25000 54.59000 39.65800
C  8.17400 55.56100 39.30800
C  7.78000 56.83800 39.80700
C  6.48800 56.58600 40.46500
C  9.38400 55.19900 38.50300
C  8.50100 58.20000 39.70500
O  9.57400 58.19300 39.14500
C  7.96700 59.39200 40.34300
N  3.75200 55.99500 41.85300
C  4.32100 57.17700 41.69900
C  3.45900 58.29700 42.41700
C  2.20500 57.50600 42.96800
C  2.55700 56.07900 42.49700
C  4.12900 59.23500 43.43200
C  0.75700 57.95700 42.55900
C  0.37700 57.35500 41.21600
N  2.97900 53.18800 42.01400
C  1.82000 53.60400 42.64500
C  1.00700 52.52900 43.01200
C  1.66600 51.37300 42.51100
C  2.80700 51.87500 41.84400
C  -0.28800 52.63600 43.70000
C  1.64900 49.90700 42.34700
O  0.81500 49.08200 42.69900
C  2.90200 49.51400 41.47900
C  2.53900 48.66100 40.40300
O  1.75500 48.94400 39.52700
O  3.05700 47.43300 40.61200
C  2.48600 46.29500 39.94000
H  8.24400 52.98300 38.74500
H  5.80800 58.49200 41.23900
H  0.75400 55.21500 43.45100
H  5.64300 49.12200 40.04400
H  7.15900 50.63200 38.24100
H  8.56700 50.82000 40.53900
H  8.70800 49.59100 39.34400
H  7.61500 49.41300 40.79700
H  5.02000 50.59200 37.41300
H  3.63200 50.24500 38.26000
H  3.66200 48.15800 37.59500
H  5.28000 47.79000 38.30800
H  9.94400 54.38600 38.96300
H  10.05900 55.98900 38.17300
H  9.03700 54.80300 37.54800
H  7.03100 59.72400 39.89300
H  8.65800 60.22000 40.18500
H  7.97200 59.21700 41.41900
H  3.04200 58.91700 41.62300
H  2.32900 57.48800 44.05100
H  5.10600 58.83400 43.70300
H  3.46200 59.43400 44.27100
H  4.41000 60.12700 42.87200
H  0.72700 59.03100 42.37500
H  0.07100 57.71600 43.37000
H  -0.28600 58.06400 40.72100
H  -0.34000 56.53600 41.27300
H  1.05100 57.10700 40.39600
H  -0.10200 52.24200 44.69900
H  -1.04900 52.15000 43.08900
H  -0.53500 53.67300 43.92500
H  3.56300 48.93600 42.12400
H  2.79400 46.24700 38.89500
H  1.41600 46.39700 40.11800
H  2.74200 45.31800 40.34900

