158

Mg 55.31500 24.81800 44.49600
C  52.62800 26.69200 43.53000
C  54.04700 22.06900 42.93500
C  58.41700 23.44000 44.53100
C  56.84800 27.91700 45.64900
N  53.60300 24.50300 43.25500
C  52.59800 25.36100 43.03700
C  51.44200 24.73000 42.28700
C  51.75000 23.22200 42.45400
C  53.18700 23.22100 42.97300
C  50.68700 22.43600 43.33500
C  51.41600 25.10900 40.74200
C  49.98500 25.40700 40.21500
H  49.47100 24.54400 39.09100
N  56.14900 22.96700 43.97700
C  55.39200 21.91600 43.39400
C  56.25900 20.78700 43.32300
C  57.56600 21.13700 43.86000
C  57.39100 22.56600 44.22300
C  55.69600 19.44100 42.74000
C  58.74100 20.19100 44.00000
O  58.66100 19.00900 43.56400
C  60.06700 20.66200 44.61300
N  57.39000 25.59100 45.07100
C  58.45500 24.83100 44.80400
C  59.75900 25.54500 45.25400
C  59.24600 27.09000 45.24300
C  57.73200 26.85100 45.38000
C  60.44300 24.94700 46.48900
C  59.63500 27.87200 43.89800
C  60.40100 29.17400 44.09300
N  54.80500 26.87700 44.72500
C  55.44100 27.97200 45.28100
C  54.48100 29.07300 45.38300
C  53.34400 28.59700 44.75300
C  53.63400 27.26500 44.23000
C  54.70900 30.41600 46.08800
C  51.97700 28.91800 44.41700
O  51.35300 29.92200 44.68300
C  51.48100 27.77500 43.61500
C  51.03400 28.33300 42.32600
O  51.79900 28.90700 41.50300
O  49.68100 28.21700 42.13800
C  49.07200 28.89100 41.00700
H  53.54300 21.20000 42.50800
H  59.41800 23.00800 44.48000
H  57.34100 28.78400 46.09300
H  50.53900 24.99900 42.83400
H  51.69600 22.74400 41.47700
H  50.25500 21.62300 42.75100
H  49.93300 23.05400 43.82100
H  51.36200 22.06000 44.10400
H  51.89300 24.31800 40.16400
H  52.08300 25.96300 40.62900
H  49.90500 26.44400 39.88900
H  49.20000 25.25300 40.95600
H  54.66300 19.50800 42.39800
H  55.80000 18.80900 43.62300
H  56.28100 19.05300 41.90600
H  60.51400 21.44100 43.99500
H  60.74400 19.80800 44.59400
H  59.94300 21.00000 45.64200
H  60.57100 25.47200 44.53100
H  59.58100 27.56100 46.16800
H  61.34100 24.47600 46.09000
H  59.86900 24.10200 46.86900
H  60.89500 25.62200 47.21600
H  58.73000 28.18000 43.37400
H  60.18800 27.22900 43.21300
H  59.75100 30.01300 44.33900
H  60.88300 29.53600 43.18600
H  61.17200 29.00500 44.84500
H  53.72300 30.67900 46.47100
H  55.01700 31.07500 45.27600
H  55.59700 30.19400 46.68000
H  50.61800 27.38100 44.15200
H  49.78600 28.95000 40.18600
H  48.75500 29.91300 41.21700
H  48.25200 28.35500 40.53000
Mg 48.45000 34.50500 26.43300
C  46.52200 32.99200 29.00300
C  48.85400 37.16000 28.31800
C  50.17900 35.51700 23.82500
C  47.73200 31.42300 24.53300
N  47.90600 34.96900 28.49200
C  47.20200 34.20800 29.36300
C  47.28100 34.77800 30.79100
C  47.64000 36.24900 30.42300
C  48.20700 36.15800 29.04200
C  46.49800 37.39000 30.39600
C  48.46300 33.95300 31.50600
C  48.64800 34.27900 33.04300
H  47.67500 35.39100 33.64100
N  49.32200 36.10700 26.05500
C  49.38400 37.14200 26.91900
C  50.10200 38.16400 26.37900
C  50.57800 37.74500 25.11900
C  50.03700 36.39200 24.93100
C  50.23600 39.47300 27.07600
C  51.52600 38.43400 24.19200
O  51.67400 37.99100 23.05100
C  52.22400 39.70300 24.69200
N  48.66100 33.71400 24.30000
C  49.50900 34.30500 23.53200
C  49.79000 33.50600 22.28300
C  49.16700 32.11800 22.56200
C  48.46000 32.41300 23.85400
C  49.33300 34.27300 21.07900
C  50.16200 30.95900 22.59000
C  50.32400 30.33000 21.16200
N  47.26000 32.67800 26.60600
C  47.03100 31.59100 25.73600
C  46.13500 30.64400 26.38400
C  45.86900 31.18400 27.66000
C  46.56400 32.40700 27.74800
C  45.65500 29.25000 25.86500
C  45.11900 31.00100 28.90800
O  44.26800 30.19200 29.22400
C  45.53200 32.21900 29.80500
C  45.82100 31.74000 31.21900
O  46.60800 30.80000 31.55300
O  45.00300 32.36100 32.11400
C  44.96700 31.79200 33.48300
H  48.90200 38.11200 28.85000
H  50.77000 35.89300 22.98700
H  47.55100 30.52300 23.94300
H  46.33200 34.76400 31.32800
H  48.33100 36.56000 31.20700
H  46.89200 38.27000 30.90600
H  45.51900 37.14600 30.80900
H  46.25200 37.61900 29.35900
H  49.35300 34.21800 30.93500
H  48.21100 32.89400 31.45500
H  49.70300 34.51200 33.19000
H  48.37800 33.35800 33.56000
H  51.27900 39.77400 27.17200
H  49.70000 39.67800 28.00300
H  49.70000 40.27500 26.56700
H  51.64100 40.62000 24.77600
H  52.95800 39.75200 23.88700
H  52.78300 39.50400 25.60600
H  50.84800 33.27700 22.15300
H  48.38500 31.91800 21.83000
H  49.26100 35.35400 21.19500
H  48.33200 33.98500 20.75600
H  50.01200 34.14500 20.23600
H  49.67200 30.24700 23.25400
H  51.07500 31.31100 23.07200
H  49.98300 30.82800 20.25400
H  49.74600 29.40500 21.14000
H  51.38300 30.22400 20.92800
H  45.73000 29.03900 24.79800
H  44.60000 29.10700 26.10100
H  46.18200 28.42200 26.33900
H  44.60100 32.77300 29.92400
H  45.79000 31.14200 33.77800
H  43.94500 31.45400 33.65500
H  44.99500 32.70600 34.07600

