158

Mg 17.47400 -2.16600 27.18200
C  16.47800 -0.06700 29.76300
C  19.33400 -3.95800 29.41300
C  18.59700 -4.00400 24.56700
C  15.64500 -0.08900 24.97900
N  17.93300 -1.87500 29.28300
C  17.32800 -1.06300 30.19100
C  17.82100 -1.27200 31.56300
C  18.88400 -2.37900 31.37500
C  18.79000 -2.77300 29.91100
C  20.39500 -2.03500 31.70500
C  16.73700 -1.55800 32.67500
C  16.66800 -0.64500 33.95400
H  18.03700 -0.07400 34.39100
N  18.75800 -3.76600 26.99600
C  19.38000 -4.39700 28.00800
C  20.09200 -5.52700 27.55000
C  19.91300 -5.66300 26.11500
C  19.14300 -4.38800 25.77600
C  20.94500 -6.41700 28.41200
C  20.18100 -6.80500 25.13100
O  19.76500 -6.75100 23.96600
C  20.97100 -7.99500 25.54300
N  17.32200 -2.00300 25.04900
C  17.84000 -2.88300 24.21300
C  17.62000 -2.51500 22.77700
C  16.64500 -1.27900 22.89600
C  16.47100 -1.08500 24.41000
C  18.92900 -2.25800 21.92100
C  15.30300 -1.54800 22.13300
C  14.54000 -0.42100 21.56700
N  16.24000 -0.47100 27.26000
C  15.49600 0.17700 26.31800
C  14.61500 1.08500 26.98400
C  15.00800 1.09400 28.36100
C  15.93700 0.08500 28.46100
C  13.59500 1.96100 26.24300
C  14.79300 1.69300 29.64900
O  14.05000 2.65700 29.90300
C  15.72500 0.93200 30.62400
C  16.52000 1.92400 31.24200
O  17.56300 2.34500 30.71300
O  15.87400 2.42600 32.36100
C  16.56000 3.45800 33.18300
H  19.91400 -4.50300 30.16100
H  18.84900 -4.52600 23.64100
H  14.96900 0.51500 24.37000
H  18.26100 -0.31400 31.83900
H  18.55500 -3.26500 31.91800
H  20.83600 -2.87900 32.23500
H  20.51900 -1.19800 32.39200
H  21.02800 -1.85300 30.83700
H  17.02200 -2.53100 33.07700
H  15.71600 -1.48600 32.30200
H  16.32900 -1.23700 34.80400
H  15.92900 0.14400 33.81300
H  21.16200 -7.44900 28.13900
H  20.53600 -6.55000 29.41300
H  21.90900 -5.91900 28.51900
H  22.01200 -7.81200 25.81100
H  21.06800 -8.68200 24.70200
H  20.42100 -8.60400 26.26100
H  17.16900 -3.44700 22.43600
H  17.23000 -0.42400 22.55900
H  19.69200 -1.74700 22.50700
H  18.75900 -1.57200 21.09100
H  19.31500 -3.18700 21.50200
H  14.65300 -2.12700 22.79000
H  15.49200 -2.22700 21.30200
H  13.52700 -0.32700 21.95900
H  14.58400 -0.49800 20.48000
H  15.14800 0.48100 21.63200
H  12.82200 2.29000 26.93700
H  13.11700 1.39600 25.44300
H  13.93100 2.87000 25.74500
H  15.15000 0.46500 31.42300
H  16.20900 4.48900 33.14000
H  17.62300 3.39600 32.94700
H  16.31700 3.10300 34.18500
Mg 47.47300 16.34900 28.50200
C  45.13400 16.52900 31.09800
C  49.29900 18.61400 30.28700
C  49.76800 16.06100 26.13000
C  45.24600 14.61000 26.57300
N  47.19500 17.45500 30.40300
C  46.21100 17.24500 31.31800
C  46.63900 17.74300 32.72400
C  47.81000 18.69100 32.33600
C  48.10200 18.27400 30.94500
C  47.56600 20.24900 32.39300
C  47.00100 16.58100 33.74400
C  46.59400 16.84500 35.17200
H  47.59500 16.59200 36.33700
N  49.32300 17.21100 28.29000
C  49.96600 18.08900 29.11300
C  51.32700 18.31700 28.60300
C  51.40700 17.52100 27.49800
C  50.12200 16.92300 27.19600
C  52.38100 19.11300 29.28400
C  52.69500 17.30800 26.63500
O  52.75300 16.62800 25.61000
C  53.96600 17.92600 27.11100
N  47.52000 15.44700 26.64200
C  48.54400 15.49900 25.79700
C  48.31700 14.69100 24.49900
C  46.94900 14.07700 24.73500
C  46.50700 14.77500 25.94300
C  48.37700 15.63800 23.20500
C  46.96100 12.59600 24.81500
C  47.33600 11.88300 23.51700
N  45.54400 15.81200 28.67400
C  44.77100 15.05600 27.81600
C  43.49500 14.70200 28.49200
C  43.59300 15.29300 29.78400
C  44.84900 15.87100 29.81800
C  42.31500 13.99000 27.72700
C  42.96400 15.44300 31.13000
O  41.91800 15.00600 31.57500
C  44.07500 16.16800 32.06700
C  43.51500 17.37200 32.78400
O  43.62100 18.56900 32.49500
O  42.90000 16.97800 33.92600
C  42.14800 18.00000 34.63300
H  49.95600 19.27100 30.86100
H  50.55000 15.87600 25.39000
H  44.65900 14.04800 25.84300
H  45.95800 18.45000 33.19800
H  48.70000 18.37500 32.87900
H  48.33000 20.71900 33.01300
H  46.58800 20.56900 32.75400
H  47.78400 20.84800 31.50900
H  48.07700 16.43100 33.82100
H  46.54200 15.62400 33.49300
H  45.75700 16.17200 35.36000
H  46.12900 17.83100 35.18400
H  52.90500 19.85900 28.68600
H  53.17200 18.61900 29.84800
H  51.93600 19.81100 29.99300
H  53.94700 18.99700 26.90900
H  54.77800 17.50600 26.51800
H  54.18100 17.56500 28.11700
H  49.04400 13.90600 24.29200
H  46.27200 14.27500 23.90300
H  47.49500 16.27700 23.22100
H  48.32200 15.11400 22.25100
H  49.19100 16.36300 23.19200
H  46.01200 12.17700 25.14900
H  47.74600 12.34800 25.53000
H  46.73800 10.97500 23.44800
H  48.35700 11.50900 23.59400
H  47.40000 12.53500 22.64600
H  42.58700 13.47800 26.80400
H  41.55700 14.65800 27.31800
H  41.91900 13.24100 28.41400
H  44.31500 15.36200 32.76100
H  41.58700 17.46800 35.40100
H  41.36200 18.34500 33.96100
H  42.68000 18.85400 35.05200

