158

Mg 45.62000 3.70600 46.97800
C  43.26300 6.25900 46.55000
C  43.09500 1.47600 46.91500
C  47.86200 1.30400 47.17500
C  48.09400 6.08800 46.46300
N  43.47400 3.90400 46.67100
C  42.67800 4.99500 46.69700
C  41.23000 4.58800 46.63000
C  41.26500 3.09000 47.15600
C  42.71200 2.80000 46.85700
C  40.78200 2.91900 48.59200
C  40.64900 4.64100 45.18300
C  39.51700 5.63600 44.81700
H  39.82500 6.52500 43.60500
N  45.47600 1.67300 47.01300
C  44.37400 0.91700 47.02600
C  44.69400 -0.48700 47.16300
C  46.11500 -0.56800 47.26600
C  46.54800 0.83500 47.08700
C  43.63300 -1.57700 46.99200
C  46.98700 -1.91500 47.32800
O  46.39200 -3.00600 47.27600
C  48.52700 -1.88200 47.45100
N  47.61200 3.68300 46.68100
C  48.33400 2.65200 47.02800
C  49.83600 2.85800 47.30300
C  49.88900 4.29800 46.68000
C  48.48600 4.77800 46.53600
C  50.15400 2.69100 48.80600
C  50.77000 4.58900 45.40600
C  49.95900 4.74300 44.10200
N  45.71700 5.77400 46.62500
C  46.76200 6.62600 46.44400
C  46.33900 8.02400 46.36700
C  44.96000 7.91600 46.35200
C  44.65000 6.52100 46.52400
C  47.32100 9.20200 46.26000
C  43.64000 8.63600 46.41700
O  43.47200 9.81900 46.33600
C  42.56800 7.67300 46.53500
C  41.75000 7.91300 47.84900
O  42.03200 7.44500 48.94500
O  40.61500 8.52900 47.49600
C  39.61800 8.89200 48.48600
H  42.26600 0.79300 47.11300
H  48.65700 0.61600 47.47100
H  48.84200 6.87400 46.58400
H  40.74800 5.17200 47.41300
H  40.59400 2.46700 46.56400
H  39.89100 2.29600 48.50700
H  40.46100 3.85000 49.06000
H  41.49100 2.45000 49.27400
H  40.33400 3.64800 44.86200
H  41.54300 4.96300 44.64900
H  39.38000 6.25000 45.70700
H  38.67500 4.94800 44.74500
H  43.65700 -1.87300 45.94400
H  42.69600 -1.16400 47.36700
H  44.00600 -2.39300 47.61100
H  48.72800 -1.40400 48.40900
H  49.02800 -1.37100 46.62800
H  48.84800 -2.92300 47.41400
H  50.42000 2.14500 46.72100
H  50.30000 4.86700 47.51400
H  50.81300 1.82300 48.83100
H  49.21000 2.55700 49.33400
H  50.80700 3.54200 48.99900
H  51.50500 3.80600 45.22000
H  51.25900 5.55000 45.57000
H  50.61900 4.68900 43.23600
H  49.52000 5.74000 44.14400
H  49.21000 3.96000 43.98900
H  47.44500 9.51100 47.29800
H  46.71800 9.91200 45.69500
H  48.17800 9.30200 45.59400
H  41.79500 7.73400 45.76900
H  39.67800 9.96600 48.65900
H  39.64900 8.35900 49.43600
H  38.67600 8.67900 47.98000
Mg 54.79800 23.31800 44.44200
C  52.50900 25.71800 42.99200
C  52.74100 20.78800 43.33000
C  57.29100 21.13300 44.74300
C  56.97200 26.01200 45.06900
N  52.81700 23.36900 43.26300
C  52.11800 24.39600 42.75800
C  50.77900 23.87300 42.11500
C  50.85600 22.33700 42.37900
C  52.24000 22.10500 43.05400
C  49.67000 21.81100 43.14700
C  50.59500 24.20500 40.58900
C  49.16500 24.57000 40.16700
H  48.72000 24.17600 38.77800
N  54.88800 21.23700 44.26500
C  53.93600 20.36100 43.83700
C  54.34600 18.99800 43.90800
C  55.72600 19.06300 44.16700
C  56.05000 20.51700 44.43900
C  53.36900 17.86100 43.80300
C  56.60700 17.82700 44.34800
O  56.18100 16.72600 44.09800
C  57.93900 17.91700 44.82600
N  56.86300 23.53900 44.82200
C  57.66100 22.47900 44.86600
C  59.16400 22.90100 45.01500
C  59.02500 24.38600 45.62200
C  57.58100 24.74800 45.10700
C  60.13600 22.00900 45.85700
C  60.15100 25.38200 45.21200
C  61.24900 25.65600 46.28700
N  54.73000 25.41200 44.23900
C  55.68200 26.32300 44.56300
C  55.06200 27.69400 44.36600
C  53.86900 27.46400 43.71700
C  53.73700 26.07400 43.60400
C  55.76200 29.08800 44.83400
C  52.70100 28.10800 43.18300
O  52.39400 29.25900 43.18300
C  51.82000 27.03000 42.59300
C  51.81500 27.40100 41.10500
O  52.71100 27.09700 40.39200
O  50.61400 27.96300 40.74900
C  50.41200 28.16700 39.33800
H  52.10600 19.98300 42.95700
H  58.08700 20.38800 44.79800
H  57.57500 26.86500 45.38700
H  50.04600 24.34700 42.76700
H  50.81500 21.88300 41.38900
H  49.12600 21.22000 42.41100
H  49.01300 22.59200 43.53100
H  50.10900 21.18100 43.92000
H  50.75400 23.27700 40.04000
H  51.22400 24.99400 40.17500
H  49.00100 25.64200 40.27700
H  48.56900 24.05300 40.92000
H  53.49000 17.19000 42.95300
H  52.33900 18.20600 43.89400
H  53.62300 17.25600 44.67400
H  58.53600 18.43000 44.07100
H  58.45200 16.98900 45.07700
H  57.81300 18.56700 45.69200
H  59.49100 22.99600 43.97900
H  59.01600 24.33600 46.71100
H  60.67200 21.40400 45.12600
H  59.62300 21.30600 46.51400
H  60.81600 22.54400 46.51900
H  59.71000 26.37500 45.12600
H  60.59800 24.93000 44.32600
H  62.23100 25.76800 45.82700
H  61.39400 24.87800 47.03600
H  61.05600 26.60300 46.79200
H  55.40600 29.88800 44.18400
H  56.81900 29.15400 44.57600
H  55.53100 29.24100 45.88800
H  50.87200 27.06300 43.12900
H  50.73900 29.17200 39.07000
H  49.35600 28.00700 39.12100
H  50.83900 27.32300 38.79600

