158

Mg -2.06500 17.07300 27.31400
C  -2.68500 14.85800 30.01700
C  -2.75300 19.66800 29.39000
C  -1.81700 19.09500 24.66800
C  -2.31900 14.29100 25.17500
N  -2.59100 17.16000 29.41400
C  -2.82900 16.19000 30.36000
C  -3.18800 16.76500 31.71500
C  -3.13900 18.29000 31.44200
C  -2.91700 18.36800 29.96700
C  -4.35400 19.16700 31.94600
C  -2.27000 16.46700 32.90100
C  -2.89700 15.45400 33.87300
H  -2.10300 15.22600 35.14000
N  -2.12500 19.16200 27.11100
C  -2.32200 20.09600 28.09800
C  -1.98700 21.39600 27.61800
C  -1.80300 21.26200 26.20900
C  -1.88800 19.81700 25.91500
C  -2.08700 22.65400 28.45900
C  -1.59600 22.35100 25.15500
O  -1.50500 21.99000 24.02100
C  -1.55400 23.82300 25.58200
N  -2.13500 16.64800 25.13900
C  -1.84600 17.69400 24.37000
C  -1.75100 17.16500 22.89300
C  -1.78900 15.59900 23.06500
C  -2.17000 15.48900 24.54300
C  -2.83300 17.75000 21.94000
C  -0.40100 14.94300 22.68700
C  0.83300 15.32900 23.47900
N  -2.30400 14.96300 27.51200
C  -2.39600 13.98900 26.57000
C  -2.65800 12.70200 27.15900
C  -2.67200 12.95600 28.55700
C  -2.48600 14.33800 28.67600
C  -2.85400 11.34600 26.43800
C  -2.89400 12.40200 29.79000
O  -3.15700 11.25600 30.10500
C  -2.66000 13.51100 30.81600
C  -1.34000 13.14000 31.49200
O  -0.36300 13.84300 31.45500
O  -1.51600 12.01600 32.33300
C  -0.40800 11.63400 33.31700
H  -2.84600 20.46600 30.12900
H  -1.66700 19.63200 23.72900
H  -2.58600 13.54100 24.42700
H  -4.22900 16.48700 31.88100
H  -2.25100 18.74800 31.87800
H  -4.63400 19.89500 31.18500
H  -4.02400 19.60900 32.88600
H  -5.10100 18.38500 32.08300
H  -1.91800 17.34400 33.44400
H  -1.47700 15.89200 32.42300
H  -2.99300 14.49100 33.37100
H  -3.90800 15.74000 34.16400
H  -2.78200 23.38100 28.03900
H  -1.13600 23.15600 28.63800
H  -2.33000 22.44800 29.50100
H  -0.79500 24.01900 26.33900
H  -2.51700 23.99000 26.06500
H  -1.43200 24.43000 24.68500
H  -0.76900 17.47300 22.53500
H  -2.51500 15.14800 22.38900
H  -3.53300 18.26800 22.59500
H  -3.44400 17.04200 21.38200
H  -2.31000 18.47800 21.32000
H  -0.18300 15.24400 21.66200
H  -0.58500 13.87300 22.78300
H  1.22700 14.51200 24.08300
H  0.82500 16.23100 24.09100
H  1.54000 15.53400 22.67500
H  -1.99900 11.04600 25.83300
H  -3.69900 11.54400 25.77800
H  -3.17100 10.59600 27.16300
H  -3.62800 13.49100 31.31500
H  -0.24500 10.55700 33.27900
H  -0.73100 11.86400 34.33300
H  0.53700 12.16500 33.20300
Mg 48.95500 35.48000 27.25200
C  47.09700 33.97000 29.73600
C  49.38200 38.25700 29.39100
C  50.34800 37.20600 24.72200
C  47.94400 33.04300 24.86700
N  48.27400 36.09000 29.27700
C  47.69800 35.17100 30.14200
C  47.84200 35.59800 31.62300
C  48.22900 37.13700 31.44100
C  48.68900 37.24800 29.96900
C  46.96600 38.02800 31.68000
C  49.01600 34.90400 32.37600
C  48.91300 34.89500 33.93000
H  48.03900 36.03000 34.47900
N  49.85000 37.39400 27.10600
C  49.90500 38.37900 28.10700
C  50.73400 39.48900 27.66000
C  51.15700 39.18600 26.30300
C  50.47000 37.86200 26.00800
C  50.98400 40.75600 28.43500
C  52.12500 39.95800 25.38600
O  52.46300 39.50400 24.29100
C  52.67600 41.32400 25.73600
N  49.08200 35.19700 25.08500
C  49.74900 36.05300 24.24200
C  49.67000 35.69900 22.80500
C  49.14700 34.23800 22.92100
C  48.59800 34.13100 24.36900
C  48.85300 36.59400 21.93600
C  50.24100 33.21900 22.52700
C  50.08200 32.25200 21.40100
N  47.83900 33.83400 27.25100
C  47.59900 32.85500 26.21500
C  46.75100 31.83300 26.80400
C  46.50300 32.23800 28.18300
C  47.19600 33.49400 28.37100
C  46.36100 30.50700 26.13700
C  45.84100 31.86800 29.40100
O  45.20100 30.82300 29.62900
C  45.97100 33.11900 30.31700
C  46.16000 32.71400 31.74800
O  47.22400 32.30200 32.24500
O  45.01000 32.93000 32.46200
C  45.09200 33.01800 33.96200
H  49.60800 39.07000 30.08500
H  50.73800 37.67600 23.81700
H  47.68100 32.30400 24.10700
H  46.86600 35.54800 32.10400
H  49.06600 37.46800 32.05600
H  46.77200 38.43900 32.67100
H  46.12900 37.44800 31.29000
H  47.01400 38.86600 30.98500
H  49.98000 35.39100 32.22300
H  49.12100 33.89500 31.97800
H  49.94700 34.97100 34.26700
H  48.54100 33.92900 34.26900
H  51.07900 41.63300 27.79500
H  51.88500 40.87500 29.03600
H  50.11100 40.91900 29.06800
H  51.88000 42.01600 25.46100
H  53.60400 41.53700 25.20500
H  52.88500 41.32500 26.80600
H  50.65900 35.79200 22.35800
H  48.26300 34.08200 22.30200
H  48.03300 36.10000 21.41300
H  49.53300 36.91800 21.14800
H  48.38400 37.43500 22.44500
H  50.45500 32.67400 23.44600
H  51.11800 33.77900 22.20300
H  50.85800 32.26100 20.63600
H  49.14000 32.43500 20.88400
H  50.02500 31.25100 21.82900
H  45.35600 30.53900 25.71600
H  46.48900 29.65400 26.80400
H  47.01000 30.30500 25.28400
H  45.09500 33.75500 30.19300
H  46.04400 33.45700 34.25900
H  45.14700 32.02200 34.40000
H  44.20900 33.48200 34.40300

