158

Mg 9.09900 3.41200 27.38100
C  10.19000 2.09900 30.37900
C  6.87600 5.36300 29.02800
C  7.99300 4.60300 24.34900
C  10.61300 0.75100 25.71900
N  8.52600 3.64700 29.53400
C  9.26400 3.13100 30.61700
C  8.69300 3.71200 31.92200
C  7.42100 4.58500 31.46900
C  7.50700 4.48300 29.92600
C  6.05100 4.17300 32.06200
C  9.81100 4.35000 32.78400
C  9.44700 4.89300 34.13500
H  10.37300 4.64100 35.33200
N  7.70700 4.96500 26.73800
C  6.94300 5.64700 27.63800
C  6.19400 6.57800 26.88700
C  6.45000 6.40300 25.50500
C  7.49700 5.35600 25.40700
C  5.17100 7.52900 27.54400
C  5.94700 7.07400 24.27000
O  6.35500 6.83300 23.09000
C  4.87300 8.04300 24.39800
N  9.30900 2.76500 25.36300
C  8.79800 3.47800 24.24900
C  9.22200 2.76600 22.92400
C  10.01800 1.51900 23.40100
C  9.97600 1.67800 24.92300
C  8.04700 2.48000 22.03700
C  11.40800 1.43800 22.67600
C  11.45800 0.36600 21.55500
N  10.10100 1.72300 27.89900
C  10.74100 0.76900 27.08200
C  11.51700 -0.12000 27.88900
C  11.32100 0.43500 29.15500
C  10.47500 1.55300 29.06600
C  12.37600 -1.24700 27.50800
C  11.82900 0.27600 30.45200
O  12.48600 -0.58100 30.88800
C  11.16600 1.39600 31.33600
C  10.61400 0.79200 32.52600
O  9.61300 0.09900 32.63100
O  11.26200 1.35200 33.56400
C  10.66400 1.01600 34.86800
H  6.23100 6.03500 29.59900
H  7.81300 5.05000 23.37000
H  11.28400 0.13400 25.11800
H  8.37400 2.81200 32.44700
H  7.51400 5.65000 31.68200
H  6.16900 3.60300 32.98300
H  5.47500 3.59900 31.33600
H  5.43900 5.03500 32.32500
H  10.31600 5.03500 32.10300
H  10.56600 3.61300 33.05800
H  8.45700 4.51000 34.38300
H  9.46000 5.98100 34.07200
H  4.16500 7.27100 27.21500
H  5.32500 8.57300 27.27200
H  5.27800 7.50300 28.62900
H  4.52700 8.32100 23.40300
H  5.42600 8.81000 24.94000
H  3.95500 7.78900 24.92800
H  10.00900 3.35000 22.44700
H  9.57000 0.53300 23.28000
H  7.19400 2.57800 22.70700
H  8.14700 1.45400 21.68200
H  8.10000 3.23300 21.25000
H  12.18200 1.11800 23.37400
H  11.74400 2.39100 22.26700
H  11.51100 0.89100 20.60100
H  10.63100 -0.34300 21.51200
H  12.26000 -0.37100 21.60500
H  13.00400 -1.58400 28.33300
H  12.93900 -0.87400 26.65200
H  11.73100 -2.06000 27.17500
H  12.01300 2.04600 31.55800
H  11.47300 0.92900 35.59400
H  10.11000 0.08300 34.96500
H  10.07300 1.88000 35.17200
Mg 43.28100 3.92200 46.75200
C  41.17600 6.68400 46.37600
C  40.57700 1.88000 46.71400
C  45.39900 1.28200 46.23800
C  46.00900 6.02600 46.42000
N  41.06600 4.26300 46.31300
C  40.40800 5.46200 46.41600
C  38.91200 5.32100 46.63600
C  38.80900 3.79200 46.83900
C  40.26700 3.26500 46.61900
C  38.15500 3.40900 48.23500
C  38.06700 5.97200 45.49700
C  38.51500 5.59800 44.09600
H  39.53200 6.56900 43.40000
N  43.01700 1.88300 46.56300
C  41.81600 1.23200 46.62300
C  41.97600 -0.18100 46.44200
C  43.38400 -0.44700 46.43000
C  44.02000 0.93500 46.41100
C  40.73600 -1.16900 46.53500
C  44.00600 -1.79100 46.41600
O  43.27800 -2.75800 46.41800
C  45.55700 -1.92300 46.34800
N  45.46500 3.67300 46.40400
C  46.07700 2.53400 46.28400
C  47.60800 2.67700 46.15700
C  47.81600 4.19600 46.30100
C  46.37300 4.68700 46.41900
C  48.39500 1.67200 46.99600
C  48.54800 4.87000 45.15400
C  49.60200 4.15900 44.30500
N  43.61000 5.88500 46.39700
C  44.74100 6.63500 46.40300
C  44.42500 8.02100 46.50600
C  43.03400 8.09300 46.45000
C  42.55600 6.74200 46.25900
C  45.40300 9.14400 46.53200
C  41.91300 8.97200 46.58900
O  41.75700 10.14800 46.88600
C  40.62300 8.11300 46.38900
C  39.74000 8.32200 47.50700
O  39.94100 7.85300 48.65200
O  38.73200 9.16600 47.15000
C  37.89200 9.64400 48.29800
H  39.69200 1.24000 46.71900
H  46.16300 0.53100 46.02700
H  46.87000 6.69600 46.37400
H  38.70900 5.87600 47.55200
H  38.19600 3.40100 46.02600
H  37.83500 4.30700 48.76300
H  38.86700 2.83100 48.82400
H  37.24800 2.80900 48.15800
H  37.87700 7.03500 45.64500
H  37.04900 5.59000 45.57500
H  37.67500 5.43700 43.42000
H  38.98600 4.61500 44.09800
H  40.51400 -1.52600 45.52900
H  39.79800 -0.73700 46.88600
H  40.85200 -1.99100 47.24200
H  46.08100 -1.33200 47.09900
H  46.02000 -1.55300 45.43300
H  45.91200 -2.93900 46.51800
H  47.62100 2.54900 45.07500
H  48.40800 4.40400 47.19200
H  48.51400 0.73200 46.45700
H  47.89200 1.47300 47.94200
H  49.36600 2.15200 47.11900
H  49.15700 5.67700 45.56100
H  47.89600 5.32900 44.41100
H  49.29800 4.26800 43.26300
H  49.61000 3.07700 44.44300
H  50.55400 4.65900 44.47800
H  44.93900 9.92200 45.92600
H  46.41000 8.89600 46.19600
H  45.46200 9.43700 47.58000
H  40.29700 8.39800 45.38800
H  38.44700 10.13300 49.09900
H  37.24900 8.81500 48.59500
H  37.37900 10.47500 47.81600

