158

Mg -1.78700 34.09900 26.57800
C  -2.87500 32.23700 29.32700
C  -0.99200 36.63000 28.57900
C  -1.42700 36.07000 23.79000
C  -3.78600 32.01100 24.57300
N  -1.89200 34.27700 28.64200
C  -2.10400 33.33700 29.63300
C  -1.63500 33.83300 31.08700
C  -1.09500 35.19600 30.74800
C  -1.38900 35.42700 29.22900
C  -1.43900 36.43300 31.61100
C  -0.77600 32.94000 31.97800
C  -1.04900 33.02000 33.53000
H  -0.01400 32.38000 34.54000
N  -1.13800 36.02600 26.20000
C  -0.84600 36.87300 27.16900
C  -0.09300 37.95500 26.64200
C  -0.33700 37.90700 25.22200
C  -1.03200 36.65900 25.03700
C  0.78800 38.88200 27.49300
C  0.18700 38.77300 24.06600
O  0.06100 38.56600 22.85800
C  0.88200 40.04500 24.54600
N  -2.34700 34.05200 24.50000
C  -2.01000 34.89100 23.51300
C  -2.60300 34.53800 22.16700
C  -3.27600 33.18400 22.45000
C  -3.14000 33.06700 24.00800
C  -3.56900 35.58200 21.58600
C  -2.77400 32.02700 21.55000
C  -1.62800 31.21900 22.09800
N  -2.91100 32.23800 26.82600
C  -3.74100 31.61600 25.89200
C  -4.43000 30.53400 26.56400
C  -4.08800 30.74700 27.98400
C  -3.20900 31.77500 28.02400
C  -5.20800 29.37600 25.98300
C  -4.24500 30.25500 29.32600
O  -4.95900 29.36500 29.77900
C  -3.49900 31.19300 30.22600
C  -4.39500 31.86100 31.22500
O  -5.14700 32.80700 31.02200
O  -4.19100 31.23500 32.43000
C  -4.76700 31.83700 33.70200
H  -0.50900 37.33200 29.26200
H  -1.30500 36.74200 22.93800
H  -4.47700 31.46700 23.92600
H  -2.54700 33.94200 31.67400
H  -0.01100 35.08300 30.75700
H  -2.00700 36.23300 32.52000
H  -2.03000 37.13000 31.01700
H  -0.53300 37.01000 31.79700
H  0.25400 33.28700 31.89800
H  -0.82300 31.90800 31.63000
H  -1.99500 32.49300 33.65500
H  -1.24400 34.04700 33.83900
H  1.84900 38.87400 27.24000
H  0.58400 38.60600 28.52700
H  0.32900 39.86300 27.37500
H  0.88900 40.84600 23.80600
H  1.89100 39.89100 24.92900
H  0.24500 40.35500 25.37500
H  -1.74300 34.34400 21.52600
H  -4.30700 33.40800 22.17400
H  -3.00200 36.49800 21.42000
H  -4.21600 35.87600 22.41300
H  -4.01900 35.22300 20.66100
H  -2.50700 32.29500 20.52700
H  -3.61400 31.38000 21.29700
H  -0.91200 31.16600 21.27800
H  -2.01300 30.20800 22.22800
H  -1.10100 31.69500 22.92500
H  -4.85700 28.43000 26.39400
H  -5.20600 29.38900 24.89300
H  -6.22400 29.41100 26.37600
H  -2.63100 30.64800 30.59600
H  -4.16500 32.71600 33.93200
H  -4.72300 31.11200 34.51400
H  -5.77800 32.16500 33.45900
Mg -9.11500 18.43400 42.37000
C  -5.61800 18.14600 42.48400
C  -8.81400 21.75000 41.60200
C  -12.36100 18.58800 41.89800
C  -9.23500 14.86600 42.12200
N  -7.45700 19.78200 42.08500
C  -6.07400 19.47400 42.16900
C  -5.22100 20.71300 42.03700
C  -6.30200 21.86200 42.02600
C  -7.64000 21.08500 41.89600
C  -6.13900 22.84700 43.23100
C  -4.11900 20.75700 40.95100
C  -4.49300 20.13400 39.62200
H  -4.56400 21.01300 38.37000
N  -10.47800 19.96000 41.90100
C  -10.08700 21.23500 41.66800
C  -11.26800 22.00400 41.33900
C  -12.39600 21.20100 41.56800
C  -11.78300 19.88700 41.85000
C  -11.23000 23.42100 40.89900
C  -13.82700 21.53700 41.42100
O  -14.13800 22.60300 40.91200
C  -14.84100 20.54400 41.80000
N  -10.62000 16.95800 42.09200
C  -11.91800 17.27800 42.07700
C  -12.83100 16.05200 42.11800
C  -11.81500 14.87700 42.10700
C  -10.43900 15.58600 42.02400
C  -13.72800 15.96500 43.35700
C  -12.00700 14.02500 40.84900
C  -12.99100 12.85600 41.00000
N  -7.74800 16.82400 42.47400
C  -7.99000 15.48300 42.29900
C  -6.75900 14.77300 42.33600
C  -5.78700 15.82600 42.53300
C  -6.46400 17.02400 42.55900
C  -6.56400 13.24100 42.12500
C  -4.32300 16.07700 42.58500
O  -3.43500 15.24800 42.62700
C  -4.13000 17.66300 42.55300
C  -3.25900 18.23100 43.66800
O  -2.26500 18.93400 43.57200
O  -3.84900 17.75900 44.88300
C  -3.38100 18.18400 46.23900
H  -8.67600 22.81900 41.42500
H  -13.40800 18.55700 41.58700
H  -9.04000 13.79300 42.18300
H  -4.79000 20.74900 43.03800
H  -6.27300 22.49300 41.13800
H  -5.13800 22.85200 43.66200
H  -6.71100 22.53000 44.10300
H  -6.36200 23.87200 42.93700
H  -3.21100 20.25600 41.28400
H  -3.77700 21.77800 40.78100
H  -5.38500 19.52100 39.75500
H  -3.73600 19.37600 39.42200
H  -10.90200 24.07700 41.70400
H  -12.10500 23.81000 40.37800
H  -10.43300 23.45000 40.15500
H  -14.48200 20.15500 42.75300
H  -14.90300 19.74000 41.06600
H  -15.80900 21.00400 42.00300
H  -13.44300 16.13600 41.22000
H  -11.79500 14.33400 43.05100
H  -13.32700 16.58200 44.16100
H  -13.85900 14.92900 43.66900
H  -14.73300 16.34400 43.16800
H  -10.99500 13.73500 40.56600
H  -12.39200 14.75200 40.13400
H  -13.79800 13.06400 40.29700
H  -13.48500 12.62600 41.94400
H  -12.47400 11.95000 40.68500
H  -6.78900 12.90600 41.11300
H  -7.10900 12.67500 42.88100
H  -5.48200 13.18000 42.24600
H  -3.63000 17.87800 41.60800
H  -2.50300 18.82600 46.17200
H  -3.21000 17.28400 46.83000
H  -4.26600 18.72200 46.57900

