158

Mg 26.13800 0.29100 28.37900
C  27.75300 0.08300 31.43300
C  23.17500 0.71700 30.11900
C  24.48900 0.24000 25.41300
C  29.05700 -0.70200 26.77700
N  25.57700 0.30200 30.60000
C  26.39400 0.22300 31.64800
C  25.65600 0.50600 33.03200
C  24.18000 0.63400 32.48500
C  24.30300 0.49600 30.95500
C  23.15700 -0.41200 33.10500
C  26.15100 1.68500 33.90200
C  26.56600 1.25200 35.32900
H  26.04200 2.23000 36.43200
N  24.14500 0.51200 27.80500
C  23.06700 0.68600 28.65200
C  21.87600 0.87600 27.90800
C  22.22200 0.88100 26.54400
C  23.68600 0.45600 26.51800
C  20.53400 0.91500 28.56100
C  21.32200 1.20500 25.31100
O  21.84400 1.18100 24.17200
C  19.94700 1.70100 25.52700
N  26.67300 -0.21800 26.38000
C  25.83600 -0.09900 25.29500
C  26.56800 -0.18300 23.91300
C  28.04700 -0.40900 24.39100
C  27.97400 -0.37300 25.98900
C  26.16900 -1.33800 22.92500
C  29.16100 0.55900 23.77700
C  29.33500 1.94000 24.38600
N  28.03300 -0.18300 28.96200
C  29.10600 -0.49000 28.16300
C  30.25900 -0.65600 28.99500
C  29.73100 -0.38400 30.30300
C  28.40300 -0.15000 30.20600
C  31.64700 -1.00100 28.55800
C  30.14600 -0.30000 31.71000
O  31.17600 -0.49600 32.31100
C  28.82800 0.07100 32.47400
C  28.50000 -0.93200 33.58800
O  27.73100 -1.87100 33.50600
O  29.22000 -0.67500 34.74400
C  28.85300 -1.37400 35.98300
H  22.37200 0.85300 30.84600
H  24.07600 0.49300 24.43400
H  29.98400 -0.92300 26.24500
H  25.67300 -0.38400 33.66100
H  23.88400 1.65000 32.74800
H  22.30000 0.17000 33.44400
H  23.50900 -0.83500 34.04500
H  22.92000 -1.14800 32.33700
H  25.49700 2.54000 34.08000
H  27.08900 1.99200 33.44000
H  27.63400 1.06000 35.42800
H  26.15600 0.25000 35.45600
H  20.30000 1.96900 28.71200
H  20.58500 0.29900 29.45900
H  19.70100 0.43200 28.05000
H  19.36100 0.81900 25.78400
H  19.64500 2.20200 24.60700
H  19.95700 2.36500 26.39100
H  26.34800 0.76800 23.42800
H  28.39800 -1.43100 24.25300
H  25.09900 -1.53200 22.99800
H  26.66900 -2.29400 23.08200
H  26.32200 -1.04600 21.88600
H  29.06300 0.76900 22.71200
H  30.12000 0.04500 23.83700
H  28.69300 2.58100 23.78300
H  30.36500 2.23000 24.17600
H  29.25100 1.85700 25.47000
H  32.06800 -1.67600 29.30200
H  32.27500 -0.11500 28.66200
H  31.54000 -1.58200 27.64100
H  28.97100 1.06200 32.90400
H  29.11600 -2.43100 35.93600
H  27.77800 -1.27800 36.13500
H  29.25800 -0.91700 36.88600
Mg 9.41300 47.99600 26.17500
C  7.19100 47.80500 28.76800
C  11.91700 49.09100 28.38000
C  11.42100 48.51900 23.58700
C  6.81200 47.23700 23.98200
N  9.52500 48.29400 28.33400
C  8.51000 48.17600 29.19300
C  8.89400 48.56600 30.66700
C  10.35100 49.18400 30.43000
C  10.63400 48.85900 28.97900
C  10.48500 50.71000 30.84000
C  8.93700 47.32500 31.57700
C  9.73000 47.37100 32.91200
H  9.00600 47.08100 34.30300
N  11.38200 48.77500 26.02000
C  12.33100 49.07400 27.00300
C  13.55200 49.38500 26.44500
C  13.42600 49.21500 25.01200
C  12.01800 48.79100 24.81500
C  14.71500 49.67300 27.31800
C  14.49800 49.39600 23.90700
O  14.34200 49.27600 22.70700
C  15.82500 49.91700 24.36800
N  9.08000 47.90000 24.00400
C  10.12300 48.12700 23.15700
C  9.70100 47.92300 21.64800
C  8.34600 47.14100 21.85200
C  7.96700 47.52900 23.35300
C  9.45100 49.29700 20.91100
C  8.39800 45.64000 21.48300
C  8.46200 45.24400 19.95400
N  7.47400 47.59500 26.24100
C  6.49600 47.34900 25.27900
C  5.17100 47.14600 25.90800
C  5.39800 47.32700 27.27200
C  6.77900 47.66500 27.40600
C  3.88500 46.79000 25.19300
C  4.79500 47.32300 28.57200
O  3.60900 47.08100 28.89400
C  5.90900 47.56500 29.61300
C  6.05500 46.28500 30.44100
O  6.73300 45.33500 30.17200
O  5.38100 46.42600 31.61400
C  5.51300 45.32500 32.62000
H  12.57300 49.38100 29.20400
H  12.03200 48.52700 22.68200
H  6.00900 46.88900 23.32900
H  8.22900 49.24900 31.19600
H  11.00200 48.64800 31.12000
H  10.62700 51.35300 29.97100
H  11.37500 50.77000 31.46600
H  9.55800 51.08100 31.27800
H  9.27400 46.39600 31.11700
H  7.88600 47.30900 31.86500
H  10.18200 48.35400 33.04200
H  10.48400 46.58500 32.89500
H  15.06900 50.70300 27.30300
H  15.45800 48.95000 26.97900
H  14.61700 49.50200 28.39000
H  16.41000 50.19900 23.49300
H  16.12600 49.09500 25.01900
H  15.62900 50.81200 24.95700
H  10.24100 47.14000 21.11500
H  7.59000 47.63700 21.24200
H  10.04000 49.20400 19.99800
H  9.82500 50.07400 21.57800
H  8.42800 49.56100 20.64200
H  7.39400 45.32100 21.76400
H  9.11700 45.06200 22.06400
H  9.06100 45.92900 19.35400
H  7.48500 45.24800 19.47000
H  8.90600 44.25000 19.90500
H  3.24600 46.17400 25.82500
H  4.32300 46.21700 24.37600
H  3.34600 47.64800 24.79000
H  5.71800 48.45400 30.21400
H  5.15700 45.61400 33.60900
H  6.58200 45.11300 32.60800
H  4.89800 44.47400 32.33000

