158

Mg 0.59900 6.81400 26.05300
C  1.18200 8.72700 28.99600
C  0.51800 4.02200 28.09200
C  -0.00000 4.96900 23.36800
C  1.10800 9.67700 24.20100
N  0.96800 6.50700 28.29200
C  0.94100 7.43100 29.29200
C  0.77500 6.81700 30.65300
C  0.84500 5.28600 30.30600
C  0.71000 5.23400 28.79600
C  2.10300 4.45600 30.70000
C  -0.57600 7.27300 31.42100
C  -0.48600 7.76100 32.85200
H  0.72800 7.39500 33.71700
N  0.44600 4.71100 25.74800
C  0.34500 3.75100 26.70700
C  0.09600 2.47800 26.04100
C  0.00500 2.74400 24.64700
C  0.17300 4.16800 24.53000
C  0.15400 1.11200 26.71800
C  -0.14000 1.74600 23.46900
O  -0.11300 2.10600 22.28500
C  -0.12600 0.20800 23.70100
N  0.49900 7.27600 24.12400
C  0.18700 6.36800 23.20800
C  -0.05600 6.99300 21.83100
C  0.39600 8.45700 22.06000
C  0.77000 8.42500 23.57300
C  0.62800 6.26800 20.55600
C  -0.63800 9.54500 21.63400
C  -1.86200 9.64100 22.63000
N  0.96500 8.79800 26.49600
C  1.29700 9.81200 25.60000
C  1.58300 11.06900 26.26200
C  1.53400 10.63500 27.65100
C  1.20000 9.27800 27.70000
C  2.06600 12.38800 25.59300
C  1.84700 11.10300 28.93300
O  2.26200 12.24000 29.26700
C  1.44800 9.90900 29.93400
C  2.53800 9.83800 30.89100
O  3.60300 9.30400 30.71900
O  2.27100 10.56400 32.00500
C  3.43900 10.75900 32.85100
H  0.35400 3.14800 28.72600
H  -0.28500 4.47900 22.43400
H  1.16800 10.51900 23.50800
H  1.59600 7.07000 31.32300
H  0.01800 4.70100 30.70900
H  2.81800 4.95800 31.35100
H  2.65000 4.10600 29.82500
H  1.68700 3.54300 31.12700
H  -1.36700 6.56700 31.16800
H  -0.87800 8.15500 30.85500
H  -1.39500 7.44000 33.36100
H  -0.47200 8.83800 32.68700
H  0.56100 1.12800 27.72900
H  0.79300 0.46100 26.12100
H  -0.87700 0.76600 26.64900
H  0.84800 -0.26700 23.81700
H  -0.49800 -0.22400 22.77200
H  -0.80300 0.01000 24.53200
H  -1.13600 7.01000 21.68300
H  1.23200 8.73500 21.41900
H  1.04000 5.31400 20.88400
H  1.34000 6.96600 20.11500
H  -0.07700 6.03500 19.75800
H  -1.04800 9.29600 20.65600
H  -0.26000 10.54200 21.40600
H  -2.82900 9.70800 22.13300
H  -1.71200 10.54600 23.21800
H  -1.90500 8.76000 23.27100
H  2.86100 12.16200 24.88200
H  2.50100 13.03800 26.35300
H  1.24100 12.88600 25.08200
H  0.52700 10.15200 30.46400
H  3.99200 11.64400 32.53500
H  4.11100 9.90100 32.86500
H  3.07300 10.98300 33.85300
Mg 27.43300 49.72700 26.48400
C  25.18800 50.62900 29.12000
C  29.72800 49.02100 28.96900
C  29.59900 49.40700 24.05200
C  25.12500 51.00500 24.23300
N  27.41000 49.65100 28.72500
C  26.36200 50.04400 29.60600
C  26.72500 49.80600 31.07900
C  28.30800 49.38000 31.01500
C  28.49900 49.43400 29.45400
C  29.26800 50.24400 31.93100
C  25.71800 48.76700 31.75000
C  24.95300 49.31200 32.97100
H  25.06000 48.55000 34.25900
N  29.31300 49.09700 26.51400
C  30.11000 48.85900 27.59500
C  31.45200 48.56100 27.13200
C  31.44900 48.66900 25.71700
C  30.08100 49.07900 25.36100
C  32.60900 48.24500 28.07700
C  32.62900 48.52800 24.68700
O  32.47200 48.62200 23.51500
C  34.04400 48.19500 25.30200
N  27.42900 50.18500 24.50500
C  28.39400 49.84800 23.67100
C  28.08000 50.15400 22.22800
C  26.53200 50.60300 22.24800
C  26.33400 50.60600 23.77500
C  29.03400 51.15400 21.49000
C  25.60400 49.71300 21.34200
C  24.66900 48.64100 22.00200
N  25.55400 50.65600 26.58900
C  24.77000 51.09800 25.58100
C  23.51300 51.61200 26.15400
C  23.68900 51.51800 27.53200
C  24.92400 50.90700 27.75800
C  22.47300 52.20000 25.30000
C  23.04200 51.76100 28.79700
O  21.95200 52.21300 29.11000
C  24.03400 51.21400 29.84500
C  24.39300 52.24800 30.86600
O  25.16000 53.20200 30.64500
O  23.70400 52.12400 32.01500
C  23.92800 53.16700 33.08700
H  30.46500 48.86900 29.76000
H  30.31700 49.17400 23.26300
H  24.45000 51.42300 23.48300
H  26.56800 50.74900 31.60300
H  28.36100 48.30800 31.20900
H  28.73100 51.07600 32.38800
H  29.97400 50.72800 31.25600
H  29.80600 49.68000 32.69300
H  26.14100 47.77400 31.90700
H  24.98900 48.50200 30.98400
H  23.89700 49.45700 32.74100
H  25.37000 50.28400 33.23300
H  33.04900 47.32400 27.69300
H  32.23700 48.14400 29.09700
H  33.34600 49.04700 28.11400
H  34.28700 48.86200 26.12900
H  34.89400 48.19300 24.62000
H  34.06500 47.18800 25.71900
H  28.28200 49.15200 21.84700
H  26.43500 51.62500 21.88100
H  29.82600 51.54200 22.13000
H  28.48800 51.98500 21.04400
H  29.42300 50.64900 20.60500
H  26.15700 49.16000 20.58200
H  24.95300 50.32100 20.71300
H  24.87800 48.64600 23.07100
H  24.84600 47.68800 21.50400
H  23.62700 48.96000 22.01500
H  21.48600 52.31100 25.74800
H  22.31600 51.63700 24.38000
H  22.87200 53.17900 25.03300
H  23.50900 50.43000 30.39100
H  24.76100 52.90800 33.74000
H  23.04500 53.18100 33.72700
H  23.94700 54.14100 32.59900

