158

Mg 47.59300 16.15300 29.02000
C  45.35500 15.93300 31.63400
C  49.90200 17.53500 30.93700
C  49.35900 17.05100 26.16200
C  45.17000 14.80600 26.91500
N  47.58800 16.63400 30.99400
C  46.61500 16.46900 31.95800
C  47.08500 16.70300 33.34700
C  48.39700 17.44700 33.07500
C  48.68400 17.17600 31.59100
C  48.36900 18.99600 33.42000
C  47.24500 15.30300 34.04700
C  47.32200 15.37600 35.57200
H  46.95500 16.66500 36.24900
N  49.48900 17.09000 28.61600
C  50.28500 17.56000 29.57100
C  51.54000 18.03300 28.95400
C  51.36600 17.87400 27.58200
C  49.98900 17.32300 27.42400
C  52.72200 18.45300 29.76200
C  52.31100 18.26900 26.42600
O  52.08800 18.04500 25.32000
C  53.67700 18.80900 26.64300
N  47.34500 15.82800 26.90300
C  48.21300 16.27500 25.95200
C  47.64800 16.11200 24.54400
C  46.37000 15.16000 24.80100
C  46.28900 15.21800 26.32100
C  47.38900 17.42300 23.76200
C  46.61300 13.68500 24.31200
C  46.34800 13.54000 22.79700
N  45.63400 15.35700 29.19900
C  44.77300 14.87500 28.28200
C  43.61400 14.44700 28.89100
C  43.73600 14.84900 30.27600
C  44.96400 15.38700 30.36400
C  42.35400 14.05300 28.10900
C  43.11000 14.91800 31.53200
O  41.96300 14.60700 31.83200
C  44.13200 15.58500 32.59900
C  43.43200 16.76800 33.14700
O  43.19800 17.83400 32.55100
O  42.84800 16.42500 34.31900
C  41.95000 17.47500 34.97200
H  50.64700 17.95300 31.61600
H  49.85500 17.38700 25.24900
H  44.48500 14.30100 26.23000
H  46.44800 17.39900 33.89300
H  49.14500 16.99800 33.72900
H  48.55500 19.53000 32.48900
H  49.11500 19.39400 34.10800
H  47.41800 19.33100 33.83500
H  48.26500 15.02200 33.78700
H  46.58700 14.48800 33.74600
H  48.35600 15.15100 35.83200
H  46.82800 14.50200 35.99500
H  53.55200 18.05100 29.18200
H  52.72000 18.21100 30.82500
H  52.78500 19.54100 29.74400
H  54.17900 19.16900 25.74500
H  54.35900 18.13400 27.15900
H  53.59200 19.56900 27.42000
H  48.48500 15.51000 24.19000
H  45.46700 15.50800 24.29700
H  46.33500 17.70200 23.75600
H  47.83700 17.36500 22.76900
H  47.94000 18.17700 24.32400
H  45.98400 13.03400 24.92000
H  47.60400 13.28300 24.51800
H  45.88600 12.55600 22.71800
H  47.34600 13.50300 22.36000
H  45.77700 14.37700 22.39400
H  41.94300 14.81100 27.44200
H  41.62000 13.79200 28.87100
H  42.58600 13.19000 27.48500
H  44.22700 14.76300 33.30900
H  41.05500 17.66000 34.37900
H  42.47000 18.40100 35.21900
H  41.67500 17.10400 35.95900
Mg 10.00400 47.88100 26.72600
C  7.89600 47.79400 29.53100
C  12.46700 49.10200 28.71100
C  11.95300 47.84200 23.97400
C  7.15100 47.20600 24.67300
N  10.20300 48.27700 28.97100
C  9.20900 48.06900 29.93900
C  9.85800 48.24100 31.31200
C  11.06500 49.20400 31.01500
C  11.25900 48.85600 29.43600
C  10.84100 50.73500 31.23900
C  10.24100 46.83800 31.86300
C  9.80300 46.46800 33.34000
H  10.67600 45.65800 34.24800
N  11.94600 48.37900 26.39400
C  12.84500 48.81700 27.35200
C  14.10600 49.12300 26.71500
C  14.01500 48.57700 25.35600
C  12.60500 48.24700 25.15200
C  15.30100 49.78300 27.44800
C  15.12300 48.51600 24.32100
O  14.92500 47.89300 23.28600
C  16.59300 49.00900 24.59300
N  9.57600 47.53000 24.62700
C  10.58500 47.61100 23.70100
C  10.11200 47.26500 22.26900
C  8.58100 47.01700 22.55800
C  8.39500 47.27500 24.02900
C  10.43400 48.22600 21.15500
C  8.10500 45.54600 22.21600
C  6.79200 45.45100 21.52800
N  7.91800 47.63000 27.00700
C  6.89700 47.35200 26.08400
C  5.62100 47.20000 26.81500
C  5.97400 47.38500 28.20300
C  7.36500 47.64400 28.24200
C  4.32700 46.80600 26.24400
C  5.44200 47.38700 29.57300
O  4.24500 47.28800 29.91700
C  6.68100 47.58700 30.45900
C  6.82800 46.28700 31.18700
O  7.29000 45.26100 30.66900
O  6.44000 46.45900 32.52000
C  6.28300 45.24900 33.22800
H  13.14400 49.73700 29.28600
H  12.52100 47.77300 23.04500
H  6.20600 46.94000 24.19300
H  9.17200 48.59800 32.08000
H  11.97100 48.87000 31.52200
H  11.78500 51.15100 31.59200
H  10.09300 50.83000 32.02500
H  10.55700 51.29500 30.34800
H  11.32900 46.79200 31.90200
H  9.93300 46.01000 31.22400
H  8.96500 45.80500 33.12400
H  9.29000 47.26200 33.88200
H  16.15400 49.11600 27.31900
H  15.23600 50.04900 28.50400
H  15.41700 50.67200 26.82700
H  16.52800 50.09100 24.70700
H  17.26400 48.92400 23.73800
H  17.05000 48.42400 25.39100
H  10.63000 46.32500 22.07900
H  8.02400 47.83600 22.10300
H  11.22200 47.89200 20.48000
H  10.70000 49.18300 21.60500
H  9.57700 48.34600 20.49200
H  7.97900 44.94500 23.11700
H  8.82300 45.02100 21.58600
H  6.27700 46.40200 21.38800
H  6.21600 44.66000 22.00800
H  7.01000 45.16000 20.50100
H  3.79800 46.19100 26.97200
H  4.56200 46.08800 25.45800
H  3.64600 47.53700 25.80900
H  6.55900 48.53200 30.98700
H  6.83000 44.35800 32.92000
H  5.22600 44.98600 33.20800
H  6.47600 45.46200 34.27900

