158

Mg 24.39600 -4.72900 45.64800
C  26.50700 -2.32700 44.41300
C  22.05500 -3.84600 43.06100
C  22.71800 -7.47300 46.33000
C  27.08700 -5.91000 47.77200
N  24.27500 -3.21100 43.90300
C  25.25700 -2.38300 43.67700
C  24.86900 -1.58500 42.38200
C  23.33800 -1.83200 42.25100
C  23.18200 -3.04400 43.08900
C  22.38900 -0.72000 42.78500
C  25.60300 -2.16200 41.03800
C  26.54700 -1.18200 40.42900
H  26.32700 -1.06300 38.94600
N  22.57900 -5.47600 44.89800
C  21.82800 -4.98800 43.87400
C  20.64500 -5.84200 43.81400
C  20.80200 -6.89900 44.70300
C  22.07100 -6.62700 45.39000
C  19.41800 -5.45200 42.92400
C  19.73900 -8.02200 44.91100
O  18.74900 -8.17900 44.20500
C  19.77900 -8.90400 46.16600
N  24.92900 -6.53000 46.79000
C  23.94000 -7.37000 46.94500
C  24.42800 -8.55000 47.79000
C  25.63700 -7.97800 48.54000
C  25.96200 -6.73800 47.66000
C  23.39500 -9.18100 48.84900
C  26.79700 -9.06800 48.74000
C  27.37400 -9.39000 50.11300
N  26.39200 -4.13000 46.18100
C  27.37300 -4.71500 46.99900
C  28.62600 -3.95500 46.90300
C  28.33900 -3.00000 45.85200
C  26.93900 -3.19500 45.44800
C  29.98300 -4.30700 47.66900
C  28.85100 -1.96000 45.08100
O  29.96100 -1.51300 45.07800
C  27.71000 -1.50100 44.08300
C  27.51000 -0.05000 44.31300
O  27.57300 0.51300 45.38700
O  27.50700 0.71600 43.10100
C  27.73200 2.14000 43.30000
H  21.31700 -3.68400 42.27300
H  22.17100 -8.35900 46.65800
H  27.87700 -6.07100 48.50800
H  25.21200 -0.57400 42.60000
H  23.00800 -2.01400 41.22800
H  22.96000 0.02000 43.34500
H  21.63700 -1.05700 43.49900
H  21.92600 -0.14700 41.98200
H  24.87300 -2.43900 40.27700
H  26.12500 -3.08100 41.30300
H  27.58400 -1.48800 40.56500
H  26.50000 -0.15700 40.79900
H  19.09400 -6.31300 42.33900
H  19.54100 -4.67400 42.17100
H  18.55100 -5.19100 43.53100
H  20.33700 -9.83500 46.06800
H  18.78600 -9.33200 46.30800
H  19.95400 -8.24900 47.01900
H  24.77600 -9.34300 47.12800
H  25.31000 -7.62800 49.51900
H  23.81400 -9.65400 49.73700
H  22.81000 -9.94900 48.34400
H  22.76600 -8.36800 49.21200
H  27.64300 -8.55900 48.27800
H  26.63700 -10.02400 48.24200
H  26.83000 -8.81300 50.86100
H  28.41300 -9.07100 50.20200
H  27.19700 -10.42800 50.39400
H  30.59200 -5.08200 47.20400
H  29.82100 -4.64300 48.69300
H  30.53300 -3.37600 47.81000
H  28.10400 -1.76600 43.10200
H  28.56200 2.29400 43.99000
H  26.93800 2.71500 43.77500
H  27.94000 2.57400 42.32200
Mg 6.60400 54.36700 41.18300
C  5.73100 51.03300 40.73700
C  9.80200 53.50300 40.04400
C  7.47100 57.57400 41.08100
C  3.22200 55.11300 41.74500
N  7.54700 52.53300 40.18200
C  6.97800 51.28600 40.15100
C  7.83000 50.37200 39.31800
C  9.27100 51.02300 39.56100
C  8.90500 52.44600 39.96300
C  10.16100 50.25800 40.55800
C  7.50900 50.51700 37.78200
C  7.47700 49.36000 36.80900
H  6.29300 49.33300 35.82500
N  8.35500 55.35200 40.69000
C  9.60900 54.82000 40.33400
C  10.58500 55.83400 40.32800
C  9.93900 57.06300 40.61300
C  8.51900 56.67400 40.87700
C  12.08900 55.51200 40.00600
C  10.55700 58.44300 40.57200
O  11.70400 58.49900 40.27800
C  9.87200 59.66700 40.82100
N  5.43000 56.16500 41.28400
C  6.10500 57.35300 41.30600
C  5.06300 58.44100 41.60900
C  3.72000 57.64600 41.87300
C  4.11600 56.22600 41.63200
C  5.45400 59.39000 42.75700
C  2.61000 58.05300 40.90300
C  1.60700 59.11800 41.43700
N  4.75800 53.29800 41.24300
C  3.49500 53.76300 41.61900
C  2.64800 52.66100 41.67800
C  3.50500 51.57700 41.46600
C  4.78900 51.99200 41.16200
C  1.19300 52.82000 41.89000
C  3.52900 50.14100 41.35300
O  2.57500 49.35100 41.48000
C  5.01100 49.71000 40.98500
C  4.85800 48.80300 39.78700
O  4.04600 48.98900 38.87900
O  5.61800 47.70400 39.89900
C  5.64000 46.81600 38.75400
H  10.79100 53.20900 39.68600
H  7.62300 58.64800 41.20500
H  2.18900 55.27500 42.06200
H  7.88700 49.33500 39.64900
H  9.82600 51.17400 38.63600
H  11.17300 50.05100 40.21000
H  9.62900 49.35500 40.85700
H  10.24000 50.92600 41.41500
H  8.12100 51.33200 37.39600
H  6.44500 50.72300 37.90400
H  7.28600 48.48000 37.42300
H  8.44100 49.09900 36.37100
H  12.70700 56.23400 40.53900
H  12.19900 55.78200 38.95500
H  12.30300 54.45900 40.18900
H  10.69900 60.37200 40.90500
H  9.49100 59.70900 41.84100
H  9.05700 59.71800 40.10000
H  5.07200 58.88300 40.61300
H  3.39100 57.79000 42.90200
H  5.60000 60.34500 42.25300
H  6.41100 59.09600 43.18700
H  4.83900 59.34800 43.65600
H  1.92500 57.22000 40.74700
H  3.02700 58.40900 39.96100
H  0.57700 58.81900 41.24400
H  1.82700 59.99200 40.82300
H  1.78600 59.29400 42.49800
H  0.97900 51.85300 42.34600
H  0.66800 52.97500 40.94700
H  1.09400 53.57900 42.66600
H  5.53400 49.13200 41.74700
H  6.54400 46.20900 38.71500
H  5.58600 47.33900 37.80000
H  4.82400 46.09900 38.84000

