158

Mg 1.74600 -1.71300 44.02200
C  5.02100 -0.76900 43.70700
C  0.75500 1.11000 42.38400
C  -1.42600 -2.73800 44.36700
C  2.92000 -4.92700 45.08400
N  2.82100 -0.19300 42.90100
C  4.11900 0.16200 43.15500
C  4.41800 1.41000 42.42400
C  3.07400 2.13000 42.03900
C  2.11400 0.92800 42.39100
C  2.72400 3.51300 42.70500
C  5.41200 1.20300 41.24000
C  6.46700 2.32200 41.15500
H  6.36300 3.19600 39.90400
N  -0.07700 -0.79300 43.65800
C  -0.28100 0.30700 42.82300
C  -1.64500 0.50500 42.70200
C  -2.35900 -0.56700 43.34700
C  -1.28200 -1.45200 43.80900
C  -2.20000 1.72600 42.01800
C  -3.83400 -0.69100 43.53600
O  -4.63900 0.14400 43.13100
C  -4.54300 -1.97100 44.07400
N  0.92000 -3.55900 44.73900
C  -0.48100 -3.62800 44.81100
C  -0.85800 -5.07000 45.20300
C  0.46900 -5.81900 45.34400
C  1.52300 -4.72700 45.06600
C  -1.54100 -4.92600 46.60700
C  0.67400 -7.03800 44.43300
C  1.21700 -8.30700 45.03900
N  3.59500 -2.79000 44.18100
C  3.87800 -3.99000 44.80500
C  5.32500 -4.05900 44.92500
C  5.85700 -2.82200 44.48200
C  4.73800 -2.06800 44.12600
C  6.07300 -5.33800 45.40300
C  6.99300 -1.96300 44.41300
O  8.13300 -2.23100 44.75000
C  6.47100 -0.53700 43.87700
C  6.86200 0.59600 44.79700
O  6.19100 1.10100 45.67400
O  8.04000 1.09900 44.28800
C  8.14800 2.58600 44.43600
H  0.43900 2.06400 41.95700
H  -2.41400 -3.20100 44.33800
H  3.24300 -5.91800 45.41200
H  4.97900 1.94400 43.19100
H  3.05300 2.38800 40.98000
H  2.36700 4.16500 41.90800
H  3.58500 3.90300 43.24700
H  1.89200 3.50600 43.40800
H  4.75400 1.29500 40.37500
H  6.01800 0.29800 41.26900
H  7.41700 1.79100 41.09200
H  6.57100 2.95300 42.03800
H  -1.62500 2.07800 41.16200
H  -1.95100 2.57800 42.65100
H  -3.25900 1.88600 41.81600
H  -5.62300 -1.86200 43.97300
H  -4.11000 -2.11200 45.06400
H  -4.27500 -2.88400 43.54100
H  -1.54300 -5.58500 44.52900
H  0.52800 -6.17600 46.37300
H  -1.66500 -5.92700 47.02200
H  -2.54700 -4.50500 46.62700
H  -0.88300 -4.31800 47.22600
H  1.34900 -6.84400 43.59900
H  -0.22800 -7.27200 43.86900
H  0.57900 -9.11400 44.67900
H  1.10600 -8.32700 46.12300
H  2.24800 -8.52000 44.75700
H  5.54900 -5.83200 46.22100
H  7.05300 -5.01600 45.75500
H  6.16500 -6.04900 44.58200
H  6.92400 -0.45300 42.88900
H  7.20900 3.13900 44.47000
H  8.71600 3.06800 43.64100
H  8.69100 2.72500 45.37100
Mg 47.83500 16.73400 29.37700
C  45.73800 16.14900 32.16400
C  49.96500 18.32100 31.30900
C  49.42200 17.65300 26.48200
C  45.47000 15.10600 27.34100
N  47.73200 17.23500 31.53000
C  46.89700 16.79400 32.51200
C  47.51600 17.07000 33.89700
C  48.77300 17.92600 33.58200
C  48.87400 17.79900 32.03700
C  48.60000 19.37900 34.06300
C  47.86500 15.78300 34.72300
C  47.57900 15.87600 36.19900
H  47.58100 17.30700 36.79900
N  49.40700 17.82200 28.98200
C  50.22700 18.26200 29.94000
C  51.46100 18.70000 29.24500
C  51.37300 18.57200 27.83700
C  50.02900 17.96500 27.70800
C  52.59900 19.30300 30.06600
C  52.25100 19.04600 26.66500
O  51.90100 19.08600 25.47500
C  53.59100 19.71800 26.99600
N  47.46200 16.50500 27.19600
C  48.25900 16.95700 26.18600
C  47.80100 16.57700 24.81900
C  46.66200 15.57500 25.09400
C  46.50600 15.67800 26.65800
C  47.44700 17.78300 23.91000
C  46.83600 14.10700 24.67700
C  45.63100 13.45300 24.01800
N  45.94400 15.92700 29.62000
C  45.11200 15.21300 28.73900
C  43.98100 14.59200 29.42700
C  44.23100 14.95900 30.74500
C  45.36200 15.77300 30.80900
C  43.01100 13.57200 28.91200
C  43.62900 14.79900 32.10200
O  42.68300 14.28300 32.51900
C  44.69000 15.53200 33.03500
C  44.06200 16.57900 33.83700
O  43.53400 17.63400 33.39500
O  44.14200 16.22700 35.13300
C  43.53800 17.09200 36.10200
H  50.65300 18.90300 31.92600
H  49.97700 17.82900 25.55800
H  44.76000 14.51400 26.75900
H  46.76900 17.66600 34.42100
H  49.72700 17.48200 33.86700
H  47.64200 19.81700 34.34300
H  48.95700 19.98300 33.22800
H  49.38500 19.52000 34.80600
H  48.93000 15.55600 34.67600
H  47.34400 14.96000 34.23400
H  48.25600 15.21900 36.74500
H  46.67800 15.29800 36.40500
H  52.68300 20.35700 29.80100
H  53.52000 18.78000 29.80800
H  52.40000 19.31600 31.13800
H  53.24700 20.53300 27.63200
H  54.08400 20.20800 26.15600
H  54.16800 18.95500 27.51900
H  48.65900 16.02100 24.44100
H  45.67900 15.94800 24.80800
H  47.94500 17.78000 22.94000
H  47.81900 18.67200 24.41900
H  46.37900 17.91400 23.73700
H  47.05100 13.58000 25.60700
H  47.77200 14.02400 24.12400
H  45.32700 12.52800 24.50800
H  45.96300 13.22400 23.00500
H  44.74000 14.07200 23.91300
H  42.06800 14.05600 28.65900
H  42.88200 12.97600 29.81500
H  43.42300 12.88100 28.17600
H  45.13700 14.80100 33.70900
H  42.46200 17.14600 35.93400
H  44.03900 18.05200 36.22100
H  43.59200 16.59600 37.07100

