158

Mg 16.89200 -2.56000 28.52000
C  15.37000 -0.80700 31.23100
C  19.03100 -4.11300 30.69100
C  18.14300 -4.20100 25.97000
C  15.08800 -0.41800 26.39100
N  17.05900 -2.62700 30.79200
C  16.41700 -1.73200 31.66300
C  17.13900 -1.90700 33.04700
C  18.41800 -2.73700 32.78700
C  18.19600 -3.17400 31.31500
C  19.79300 -2.08000 32.92100
C  16.18000 -2.56800 34.02300
C  15.81600 -1.80300 35.31400
H  16.90700 -0.95200 35.97000
N  18.15200 -4.25600 28.38500
C  18.93600 -4.72000 29.39700
C  19.73200 -5.78200 28.81800
C  19.45300 -5.90200 27.40100
C  18.56700 -4.72300 27.15500
C  20.63200 -6.54500 29.69000
C  19.92500 -6.81100 26.34100
O  19.69500 -6.77200 25.15700
C  20.72600 -8.01800 26.78100
N  16.69900 -2.22700 26.45100
C  17.22900 -3.17100 25.61400
C  16.99800 -2.66700 24.16400
C  15.92900 -1.59200 24.25200
C  15.83900 -1.41500 25.75800
C  18.32000 -2.19500 23.48000
C  14.58300 -1.90900 23.52000
C  14.19900 -0.88800 22.28700
N  15.58300 -0.95300 28.67300
C  14.96200 -0.16400 27.77900
C  14.07800 0.80400 28.33700
C  14.24700 0.59600 29.69900
C  15.11100 -0.51900 29.87500
C  13.14200 1.78100 27.64600
C  13.89000 1.10500 30.97800
O  13.31500 2.14700 31.31700
C  14.48900 0.13800 32.04900
C  15.22000 0.97100 33.09400
O  16.40300 1.20600 32.95500
O  14.39900 1.72600 33.97700
C  15.12400 2.64600 34.80200
H  19.98600 -4.35300 31.16400
H  18.60700 -4.74400 25.14400
H  14.53300 0.15000 25.64100
H  17.49600 -0.96600 33.46600
H  18.52600 -3.64200 33.38500
H  19.64600 -1.23800 33.59700
H  20.26900 -1.78000 31.98700
H  20.53100 -2.77400 33.32300
H  16.47700 -3.57100 34.33000
H  15.26800 -2.60900 33.42600
H  15.28600 -2.44500 36.01700
H  15.07600 -1.03300 35.09700
H  20.39900 -7.60000 29.54300
H  20.39900 -6.43300 30.74900
H  21.65900 -6.38700 29.36200
H  21.53300 -7.60200 27.38400
H  21.19500 -8.38300 25.86800
H  20.15300 -8.77800 27.31300
H  16.55800 -3.51600 23.64100
H  16.26100 -0.60100 23.94200
H  18.60300 -3.02700 22.83700
H  19.14700 -1.96000 24.15100
H  18.17200 -1.25300 22.95100
H  13.80100 -1.91000 24.27900
H  14.47500 -2.94100 23.18500
H  13.17700 -0.54300 22.44400
H  14.18600 -1.55800 21.42700
H  14.94400 -0.10300 22.15600
H  13.53500 2.07600 26.67400
H  13.13200 2.67000 28.27700
H  12.14600 1.35200 27.53400
H  13.72400 -0.35600 32.64700
H  14.41200 2.93200 35.57700
H  15.26700 3.59700 34.29000
H  16.06900 2.27400 35.19800
Mg 47.69700 16.96200 29.17800
C  45.56400 16.52000 31.95600
C  49.65800 18.94700 31.11000
C  49.59000 17.47800 26.50600
C  45.22100 15.54100 27.21900
N  47.61300 17.74700 31.36100
C  46.71600 17.22900 32.34000
C  47.29100 17.52800 33.65000
C  48.32200 18.64100 33.41200
C  48.57700 18.40700 31.86300
C  47.92800 20.13700 33.75700
C  47.81900 16.24100 34.32100
C  47.91800 16.04000 35.94000
H  47.58100 17.19000 36.91900
N  49.51200 17.83500 28.94600
C  50.16000 18.69800 29.84600
C  51.40700 19.12600 29.21000
C  51.38800 18.72600 27.90000
C  50.17900 17.92100 27.73600
C  52.41400 19.92700 30.05900
C  52.39600 18.95500 26.78700
O  52.26200 18.35900 25.74500
C  53.50200 19.88600 26.92700
N  47.37500 16.59200 27.15300
C  48.36500 16.89800 26.24700
C  47.84500 16.69200 24.79700
C  46.56300 15.85500 25.05000
C  46.33600 16.03200 26.56800
C  47.54300 17.98000 23.87900
C  46.65100 14.30500 24.79000
C  46.05800 13.81300 23.42500
N  45.75500 16.22400 29.45100
C  44.91800 15.61900 28.61400
C  43.66900 15.30400 29.30700
C  43.91400 15.56000 30.66400
C  45.20300 16.08200 30.68600
C  42.39400 14.74000 28.71700
C  43.38500 15.44200 32.02100
O  42.36800 14.88000 32.45300
C  44.46800 16.08000 32.92500
C  43.94900 17.13200 33.84300
O  43.70400 18.31900 33.56700
O  43.68500 16.60500 35.07500
C  43.17200 17.57700 36.03300
H  50.30000 19.49500 31.80200
H  50.08300 17.58900 25.53700
H  44.49800 14.96100 26.64100
H  46.55800 17.94100 34.34400
H  49.35200 18.56700 33.76100
H  47.84700 20.63300 32.79000
H  48.72000 20.69000 34.26200
H  46.94200 20.28200 34.20000
H  48.78200 16.00600 33.86800
H  47.25300 15.37900 33.96600
H  48.91200 15.70300 36.23500
H  47.17600 15.28000 36.18500
H  52.03300 20.22400 31.03600
H  52.48200 20.87700 29.52900
H  53.39900 19.47800 30.18900
H  53.06600 20.85700 26.69500
H  54.13800 19.47000 26.14600
H  54.02400 19.76800 27.87700
H  48.54500 16.04900 24.26400
H  45.71500 16.35400 24.58100
H  47.93900 17.76700 22.88600
H  48.22900 18.71600 24.29800
H  46.49400 18.26200 23.96600
H  46.09300 13.84100 25.60400
H  47.62900 13.87100 24.99600
H  46.93800 13.58100 22.82500
H  45.51500 14.64300 22.97200
H  45.39600 12.95400 23.53000
H  42.51300 14.99800 27.66400
H  41.53400 15.29200 29.09600
H  42.21200 13.69300 28.96200
H  44.88100 15.25700 33.50700
H  43.10900 17.08600 37.00400
H  42.14900 17.79400 35.72500
H  43.77700 18.48300 36.06600

