158

Mg 46.75400 25.76400 27.72300
C  47.95600 27.94800 30.34600
C  45.82400 23.40500 30.12400
C  46.04700 23.71100 25.20500
C  48.41200 27.91700 25.43300
N  46.93400 25.69500 29.90200
C  47.30600 26.69700 30.80800
C  46.89100 26.35800 32.24500
C  46.31600 24.92600 32.15200
C  46.28400 24.60900 30.63900
C  46.78300 23.82300 33.09100
C  46.05700 27.45200 33.05700
C  46.75900 27.96300 34.35800
H  45.76400 28.29200 35.54400
N  45.84600 23.86300 27.65000
C  45.74500 23.01700 28.74900
C  45.46900 21.66600 28.23300
C  45.34700 21.77900 26.81000
C  45.75300 23.17300 26.48300
C  45.18000 20.52000 29.20400
C  44.93100 20.78400 25.78800
O  44.98600 20.86600 24.55200
C  44.63300 19.36100 26.24300
N  47.08900 25.79800 25.63200
C  46.54800 24.91100 24.79500
C  46.82800 25.21300 23.29700
C  47.62100 26.54700 23.31500
C  47.62700 26.83600 24.87100
C  47.75300 24.13200 22.68200
C  46.95800 27.78600 22.60800
C  47.90100 28.60900 21.65500
N  47.82000 27.57300 27.84100
C  48.40900 28.34300 26.81900
C  49.13200 29.49700 27.37700
C  48.95100 29.37200 28.72400
C  48.13200 28.25400 28.98500
C  49.97000 30.43300 26.70000
C  49.42700 29.95500 30.03800
O  50.13500 30.86400 30.39000
C  48.67500 29.09800 31.12000
C  49.76400 28.53500 31.99500
O  50.62000 27.78300 31.66000
O  49.75500 29.22700 33.22900
C  50.86900 29.10100 34.15800
H  45.47300 22.63200 30.81200
H  45.73100 23.14200 24.32900
H  48.97100 28.62600 24.81800
H  47.88500 26.16400 32.64900
H  45.27300 25.14300 32.38400
H  45.95000 23.56400 33.74400
H  47.58900 24.09700 33.77300
H  47.00500 22.88100 32.59100
H  45.14400 26.99500 33.44100
H  45.95800 28.34000 32.43300
H  47.29600 28.87000 34.07900
H  47.52800 27.25800 34.67100
H  45.57700 19.52200 29.01500
H  44.09800 20.45200 29.31700
H  45.48300 20.76200 30.22200
H  45.53300 18.90400 26.65200
H  44.35900 18.70700 25.41500
H  43.95000 19.26400 27.08700
H  45.88000 25.18600 22.76100
H  48.68200 26.50200 23.06700
H  48.56000 23.71800 23.28600
H  48.19400 24.45600 21.73900
H  47.25600 23.17400 22.53000
H  46.53600 28.43800 23.37200
H  46.13400 27.29700 22.08900
H  47.78400 28.24500 20.63400
H  48.97800 28.51700 21.80000
H  47.63200 29.66600 21.65700
H  49.66400 30.46300 25.65400
H  51.01100 30.20600 26.92800
H  49.76800 31.41700 27.12200
H  47.89800 29.74600 31.52400
H  51.03600 30.09400 34.57500
H  51.80500 28.67200 33.80200
H  50.64700 28.55900 35.07800
Mg 28.54600 58.35300 42.81700
C  26.34300 56.34400 41.14500
C  31.13000 57.08100 41.00600
C  30.62400 61.07300 43.64100
C  26.03900 60.19200 44.15700
N  28.67200 56.81900 41.31300
C  27.67800 56.10000 40.72900
C  28.13200 54.95900 39.89100
C  29.74500 55.18900 39.95100
C  29.90100 56.41500 40.86300
C  30.64100 53.95000 40.28200
C  27.54200 55.22300 38.48400
C  26.77200 53.97800 37.86900
H  27.22800 53.58700 36.52000
N  30.66900 58.78900 42.64200
C  31.50800 58.09800 41.81400
C  32.81300 58.66000 41.90400
C  32.71000 59.89400 42.60600
C  31.31100 59.96900 43.05300
C  34.04300 58.24400 41.07200
C  33.92500 60.89200 42.82800
O  35.04100 60.62400 42.46900
C  33.78700 62.11800 43.61500
N  28.46100 60.42300 43.72000
C  29.37100 61.33700 44.00200
C  28.88400 62.60700 44.62200
C  27.42000 62.23100 44.95200
C  27.24100 60.85200 44.27100
C  29.61700 63.05400 45.96000
C  26.29700 63.23500 44.55300
C  25.40400 63.63400 45.73800
N  26.58300 58.27100 42.77600
C  25.64600 59.10900 43.34400
C  24.31800 58.57200 43.03700
C  24.53600 57.49800 42.20100
C  25.98100 57.39500 42.03900
C  23.02000 59.12000 43.57500
C  23.90800 56.44200 41.44300
O  22.73500 56.08400 41.45000
C  25.04200 55.62500 40.76700
C  24.93100 54.22600 41.31300
O  25.34200 53.80600 42.37300
O  24.28400 53.49800 40.36100
C  24.05600 52.08500 40.77600
H  31.89900 56.64000 40.36800
H  31.15800 61.95100 44.01000
H  25.25700 60.67800 44.74300
H  27.94400 54.02600 40.42300
H  30.11800 55.51400 38.98000
H  30.15500 52.97500 40.29700
H  31.10800 54.21900 41.22900
H  31.40400 53.75100 39.53000
H  28.35500 55.42900 37.78900
H  26.78200 56.00500 38.44600
H  25.70600 54.19800 37.80200
H  27.02200 53.19300 38.58300
H  33.99300 58.81500 40.14400
H  33.93300 57.21900 40.71800
H  34.99200 58.36600 41.59300
H  33.04500 62.88100 43.38300
H  34.76500 62.59600 43.55700
H  33.73500 61.93200 44.68700
H  28.67400 63.29200 43.80100
H  27.20500 61.98500 45.99200
H  29.40700 64.11400 46.10700
H  30.67200 62.93600 45.71100
H  29.29800 62.48400 46.83200
H  25.63000 62.76100 43.83300
H  26.63500 64.11700 44.00800
H  25.84600 64.26300 46.51000
H  25.07000 62.72200 46.23200
H  24.51400 64.15900 45.39100
H  23.03900 60.21000 43.58300
H  22.86100 58.79900 44.60500
H  22.23600 58.70400 42.94300
H  24.91300 55.56700 39.68600
H  23.81100 52.06200 41.83800
H  24.93300 51.49400 40.51000
H  23.21700 51.70700 40.19200

