158

Mg -1.73100 17.00400 26.79400
C  -2.33600 14.91500 29.57800
C  -2.13900 19.67900 28.86800
C  -1.15900 19.01100 24.10200
C  -2.28500 14.29100 24.82500
N  -2.31300 17.26300 28.97900
C  -2.40400 16.29000 29.95400
C  -2.51300 16.90000 31.34000
C  -2.55300 18.44100 31.11300
C  -2.32700 18.50700 29.56000
C  -3.91500 19.11800 31.65200
C  -1.38400 16.31600 32.35400
C  -0.89800 17.25200 33.48900
H  -0.38300 16.58700 34.76900
N  -1.56100 19.02400 26.52400
C  -1.81000 20.02100 27.53600
C  -1.52500 21.32600 26.97600
C  -1.21800 21.11900 25.58800
C  -1.26800 19.63100 25.34200
C  -1.74400 22.60400 27.76300
C  -0.94900 22.20800 24.55600
O  -0.79700 22.05100 23.37200
C  -0.82800 23.58700 24.99800
N  -1.84600 16.74100 24.78000
C  -1.52200 17.63700 23.85000
C  -1.67500 17.13200 22.44300
C  -2.16300 15.70400 22.74000
C  -2.01900 15.50900 24.16100
C  -2.72600 17.98800 21.63000
C  -1.64900 14.57800 21.78700
C  -0.40500 13.75700 22.05200
N  -1.99000 14.91900 27.10800
C  -2.18200 13.94800 26.17500
C  -2.44000 12.64200 26.74700
C  -2.39200 12.97500 28.10900
C  -2.25000 14.38400 28.26500
C  -2.93100 11.33200 26.11400
C  -2.63100 12.52700 29.52500
O  -2.96100 11.41900 29.90500
C  -2.41200 13.70000 30.52300
C  -1.16200 13.41000 31.32100
O  -0.00700 13.60000 30.99900
O  -1.52100 12.75300 32.46800
C  -0.51700 12.24200 33.37500
H  -2.27200 20.53300 29.53600
H  -0.98900 19.62400 23.21500
H  -2.54300 13.45800 24.16700
H  -3.39600 16.44300 31.78800
H  -1.64600 18.94600 31.44700
H  -4.46200 19.50800 30.79400
H  -3.68000 19.97700 32.28000
H  -4.57900 18.42100 32.16500
H  -0.46400 16.13800 31.79700
H  -1.69600 15.41800 32.88600
H  -1.73800 17.91900 33.68400
H  -0.05000 17.75800 33.02700
H  -1.93300 22.44700 28.82500
H  -2.63200 23.14900 27.44400
H  -0.82000 23.17500 27.67800
H  -0.09700 23.76800 25.78700
H  -1.81100 23.95600 25.29200
H  -0.56000 24.23900 24.16600
H  -0.65100 17.09500 22.07100
H  -3.21700 15.59100 22.48400
H  -3.01000 18.88500 22.18000
H  -3.68700 17.47100 21.63200
H  -2.49600 18.21500 20.59000
H  -1.53100 15.03900 20.80600
H  -2.46800 13.85900 21.77100
H  -0.24200 13.58700 23.11700
H  0.44900 14.18600 21.52800
H  -0.60300 12.81600 21.53900
H  -3.76800 11.60700 25.47100
H  -3.16700 10.64800 26.92900
H  -2.14400 10.91200 25.48700
H  -3.30000 13.78200 31.15000
H  -0.38300 11.21700 33.02900
H  -0.94600 12.14500 34.37300
H  0.42200 12.79100 33.29600
Mg 34.48500 3.31700 30.14500
C  32.20900 3.78800 32.69500
C  36.99700 2.97800 32.51000
C  36.70100 2.60100 27.69100
C  31.96300 3.73100 27.66500
N  34.49500 3.28300 32.37400
C  33.44900 3.51900 33.20000
C  33.88900 3.27800 34.62200
C  35.45400 3.52400 34.50800
C  35.74300 3.18400 33.06800
C  36.09800 4.85100 34.88400
C  33.25400 1.98000 35.14800
C  32.86000 1.95300 36.59100
H  33.33400 3.00500 37.57400
N  36.61900 3.00700 30.07300
C  37.47900 2.88000 31.13700
C  38.87100 2.70500 30.68700
C  38.70400 2.39300 29.30500
C  37.25600 2.65900 28.93900
C  40.09800 2.50700 31.68400
C  39.78900 1.90500 28.36600
O  39.60300 1.51200 27.21000
C  41.18900 1.71100 28.91900
N  34.33900 3.32600 27.92900
C  35.43500 2.98200 27.20900
C  35.11800 2.84400 25.66100
C  33.54900 2.98500 25.68300
C  33.23500 3.45600 27.14000
C  35.91200 3.80900 24.74800
C  32.82900 1.72100 25.24700
C  32.24300 1.70800 23.80600
N  32.55600 3.77300 30.07000
C  31.63500 3.88600 29.06400
C  30.27800 4.13100 29.64500
C  30.50700 4.10700 31.06900
C  31.85500 3.90900 31.29100
C  29.07500 4.36000 28.88800
C  29.90100 4.18600 32.27900
O  28.76500 4.36500 32.58300
C  30.98800 4.16100 33.35400
C  31.12000 5.46200 33.97400
O  31.51100 6.48100 33.40800
O  30.82700 5.30900 35.33000
C  30.95000 6.57900 36.10500
H  37.80400 2.92000 33.24300
H  37.37700 2.35300 26.87000
H  31.16500 3.77000 26.92100
H  33.40300 4.06100 35.20300
H  35.85200 2.78700 35.20500
H  36.74900 4.58000 35.71600
H  35.33600 5.55500 35.21900
H  36.75700 5.21800 34.09700
H  34.13100 1.33400 35.11200
H  32.55800 1.52000 34.44700
H  33.28200 1.00500 36.92500
H  31.79300 1.84700 36.78500
H  39.76400 2.62100 32.71500
H  40.87800 3.26600 31.61500
H  40.57000 1.52800 31.60100
H  41.82600 1.68900 28.03600
H  41.26600 0.78700 29.49200
H  41.44700 2.53500 29.58500
H  35.38000 1.80000 25.49100
H  33.33100 3.85700 25.06700
H  35.28500 4.33100 24.02500
H  36.64700 3.28000 24.14000
H  36.40000 4.55500 25.37500
H  31.98500 1.55000 25.91600
H  33.42200 0.80800 25.19300
H  31.26700 1.22300 23.84100
H  32.92200 1.12100 23.18700
H  32.22900 2.66300 23.28100
H  29.10800 3.79200 27.95800
H  28.71800 5.37300 28.70000
H  28.27300 3.87800 29.44600
H  30.85200 3.36300 34.08400
H  30.12200 7.24600 35.86300
H  31.86000 7.12100 35.84800
H  31.03200 6.42000 37.18000

