158

Mg 16.99500 -1.81900 27.35900
C  16.27500 0.08800 30.10800
C  19.09500 -3.71700 29.39000
C  18.28300 -3.41200 24.60600
C  15.51500 0.62400 25.33100
N  17.80900 -1.60200 29.42700
C  17.06800 -1.02300 30.39200
C  17.57700 -1.36700 31.78500
C  18.70000 -2.36500 31.48800
C  18.54700 -2.59000 30.00000
C  20.15400 -2.07300 31.78800
C  16.42200 -1.77100 32.81300
C  16.50700 -1.23500 34.26900
H  17.80200 -0.53900 34.74500
N  18.34400 -3.40400 27.07000
C  19.01000 -4.10800 28.03200
C  19.60000 -5.29500 27.47200
C  19.36200 -5.23200 26.11200
C  18.62500 -4.01800 25.86000
C  20.33500 -6.22000 28.31200
C  19.82700 -6.21500 25.03700
O  19.50600 -6.20900 23.87000
C  20.68200 -7.39400 25.48600
N  17.07700 -1.30300 25.31300
C  17.61400 -2.14100 24.35500
C  17.54600 -1.50700 22.99500
C  16.35600 -0.50900 23.18200
C  16.29800 -0.37400 24.72400
C  18.83300 -0.82000 22.50900
C  14.96300 -1.13600 22.65400
C  14.33800 -0.55900 21.32600
N  15.90100 -0.04800 27.55700
C  15.38500 0.82400 26.70700
C  14.61000 1.87100 27.36100
C  14.95400 1.59500 28.73700
C  15.80600 0.47600 28.79800
C  13.86100 2.93500 26.75100
C  14.72300 2.04100 30.05300
O  14.08900 2.98500 30.50600
C  15.54600 1.14000 31.03000
C  16.51000 2.02000 31.69100
O  17.59700 2.34500 31.25900
O  16.02300 2.44300 32.93100
C  16.93800 3.39300 33.65300
H  19.61500 -4.39800 30.06800
H  18.61800 -4.00900 23.75500
H  15.13400 1.43500 24.70800
H  18.06600 -0.44600 32.10100
H  18.45500 -3.27500 32.03600
H  20.78500 -2.23800 30.91500
H  20.63900 -2.74300 32.49900
H  20.22600 -1.02200 32.06600
H  16.24900 -2.84700 32.84000
H  15.58100 -1.23400 32.37400
H  16.52800 -2.06900 34.97000
H  15.61700 -0.67900 34.56400
H  20.22700 -7.26300 28.01200
H  20.06600 -6.37800 29.35700
H  21.36900 -5.90100 28.18300
H  19.97500 -8.06300 25.97800
H  21.57300 -7.04400 26.00700
H  21.06000 -7.80800 24.55200
H  17.22600 -2.32400 22.34800
H  16.50300 0.41700 22.62500
H  19.38100 -0.65500 23.43700
H  18.71100 0.09200 21.92500
H  19.49600 -1.48700 21.95900
H  14.23500 -1.20200 23.46300
H  15.15800 -2.18100 22.41300
H  14.96500 0.28000 21.02400
H  13.30500 -0.24800 21.48400
H  14.38600 -1.39500 20.62800
H  14.32200 3.91000 26.90900
H  12.94700 2.91900 27.34400
H  13.60000 2.89700 25.69300
H  14.96400 0.57300 31.75600
H  16.73200 4.41300 33.33000
H  17.98700 3.17200 33.45800
H  16.99700 3.43000 34.74100
Mg -1.58700 34.30200 26.45600
C  -3.13100 32.51600 29.24700
C  -0.19900 36.34600 28.61700
C  -0.66400 36.15400 23.81400
C  -3.65300 32.35100 24.41000
N  -1.45500 34.18500 28.68500
C  -2.19800 33.49100 29.59800
C  -1.81200 33.92800 31.00600
C  -1.19800 35.33400 30.81900
C  -0.85300 35.27000 29.27100
C  -2.01800 36.62200 31.34300
C  -0.97200 32.84800 31.77000
C  -1.48700 32.68300 33.16900
H  -0.41800 32.34400 34.23200
N  -0.56800 35.95600 26.24200
C  -0.00500 36.67000 27.24100
C  0.75600 37.79500 26.64500
C  0.62400 37.80600 25.22600
C  -0.23600 36.61800 25.03300
C  1.67700 38.66000 27.48400
C  1.17600 38.67500 24.08200
O  1.11400 38.36500 22.91200
C  1.88700 39.95900 24.42700
N  -1.93800 34.11200 24.36900
C  -1.52100 35.09900 23.53400
C  -2.15000 34.85300 22.16400
C  -2.85600 33.54100 22.30900
C  -2.79000 33.26700 23.79300
C  -2.97200 35.97700 21.47000
C  -2.25200 32.45700 21.34400
C  -0.94700 31.70500 21.84000
N  -3.19200 32.89200 26.70600
C  -3.87000 32.13900 25.74700
C  -4.81700 31.29100 26.34100
C  -4.55000 31.34800 27.71500
C  -3.58500 32.35500 27.89400
C  -5.79100 30.29500 25.78700
C  -4.88400 30.81800 29.00500
O  -5.71200 29.99800 29.35600
C  -3.99900 31.56200 30.07600
C  -4.95300 32.20000 31.02800
O  -5.77600 33.07300 30.80500
O  -4.58700 31.78000 32.25100
C  -5.37600 32.31900 33.36400
H  0.26400 37.12100 29.23000
H  -0.30500 36.66000 22.91500
H  -4.35200 31.92500 23.68700
H  -2.75300 34.00300 31.55000
H  -0.22600 35.30300 31.31100
H  -2.25100 37.13700 30.41100
H  -1.35700 37.13800 32.04000
H  -2.97800 36.40900 31.81300
H  0.07700 33.13200 31.68800
H  -1.35300 31.92600 31.33100
H  -2.36600 32.04900 33.28700
H  -1.91400 33.63100 33.49700
H  1.54800 38.30700 28.50800
H  1.29100 39.67900 27.51500
H  2.70600 38.67000 27.12400
H  1.46500 40.73100 23.78400
H  2.95800 39.88300 24.23700
H  1.70200 40.39900 25.40700
H  -1.25500 34.62100 21.58700
H  -3.90600 33.63900 22.03500
H  -2.40800 36.47600 20.68300
H  -3.15500 36.71100 22.25500
H  -3.92800 35.75200 20.99700
H  -2.03700 32.85700 20.35300
H  -3.01800 31.68500 21.26600
H  -1.11900 30.65400 22.07200
H  -0.42500 32.19300 22.66300
H  -0.20800 31.81700 21.04700
H  -5.59300 30.24600 24.71600
H  -6.83100 30.54200 26.00300
H  -5.64900 29.36800 26.34200
H  -3.32800 30.84500 30.55000
H  -6.30700 32.83800 33.13600
H  -4.61700 32.94600 33.83300
H  -5.57300 31.47000 34.01800

