158

Mg 50.00400 45.85400 42.29700
C  46.54500 46.65900 41.67000
C  49.22100 42.74900 41.23700
C  53.17100 45.30100 42.39500
C  50.41100 49.23500 43.22600
N  48.00200 44.81100 41.52800
C  46.75500 45.33200 41.39900
C  45.79000 44.29000 40.77900
C  46.66200 42.99700 40.82400
C  48.03800 43.52400 41.22100
C  46.13400 41.83900 41.78300
C  45.64900 44.78600 39.37800
C  44.20000 44.70700 38.80700
H  43.91500 43.47100 37.83000
N  51.03900 44.28700 41.80200
C  50.60500 43.04500 41.46000
C  51.66000 42.15500 41.32500
C  52.86900 42.86500 41.58900
C  52.42300 44.18300 42.04600
C  51.45400 40.70400 40.91500
C  54.31800 42.24400 41.38400
O  54.45500 41.07300 41.17100
C  55.50200 43.17300 41.38400
N  51.63200 47.19000 42.78300
C  52.91400 46.66700 42.72500
C  53.92200 47.75000 43.10500
C  53.04900 48.97700 43.54200
C  51.63600 48.47600 43.16600
C  55.01800 47.43400 44.25700
C  53.53200 50.34000 42.90000
C  53.57300 51.56800 43.84800
N  48.79100 47.64100 42.48400
C  49.09300 48.94600 42.84300
C  47.92900 49.78000 42.85700
C  46.92900 48.95000 42.36200
C  47.47300 47.63700 42.13100
C  47.89600 51.27100 43.21000
C  45.55100 48.90100 41.92100
O  44.75100 49.79900 41.89800
C  45.29300 47.42500 41.37000
C  44.04500 46.94800 42.09800
O  43.92800 46.82800 43.31000
O  42.97800 46.94000 41.20400
C  41.66400 46.52700 41.78000
H  49.00400 41.72200 40.93500
H  54.23300 45.12900 42.58200
H  50.54500 50.25900 43.58200
H  44.89400 44.13800 41.38000
H  46.80000 42.38500 39.93300
H  45.04700 41.91100 41.74200
H  46.61600 41.93500 42.75600
H  46.27000 40.85700 41.33000
H  46.26000 44.20500 38.68700
H  45.98300 45.79500 39.13800
H  43.81800 45.61600 38.34100
H  43.46000 44.55100 39.59200
H  52.37500 40.18800 41.18400
H  51.28200 40.62900 39.84100
H  50.64400 40.27000 41.50100
H  55.82500 43.36500 42.40700
H  55.18800 44.11300 40.93100
H  56.22000 42.70700 40.71000
H  54.50600 47.97500 42.21300
H  52.94000 48.97900 44.62700
H  54.74500 46.46100 44.66500
H  55.00400 48.18300 45.05000
H  55.94100 47.45700 43.67800
H  52.95000 50.58200 42.01000
H  54.44300 50.19400 42.32000
H  54.59000 51.96100 43.83500
H  53.25100 51.25600 44.84200
H  52.91100 52.38200 43.55300
H  46.87200 51.39600 43.56200
H  48.08000 51.87300 42.32000
H  48.60000 51.52100 44.00400
H  45.13700 47.53700 40.29700
H  41.02400 46.46600 40.90000
H  41.21100 47.30500 42.39500
H  41.75000 45.57100 42.29700
Mg -5.37900 26.02100 26.31200
C  -3.71400 27.18900 29.28000
C  -7.16300 23.81900 28.49700
C  -6.43200 24.25700 23.67800
C  -3.33700 27.82800 24.49600
N  -5.47300 25.65200 28.67700
C  -4.76100 26.30600 29.66800
C  -5.34400 25.92500 31.06200
C  -6.12100 24.67700 30.68400
C  -6.28700 24.69000 29.14700
C  -5.39900 23.28100 31.02100
C  -6.23900 26.99100 31.75000
C  -6.28600 27.13400 33.23300
H  -5.64300 25.96300 33.95700
N  -6.69100 24.36900 26.06700
C  -7.35600 23.66100 27.12000
C  -8.31400 22.70700 26.45100
C  -8.03100 22.75500 25.07900
C  -6.99800 23.80800 24.86600
C  -9.33200 21.90800 27.17300
C  -8.60600 21.96000 23.99600
O  -8.27800 22.01400 22.84300
C  -9.84700 21.16300 24.21600
N  -4.95000 26.03500 24.29400
C  -5.47000 25.20300 23.40900
C  -4.78900 25.38400 22.00500
C  -4.03700 26.78400 22.25600
C  -4.07000 26.87300 23.76900
C  -3.89900 24.11400 21.78400
C  -4.70400 27.93300 21.47500
C  -4.01900 28.35400 20.25500
N  -3.93500 27.33500 26.77600
C  -3.17700 28.01900 25.84900
C  -2.18900 28.81400 26.49900
C  -2.35400 28.54700 27.86800
C  -3.42700 27.63600 27.96500
C  -1.27500 29.80700 25.84200
C  -1.87600 28.92400 29.20300
O  -0.94900 29.60700 29.63600
C  -2.79900 28.07200 30.13800
C  -1.99700 27.22900 31.05200
O  -1.35500 26.26500 30.60800
O  -1.89300 27.82900 32.28700
C  -1.42100 26.75600 33.23100
H  -7.78400 23.14100 29.08600
H  -6.69100 23.74400 22.75000
H  -2.65600 28.30900 23.79000
H  -4.60300 25.62500 31.80300
H  -7.10400 24.59100 31.14800
H  -6.11500 22.63600 31.52800
H  -4.49800 23.50400 31.59200
H  -5.17800 22.75100 30.09500
H  -7.25700 26.96600 31.36300
H  -5.78900 27.86400 31.27800
H  -7.32500 27.14200 33.56400
H  -5.73500 28.01400 33.56300
H  -10.27400 22.38600 26.90300
H  -9.07000 22.04300 28.22200
H  -9.38500 20.82800 27.04200
H  -10.38500 21.09000 23.27100
H  -10.51500 21.61600 24.94800
H  -9.56700 20.14600 24.49400
H  -5.52900 25.60300 21.23600
H  -3.01900 26.62000 21.90100
H  -4.06700 23.68600 20.79600
H  -4.06100 23.30000 22.49200
H  -2.84300 24.36400 21.88200
H  -4.79500 28.81400 22.11000
H  -5.75300 27.69000 21.30700
H  -3.42200 29.23500 20.49300
H  -4.68700 28.55900 19.41900
H  -3.43500 27.63100 19.68600
H  -1.64800 30.83100 25.86900
H  -0.94000 29.39600 24.88900
H  -0.36100 29.93900 26.42100
H  -3.40900 28.80300 30.66900
H  -2.12600 25.92700 33.18300
H  -1.29400 27.09600 34.25900
H  -0.46100 26.36800 32.88900

