158

Mg 47.83500 16.22800 27.72900
C  46.09100 16.35200 30.74900
C  50.37100 17.96300 29.21900
C  49.31900 16.60700 24.80200
C  45.01300 14.95200 26.19400
N  48.12000 17.04600 29.68500
C  47.28900 16.93600 30.78400
C  47.92300 17.63100 32.01700
C  49.20200 18.26600 31.46900
C  49.24200 17.69300 30.03500
C  49.14500 19.80300 31.57100
C  48.18600 16.56900 33.13900
C  47.61500 16.88900 34.51600
H  47.46000 18.37900 34.82700
N  49.65600 17.08600 27.12600
C  50.55200 17.70900 27.88900
C  51.74900 17.94100 27.13000
C  51.52900 17.59300 25.81000
C  50.10300 17.06600 25.85000
C  52.94600 18.74500 27.78900
C  52.36600 17.67900 24.55800
O  51.96200 17.24500 23.49600
C  53.79800 18.18600 24.64600
N  47.14200 15.99600 25.69200
C  48.02400 16.07300 24.70200
C  47.33100 15.75400 23.35400
C  46.02800 15.08200 23.89800
C  45.99400 15.39500 25.34900
C  47.14200 17.03200 22.46200
C  45.83000 13.57600 23.65800
C  44.73700 13.25100 22.72600
N  45.89700 15.75000 28.28100
C  44.92700 15.13500 27.61200
C  43.77700 14.84900 28.49400
C  44.16600 15.33700 29.72900
C  45.47200 15.78400 29.60100
C  42.51000 14.16300 28.08900
C  43.75700 15.49300 31.11100
O  42.76700 15.21300 31.75200
C  45.02600 16.16100 31.81200
C  44.54000 17.43500 32.45600
O  44.48200 18.54700 31.94300
O  44.07700 17.16900 33.72900
C  43.44800 18.20500 34.51800
H  51.24900 18.27300 29.78900
H  49.78000 16.71300 23.81700
H  44.17100 14.36600 25.81900
H  47.17600 18.35300 32.34900
H  50.08500 17.93500 32.01600
H  50.11700 20.25600 31.77100
H  48.52800 19.88000 32.46600
H  48.58600 20.14300 30.69900
H  49.24300 16.39300 33.33600
H  47.67600 15.67800 32.77300
H  48.29000 16.34500 35.17700
H  46.67600 16.33800 34.58400
H  53.83200 18.48800 27.20700
H  53.16800 18.28500 28.75100
H  52.77500 19.82000 27.85500
H  54.34800 17.40300 25.16600
H  53.82500 19.15100 25.15300
H  54.16400 18.23700 23.62000
H  47.94400 15.02400 22.82500
H  45.23600 15.63900 23.39600
H  46.19800 16.79900 21.96900
H  47.81700 17.26500 21.63900
H  46.92400 17.88600 23.10300
H  45.59000 13.09000 24.60300
H  46.75600 13.17900 23.24100
H  44.17100 12.33900 22.91400
H  45.22700 12.92700 21.80700
H  44.13500 14.09400 22.38800
H  42.58100 13.11900 27.78600
H  41.88800 14.71400 27.38300
H  41.91600 14.13100 29.00200
H  45.37900 15.42200 32.53100
H  43.49800 17.91100 35.56700
H  42.40500 18.05700 34.23800
H  43.70800 19.21300 34.19500
Mg -1.49900 34.23300 27.05000
C  -3.35500 32.42800 29.49000
C  -0.36100 36.27100 29.45400
C  -0.08500 36.22700 24.65900
C  -3.08100 32.37000 24.54900
N  -1.77900 34.32200 29.22400
C  -2.54400 33.45100 30.02900
C  -2.28700 33.82400 31.50900
C  -1.56900 35.20500 31.47700
C  -1.26300 35.33400 30.00600
C  -2.37400 36.44000 32.16300
C  -1.57700 32.66700 32.30400
C  -2.35100 32.13100 33.52500
H  -1.73400 32.26900 34.90100
N  -0.20100 35.85000 27.02300
C  0.14600 36.53400 28.15000
C  1.00300 37.59200 27.84700
C  1.02600 37.67700 26.42100
C  0.22200 36.56700 25.92900
C  1.62400 38.43700 28.93300
C  1.62800 38.69100 25.49700
O  1.33600 38.85400 24.34400
C  2.71200 39.57300 25.99500
N  -1.83600 34.41600 24.92900
C  -0.93300 35.17200 24.15200
C  -1.16300 34.98800 22.66900
C  -1.78200 33.56800 22.66700
C  -2.32900 33.43100 24.09700
C  -1.98300 36.09300 21.81800
C  -0.89900 32.37200 22.19600
C  -1.53800 31.43900 21.14000
N  -2.91800 32.71900 26.95300
C  -3.45700 32.10900 25.85200
C  -4.42200 31.17100 26.26900
C  -4.40300 31.24700 27.67700
C  -3.43000 32.17300 28.04100
C  -5.15100 30.06700 25.41800
C  -5.06400 30.75200 28.93100
O  -5.97500 29.99700 29.16800
C  -4.40500 31.50500 30.18700
C  -5.42200 32.37300 30.81900
O  -6.03100 33.26900 30.26300
O  -5.58300 31.86300 32.07600
C  -6.65600 32.45700 32.94600
H  -0.15000 37.00800 30.23300
H  0.38800 36.81500 23.86900
H  -3.38200 31.65800 23.77900
H  -3.30900 33.95400 31.86400
H  -0.62000 35.21300 32.01300
H  -3.19400 36.12200 32.80600
H  -2.79000 37.10800 31.40900
H  -1.73200 37.05500 32.79300
H  -0.53400 32.92600 32.48600
H  -1.48100 31.83800 31.60300
H  -2.61700 31.08900 33.34900
H  -3.34300 32.58000 33.48500
H  0.90600 39.15200 29.33500
H  2.53200 38.84500 28.49000
H  1.84700 37.77300 29.76800
H  3.59500 38.99800 26.27500
H  2.38900 40.36300 26.67200
H  3.01200 40.22000 25.17000
H  -0.15100 34.93200 22.26900
H  -2.58700 33.58900 21.93200
H  -2.79900 35.63900 21.25500
H  -1.32600 36.64700 21.14800
H  -2.47600 36.78800 22.49800
H  -0.46400 31.77800 23.00000
H  -0.05300 32.68400 21.58300
H  -1.56200 30.40600 21.48700
H  -0.97200 31.38700 20.21000
H  -2.56000 31.75800 20.93600
H  -6.20000 30.10900 25.71100
H  -4.68000 29.14400 25.75500
H  -5.03000 30.18700 24.34200
H  -3.95900 30.80500 30.89200
H  -7.02800 33.37300 32.48700
H  -6.21100 32.87600 33.84800
H  -7.57800 31.89900 33.10900

