158

Mg 41.12500 8.81600 28.46700
C  42.77700 9.87700 31.35500
C  38.94900 7.01000 30.50900
C  39.52300 7.73000 25.80400
C  43.82200 9.94300 26.61400
N  40.87200 8.55400 30.74800
C  41.79800 8.92700 31.69600
C  41.32500 8.55300 33.11000
C  40.18400 7.49100 32.72800
C  40.01600 7.61300 31.25000
C  40.63500 6.07200 33.20400
C  40.94700 9.69300 34.09200
C  40.13000 9.42300 35.35800
H  40.76700 9.74600 36.73000
N  39.37100 7.64100 28.19600
C  38.58700 7.08800 29.15300
C  37.39800 6.56400 28.51200
C  37.50700 6.77900 27.12300
C  38.85800 7.40100 26.98800
C  36.19200 6.01400 29.32800
C  36.45600 6.60000 26.04400
O  36.74400 6.77200 24.85800
C  35.17400 6.12300 26.41000
N  41.60300 8.75800 26.49100
C  40.78400 8.22100 25.57900
C  41.45600 8.41900 24.26400
C  42.84500 9.10100 24.44000
C  42.75800 9.35100 25.93700
C  41.43900 7.18100 23.24900
C  43.17000 10.31900 23.60600
C  42.65200 11.63800 24.16200
N  42.86800 9.83500 28.80700
C  43.88900 10.21800 27.93800
C  44.91100 10.85800 28.62800
C  44.50300 10.88200 29.99300
C  43.27400 10.18100 29.99800
C  46.17800 11.40100 28.14400
C  44.85900 11.22100 31.34100
O  45.76600 11.93800 31.74600
C  43.75300 10.58900 32.26400
C  44.44700 9.64600 33.21200
O  44.92000 8.54700 32.92500
O  44.60600 10.25100 34.40900
C  45.28000 9.43000 35.43600
H  38.12900 6.63800 31.12700
H  39.10400 7.42000 24.84400
H  44.70500 10.28500 26.06900
H  42.19800 7.98300 33.42900
H  39.23700 7.84500 33.13600
H  40.21100 5.95200 34.20000
H  41.68900 6.10900 33.48000
H  40.52800 5.34800 32.39600
H  40.39800 10.43200 33.50900
H  41.85100 10.20300 34.42500
H  39.76700 8.39600 35.40200
H  39.27400 10.09500 35.29200
H  36.35100 5.90600 30.40100
H  36.01200 5.02600 28.90400
H  35.25600 6.56200 29.22000
H  35.21200 5.07100 26.69100
H  34.48600 6.16800 25.56600
H  34.69300 6.79800 27.11800
H  40.80400 9.13200 23.76000
H  43.60100 8.32600 24.31600
H  40.91700 6.30600 23.63700
H  42.43900 7.00600 22.85000
H  40.96300 7.54200 22.33700
H  42.66100 10.20900 22.64800
H  44.24600 10.22900 23.45700
H  42.25800 12.21200 23.32400
H  43.41700 12.32600 24.52100
H  41.79800 11.56000 24.83500
H  46.11800 12.47900 27.99900
H  46.67100 10.80400 27.37700
H  46.80500 11.41300 29.03600
H  43.28100 11.41600 32.79400
H  44.66200 9.59200 36.31900
H  46.31500 9.68800 35.65800
H  45.28200 8.36000 35.22800
Mg 46.41300 24.84200 28.43600
C  47.29900 26.87900 31.20300
C  45.84100 22.33300 30.67200
C  46.01700 22.83800 25.78700
C  47.71900 27.36300 26.34700
N  46.57200 24.66400 30.69000
C  46.78200 25.65000 31.57600
C  46.45700 25.22000 33.02800
C  46.18200 23.62300 32.82100
C  46.21800 23.53800 31.27200
C  47.16800 22.68500 33.52200
C  45.24400 25.99600 33.69500
C  45.45500 26.87700 35.03000
H  44.52700 26.63300 36.24600
N  45.94200 22.89300 28.28700
C  45.69700 22.01700 29.32100
C  45.24900 20.76400 28.77200
C  45.19500 20.90000 27.39900
C  45.71600 22.25800 27.09200
C  45.14200 19.51900 29.67300
C  44.75700 19.81700 26.45700
O  44.90000 19.94400 25.21100
C  44.22600 18.58100 26.92200
N  46.98600 24.97800 26.44800
C  46.55400 24.09500 25.50000
C  46.91300 24.43600 24.08900
C  47.08100 26.01500 24.24500
C  47.33400 26.18900 25.78500
C  48.11600 23.59900 23.41500
C  45.85100 26.83800 23.73300
C  44.46000 26.19900 23.98300
N  47.28600 26.74300 28.66300
C  47.80400 27.58700 27.71400
C  48.33300 28.76100 28.39500
C  48.10400 28.56400 29.78100
C  47.52900 27.29100 29.88200
C  49.02400 29.99400 27.85200
C  48.27100 29.22400 31.11400
O  48.76300 30.32900 31.41900
C  47.72900 28.08000 32.08300
C  48.82700 27.71000 33.04500
O  49.74500 26.89300 32.79500
O  48.52500 28.33500 34.25400
C  49.35700 27.91400 35.35800
H  45.42400 21.64500 31.41000
H  45.93300 22.14300 24.95000
H  47.90000 28.27800 25.78000
H  47.38800 25.21200 33.59400
H  45.12800 23.50500 33.07500
H  47.65600 23.21800 34.33900
H  47.95000 22.36300 32.83400
H  46.45400 21.92400 33.83800
H  44.52500 25.20200 33.89900
H  44.88300 26.65900 32.90900
H  45.29200 27.92900 34.79200
H  46.51200 26.86000 35.29300
H  44.13200 19.15900 29.86800
H  45.74700 19.49100 30.58000
H  45.71000 18.72900 29.18100
H  44.92800 17.90400 27.40900
H  43.76500 18.06700 26.07800
H  43.46900 18.87700 27.64900
H  45.99800 24.12400 23.58500
H  48.01400 26.32500 23.77500
H  48.87800 24.28400 23.04300
H  47.66600 23.06500 22.57800
H  48.47200 22.87500 24.14800
H  45.95100 26.94500 22.65300
H  45.84200 27.86300 24.10300
H  44.19600 25.61900 23.09900
H  43.76200 27.00900 24.19500
H  44.40400 25.47600 24.79700
H  48.49000 30.91700 28.07700
H  49.35800 29.93900 26.81600
H  49.93500 30.09000 28.44300
H  46.80700 28.30100 32.62000
H  48.92000 27.05700 35.87000
H  49.36800 28.75600 36.04900
H  50.41200 27.78000 35.11800

