158

Mg 55.29700 24.28600 44.51700
C  52.90600 26.55200 43.39700
C  53.43400 21.75000 43.11100
C  58.09100 22.24700 44.64700
C  57.35400 26.90400 45.25100
N  53.47200 24.18200 43.25400
C  52.62700 25.26100 42.98600
C  51.29200 24.72300 42.44900
C  51.36600 23.12500 42.61500
C  52.84000 22.99000 43.07000
C  50.29300 22.37300 43.49600
C  50.94300 25.05900 41.00100
C  49.49500 25.10700 40.49300
H  49.14800 24.96800 39.01500
N  55.68000 22.19800 44.03300
C  54.74300 21.37400 43.42000
C  55.37600 20.01400 43.26300
C  56.74100 20.11200 43.75500
C  56.92900 21.53200 44.17000
C  54.64200 18.85500 42.59400
C  57.81300 18.94800 43.81900
O  57.53000 17.82200 43.42100
C  59.15900 19.17600 44.41800
N  57.33400 24.50500 44.95000
C  58.26200 23.53700 45.05700
C  59.67100 24.08300 45.30500
C  59.41800 25.61000 45.37100
C  57.94100 25.70300 45.18100
C  60.54800 23.38500 46.32800
C  60.11800 26.37900 44.21900
C  61.07100 27.50200 44.67600
N  55.10900 26.29100 44.62500
C  56.00700 27.24800 44.99000
C  55.38700 28.54600 45.09800
C  54.16200 28.30500 44.38900
C  54.02400 26.93000 44.15600
C  56.09400 29.78900 45.59700
C  52.97600 28.97000 43.94800
O  52.63000 30.15000 44.09500
C  52.13800 27.90600 43.12500
C  52.35000 28.30100 41.72700
O  53.34700 28.18100 41.08400
O  51.16600 28.70500 41.15900
C  51.23000 28.73700 39.66900
H  52.81600 20.96400 42.67200
H  59.00700 21.68200 44.83300
H  58.00600 27.69600 45.62500
H  50.57100 25.08100 43.18300
H  51.21800 22.82200 41.57800
H  50.71000 21.86000 44.36200
H  49.62000 21.73800 42.92000
H  49.65200 23.06500 44.04300
H  51.50800 24.39600 40.34600
H  51.37900 26.04200 40.82100
H  49.04600 26.08200 40.68300
H  48.82700 24.46000 41.06200
H  54.78200 17.87100 43.04100
H  55.19300 18.54500 41.70600
H  53.57600 19.06400 42.50000
H  59.66300 19.82600 43.70300
H  59.71400 18.24100 44.50800
H  58.98300 19.62300 45.39600
H  60.19600 23.84700 44.37900
H  59.68200 25.88900 46.39100
H  60.29300 22.35900 46.59500
H  60.53100 24.04700 47.19400
H  61.59100 23.30200 46.02300
H  59.34700 26.91600 43.66700
H  60.68600 25.76100 43.52300
H  61.41200 27.37600 45.70400
H  60.73700 28.50800 44.42400
H  61.92900 27.36000 44.01900
H  55.40800 30.63100 45.50700
H  57.03900 29.99700 45.09500
H  56.33800 29.64100 46.64900
H  51.10300 27.94300 43.46500
H  51.79000 29.58200 39.26900
H  50.20800 28.77000 39.29200
H  51.59100 27.81900 39.20400
Mg 0.53500 41.99700 25.39100
C  1.81600 41.89500 28.75500
C  -2.39400 40.95700 26.51200
C  -0.26100 41.22800 22.27200
C  3.80500 42.87700 24.34900
N  -0.20600 41.57500 27.38900
C  0.41200 41.60400 28.58900
C  -0.52300 41.34200 29.75900
C  -1.79100 40.77100 29.09500
C  -1.44900 41.11900 27.55600
C  -2.05800 39.26700 29.39600
C  -0.69900 42.79200 30.35700
C  -0.99800 42.72300 31.95100
H  -1.66300 41.51000 32.69300
N  -1.18600 41.38900 24.43500
C  -2.33900 41.09900 25.09500
C  -3.37800 40.88000 24.13000
C  -2.73600 40.90000 22.81500
C  -1.33700 41.16500 23.15200
C  -4.84500 40.67800 24.41700
C  -3.37100 40.75200 21.42300
O  -2.72400 40.97600 20.40400
C  -4.86000 40.56100 21.38500
N  1.60100 42.00700 23.64800
C  1.06600 41.61600 22.43300
C  2.09500 41.69100 21.37900
C  3.10700 42.67500 21.95900
C  2.86800 42.47000 23.43100
C  2.63200 40.33500 20.74200
C  3.09200 44.19700 21.55400
C  3.98200 44.59300 20.34500
N  2.47100 42.21600 26.32400
C  3.65300 42.67600 25.73800
C  4.67700 42.96600 26.78400
C  4.02700 42.63900 28.06500
C  2.67500 42.16800 27.67400
C  6.05400 43.45500 26.53500
C  4.09500 42.47700 29.48100
O  4.99900 42.59700 30.24400
C  2.70200 42.06000 29.92600
C  2.73000 40.77100 30.68800
O  2.90100 39.62400 30.30900
O  2.28800 41.08600 31.97200
C  1.81200 39.97400 32.77400
H  -3.39100 40.58500 26.75700
H  -0.42100 40.87500 21.25100
H  4.78200 43.17800 23.96600
H  0.08600 40.70500 30.40100
H  -2.70100 41.28900 29.39500
H  -2.41400 39.22000 30.42500
H  -1.22400 38.62400 29.11500
H  -2.83800 38.86600 28.74700
H  -1.57500 43.14800 29.81400
H  0.18900 43.36300 30.08800
H  -1.52000 43.65000 32.18600
H  0.02900 42.92100 32.25700
H  -5.37700 41.53700 24.00600
H  -5.00800 40.77300 25.49100
H  -5.26200 39.73100 24.07600
H  -5.27400 40.29600 20.41200
H  -5.32800 41.48000 21.73600
H  -4.96800 39.67100 22.00500
H  1.70900 42.24700 20.52500
H  4.05100 42.21500 21.66900
H  1.89000 39.53700 20.78600
H  3.50500 39.96100 21.27700
H  2.83400 40.54300 19.69200
H  3.42700 44.85500 22.35600
H  2.08600 44.52700 21.29300
H  3.33900 44.95100 19.54100
H  4.51700 43.74300 19.92000
H  4.74500 45.33500 20.58000
H  6.09600 44.17700 25.72000
H  6.73900 42.67100 26.21500
H  6.34500 43.94000 27.46700
H  2.35200 42.86800 30.56900
H  1.51600 40.56200 33.64300
H  2.62300 39.25900 32.91600
H  0.91000 39.51800 32.36500

