158

Mg 16.75000 -1.66000 27.73500
C  15.50100 0.39100 30.41300
C  18.53900 -3.41900 30.02200
C  18.44900 -3.32300 25.07500
C  15.05800 0.21200 25.51300
N  16.92800 -1.53800 29.96300
C  16.39100 -0.63200 30.83100
C  16.90900 -0.80100 32.27900
C  17.92500 -2.02100 32.09100
C  17.81100 -2.37200 30.60600
C  19.40600 -1.90800 32.59700
C  15.62400 -1.04200 33.17200
C  15.76000 -0.58100 34.72700
H  17.16200 -0.22200 35.28300
N  18.21000 -3.15900 27.57500
C  18.81300 -3.74200 28.63200
C  19.71500 -4.80500 28.20000
C  19.60700 -4.84600 26.76300
C  18.71400 -3.78200 26.41800
C  20.61200 -5.57700 29.18200
C  20.17500 -5.86500 25.76900
O  19.92400 -5.82700 24.59600
C  21.20400 -6.97000 26.20200
N  16.85200 -1.58900 25.57000
C  17.54400 -2.26500 24.71300
C  17.37600 -1.72400 23.19500
C  16.24500 -0.66000 23.44700
C  16.00200 -0.67500 24.95000
C  18.69500 -1.16200 22.62200
C  14.95800 -0.89600 22.56900
C  14.42900 0.35400 21.97600
N  15.57500 -0.04000 27.90400
C  14.85800 0.61900 26.87000
C  14.04000 1.73400 27.39700
C  14.26800 1.67300 28.78200
C  15.17500 0.56900 29.02300
C  13.20800 2.61000 26.55900
C  13.90900 2.33000 30.04900
O  13.21600 3.31500 30.30700
C  14.69400 1.54500 31.16400
C  15.58400 2.47700 31.96800
O  16.78500 2.73200 31.75300
O  14.85400 3.00900 32.97700
C  15.73200 3.62300 34.03500
H  19.21800 -3.83200 30.77100
H  18.96800 -3.79100 24.23500
H  14.48700 0.76600 24.76500
H  17.42700 0.02700 32.76300
H  17.46500 -2.88000 32.58200
H  19.48900 -0.98400 33.16900
H  20.12200 -1.77600 31.78500
H  19.65100 -2.81800 33.14400
H  15.38400 -2.10100 33.07400
H  14.80500 -0.51700 32.67900
H  15.44200 -1.38700 35.38900
H  15.02000 0.19800 34.90700
H  20.52000 -6.64000 28.95900
H  20.37500 -5.30300 30.21000
H  21.64200 -5.26000 29.01600
H  20.68600 -7.84200 26.60100
H  21.81200 -6.44800 26.94100
H  21.85500 -7.18200 25.35400
H  17.00600 -2.55200 22.58900
H  16.57300 0.37500 23.35000
H  18.39400 -0.51200 21.80100
H  19.28000 -1.93900 22.12900
H  19.20700 -0.44600 23.26500
H  14.19200 -1.24700 23.26000
H  15.22500 -1.66000 21.83900
H  14.30300 0.20400 20.90400
H  15.04700 1.22900 22.18000
H  13.45200 0.60200 22.39000
H  13.74700 3.54900 26.43600
H  12.28500 2.94800 27.03200
H  13.02400 2.21800 25.55900
H  13.96100 1.20700 31.89700
H  15.24100 3.66500 35.00700
H  16.04300 4.59900 33.66100
H  16.53700 2.92300 34.26000
Mg 48.53800 35.47000 28.27900
C  46.58600 33.55200 30.65000
C  48.75700 37.88400 30.40400
C  49.42400 37.29700 25.62700
C  47.66300 32.82000 25.94600
N  47.81100 35.58500 30.33200
C  47.02900 34.74300 31.17500
C  46.92000 35.38400 32.54400
C  47.21000 36.95300 32.24200
C  48.02200 36.75000 30.92600
C  45.93600 37.92400 32.11900
C  47.60400 34.72500 33.71900
C  48.76400 35.34600 34.57400
H  48.41200 35.99400 35.94900
N  49.22300 37.29600 28.12000
C  49.28600 38.12500 29.15600
C  49.85000 39.39600 28.76500
C  50.02600 39.28000 27.28800
C  49.51900 37.93400 26.88800
C  49.99600 40.52600 29.74800
C  50.54700 40.36400 26.32100
O  50.40500 40.21600 25.11300
C  51.12800 41.67300 26.84100
N  48.56100 35.12900 26.10300
C  48.96400 36.08100 25.19300
C  48.89700 35.67700 23.69900
C  48.46400 34.16600 23.90900
C  48.12700 34.04100 25.41100
C  47.92900 36.56200 22.85200
C  49.49200 33.22600 23.38400
C  50.58400 32.62700 24.34300
N  47.56200 33.55900 28.33000
C  47.34200 32.62700 27.28900
C  46.75800 31.42100 27.83200
C  46.30200 31.80700 29.06500
C  46.81400 33.09900 29.36400
C  46.52800 30.10500 27.09600
C  45.43700 31.48800 30.13000
O  44.69300 30.53000 30.28500
C  45.47000 32.62500 31.17100
C  45.71100 32.00400 32.50200
O  46.53600 31.20500 32.69300
O  44.79900 32.38400 33.41500
C  44.86100 31.67600 34.76200
H  48.70300 38.62000 31.21000
H  49.74300 37.96200 24.82200
H  47.40800 32.12200 25.14700
H  45.86300 35.32900 32.80400
H  47.73800 37.49600 33.02500
H  46.21900 38.70800 31.41700
H  45.45600 38.32700 33.01100
H  45.17300 37.36100 31.58300
H  47.97100 33.79600 33.28200
H  46.81100 34.39800 34.39100
H  49.33900 36.05700 33.98100
H  49.36800 34.47400 34.82300
H  48.99500 40.88900 29.98100
H  50.67100 41.29500 29.37100
H  50.50500 40.07600 30.60000
H  51.89000 41.40900 27.57400
H  50.34300 42.24100 27.34100
H  51.47600 42.26600 25.99500
H  49.94000 35.80400 23.40800
H  47.60500 33.95000 23.27400
H  47.13700 35.93400 22.44300
H  48.49600 37.15500 22.13400
H  47.43900 37.22800 23.56200
H  50.01800 33.70400 22.55800
H  48.86500 32.40800 23.03000
H  50.75200 33.43000 25.06200
H  51.54800 32.55800 23.83900
H  50.25200 31.67000 24.74500
H  47.36100 29.82500 26.45100
H  45.64300 30.18200 26.46500
H  46.33100 29.29700 27.80000
H  44.52700 33.14200 31.34600
H  45.54000 30.82400 34.73500
H  43.87300 31.36100 35.09800
H  45.18900 32.35700 35.54700

