158

Mg 43.78600 41.76600 26.48400
C  42.73700 44.18000 28.83000
C  44.73900 39.79200 29.06900
C  44.77800 39.59500 24.22800
C  43.17900 44.24200 23.99000
N  43.89100 42.12200 28.71700
C  43.25200 43.07700 29.45200
C  43.15200 42.64500 30.96100
C  44.11400 41.43600 31.00700
C  44.37400 41.13400 29.50100
C  45.44800 41.66700 31.83700
C  41.63300 42.56900 31.37400
C  41.27700 41.70300 32.56900
H  40.61600 42.32400 33.84700
N  44.67700 39.97300 26.64900
C  44.95800 39.26400 27.79400
C  45.40300 37.90800 27.43900
C  45.52500 37.89000 26.05200
C  45.02100 39.15200 25.55500
C  45.74200 36.73400 28.48700
C  45.98000 36.73200 25.14500
O  45.88600 36.70100 23.91000
C  46.55400 35.46600 25.79100
N  43.92900 41.91200 24.34700
C  44.38600 40.87300 23.64800
C  44.33500 41.13700 22.12700
C  43.79400 42.64400 22.09600
C  43.60600 42.99200 23.52200
C  45.75300 41.02300 21.38000
C  42.52300 42.89300 21.20300
C  42.66100 43.98900 20.28000
N  43.08000 43.69900 26.33700
C  42.90000 44.58800 25.29100
C  42.32700 45.83300 25.76100
C  42.24900 45.67900 27.14700
C  42.77100 44.43100 27.46900
C  42.01100 46.93400 24.92800
C  41.90600 46.46700 28.40400
O  41.48000 47.56400 28.56400
C  42.11700 45.37500 29.55500
C  42.96500 45.99100 30.55500
O  44.11200 46.40900 30.41900
O  42.15500 46.25700 31.72400
C  42.82400 46.89500 32.87900
H  45.05100 39.04900 29.80600
H  45.02400 38.89300 23.42800
H  43.08800 45.05600 23.26800
H  43.54800 43.52500 31.46800
H  43.67300 40.55300 31.47100
H  46.34100 41.33300 31.30900
H  45.32500 40.99900 32.69000
H  45.52500 42.68900 32.21000
H  41.04100 42.14300 30.56400
H  41.37400 43.61600 31.53000
H  42.07500 41.04800 32.92000
H  40.55800 40.94600 32.25400
H  44.96600 35.98400 28.64000
H  45.85500 37.32300 29.39700
H  46.76000 36.35900 28.37700
H  46.93400 34.86500 24.96500
H  45.79000 34.95400 26.37500
H  47.40500 35.62800 26.45300
H  43.59100 40.49300 21.65900
H  44.61300 43.28900 21.77800
H  46.52800 41.38700 22.05500
H  45.77300 41.59100 20.45000
H  45.79600 39.96900 21.10800
H  41.76400 43.23100 21.90800
H  42.18200 41.99500 20.68800
H  43.64200 44.06600 19.81100
H  42.29100 44.90700 20.73600
H  42.02200 43.73900 19.43300
H  42.97800 47.43100 24.84400
H  41.39100 47.62200 25.50200
H  41.58400 46.65100 23.96600
H  41.12700 45.17800 29.96500
H  42.73900 46.29000 33.78200
H  42.55100 47.92600 33.10400
H  43.89100 46.93900 32.65900
Mg 9.99500 47.15500 25.88200
C  7.44400 47.45300 28.41700
C  12.19400 48.28700 28.24800
C  12.25100 47.04400 23.38400
C  7.41300 46.61000 23.46800
N  9.79700 47.94600 28.11200
C  8.72100 47.80000 28.93200
C  9.20000 47.77700 30.46200
C  10.64400 48.43100 30.30900
C  10.90400 48.19400 28.81100
C  10.76800 49.94000 30.62500
C  9.26000 46.30200 31.02100
C  8.76700 46.03400 32.40700
H  9.86800 45.67000 33.39400
N  11.95300 47.66800 25.81800
C  12.64300 48.07400 26.86400
C  14.01000 48.23400 26.40900
C  14.10400 47.98400 24.96900
C  12.72800 47.48400 24.67800
C  15.12400 48.61300 27.42100
C  15.27900 48.08900 23.94100
O  15.24200 47.93600 22.73800
C  16.62800 48.47800 24.52400
N  9.84400 46.77600 23.77700
C  10.93600 46.73800 23.00300
C  10.61400 46.27000 21.54500
C  9.06800 46.09900 21.53600
C  8.71200 46.54700 23.04000
C  11.07900 47.27400 20.44800
C  8.57100 44.63900 21.02800
C  8.16000 44.47100 19.55000
N  7.91400 47.12100 25.84100
C  7.04400 46.81300 24.77100
C  5.61600 46.84800 25.30600
C  5.76600 47.01100 26.71500
C  7.14800 47.24900 27.01200
C  4.33200 46.70700 24.50300
C  5.02500 47.04800 27.95800
O  3.86000 46.82000 28.14300
C  6.06600 47.41700 29.09800
C  5.85600 46.49400 30.23200
O  5.79900 45.23900 30.22800
O  5.66600 47.26000 31.35000
C  5.13200 46.71600 32.59700
H  12.90300 48.71200 28.96100
H  13.01300 47.10700 22.60400
H  6.69300 46.55800 22.64900
H  8.39800 48.29500 30.98900
H  11.35000 47.76700 30.80800
H  11.40700 50.15400 31.48200
H  9.75000 50.21900 30.89800
H  11.17400 50.40800 29.72800
H  10.30000 45.98300 30.94500
H  8.68400 45.64800 30.36700
H  8.10400 45.16900 32.39200
H  8.24500 46.91100 32.79000
H  15.90300 47.87800 27.22200
H  14.74600 48.49700 28.43700
H  15.45800 49.64200 27.29000
H  16.57200 49.29700 25.24100
H  17.29500 48.61800 23.67400
H  16.96200 47.57300 25.03200
H  11.04200 45.29700 21.30600
H  8.60200 46.84300 20.89000
H  11.45600 48.22200 20.83100
H  10.42700 47.45200 19.59300
H  11.92900 46.73300 20.03100
H  7.73900 44.25000 21.61600
H  9.40300 43.98500 21.29100
H  7.34300 45.17600 19.39800
H  7.82700 43.45500 19.33900
H  8.96300 44.77500 18.87900
H  3.83900 45.74600 24.64500
H  4.65000 46.85500 23.47000
H  3.55300 47.37900 24.86500
H  5.78000 48.43000 29.38200
H  5.14400 45.63400 32.72900
H  4.17700 47.18400 32.83700
H  5.87200 47.03500 33.33100

