158

Mg -1.98700 17.73000 27.37400
C  -2.84200 15.50200 30.10100
C  -2.61300 20.23200 29.43800
C  -1.67000 19.50500 24.77900
C  -1.93700 14.74700 25.31700
N  -2.92700 17.84300 29.45000
C  -2.97200 16.86100 30.44200
C  -2.99300 17.46100 31.84400
C  -3.15200 18.97800 31.58700
C  -2.83100 19.04200 30.03800
C  -4.62800 19.45600 31.90200
C  -1.71100 16.94600 32.62900
C  -1.25000 17.82500 33.78200
H  -0.92200 17.04500 35.10800
N  -2.08900 19.66300 27.14400
C  -2.36100 20.57200 28.08500
C  -2.26100 21.91500 27.55700
C  -2.05200 21.71500 26.18100
C  -1.89800 20.27700 26.05400
C  -2.37500 23.15400 28.33700
C  -1.90200 22.76800 25.07300
O  -1.65800 22.46300 23.88300
C  -2.28500 24.12100 25.35600
N  -1.76900 17.22200 25.38000
C  -1.72300 18.15300 24.48600
C  -1.67800 17.60600 23.07000
C  -1.45000 16.11400 23.24700
C  -1.65900 16.01800 24.75800
C  -2.89300 17.85700 22.14200
C  -0.02600 15.56800 22.63800
C  1.27000 16.31800 22.89900
N  -2.23700 15.64400 27.54800
C  -2.19700 14.58700 26.64900
C  -2.44800 13.31900 27.29200
C  -2.69300 13.66600 28.62300
C  -2.56500 15.06000 28.76800
C  -2.51600 11.92400 26.64200
C  -3.08400 13.12700 29.93100
O  -3.28400 12.00200 30.26900
C  -2.98200 14.26200 30.96700
C  -1.80600 13.98100 31.77300
O  -0.61800 14.28200 31.43200
O  -2.19900 13.37600 32.93000
C  -1.12300 12.99900 33.79200
H  -2.57000 21.05200 30.15800
H  -1.59100 20.13900 23.89300
H  -1.79800 13.87200 24.67900
H  -3.78700 17.16000 32.52700
H  -2.44500 19.60200 32.13300
H  -5.31400 19.46900 31.05500
H  -4.62100 20.45100 32.34600
H  -5.05800 18.85500 32.70300
H  -0.94400 16.81400 31.86600
H  -1.95000 16.01200 33.13700
H  -1.95400 18.60800 34.06600
H  -0.35400 18.31700 33.40100
H  -1.61000 23.84600 27.98500
H  -2.40800 23.08200 29.42400
H  -3.29200 23.68800 28.08800
H  -2.30600 24.78100 24.48900
H  -1.51300 24.42500 26.06200
H  -3.29500 24.05400 25.76000
H  -0.82900 18.05900 22.55900
H  -2.22000 15.43400 22.88200
H  -3.46300 16.98700 21.81300
H  -2.47000 18.39000 21.29100
H  -3.60600 18.58200 22.53300
H  -0.19600 15.41900 21.57200
H  0.04400 14.60700 23.14800
H  1.62200 16.56300 21.89700
H  1.89200 15.62300 23.46300
H  1.00800 17.20400 23.47900
H  -1.50600 11.51700 26.61100
H  -3.00700 12.02600 25.67400
H  -3.10700 11.37400 27.37400
H  -3.89900 14.43100 31.53200
H  -1.44100 12.12100 34.35400
H  -0.77800 13.75400 34.49800
H  -0.27400 12.74700 33.15600
Mg -10.27100 37.87300 41.12600
C  -8.15500 35.34100 40.12600
C  -8.22100 40.17500 39.51700
C  -12.64400 40.37600 41.71900
C  -12.69600 35.49000 41.87800
N  -8.43000 37.76900 39.89500
C  -7.68300 36.62400 39.68100
C  -6.40900 36.90900 38.91300
C  -6.37100 38.49200 38.74400
C  -7.71300 38.87200 39.55500
C  -5.04900 39.22500 39.25000
C  -6.21700 36.08400 37.62000
C  -7.47100 36.05800 36.68200
H  -7.20600 35.97900 35.17000
N  -10.41600 40.00400 40.77000
C  -9.45800 40.68000 40.07300
C  -9.84300 42.07500 39.92500
C  -11.07500 42.17800 40.65000
C  -11.44800 40.81300 41.06700
C  -9.06100 43.12400 39.16600
C  -11.89200 43.46900 40.84100
O  -11.36400 44.56800 40.59600
C  -13.27300 43.55000 41.42400
N  -12.40900 37.89500 41.58700
C  -13.04100 39.03800 41.96400
C  -14.46800 38.76700 42.51300
C  -14.54500 37.18400 42.42100
C  -13.05200 36.85000 42.02200
C  -14.83400 39.39000 43.90100
C  -15.52900 36.52200 41.41500
C  -16.13600 35.13300 41.84700
N  -10.38700 35.77400 41.17400
C  -11.46800 34.97500 41.44600
C  -11.04200 33.57700 41.41500
C  -9.71800 33.69500 40.91200
C  -9.36400 35.09800 40.72400
C  -11.77400 32.35900 41.95900
C  -8.48800 32.98300 40.47900
O  -8.19700 31.80400 40.30400
C  -7.47600 34.01500 39.96800
C  -6.11900 33.97200 40.55400
O  -5.60800 34.84500 41.28300
O  -5.57200 32.71200 40.36400
C  -4.37600 32.32700 41.12700
H  -7.60100 40.94100 39.04700
H  -13.44400 41.08300 41.94800
H  -13.35800 34.68100 42.19600
H  -5.61400 36.63300 39.60600
H  -6.45000 38.82700 37.71000
H  -5.31100 40.16000 39.74400
H  -4.37000 39.36200 38.40900
H  -4.60200 38.59800 40.02100
H  -5.85000 35.08800 37.87100
H  -5.50100 36.52000 36.92400
H  -8.01900 36.98400 36.85800
H  -8.21800 35.35300 37.04700
H  -9.41700 44.13700 38.97800
H  -9.02400 42.64400 38.18800
H  -8.01900 43.03100 39.47200
H  -13.17800 43.37300 42.49500
H  -13.82100 42.78700 40.87200
H  -13.77600 44.51500 41.35000
H  -15.18200 39.03900 41.73500
H  -14.72600 36.87700 43.45100
H  -15.09300 38.64800 44.65700
H  -15.79100 39.87800 43.71600
H  -14.16100 40.06000 44.43700
H  -15.15300 36.47000 40.39400
H  -16.43700 37.11500 41.30300
H  -17.22000 35.23200 41.79400
H  -15.77900 34.76300 42.80800
H  -15.87200 34.33500 41.15300
H  -11.32600 31.40900 41.66900
H  -12.82100 32.42300 41.66400
H  -11.82500 32.30600 43.04600
H  -7.30200 33.87500 38.90200
H  -3.93000 31.48200 40.60400
H  -4.57000 32.16300 42.18700
H  -3.65400 33.12800 40.96600

