158

Mg 34.37700 3.40600 29.30600
C  32.45300 4.24300 31.97600
C  37.05900 2.82400 31.51900
C  36.55000 2.81100 26.64800
C  31.81000 3.92500 27.15800
N  34.70000 3.53400 31.45700
C  33.72900 3.86600 32.34000
C  34.26200 3.87500 33.79000
C  35.79300 3.64300 33.70200
C  35.86600 3.24200 32.13800
C  36.65100 4.96500 33.98500
C  33.49700 2.86900 34.70200
C  33.20700 3.35400 36.06800
H  33.90900 4.41500 36.79800
N  36.46800 2.84000 29.13000
C  37.32900 2.57500 30.11400
C  38.62500 2.35500 29.64600
C  38.55800 2.33600 28.22600
C  37.17000 2.69500 27.92400
C  39.82200 2.14700 30.59800
C  39.65600 2.03800 27.16900
O  39.45600 2.12800 25.91500
C  41.07500 1.59000 27.76100
N  34.18900 3.36400 27.21800
C  35.20300 3.04200 26.26800
C  34.78700 3.35700 24.84800
C  33.27000 3.65300 25.00200
C  33.08700 3.66000 26.56300
C  35.60300 4.46900 24.12200
C  32.39100 2.66400 24.12400
C  31.89500 1.37800 24.86200
N  32.45900 3.92400 29.47100
C  31.52500 4.07600 28.51000
C  30.28000 4.55400 29.09300
C  30.62600 4.62400 30.48000
C  31.96200 4.22100 30.62900
C  29.09300 4.81600 28.21700
C  30.06600 4.92000 31.79700
O  28.92500 5.10500 32.24500
C  31.25600 4.68200 32.82900
C  31.43000 5.94300 33.59500
O  32.11800 6.91300 33.31400
O  30.60300 5.90300 34.69300
C  30.59000 7.15700 35.45500
H  37.81500 2.74500 32.30300
H  37.08700 2.81900 25.69700
H  31.08800 4.14000 26.36800
H  34.08400 4.89700 34.12300
H  36.15000 2.78700 34.27600
H  36.03300 5.56200 34.65600
H  36.95600 5.57100 33.13200
H  37.53400 4.74000 34.58200
H  34.02700 1.92900 34.54300
H  32.56900 2.68600 34.16000
H  33.47100 2.55700 36.76300
H  32.13600 3.51100 36.19600
H  40.71300 2.59700 30.16100
H  40.12900 1.13000 30.84100
H  39.66500 2.68300 31.53400
H  41.69000 1.20000 26.95000
H  41.00500 0.79700 28.50500
H  41.65700 2.45100 28.09100
H  34.86400 2.37400 24.38400
H  33.11700 4.66300 24.62000
H  36.09100 3.88300 23.34200
H  36.32600 4.98800 24.75000
H  34.89900 5.20300 23.73000
H  32.88500 2.31700 23.21600
H  31.52900 3.27100 23.84600
H  32.44700 1.27800 25.79600
H  32.06900 0.50300 24.23500
H  30.81600 1.48300 24.97800
H  28.69800 3.98600 27.62900
H  29.48800 5.57300 27.54000
H  28.24500 5.21000 28.77700
H  30.84200 3.94200 33.51300
H  29.78200 7.14600 36.18700
H  30.48000 8.11100 34.93900
H  31.57600 7.24700 35.91100
Mg 9.91400 46.77800 25.39200
C  7.50300 47.09000 27.74300
C  12.32600 47.75600 27.51900
C  12.42100 46.40800 22.82300
C  7.54100 46.22200 22.89300
N  9.86300 47.31600 27.37000
C  8.78900 47.34100 28.20500
C  9.23300 47.50700 29.67600
C  10.56400 48.24000 29.38800
C  10.96200 47.86300 27.91400
C  10.66200 49.72600 29.67800
C  9.43200 46.22800 30.57300
C  10.11800 46.51700 31.94600
H  9.44100 45.93300 33.15700
N  12.12700 46.91500 25.25700
C  12.87900 47.33000 26.30800
C  14.27500 47.33200 25.93800
C  14.38100 46.82600 24.59200
C  12.95700 46.66800 24.14700
C  15.39100 47.96600 26.77200
C  15.60800 46.58300 23.74100
O  15.47900 46.22500 22.58500
C  17.02600 46.72400 24.25600
N  10.05500 46.46600 23.20400
C  11.09600 46.45500 22.36800
C  10.73000 46.26500 20.87600
C  9.23000 46.15600 20.94200
C  8.87200 46.27700 22.42900
C  11.37100 47.42400 19.98600
C  8.71800 44.79700 20.41400
C  8.10200 44.79600 19.05000
N  7.88100 46.62500 25.24700
C  7.01600 46.39600 24.21700
C  5.60500 46.35000 24.79500
C  5.78200 46.47000 26.18500
C  7.16700 46.78900 26.37600
C  4.32700 46.17100 24.00500
C  5.07500 46.47600 27.43800
O  3.86000 46.31400 27.73100
C  6.21400 46.87100 28.48200
C  6.35500 45.71600 29.51200
O  6.86100 44.61000 29.34100
O  5.78900 46.13400 30.66300
C  5.54400 45.11500 31.70500
H  12.87400 48.12200 28.38900
H  13.12200 46.36100 21.98700
H  6.75300 45.97800 22.17800
H  8.60800 48.26300 30.15100
H  11.35400 47.77500 29.97900
H  9.85200 50.04900 30.33100
H  10.72600 50.23200 28.71500
H  11.58100 49.86600 30.24700
H  10.07100 45.57000 29.98400
H  8.48500 45.71900 30.75600
H  10.35100 47.57200 32.09000
H  11.09300 46.05100 31.80200
H  15.81300 48.83800 26.27300
H  16.04600 47.14000 27.04900
H  15.08100 48.31700 27.75700
H  17.08600 47.77200 24.55000
H  17.78700 46.45400 23.52300
H  17.16500 46.03500 25.08800
H  11.14900 45.28500 20.64500
H  8.80600 46.91300 20.28200
H  11.78200 48.18000 20.65500
H  10.63100 47.76300 19.26100
H  12.12700 46.92000 19.38400
H  7.98300 44.32300 21.06400
H  9.51500 44.05700 20.35900
H  8.53600 45.54600 18.38900
H  7.01900 44.91500 19.04500
H  8.28000 43.82800 18.58100
H  4.16200 45.09500 23.96200
H  4.68000 46.50500 23.02900
H  3.49800 46.69500 24.48000
H  5.95600 47.73800 29.09000
H  4.50900 45.03500 32.03700
H  6.17600 45.47800 32.51600
H  5.84900 44.09800 31.45800

