158

Mg 23.81700 -5.43500 46.49600
C  26.09700 -3.42800 44.79200
C  21.32500 -4.58700 44.35100
C  22.14400 -8.18900 47.42600
C  26.69900 -7.12300 47.85600
N  23.78800 -4.16100 44.84500
C  24.76000 -3.33600 44.36400
C  24.22100 -2.44400 43.26200
C  22.62200 -2.80800 43.23500
C  22.59300 -3.89500 44.27800
C  21.71900 -1.56100 43.50700
C  25.01000 -2.69300 41.83600
C  25.48600 -1.49200 41.06100
H  25.44400 -1.61600 39.55000
N  21.95000 -6.17400 46.11600
C  21.04500 -5.65900 45.21800
C  19.79600 -6.38100 45.29800
C  20.02900 -7.44700 46.17500
C  21.44000 -7.30400 46.64400
C  18.53700 -6.07200 44.52200
C  18.93600 -8.42400 46.64300
O  17.89700 -8.48000 46.06900
C  19.24500 -9.45600 47.75300
N  24.40400 -7.39200 47.62000
C  23.38600 -8.27100 47.93600
C  23.99300 -9.46200 48.71100
C  25.54600 -9.03900 48.93500
C  25.57000 -7.81200 48.06200
C  23.21800 -9.90800 49.97000
C  26.56300 -10.23300 48.70100
C  27.10800 -10.48500 47.38600
N  25.91400 -5.19600 46.57900
C  26.90600 -5.89400 47.19700
C  28.17400 -5.27400 46.92100
C  27.88000 -4.25400 46.06600
C  26.48900 -4.25100 45.81600
C  29.47300 -5.82200 47.38000
C  28.51700 -3.30300 45.18900
O  29.70500 -3.01000 45.04500
C  27.32500 -2.69300 44.35200
C  27.16500 -1.21300 44.68200
O  26.78900 -0.79300 45.75200
O  27.56800 -0.42700 43.61100
C  27.77100 0.98500 43.85700
H  20.58100 -4.36800 43.58300
H  21.70500 -9.12400 47.78100
H  27.59100 -7.59900 48.26700
H  24.38200 -1.43100 43.63100
H  22.43300 -3.12600 42.21000
H  21.95000 -1.20900 44.51200
H  20.69400 -1.91700 43.40100
H  22.09900 -0.84400 42.78000
H  24.34600 -3.12400 41.08700
H  25.85600 -3.37000 41.95500
H  26.50300 -1.45100 41.45200
H  24.87200 -0.71200 41.51100
H  18.57400 -5.12200 43.98900
H  17.66700 -6.07900 45.17900
H  18.29000 -6.78900 43.74000
H  18.28600 -9.91800 47.98700
H  19.54700 -8.97700 48.68500
H  19.99400 -10.20900 47.50900
H  23.86500 -10.33000 48.06400
H  25.59900 -8.69500 49.96800
H  23.84400 -10.06300 50.84900
H  22.66600 -10.79700 49.66600
H  22.49900 -9.09200 50.04800
H  26.06400 -11.17700 48.92000
H  27.43000 -10.14800 49.35500
H  28.18200 -10.65800 47.31100
H  26.85600 -9.77500 46.59900
H  26.72100 -11.46500 47.10600
H  29.68000 -6.73100 46.81600
H  29.45400 -5.94500 48.46300
H  30.35900 -5.22900 47.15100
H  27.54800 -2.90800 43.30600
H  27.28400 1.47600 43.01400
H  28.81000 1.31200 43.89000
H  27.27600 1.32600 44.76600
Mg 36.43500 49.38600 25.24600
C  36.69500 47.61000 28.12700
C  35.34400 51.99500 26.99800
C  36.00300 51.02900 22.23600
C  37.68500 46.61100 23.43200
N  35.89700 49.64300 27.29500
C  36.29200 48.85200 28.32200
C  36.06200 49.43500 29.74500
C  35.28400 50.77300 29.28300
C  35.56300 50.85300 27.77700
C  33.79300 50.64200 29.69400
C  37.41400 49.77900 30.46900
C  37.47200 49.55700 31.97100
H  36.20200 49.67200 32.82100
N  35.56600 51.22300 24.71100
C  35.31800 52.20900 25.61200
C  34.81800 53.39300 24.87300
C  34.95600 53.03800 23.45600
C  35.49400 51.67000 23.41000
C  34.50200 54.70300 25.53300
C  34.59000 53.89200 22.17900
O  34.78600 53.54600 21.01500
C  33.92900 55.23800 22.37600
N  36.68700 48.86000 23.08400
C  36.44900 49.70800 22.07000
C  36.73700 49.07500 20.67300
C  37.67600 47.89100 21.17200
C  37.29600 47.74200 22.67100
C  35.42100 48.55300 20.03400
C  39.24500 47.99200 20.88300
C  39.74700 46.78400 20.09200
N  37.07300 47.53500 25.66000
C  37.46900 46.51800 24.80000
C  37.87900 45.41100 25.62200
C  37.62500 45.78700 26.95200
C  37.03900 47.06400 26.89200
C  38.48600 44.11800 25.17300
C  37.74000 45.48900 28.38300
O  38.28100 44.63300 29.04300
C  36.98100 46.63000 29.27200
C  35.71100 46.00100 29.88000
O  34.64500 45.90700 29.35200
O  36.08200 45.76800 31.16300
C  34.94500 45.30300 31.95400
H  35.03900 52.82900 27.63500
H  35.95600 51.55600 21.28100
H  38.15300 45.79700 22.87500
H  35.45300 48.76000 30.34600
H  35.58600 51.68400 29.79900
H  33.29800 50.65600 28.72300
H  33.54100 51.54800 30.24700
H  33.51400 49.72600 30.21600
H  37.55100 50.84700 30.30000
H  38.19100 49.26100 29.90600
H  38.09000 50.35100 32.39100
H  38.06800 48.68500 32.23800
H  34.99900 55.56500 25.09000
H  34.59000 54.66000 26.61800
H  33.41700 54.79400 25.48300
H  33.24100 55.31200 23.21800
H  33.32400 55.44600 21.49400
H  34.71900 55.95400 22.60100
H  37.34300 49.76900 20.09100
H  37.39800 46.89300 20.83400
H  35.69500 47.77000 19.32700
H  34.88200 49.43700 19.69400
H  34.83200 48.01800 20.77900
H  39.81200 47.98000 21.81400
H  39.55800 48.89200 20.35300
H  38.97300 46.10500 19.73500
H  40.55200 46.29900 20.64500
H  40.16200 47.13000 19.14500
H  39.30300 44.39700 24.50700
H  37.78100 43.37400 24.80400
H  38.93400 43.69900 26.07400
H  37.62700 46.98900 30.07300
H  33.94900 45.68800 31.73400
H  35.17600 45.81600 32.88800
H  34.96300 44.22800 32.12800

