158

Mg 9.51600 3.57100 27.57200
C  10.53200 1.84300 30.38100
C  7.61200 5.62000 29.68600
C  8.04900 4.91000 24.80800
C  10.88700 1.03800 25.52800
N  9.12600 3.72500 29.81300
C  9.64900 2.89100 30.75200
C  9.51600 3.53400 32.13700
C  8.54100 4.72600 31.82900
C  8.40800 4.72100 30.40500
C  7.13400 4.76100 32.48200
C  10.85300 4.08000 32.82200
C  10.59700 4.88200 34.06900
H  11.37500 4.26000 35.28600
N  8.29100 5.18600 27.28000
C  7.54800 5.85500 28.30700
C  6.73800 6.88500 27.64200
C  6.90100 6.74900 26.24400
C  7.81800 5.60100 26.02300
C  5.87200 7.79100 28.42400
C  6.30500 7.52600 25.09100
O  6.69000 7.42200 23.88800
C  5.30000 8.53400 25.44900
N  9.37900 2.99600 25.42500
C  8.78400 3.70500 24.55500
C  8.82300 2.94200 23.16500
C  9.95400 1.99000 23.38000
C  10.09400 1.96200 24.82300
C  7.44800 2.32500 22.79500
C  11.30300 2.39600 22.68800
C  12.07900 1.31500 22.02200
N  10.54500 1.82200 27.83600
C  11.07000 0.91100 26.94600
C  11.61100 -0.22800 27.63800
C  11.58000 0.17600 29.00800
C  10.85500 1.36700 29.04100
C  12.15000 -1.50000 27.10600
C  11.91400 -0.20400 30.37400
O  12.63100 -1.13500 30.76900
C  11.28000 0.87800 31.28000
C  10.44600 0.24400 32.39900
O  9.49600 -0.51000 32.27100
O  10.82900 0.74700 33.60900
C  10.07400 0.15600 34.76200
H  7.09300 6.35500 30.30400
H  7.34000 5.26400 24.05700
H  11.48600 0.31800 24.96700
H  9.11100 2.83400 32.86900
H  9.09400 5.65300 31.98300
H  6.55700 4.25100 31.71100
H  6.76700 5.76100 32.71000
H  6.97700 4.18500 33.39400
H  11.45300 4.61700 32.08700
H  11.52800 3.26200 33.07200
H  9.53400 4.89400 34.30800
H  10.99400 5.89500 33.99900
H  5.67400 7.63200 29.48400
H  4.89900 7.87400 27.94000
H  6.31300 8.78600 28.36900
H  5.73300 9.22100 26.17600
H  4.45100 7.98100 25.85200
H  4.88100 8.99600 24.55500
H  9.13700 3.77400 22.53400
H  9.82600 0.93600 23.13300
H  6.69700 2.30300 23.58400
H  7.71300 1.29700 22.54700
H  7.15000 2.84200 21.88300
H  11.99600 2.76100 23.44600
H  11.15300 3.19600 21.96300
H  11.41800 0.86000 21.28400
H  12.47400 0.63000 22.77200
H  12.96500 1.74000 21.54900
H  12.97100 -1.77600 27.76700
H  12.51800 -1.47000 26.08100
H  11.37400 -2.26100 27.19700
H  12.12500 1.39100 31.74000
H  10.28000 -0.91400 34.75400
H  9.00200 0.32800 34.85500
H  10.55800 0.53600 35.66200
Mg 41.28900 40.82800 26.44000
C  40.68600 43.16100 29.03300
C  42.24900 38.61000 29.02400
C  42.21000 38.76000 24.04000
C  40.62600 43.33600 24.14800
N  41.44100 40.88500 28.81500
C  41.11000 41.95500 29.59400
C  40.99900 41.45200 31.05400
C  41.81200 40.11100 31.00100
C  41.88200 39.82300 29.54100
C  43.27000 40.11500 31.62800
C  39.49800 41.48200 31.50400
C  39.24800 42.47600 32.67400
H  39.56600 41.95500 34.05300
N  42.02100 38.91300 26.50700
C  42.40900 38.17100 27.65300
C  43.03600 36.88400 27.28800
C  42.98700 36.90900 25.88600
C  42.43100 38.26500 25.38500
C  43.48700 35.85300 28.24300
C  43.30300 35.77400 24.93900
O  43.32700 35.83000 23.72500
C  43.73100 34.39700 25.49900
N  41.29900 41.00600 24.38500
C  41.68700 39.98600 23.57200
C  41.49500 40.28700 22.15600
C  40.74500 41.65400 22.19000
C  40.91700 42.05400 23.62400
C  42.82400 40.19700 21.34200
C  39.27200 41.51500 21.74500
C  38.30500 40.64200 22.67700
N  40.78100 42.81400 26.55600
C  40.55900 43.77800 25.48500
C  40.24100 45.07000 26.02000
C  40.20500 44.82400 27.46300
C  40.62700 43.46800 27.69800
C  40.08300 46.32200 25.21600
C  40.02700 45.56500 28.66600
O  39.67500 46.70600 29.00500
C  40.22500 44.45900 29.80500
C  41.21600 45.04100 30.66100
O  42.44800 44.86300 30.57300
O  40.66700 45.81100 31.67400
C  41.54700 46.35700 32.71000
H  42.58300 37.86200 29.74600
H  42.50600 38.04200 23.27300
H  40.28900 44.16000 23.51700
H  41.55500 42.16900 31.65900
H  41.21800 39.37500 31.54200
H  43.97400 39.75600 30.87700
H  43.22900 39.43600 32.48000
H  43.47800 41.10000 32.04500
H  39.20400 40.50400 31.88700
H  38.82300 41.68900 30.67400
H  38.22500 42.85200 32.70200
H  39.85600 43.34700 32.42900
H  42.72800 35.09100 28.41400
H  43.64100 36.29300 29.22800
H  44.45600 35.48900 27.90000
H  44.68700 34.65800 25.95400
H  43.68700 33.65600 24.70000
H  43.10700 34.06500 26.32900
H  40.82000 39.53900 21.74000
H  41.20600 42.43900 21.58900
H  42.77900 39.36100 20.64500
H  43.60600 40.13300 22.09900
H  42.96200 41.14300 20.81700
H  39.22600 41.05600 20.75800
H  38.85600 42.52200 21.71300
H  38.25100 39.59600 22.37400
H  37.37200 41.20500 22.68900
H  38.72300 40.68800 23.68200
H  39.15900 46.59700 24.70800
H  40.78800 46.35600 24.38500
H  40.37100 47.18300 25.81800
H  39.24300 44.38600 30.27400
H  41.61500 45.56300 33.45300
H  41.22400 47.31300 33.12400
H  42.54000 46.54500 32.30200

