158

Mg 24.99600 -6.27200 47.51300
C  26.51900 -3.62400 45.76200
C  22.34500 -6.19800 45.34000
C  24.17900 -9.26300 48.60800
C  28.14400 -6.54400 49.29300
N  24.65300 -5.18400 45.60700
C  25.34100 -4.04600 45.18500
C  24.67300 -3.45600 43.90300
C  23.21400 -4.07300 44.04200
C  23.35000 -5.25500 45.07000
C  22.12200 -2.96200 44.44700
C  25.45900 -3.88700 42.62600
C  25.93700 -2.75400 41.77400
H  25.21000 -2.38300 40.44000
N  23.36200 -7.54300 47.16600
C  22.37300 -7.31000 46.24300
C  21.49700 -8.46600 46.23200
C  22.04500 -9.46600 47.10500
C  23.24400 -8.78400 47.71300
C  20.29800 -8.49200 45.28300
C  21.50400 -10.84400 47.42500
O  20.50900 -11.21200 46.74800
C  21.92600 -11.77200 48.52300
N  26.01300 -7.64600 48.82900
C  25.39300 -8.78900 49.12100
C  26.29300 -9.78600 49.88500
C  27.64200 -8.96100 49.95500
C  27.30500 -7.65200 49.35400
C  25.86600 -10.37100 51.28400
C  28.82800 -9.60000 49.26200
C  29.84400 -10.29200 50.17300
N  26.91300 -5.22200 47.67800
C  28.03500 -5.40100 48.47300
C  29.00000 -4.27200 48.32500
C  28.39700 -3.50600 47.29100
C  27.25800 -4.23400 46.85700
C  30.18800 -4.03300 49.25100
C  28.52100 -2.32500 46.40900
O  29.37900 -1.47900 46.40700
C  27.38600 -2.42400 45.34800
C  26.68500 -1.02500 45.50200
O  27.21500 0.02400 45.13600
O  25.49400 -1.19900 46.25200
C  24.79100 0.00500 46.68700
H  21.48200 -5.95600 44.71600
H  23.96300 -10.25000 49.02200
H  29.05200 -6.65900 49.88800
H  24.55200 -2.38300 44.05600
H  22.89400 -4.40000 43.05300
H  21.68500 -3.15100 45.42800
H  21.39000 -3.02400 43.64200
H  22.56100 -1.96700 44.37000
H  24.80400 -4.51000 42.01700
H  26.33600 -4.48700 42.86800
H  27.00700 -2.89900 41.62600
H  25.93400 -1.79900 42.30000
H  20.20500 -9.40600 44.69600
H  20.28900 -7.74200 44.49200
H  19.48200 -8.42300 46.00300
H  22.85400 -12.23200 48.18500
H  21.22900 -12.60600 48.61500
H  21.98600 -11.23900 49.47200
H  26.23000 -10.70300 49.29800
H  28.01800 -8.81800 50.96800
H  26.61600 -10.19700 52.05600
H  25.48500 -11.38600 51.17400
H  25.12400 -9.65300 51.63500
H  29.39000 -8.79400 48.79000
H  28.51400 -10.28900 48.47800
H  30.12600 -11.30600 49.89100
H  29.29300 -10.47200 51.09600
H  30.66400 -9.58100 50.27100
H  30.18500 -2.95200 49.38800
H  31.03500 -4.33900 48.63600
H  30.12300 -4.58700 50.18800
H  27.87200 -2.60500 44.39000
H  23.98400 -0.38000 47.31000
H  24.39200 0.46500 45.78200
H  25.42200 0.67400 47.27300
Mg 43.86200 4.36100 48.29700
C  41.66400 6.82800 47.45800
C  41.41500 2.05000 47.66800
C  46.25100 1.86300 48.36000
C  46.52700 6.69200 48.27900
N  41.80300 4.49800 47.32600
C  41.07700 5.59400 47.38200
C  39.60100 5.26100 46.89000
C  39.54100 3.74400 47.23600
C  40.98400 3.43200 47.46500
C  38.69200 3.35300 48.51600
C  39.36100 5.60000 45.37200
C  38.38500 6.77600 45.06500
H  37.51100 6.76400 43.79800
N  43.85900 2.27300 48.09600
C  42.73400 1.55500 47.89100
C  43.11100 0.11900 47.97300
C  44.51400 0.07600 48.18800
C  44.91500 1.41700 48.23800
C  42.09700 -0.99000 47.72400
C  45.31700 -1.24700 48.26900
O  44.74300 -2.31600 48.28900
C  46.79500 -1.27000 48.33200
N  46.07800 4.28600 48.48500
C  46.80700 3.14000 48.48500
C  48.24200 3.53300 48.93300
C  48.38400 5.02500 48.69700
C  46.91200 5.38400 48.49300
C  48.69500 3.12900 50.41500
C  49.30500 5.34600 47.55300
C  50.39700 6.38000 47.72000
N  44.08900 6.32800 48.11700
C  45.18600 7.19400 48.12700
C  44.76400 8.58100 47.84100
C  43.38600 8.47700 47.58000
C  43.04700 7.12100 47.81300
C  45.66700 9.68400 47.67600
C  42.16300 9.21700 47.29500
O  42.03600 10.36900 47.09400
C  40.99000 8.22400 47.31900
C  40.03300 8.52800 48.42900
O  40.22700 8.10100 49.57200
O  38.95400 9.21800 48.01400
C  37.79400 9.21300 48.89800
H  40.67500 1.25400 47.77700
H  47.04900 1.12500 48.47000
H  47.35800 7.37700 48.09900
H  38.96800 5.90600 47.49900
H  39.39800 3.15000 46.33300
H  39.30900 3.04800 49.36100
H  37.95400 2.56100 48.38900
H  38.10700 4.20800 48.85400
H  38.86600 4.75500 44.89300
H  40.23200 5.79400 44.74600
H  39.08700 7.58600 44.86800
H  37.69500 7.09100 45.84700
H  42.33900 -1.51200 46.79900
H  41.06000 -0.65500 47.68400
H  42.18500 -1.72200 48.52700
H  47.08100 -0.83200 49.28800
H  47.10500 -0.62300 47.51100
H  47.24700 -2.26100 48.28000
H  48.80500 2.89900 48.24800
H  48.61500 5.57900 49.60700
H  49.38700 2.29100 50.32700
H  47.79500 2.87400 50.97400
H  49.15300 3.97700 50.92400
H  48.64900 5.77400 46.79500
H  49.70500 4.42200 47.13500
H  50.71400 6.23900 48.75300
H  50.12400 7.41900 47.53400
H  51.18400 6.12700 47.00900
H  46.25800 9.77000 48.58800
H  45.06600 10.58900 47.59200
H  46.36900 9.53100 46.85700
H  40.41200 8.31100 46.39900
H  37.62100 10.26000 49.14700
H  37.89100 8.62800 49.81300
H  36.91500 8.85200 48.36400

