158

Mg -11.57300 16.97100 41.79400
C  -8.28200 15.49900 41.35300
C  -10.21500 19.96500 40.44600
C  -14.67500 18.16700 41.38100
C  -12.71000 13.86400 42.27600
N  -9.46000 17.57700 40.87000
C  -8.34100 16.77300 40.90400
C  -7.21300 17.63600 40.35400
C  -7.76000 19.14000 40.25500
C  -9.23200 18.91600 40.51900
C  -7.19000 20.26100 41.23400
C  -6.60500 17.02100 39.07400
C  -5.17800 17.55500 38.77000
H  -5.00100 18.56000 37.61300
N  -12.36000 18.79600 41.12600
C  -11.61900 19.88500 40.68200
C  -12.51900 21.08900 40.57800
C  -13.83900 20.62300 40.93400
C  -13.70400 19.12400 41.16700
C  -12.11200 22.48700 40.16900
C  -15.04700 21.41200 41.00900
O  -14.97900 22.64000 40.84600
C  -16.40400 20.89300 41.42000
N  -13.43800 16.12500 41.87900
C  -14.56200 16.84000 41.76500
C  -15.84600 16.00000 42.10300
C  -15.22200 14.55900 42.18100
C  -13.68500 14.80600 42.14000
C  -16.58900 16.34700 43.38400
C  -15.55300 13.65200 40.92600
C  -16.20900 12.26900 41.33200
N  -10.67000 15.05500 41.97500
C  -11.30600 13.87000 42.14800
C  -10.23900 12.90100 42.43000
C  -9.05100 13.47700 42.12800
C  -9.31800 14.78500 41.83000
C  -10.52000 11.43900 42.83300
C  -7.59300 13.27100 42.04100
O  -6.82000 12.34300 42.25900
C  -7.03700 14.59200 41.53000
C  -6.05500 15.17100 42.54800
O  -6.38100 15.94700 43.42800
O  -4.74300 14.70700 42.26900
C  -3.62700 15.35400 42.99300
H  -9.74400 20.89100 40.11100
H  -15.70900 18.51800 41.38100
H  -13.05300 12.86200 42.53800
H  -6.49500 17.64100 41.17500
H  -7.68200 19.57400 39.25800
H  -7.93400 20.31900 42.02900
H  -7.18800 21.17800 40.64400
H  -6.16300 20.07900 41.55000
H  -7.34000 17.37800 38.35300
H  -6.62200 15.93300 39.00100
H  -4.62200 16.73600 38.31400
H  -4.68400 17.87600 39.68700
H  -12.30200 23.16700 41.00000
H  -12.61400 22.76200 39.24100
H  -11.06200 22.42800 39.88100
H  -17.14800 21.67300 41.58200
H  -16.31400 20.39300 42.38500
H  -16.67300 20.26000 40.57500
H  -16.59000 16.07200 41.31000
H  -15.57900 14.08600 43.09500
H  -17.67700 16.38800 43.32000
H  -16.22000 17.32600 43.69000
H  -16.35700 15.54900 44.08900
H  -14.66500 13.45500 40.32600
H  -16.30600 14.17800 40.33900
H  -17.17900 12.08800 40.87000
H  -16.24800 12.07300 42.40400
H  -15.48100 11.54500 40.96500
H  -11.26800 10.94900 42.21000
H  -10.96500 11.36600 43.82500
H  -9.62200 10.84000 42.67800
H  -6.46300 14.41600 40.62000
H  -2.96700 15.93100 42.34600
H  -3.13600 14.49100 43.44400
H  -3.94300 15.99700 43.81400
Mg -5.59000 25.73500 26.08000
C  -3.86300 27.13700 28.89300
C  -7.02200 23.54700 28.23000
C  -6.69400 24.22500 23.45500
C  -3.86500 28.05700 24.00100
N  -5.46600 25.38900 28.28900
C  -4.72200 26.04400 29.19900
C  -4.97100 25.51600 30.64500
C  -5.99600 24.35800 30.40900
C  -6.15300 24.45200 28.88900
C  -5.56200 23.02500 30.95800
C  -5.53400 26.60300 31.60500
C  -6.73300 26.28800 32.55300
H  -6.51400 25.05000 33.51700
N  -6.78000 24.15700 25.87800
C  -7.33200 23.36100 26.86900
C  -8.22200 22.36300 26.27900
C  -8.17300 22.59600 24.84600
C  -7.19900 23.70600 24.68900
C  -9.09300 21.43500 27.14600
C  -8.91200 21.89600 23.81700
O  -8.72900 22.04500 22.60700
C  -10.06600 21.02100 24.17400
N  -5.44900 26.14900 24.08400
C  -5.96800 25.32800 23.18300
C  -5.42400 25.67100 21.78100
C  -4.85000 27.07000 21.92200
C  -4.71800 27.09500 23.43000
C  -4.49600 24.52800 21.21900
C  -5.92300 28.16400 21.44400
C  -5.54700 28.95500 20.17400
N  -4.06600 27.20200 26.36200
C  -3.51800 28.09200 25.43000
C  -2.76800 29.09800 26.14800
C  -2.87800 28.79600 27.49000
C  -3.59000 27.59000 27.59200
C  -2.21800 30.32200 25.41900
C  -2.51400 29.17100 28.83200
O  -1.95500 30.12800 29.17700
C  -3.09300 28.07000 29.83500
C  -1.90800 27.55600 30.57000
O  -0.93100 26.96200 30.05900
O  -2.11800 27.74400 31.95900
C  -0.96000 27.37600 32.77400
H  -7.50700 22.87300 28.94000
H  -7.03200 23.67500 22.57500
H  -3.44000 28.78600 23.30800
H  -4.00300 25.12200 30.95500
H  -6.97400 24.55600 30.84900
H  -4.76200 22.62900 30.33200
H  -6.37500 22.35100 31.22500
H  -5.01500 23.08100 31.89900
H  -5.77300 27.51800 31.06300
H  -4.62100 26.75000 32.18100
H  -7.58300 26.15400 31.88400
H  -6.84500 27.19200 33.15100
H  -8.90000 20.37800 26.96600
H  -10.10400 21.76100 26.89900
H  -9.07300 21.59100 28.22500
H  -10.37000 20.40200 23.33000
H  -10.95100 21.58100 24.47600
H  -9.76800 20.23400 24.86700
H  -6.24500 25.62300 21.06700
H  -3.88800 27.06500 21.40900
H  -3.53800 24.93500 20.89700
H  -4.87500 23.94000 20.38300
H  -4.30800 23.80100 22.00900
H  -6.15500 28.92400 22.19100
H  -6.89900 27.77400 21.15500
H  -4.53700 28.67600 19.87400
H  -5.42600 30.00700 20.43300
H  -6.33600 28.88000 19.42500
H  -1.35600 30.06100 24.80500
H  -2.02100 31.13700 26.11500
H  -2.95200 30.64100 24.67900
H  -3.83500 28.64200 30.39100
H  -1.18800 27.52300 33.82900
H  -0.15600 28.05400 32.48700
H  -0.67200 26.35400 32.52500

