158

Mg 44.36300 4.20200 47.56000
C  42.16000 6.77400 47.36700
C  41.75800 1.87600 47.29100
C  46.68200 1.65500 47.03400
C  46.99100 6.51500 47.10000
N  42.24800 4.30000 47.27600
C  41.56900 5.50000 47.31300
C  40.04600 5.12500 47.07200
C  40.00500 3.68400 47.69500
C  41.45700 3.27300 47.28100
C  39.54800 3.62900 49.19100
C  39.67100 5.24600 45.53700
C  38.92200 6.41300 44.90100
H  39.59700 7.33500 43.81000
N  44.23000 1.96800 47.36800
C  43.05700 1.25900 47.24000
C  43.44600 -0.16000 47.04400
C  44.89600 -0.24400 47.01400
C  45.30100 1.15000 47.15600
C  42.42500 -1.25400 46.90400
C  45.72100 -1.49400 46.86000
O  45.18700 -2.43000 46.34000
C  47.19100 -1.52900 47.19900
N  46.54500 4.06900 47.09800
C  47.23600 2.92400 47.03000
C  48.76200 3.05800 46.93600
C  48.84200 4.62900 46.84400
C  47.38600 5.12400 47.10800
C  49.47500 2.56800 48.25100
C  49.37600 5.17900 45.50000
C  50.87000 4.74700 45.21900
N  44.59300 6.22400 47.33800
C  45.69000 7.03500 47.15200
C  45.31200 8.41500 46.93500
C  43.95400 8.37200 47.12900
C  43.54500 6.99600 47.30600
C  46.16700 9.68200 46.77200
C  42.77700 9.15200 47.10400
O  42.62800 10.37000 47.02200
C  41.58800 8.13700 47.30400
C  40.88700 8.47000 48.54500
O  40.79700 7.82200 49.62800
O  40.22600 9.63400 48.25100
C  39.35200 10.14600 49.23100
H  40.86500 1.26400 47.14900
H  47.55000 1.04600 46.77400
H  47.76900 7.25000 46.88000
H  39.46700 5.84200 47.65400
H  39.31000 3.07500 47.11700
H  39.53000 4.58400 49.71600
H  40.32300 2.99700 49.62700
H  38.53100 3.24000 49.14600
H  39.16800 4.33700 45.20700
H  40.65600 5.19800 45.07200
H  38.60800 7.10800 45.67900
H  38.06600 6.04100 44.33800
H  42.79300 -2.11100 46.34100
H  41.41500 -0.86100 46.78900
H  42.32000 -1.75700 47.86600
H  47.39500 -2.60000 47.18700
H  47.21300 -1.13300 48.21400
H  47.78600 -0.94800 46.49300
H  49.24100 2.56800 46.08800
H  49.46000 5.08900 47.61500
H  49.83700 1.55800 48.05400
H  48.83400 2.48600 49.12900
H  50.20900 3.34200 48.47400
H  49.31400 6.25400 45.32800
H  48.82100 4.66800 44.71400
H  51.36100 4.21100 46.03100
H  51.44600 5.53000 44.72500
H  50.80500 4.00500 44.42300
H  47.14300 9.40400 47.16900
H  45.75000 10.41800 47.45900
H  46.19100 10.12900 45.77800
H  40.89300 8.24000 46.47000
H  39.98100 10.30800 50.10600
H  38.49500 9.53900 49.52100
H  38.96200 11.08900 48.84800
Mg 36.07000 2.52400 30.72800
C  33.43400 3.95300 32.60600
C  38.08500 2.86200 33.50000
C  38.69900 1.81700 28.85900
C  34.06600 2.81600 27.85300
N  35.79200 3.37500 32.83200
C  34.59900 3.73700 33.38400
C  34.74200 3.80300 34.92300
C  36.32900 3.94200 35.09400
C  36.79700 3.31100 33.76500
C  36.79900 5.45600 35.20200
C  34.25800 2.49600 35.46300
C  33.55400 2.74100 36.87000
H  33.96600 3.81800 37.84200
N  38.09800 2.43300 31.07500
C  38.66700 2.52700 32.29500
C  40.07900 2.28600 32.13400
C  40.35800 1.90400 30.77200
C  39.04000 2.01800 30.18400
C  40.97400 2.45100 33.34200
C  41.53600 1.42100 30.07600
O  41.63400 1.21900 28.89000
C  42.82700 1.14300 30.83700
N  36.33600 2.48200 28.66200
C  37.54500 1.96300 28.20900
C  37.50700 1.64700 26.70500
C  35.90900 1.70200 26.37500
C  35.37500 2.33700 27.68900
C  38.31600 2.64000 25.88400
C  35.18600 0.43600 25.85700
C  34.59000 0.54000 24.54500
N  34.08500 3.19200 30.24800
C  33.44300 3.26300 29.01000
C  31.97200 3.65300 29.28900
C  31.97700 3.95200 30.66100
C  33.21000 3.61100 31.21800
C  30.81000 3.83900 28.30500
C  31.23300 4.41600 31.77000
O  30.05000 4.79100 31.87100
C  32.14100 4.35600 33.07200
C  32.14500 5.63100 33.72900
O  32.80100 6.65700 33.43400
O  31.36100 5.48800 34.89200
C  31.31600 6.69400 35.70700
H  38.72700 2.96600 34.37700
H  39.47900 1.35700 28.25000
H  33.43000 2.65700 26.98000
H  34.27200 4.70000 35.32700
H  36.74500 3.37200 35.92400
H  37.24600 5.50800 36.19500
H  36.01000 6.20600 35.24500
H  37.63500 5.68400 34.54100
H  35.05000 1.74900 35.52400
H  33.51900 2.14900 34.74100
H  33.83400 1.85800 37.44400
H  32.47300 2.66700 36.75000
H  41.94800 2.33900 32.86600
H  40.76700 1.70400 34.10900
H  40.74200 3.39300 33.83800
H  42.78500 0.46200 31.68700
H  43.35900 2.03400 31.16800
H  43.49300 0.54000 30.22000
H  38.01600 0.69500 26.55300
H  35.67000 2.51000 25.68300
H  37.65900 3.47500 25.64000
H  38.79500 2.18800 25.01500
H  39.08000 3.12400 26.49200
H  34.35900 0.20700 26.52900
H  35.92000 -0.36500 25.94200
H  35.16600 -0.20400 23.99500
H  34.74200 1.54900 24.16100
H  33.53400 0.27400 24.51500
H  30.82400 3.10900 27.49600
H  30.74700 4.80200 27.79800
H  29.85100 3.72400 28.80900
H  31.77600 3.61600 33.78500
H  32.30800 7.03200 36.00700
H  30.65600 6.54500 36.56200
H  30.85100 7.50300 35.14400

