158

Mg 16.24400 51.50700 26.02800
C  18.34600 50.48400 28.62800
C  13.72200 52.06800 28.45300
C  14.18300 52.38300 23.47900
C  18.63000 50.61600 23.67700
N  16.03400 51.33900 28.25700
C  17.12500 51.10300 29.09100
C  16.72300 51.33200 30.59200
C  15.19000 51.47100 30.47100
C  14.96300 51.63000 28.97100
C  14.39300 50.23000 30.94100
C  17.47000 52.54300 31.15900
C  17.34400 52.82000 32.72000
H  16.37600 51.90400 33.54400
N  14.22900 52.02800 25.94100
C  13.40100 52.30100 27.04100
C  12.05900 52.52500 26.50000
C  12.10800 52.47900 25.03300
C  13.54700 52.23500 24.73800
C  10.79400 52.73300 27.26400
C  11.01100 52.56000 23.93900
O  11.32500 52.52800 22.75500
C  9.59600 52.71300 24.29400
N  16.37300 51.70400 23.97700
C  15.44700 52.19400 23.11600
C  16.00500 52.26600 21.69700
C  17.44900 51.84700 21.88800
C  17.48400 51.31700 23.33700
C  15.10300 51.60500 20.62100
C  18.58400 52.89900 21.56900
C  19.00300 53.00900 20.10500
N  18.10800 50.70300 26.10300
C  18.95100 50.27800 25.02100
C  20.11800 49.56600 25.61800
C  19.94100 49.57300 27.00600
C  18.68000 50.28200 27.23700
C  21.23600 49.02300 24.81000
C  20.44000 49.28300 28.33500
O  21.47000 48.63200 28.66200
C  19.40700 49.81700 29.46400
C  19.02700 48.62200 30.30600
O  18.71300 47.49900 29.92100
O  19.26200 48.96500 31.63500
C  18.96900 47.95400 32.67500
H  12.93400 52.20000 29.19600
H  13.58600 52.73300 22.63400
H  19.41400 50.44900 22.93600
H  17.17200 50.47800 31.09900
H  14.81100 52.30500 31.06100
H  14.00000 49.68100 30.08500
H  13.48100 50.48900 31.47900
H  14.92100 49.57800 31.63700
H  17.02100 53.36600 30.60300
H  18.48800 52.51800 30.76900
H  17.14400 53.88400 32.84400
H  18.35300 52.65800 33.10100
H  10.09200 51.97200 26.92300
H  10.35400 53.68000 26.95100
H  10.98800 52.57900 28.32600
H  9.01200 52.68600 23.37300
H  9.50100 53.71500 24.71200
H  9.19700 51.94900 24.96100
H  15.95700 53.31100 21.39000
H  17.50900 51.02900 21.17000
H  14.39800 50.88000 21.02800
H  15.76200 51.14800 19.88200
H  14.56000 52.45700 20.21200
H  19.37700 52.77900 22.30700
H  18.09100 53.86100 21.71000
H  18.31300 52.39800 19.52300
H  20.04100 52.67600 20.12700
H  18.94400 54.03900 19.75300
H  22.15900 49.59800 24.88100
H  21.06400 49.12000 23.73800
H  21.50500 48.02300 25.15100
H  19.80200 50.54200 30.17500
H  18.25500 47.18700 32.37200
H  18.44100 48.45600 33.48600
H  19.89000 47.45900 32.98100
Mg -5.31400 24.97500 26.52500
C  -3.86100 26.99600 29.02200
C  -6.52900 22.73600 28.94500
C  -6.90700 23.46700 24.04100
C  -4.20900 27.50000 24.19100
N  -5.28100 24.99500 28.67100
C  -4.61400 25.87900 29.54100
C  -4.90300 25.50600 31.02700
C  -5.65700 24.08800 30.91000
C  -5.86100 23.89300 29.38200
C  -4.81600 22.98300 31.67100
C  -5.82300 26.61400 31.73900
C  -5.49700 26.88600 33.15200
H  -6.53000 26.45400 34.18500
N  -6.41600 23.30600 26.46700
C  -6.84500 22.48500 27.54000
C  -7.64400 21.40500 27.05600
C  -7.69900 21.59000 25.61500
C  -6.92300 22.84800 25.31200
C  -8.28000 20.36500 27.80700
C  -8.46300 20.74000 24.53900
O  -8.53700 21.12300 23.37900
C  -9.14800 19.50200 24.88200
N  -5.53100 25.42100 24.43100
C  -6.25500 24.60200 23.67300
C  -6.41600 25.14900 22.21600
C  -5.76200 26.60700 22.39400
C  -5.19100 26.58400 23.81400
C  -5.63500 24.39300 21.08500
C  -6.81200 27.75200 22.19500
C  -6.55800 28.75700 21.12000
N  -4.09800 26.81900 26.48000
C  -3.70200 27.65500 25.50400
C  -2.83800 28.71400 25.99900
C  -2.91600 28.55000 27.41500
C  -3.74900 27.37100 27.65800
C  -2.13200 29.64500 25.10100
C  -2.55300 29.08300 28.68800
O  -1.90000 30.05200 28.98100
C  -3.08700 28.11500 29.80100
C  -1.99300 27.53300 30.69400
O  -1.21100 26.62000 30.49400
O  -2.09200 28.21900 31.84900
C  -1.21000 27.68600 32.89000
H  -6.79700 22.06400 29.76300
H  -7.45600 23.01300 23.21300
H  -3.93100 28.31400 23.51700
H  -3.94100 25.25800 31.47500
H  -6.60100 24.20800 31.44100
H  -5.10300 22.92600 32.72100
H  -3.74000 22.98700 31.50000
H  -5.07100 22.02500 31.21900
H  -6.88200 26.44900 31.53900
H  -5.55100 27.56900 31.29000
H  -5.32200 27.93800 33.38000
H  -4.56100 26.47500 33.53100
H  -9.36000 20.32000 27.67100
H  -7.98600 20.56900 28.83700
H  -7.89400 19.41900 27.42700
H  -9.94200 19.82000 25.55800
H  -8.36100 18.87200 25.29700
H  -9.64300 19.07900 24.00800
H  -7.47300 25.17600 21.95000
H  -4.96300 26.81100 21.68100
H  -6.13500 23.43900 20.91400
H  -4.62100 24.10600 21.36300
H  -5.68000 25.09600 20.25300
H  -6.95600 28.38100 23.07400
H  -7.78000 27.33300 21.92100
H  -6.91100 28.36700 20.16500
H  -5.51000 29.04100 21.02900
H  -7.23900 29.59000 21.29700
H  -2.55600 30.63900 25.24200
H  -2.07700 29.28000 24.07600
H  -1.11700 29.61400 25.49600
H  -3.71100 28.70300 30.47400
H  -0.13100 27.60300 32.76600
H  -1.58100 26.66500 32.98700
H  -1.44900 28.13600 33.85400

