158

Mg -1.32800 16.88000 26.48000
C  -1.79000 14.77400 29.23500
C  -1.90700 19.61000 28.51000
C  -1.49400 18.91900 23.73400
C  -1.33000 14.10100 24.39800
N  -1.68100 17.11100 28.68400
C  -1.73700 16.11000 29.60100
C  -2.04000 16.72800 30.99000
C  -2.29500 18.22800 30.74700
C  -1.89600 18.38100 29.18800
C  -3.77900 18.64500 31.03000
C  -0.97000 16.42100 32.05300
C  -0.95400 17.12400 33.40700
H  -0.74800 16.23500 34.68900
N  -1.64400 18.94300 26.20000
C  -1.66600 19.91100 27.19000
C  -1.59200 21.21300 26.61800
C  -1.51400 21.08100 25.21100
C  -1.61000 19.60600 24.98700
C  -1.53300 22.48600 27.53800
C  -1.35600 22.14000 24.13600
O  -1.35500 21.93400 22.91500
C  -0.94800 23.48600 24.58600
N  -1.69200 16.53800 24.28200
C  -1.51300 17.59300 23.40000
C  -1.29700 17.08100 21.98300
C  -1.19300 15.48800 22.24100
C  -1.37100 15.35900 23.74800
C  -2.55000 17.33000 21.08100
C  0.12600 14.83400 21.62600
C  1.35500 14.88900 22.56600
N  -1.50500 14.88900 26.70700
C  -1.51900 13.85300 25.73300
C  -1.56200 12.55700 26.43700
C  -1.79700 12.91200 27.78500
C  -1.74100 14.31600 27.87800
C  -1.37700 11.28600 25.74100
C  -1.92700 12.31400 29.06600
O  -1.97800 11.13600 29.47100
C  -2.14300 13.46400 30.04500
C  -1.25900 13.16600 31.15200
O  -0.02800 13.18600 31.10600
O  -2.05900 12.82600 32.23800
C  -1.40400 12.21000 33.46100
H  -2.00500 20.42100 29.23400
H  -1.25700 19.52900 22.86000
H  -1.19700 13.22900 23.75300
H  -2.96700 16.22900 31.27300
H  -1.63700 18.87900 31.32200
H  -4.20200 18.74200 30.03000
H  -3.87700 19.55600 31.62000
H  -4.40400 17.96800 31.61300
H  0.00600 16.39100 31.56800
H  -1.10700 15.42400 32.47300
H  -1.79900 17.79500 33.56400
H  -0.10800 17.78500 33.22000
H  -1.71500 22.36600 28.60600
H  -2.36800 23.13100 27.26300
H  -0.56800 22.97200 27.40000
H  -1.75400 23.93000 25.17100
H  -0.75000 24.08000 23.69300
H  0.05100 23.43000 25.01900
H  -0.33800 17.31700 21.52100
H  -2.06300 15.10300 21.70800
H  -3.19000 16.45900 20.94400
H  -2.15900 17.61600 20.10500
H  -3.14900 18.20000 21.35100
H  0.32700 15.38700 20.70900
H  -0.14100 13.81400 21.35200
H  1.50100 13.86000 22.89500
H  1.22900 15.50400 23.45700
H  2.27400 15.16500 22.04900
H  -0.64700 10.69900 26.29900
H  -0.95700 11.33900 24.73700
H  -2.31400 10.78200 25.97500
H  -3.20200 13.53100 30.29300
H  -1.39200 13.04800 34.15700
H  -0.34300 11.98100 33.36700
H  -2.05300 11.48900 33.95900
Mg 8.69200 3.03500 27.57100
C  9.87600 1.38700 30.47700
C  7.08900 5.24000 29.58400
C  7.51900 4.47200 24.84400
C  10.08400 0.40900 25.58800
N  8.33800 3.08000 29.93800
C  9.03700 2.38400 30.89200
C  8.82500 3.02600 32.24600
C  7.87500 4.31500 31.93200
C  7.76200 4.24500 30.38300
C  6.43300 4.40800 32.52300
C  10.09800 3.34200 33.06000
C  9.89400 3.75900 34.47800
H  11.03500 3.51600 35.47800
N  7.37500 4.57300 27.25900
C  6.90500 5.41500 28.17300
C  6.00000 6.39400 27.54600
C  6.27100 6.26800 26.16200
C  7.06700 5.03600 26.00500
C  5.02400 7.34500 28.32900
C  5.69200 7.03600 25.01100
O  5.63500 6.63500 23.85800
C  5.03500 8.27700 25.26400
N  8.90700 2.42100 25.49100
C  8.20600 3.26000 24.60700
C  8.19700 2.62500 23.20100
C  9.22000 1.48300 23.39400
C  9.32300 1.35000 24.90200
C  6.81000 2.08900 22.86800
C  10.58700 1.77500 22.68300
C  11.51400 0.56600 22.35300
N  9.93800 1.40700 27.82300
C  10.39700 0.46600 26.94000
C  11.18100 -0.54200 27.62500
C  10.95300 -0.25000 29.04900
C  10.22500 0.95600 29.12100
C  12.06100 -1.55900 27.00700
C  11.23900 -0.67700 30.38600
O  11.91200 -1.62500 30.82700
C  10.60600 0.38200 31.34800
C  9.78000 -0.30100 32.43900
O  8.60400 -0.58700 32.33900
O  10.50000 -0.48000 33.60100
C  9.80200 -0.88300 34.83300
H  6.80200 6.03100 30.27900
H  7.19600 5.05200 23.97700
H  10.57600 -0.36900 25.00000
H  8.20000 2.41400 32.89600
H  8.38100 5.24400 32.19500
H  6.21800 5.34200 33.04300
H  6.29200 3.63800 33.28000
H  5.68400 4.36700 31.73200
H  10.65200 4.21200 32.70900
H  10.79300 2.50400 33.12100
H  8.97800 3.24100 34.76400
H  9.64500 4.81700 34.39200
H  4.92700 7.24200 29.40900
H  3.99600 7.21200 27.99400
H  5.29800 8.39600 28.23200
H  5.63900 8.84600 25.97100
H  4.02000 8.17300 25.64800
H  4.99200 8.92300 24.38700
H  8.38800 3.31000 22.37600
H  8.91500 0.49400 23.05000
H  6.85600 1.03000 23.12400
H  6.62300 2.25600 21.80700
H  5.97500 2.63200 23.31200
H  11.17400 2.38500 23.37000
H  10.33800 2.35400 21.79400
H  11.79900 0.55200 21.30200
H  11.02000 -0.39200 22.51300
H  12.34600 0.68300 23.04800
H  11.42100 -2.32500 26.57100
H  12.67200 -2.03900 27.77200
H  12.74800 -1.09300 26.30000
H  11.47600 0.77700 31.87300
H  8.83900 -1.30900 34.54900
H  9.54100 -0.02700 35.45700
H  10.29300 -1.58000 35.51200

