158

Mg 25.75000 1.49400 29.59600
C  27.70600 1.31700 32.69900
C  23.01200 1.75500 31.72100
C  23.93000 1.23700 26.92200
C  28.65100 0.34100 27.91700
N  25.37600 1.52200 32.06100
C  26.37000 1.59200 33.02000
C  25.68100 1.69700 34.43200
C  24.14900 1.78500 34.06200
C  24.14900 1.77200 32.49300
C  23.25400 0.71300 34.64800
C  26.15900 2.93700 35.21300
C  26.85400 2.67100 36.59100
H  26.36300 3.51300 37.76500
N  23.68100 1.49800 29.33900
C  22.69100 1.62200 30.30300
C  21.41500 1.71700 29.65900
C  21.69800 1.43300 28.27300
C  23.14100 1.39700 28.11900
C  20.12600 1.93600 30.40100
C  20.73000 1.03900 27.18200
O  21.11800 0.69300 26.05200
C  19.32300 0.98400 27.57300
N  26.21200 0.96700 27.71000
C  25.31000 1.11500 26.72100
C  25.91600 0.79700 25.32800
C  27.40900 0.59600 25.69800
C  27.40800 0.61900 27.20600
C  25.25200 -0.45800 24.65300
C  28.22100 1.76200 25.14000
C  28.11900 3.11400 25.92300
N  27.86000 1.11100 30.10700
C  28.85700 0.56100 29.27900
C  30.10100 0.44700 30.09300
C  29.70000 0.79500 31.43700
C  28.24600 1.05600 31.36400
C  31.44500 -0.06700 29.52900
C  30.15800 0.95500 32.78300
O  31.28100 0.81300 33.21700
C  28.86700 1.24600 33.69400
C  28.78000 0.19900 34.72100
O  28.15200 -0.87400 34.66500
O  29.43700 0.59500 35.85300
C  29.44000 -0.34000 36.99000
H  22.10000 1.74900 32.32200
H  23.38200 1.23200 25.97700
H  29.33800 -0.02000 27.14800
H  25.97100 0.77700 34.94000
H  23.66000 2.69800 34.40100
H  22.70000 0.20100 33.86200
H  22.50600 1.29300 35.18700
H  23.62500 -0.07200 35.30600
H  25.23200 3.46200 35.44400
H  26.89500 3.47300 34.61300
H  27.91900 2.85800 36.72700
H  26.65000 1.61400 36.75900
H  19.67500 2.85200 30.01900
H  20.30700 2.13700 31.45700
H  19.37800 1.14500 30.45000
H  19.21700 0.30200 28.41700
H  18.71400 0.54300 26.78400
H  18.96600 1.95100 27.92700
H  25.73600 1.60200 24.61600
H  27.79700 -0.38900 25.43600
H  24.50300 -0.98700 25.24200
H  25.98800 -1.20400 24.35200
H  24.74100 -0.11200 23.75400
H  27.94600 2.03700 24.12100
H  29.26700 1.45600 25.16100
H  29.14700 3.37100 26.17900
H  27.67100 3.03100 26.91300
H  27.55100 3.81700 25.31400
H  31.88700 0.61200 28.80000
H  31.25100 -1.06200 29.12900
H  32.06100 -0.24100 30.41100
H  29.04500 2.24000 34.10500
H  28.57600 -0.21900 37.64400
H  30.37400 -0.10000 37.49700
H  29.50500 -1.39100 36.70600
Mg -4.75400 25.45100 26.33600
C  -3.48700 26.96900 29.23000
C  -6.68500 23.45300 28.26600
C  -5.48300 23.82200 23.59600
C  -2.34900 27.47700 24.58400
N  -4.95800 25.29300 28.51900
C  -4.40900 25.99400 29.47500
C  -5.01700 25.61600 30.86500
C  -5.73700 24.31900 30.48700
C  -5.80600 24.33900 28.95900
C  -5.03600 23.00300 30.98900
C  -5.84700 26.81700 31.46500
C  -5.63300 27.00100 32.98900
H  -5.35700 25.65400 33.71600
N  -6.06100 23.89100 25.95800
C  -6.82700 23.25800 26.83300
C  -7.87000 22.37800 26.13900
C  -7.43900 22.36000 24.71700
C  -6.31100 23.38700 24.67400
C  -9.00600 21.57600 26.82700
C  -7.97900 21.64700 23.54600
O  -7.42500 21.70200 22.45600
C  -9.21000 20.70800 23.72900
N  -4.22500 25.81100 24.39700
C  -4.56600 24.91400 23.43300
C  -3.90700 25.19400 22.04500
C  -2.96100 26.37800 22.39100
C  -3.20300 26.64000 23.86700
C  -3.08700 24.01800 21.49300
C  -3.19400 27.68400 21.56100
C  -1.87500 28.36100 21.05000
N  -3.22900 26.92400 26.75100
C  -2.41500 27.69100 25.94300
C  -1.68000 28.66600 26.75500
C  -2.06500 28.39800 28.09600
C  -2.96500 27.34200 28.02000
C  -0.61000 29.64100 26.35100
C  -1.85800 28.81200 29.45600
O  -1.11900 29.67500 29.96500
C  -2.67100 27.74800 30.30700
C  -1.80900 26.97900 31.16100
O  -0.99000 26.19900 30.75300
O  -2.12100 27.19500 32.40800
C  -1.26100 26.52300 33.36500
H  -7.44100 22.92900 28.85500
H  -5.71100 23.24400 22.69800
H  -1.54900 28.01700 24.07400
H  -4.11800 25.38200 31.43600
H  -6.73000 24.16700 30.90900
H  -4.21700 23.13500 31.69600
H  -4.60500 22.48800 30.13000
H  -5.81900 22.34500 31.36400
H  -6.88300 26.51700 31.31000
H  -5.74100 27.77000 30.94800
H  -6.54000 27.35000 33.48300
H  -4.79900 27.69300 33.10700
H  -9.87700 22.07600 26.40200
H  -9.07900 21.65700 27.91200
H  -9.11900 20.53400 26.52900
H  -9.90700 21.37100 24.24200
H  -8.88600 19.97000 24.46300
H  -9.42500 20.09400 22.85400
H  -4.64600 25.42700 21.27800
H  -1.92100 26.13300 22.17500
H  -2.01400 24.09000 21.66500
H  -3.25300 23.85000 20.42900
H  -3.39600 23.10200 21.99800
H  -3.81800 28.32800 22.18000
H  -3.71800 27.41900 20.64300
H  -1.90000 29.43900 21.20700
H  -1.94700 28.21600 19.97200
H  -0.94200 27.90600 21.38000
H  -0.93700 30.68000 26.33100
H  -0.27400 29.43000 25.33600
H  0.16200 29.57000 27.11700
H  -3.39500 28.37100 30.83200
H  -0.28800 26.99500 33.49600
H  -0.95900 25.51000 33.09900
H  -1.79800 26.42000 34.30800

