158

Mg -2.20100 17.15500 25.88300
C  -2.39500 14.74900 28.39700
C  -2.74000 19.60100 28.21500
C  -2.52200 19.27500 23.39000
C  -1.93300 14.47900 23.60500
N  -2.57700 17.15600 28.09600
C  -2.45400 16.05400 28.92500
C  -2.67400 16.48500 30.39200
C  -2.79600 18.06200 30.29700
C  -2.67500 18.31500 28.78700
C  -4.17500 18.52700 30.89700
C  -1.63500 15.96000 31.36900
C  -1.48200 16.56000 32.72400
H  -1.91300 15.98100 34.12100
N  -2.63200 19.19600 25.81700
C  -2.72200 20.07900 26.84500
C  -2.70700 21.45500 26.31900
C  -2.61800 21.33900 24.90600
C  -2.65300 19.89600 24.66700
C  -2.88400 22.60400 27.23100
C  -2.61200 22.38400 23.86500
O  -2.56100 22.18700 22.65600
C  -2.44800 23.82600 24.25700
N  -2.13800 16.95100 23.76800
C  -2.26200 17.97300 22.93700
C  -2.06100 17.53900 21.52900
C  -1.69700 15.99500 21.62500
C  -1.90300 15.79200 23.10500
C  -3.26200 17.85800 20.59200
C  -0.34900 15.64900 21.15100
C  0.80400 16.22400 21.88100
N  -2.10100 15.07600 25.89900
C  -2.02900 14.11400 24.89500
C  -1.91300 12.79800 25.45300
C  -2.02700 13.00000 26.81600
C  -2.17800 14.40600 27.03900
C  -1.89300 11.45000 24.84600
C  -2.06000 12.33900 28.07200
O  -2.04600 11.11500 28.34900
C  -2.26600 13.51400 29.14600
C  -1.00500 13.41900 29.85800
O  -0.00800 14.05600 29.53200
O  -1.16300 12.56200 30.94600
C  -0.00800 12.58300 31.88100
H  -2.92800 20.43900 28.89000
H  -2.70600 19.88300 22.50200
H  -1.84700 13.77500 22.77500
H  -3.54900 15.88300 30.64100
H  -1.97900 18.57800 30.80000
H  -4.51600 17.67700 31.48800
H  -5.01800 18.78600 30.25600
H  -4.06600 19.37200 31.57600
H  -0.69500 15.94400 30.81800
H  -1.96900 14.94300 31.57500
H  -2.13000 17.43600 32.70700
H  -0.48700 16.99900 32.78900
H  -1.99000 23.07700 27.63800
H  -3.52200 22.38500 28.08600
H  -3.47500 23.33900 26.68400
H  -1.72600 23.90600 25.07000
H  -3.46900 24.13700 24.47900
H  -2.02500 24.39200 23.42700
H  -1.17200 17.99400 21.09100
H  -2.48800 15.39100 21.17900
H  -2.92300 18.41900 19.72100
H  -4.11100 18.30600 21.11000
H  -3.63900 16.96200 20.10000
H  -0.30600 16.19100 20.20600
H  -0.19500 14.58800 20.95600
H  0.64500 16.24500 22.95900
H  1.12700 17.15000 21.40500
H  1.65400 15.54700 21.79700
H  -1.37100 11.34100 23.89500
H  -2.88600 11.02300 24.70700
H  -1.38300 10.76100 25.51800
H  -3.13200 13.31200 29.77700
H  -0.32800 11.92900 32.69200
H  0.31900 13.53100 32.31000
H  0.91000 12.25600 31.39300
Mg 10.00500 48.33400 26.56500
C  7.89300 47.77700 29.30400
C  12.39000 49.40300 28.80200
C  12.12900 48.30700 23.97900
C  7.29800 47.77600 24.32700
N  10.04400 48.64200 28.79300
C  9.08600 48.30800 29.69100
C  9.42900 48.73000 31.11300
C  10.84000 49.40100 30.89300
C  11.13800 49.24000 29.39700
C  10.96700 50.97500 31.28300
C  9.31900 47.62800 32.16700
C  9.80200 48.06300 33.52200
H  9.17100 47.46200 34.81200
N  11.93300 48.80300 26.42200
C  12.78400 49.11400 27.46500
C  14.10300 49.25500 26.97100
C  14.07300 49.10100 25.56700
C  12.63300 48.74100 25.25600
C  15.36000 49.63800 27.84800
C  15.08500 49.44700 24.57100
O  14.87900 49.41500 23.35400
C  16.41800 49.84500 24.98500
N  9.77900 48.17000 24.40600
C  10.80600 48.09700 23.61100
C  10.34500 47.72500 22.17300
C  8.95300 47.16600 22.35500
C  8.63400 47.79000 23.70200
C  10.47000 48.90800 21.14600
C  8.77400 45.60700 22.42100
C  8.14100 44.86800 21.23100
N  7.98700 48.11600 26.71000
C  7.01200 47.79000 25.74400
C  5.73200 47.36300 26.41200
C  6.08100 47.38200 27.75600
C  7.42800 47.78900 27.89300
C  4.43900 47.05200 25.68400
C  5.46700 47.04500 29.04400
O  4.33100 46.69400 29.36700
C  6.65100 47.40300 30.05000
C  6.80500 46.15800 30.85200
O  7.60400 45.22600 30.64600
O  5.88500 46.27200 31.78800
C  5.97600 45.21300 32.80900
H  13.17800 49.81800 29.43400
H  12.82800 48.25200 23.14100
H  6.54100 47.33200 23.67800
H  8.71300 49.47900 31.45200
H  11.57200 48.81800 31.45100
H  11.66800 51.00400 32.11700
H  10.11500 51.51000 31.70300
H  11.34800 51.69800 30.56200
H  9.80000 46.73100 31.77700
H  8.25100 47.42100 32.22800
H  9.87700 49.15100 33.50200
H  10.84600 47.75100 33.49600
H  15.91500 48.71300 28.00300
H  15.05400 50.01500 28.82400
H  15.98100 50.45200 27.47200
H  16.30600 50.82900 25.43900
H  17.07300 49.83400 24.11400
H  16.72200 48.97300 25.56400
H  11.01800 46.89600 21.95200
H  8.25800 47.61000 21.64200
H  11.10600 49.75200 21.41600
H  9.45400 49.21800 20.90100
H  10.84900 48.51800 20.20200
H  8.18900 45.27400 23.27800
H  9.77300 45.17100 22.44700
H  7.95200 45.56800 20.41700
H  7.12200 44.55700 21.46000
H  8.67200 43.98800 20.86900
H  4.61100 46.40200 24.82700
H  4.06400 47.95600 25.20500
H  3.73300 46.58200 26.36900
H  6.28500 48.25300 30.62500
H  5.85000 45.85500 33.68000
H  6.91700 44.66600 32.85400
H  5.04700 44.64600 32.75300

