158

Mg 25.26000 0.72300 29.74200
C  27.27400 0.65700 32.64400
C  22.42500 0.92700 31.76900
C  23.45100 0.17600 26.92900
C  28.15900 -0.00900 27.83900
N  24.93700 0.71700 32.05400
C  25.92400 0.71000 33.05600
C  25.25100 0.83700 34.46900
C  23.70800 0.87200 34.05900
C  23.67400 0.82800 32.52400
C  22.81400 -0.25800 34.71300
C  25.76600 2.10300 35.37900
C  26.40500 1.83600 36.68100
H  26.26700 2.95600 37.74600
N  23.26700 0.69100 29.41300
C  22.23600 0.81400 30.30000
C  21.03000 1.04700 29.58700
C  21.26300 0.84100 28.24600
C  22.74300 0.59300 28.11500
C  19.69400 1.26600 30.18900
C  20.25700 0.75300 27.12000
O  20.56200 0.37900 25.99300
C  18.93400 1.21000 27.31100
N  25.75900 0.23700 27.77600
C  24.78900 -0.01500 26.82500
C  25.37900 -0.26800 25.45100
C  26.86700 -0.42400 25.81000
C  26.97400 0.02900 27.21400
C  24.64300 -1.32700 24.53900
C  27.71900 0.50200 24.86400
C  27.97800 1.97800 25.22800
N  27.36800 0.50800 30.11500
C  28.40400 0.15000 29.21000
C  29.61200 0.03900 30.07200
C  29.19200 0.26200 31.34700
C  27.84800 0.52600 31.36200
C  31.02000 -0.18900 29.55600
C  29.72300 0.42800 32.65700
O  30.91000 0.41000 33.01900
C  28.50700 0.77200 33.54900
C  28.41400 -0.30800 34.61800
O  27.67000 -1.30200 34.48800
O  29.25800 0.01600 35.62400
C  29.26200 -0.98500 36.76500
H  21.51500 0.94700 32.37300
H  22.83900 0.11700 26.02600
H  29.08100 0.01500 27.25500
H  25.59800 0.01200 35.09000
H  23.34400 1.85400 34.36100
H  21.93900 0.10300 35.25400
H  23.34600 -0.93300 35.38300
H  22.41600 -0.91400 33.93900
H  24.93800 2.74000 35.68900
H  26.35400 2.84000 34.83200
H  27.46200 1.57400 36.65100
H  25.94100 0.95800 37.13100
H  19.15000 2.18400 29.96600
H  19.85500 1.23400 31.26600
H  19.07500 0.39600 29.97000
H  18.50800 1.34000 26.31700
H  18.95500 2.22000 27.72000
H  18.20100 0.61600 27.85700
H  25.27700 0.65700 24.88500
H  27.21700 -1.45400 25.74800
H  25.33200 -2.12000 24.24600
H  24.27700 -0.81400 23.65000
H  23.86100 -1.82100 25.11500
H  27.36600 0.44200 23.83500
H  28.69300 0.01300 24.84900
H  27.49000 2.32300 26.13900
H  27.49100 2.49200 24.40000
H  29.05500 2.14600 25.22100
H  31.36800 0.71200 29.05200
H  30.99900 -1.07700 28.92500
H  31.73900 -0.38200 30.35200
H  28.55000 1.73900 34.05000
H  29.34600 -2.03900 36.49800
H  28.28000 -0.85900 37.22200
H  30.06900 -0.95200 37.49700
Mg 48.71700 35.83900 28.70100
C  46.51100 34.08800 30.81400
C  48.48100 38.55700 30.83500
C  50.60500 37.69400 26.62900
C  48.28500 33.38600 26.22100
N  47.76500 36.20700 30.66300
C  47.00300 35.27200 31.37900
C  46.49300 35.87200 32.73600
C  46.94500 37.36700 32.59800
C  47.68300 37.42100 31.25200
C  45.72300 38.35900 32.53400
C  47.07100 35.19600 33.98900
C  48.59800 34.81200 34.16300
H  49.64900 35.81800 34.52000
N  49.57500 37.79800 28.78000
C  49.43400 38.66800 29.80000
C  50.24200 39.84600 29.61400
C  50.80500 39.69500 28.31200
C  50.38500 38.35700 27.82600
C  50.33800 40.88000 30.66000
C  51.63000 40.74100 27.52500
O  52.07500 40.50500 26.43000
C  51.97500 42.10900 28.13500
N  49.18500 35.62900 26.68000
C  50.08400 36.46600 26.08400
C  50.43400 36.03100 24.64600
C  49.99000 34.50000 24.69300
C  49.04100 34.50000 25.87300
C  49.70400 36.79400 23.49200
C  51.15000 33.40800 24.80900
C  51.05400 32.20700 23.98100
N  47.61100 34.12200 28.44300
C  47.48400 33.25500 27.36500
C  46.40200 32.25400 27.69500
C  46.09200 32.57600 29.03900
C  46.81200 33.67000 29.48300
C  45.86800 31.18200 26.89500
C  45.25700 32.07200 30.12400
O  44.50000 31.14700 30.08600
C  45.36200 33.16500 31.22400
C  45.65800 32.48200 32.51500
O  46.69000 31.84200 32.69800
O  44.61100 32.57400 33.31300
C  44.58000 31.96000 34.63500
H  48.46500 39.38900 31.54200
H  51.32400 38.26800 26.04100
H  48.11500 32.54100 25.55000
H  45.42400 35.66400 32.68700
H  47.63100 37.66100 33.39200
H  45.70400 38.97800 33.43100
H  44.83600 37.72900 32.46000
H  45.63800 38.87300 31.57700
H  46.41500 34.35200 34.19800
H  46.84300 35.83800 34.84000
H  48.92400 34.36000 33.22600
H  48.70600 34.03200 34.91600
H  50.21500 40.37000 31.61600
H  49.45000 41.50600 30.57500
H  51.32100 41.35200 30.66000
H  51.03900 42.65400 28.25600
H  52.57600 42.65900 27.41100
H  52.45600 42.00300 29.10700
H  51.51500 35.94000 24.53300
H  49.27000 34.28500 23.90200
H  49.51000 37.79000 23.88700
H  48.76500 36.34400 23.16800
H  50.41500 37.03300 22.70100
H  51.25800 32.89600 25.76500
H  52.13100 33.79900 24.53700
H  50.54500 32.44400 23.04700
H  50.53000 31.37000 24.44200
H  52.09400 31.98500 23.74000
H  45.21000 30.59700 27.53800
H  46.67000 30.49000 26.63800
H  45.24900 31.53600 26.07000
H  44.37100 33.61700 31.16900
H  44.65600 32.80300 35.32200
H  45.37200 31.22700 34.78600
H  43.62200 31.47500 34.82200

