158

Mg 46.64200 25.52700 28.62000
C  47.90500 27.50900 31.18900
C  45.75000 23.09000 31.21700
C  45.84000 23.28700 26.29800
C  48.13400 27.54700 26.40000
N  46.76600 25.35300 30.90000
C  47.23800 26.38000 31.68700
C  47.01000 26.05500 33.15600
C  46.45400 24.58600 33.18300
C  46.30000 24.30600 31.67600
C  47.24900 23.46600 33.97200
C  46.04800 27.17600 33.79100
C  46.50000 27.84300 35.11800
H  45.42900 28.02900 36.19700
N  45.76100 23.49600 28.73900
C  45.54100 22.66100 29.85900
C  44.82100 21.55200 29.36300
C  44.62700 21.59600 27.93700
C  45.46600 22.79100 27.59900
C  44.29600 20.49300 30.42700
C  43.96400 20.72800 26.94500
O  43.94800 20.96100 25.76100
C  43.18700 19.53400 27.49400
N  46.92000 25.45100 26.57500
C  46.47300 24.43800 25.78000
C  46.75400 24.71900 24.31800
C  47.34900 26.14600 24.33000
C  47.55300 26.43100 25.84300
C  47.64200 23.67000 23.60900
C  46.38600 27.15500 23.68400
C  46.99700 28.33600 23.00400
N  47.83100 27.20800 28.74600
C  48.36000 27.93000 27.70200
C  48.93400 29.13700 28.17500
C  48.83600 29.08700 29.56700
C  48.10300 27.83900 29.88300
C  49.55400 30.18600 27.35700
C  49.12200 29.77800 30.88200
O  49.77200 30.80700 31.12400
C  48.51200 28.70200 31.92300
C  49.45100 28.28400 32.99200
O  50.28000 27.41800 32.81200
O  49.45700 29.05700 34.13900
C  50.48500 29.03700 35.23200
H  45.61300 22.33400 31.99300
H  45.61100 22.73600 25.38300
H  48.47600 28.15700 25.56200
H  48.02100 26.11500 33.55900
H  45.43000 24.58200 33.55700
H  47.81500 22.87500 33.25100
H  46.64600 22.75600 34.53700
H  48.01400 23.86400 34.63900
H  45.17200 26.59000 34.06600
H  45.64500 27.89800 33.08100
H  46.88900 28.83000 34.86500
H  47.28900 27.21700 35.53300
H  44.75200 20.52300 31.41700
H  44.25400 19.46700 30.06200
H  43.26200 20.71100 30.69400
H  42.33500 19.90700 28.06300
H  43.79300 18.84100 28.07800
H  42.80900 19.00300 26.62000
H  45.81600 24.75300 23.76400
H  48.32100 26.16500 23.83700
H  47.44600 22.72900 24.12300
H  48.70300 23.88900 23.72600
H  47.33200 23.63900 22.56500
H  45.84700 27.70200 24.45800
H  45.60400 26.69600 23.08000
H  46.39900 28.40900 22.09500
H  48.07200 28.34200 22.82600
H  46.93900 29.26900 23.56400
H  49.32700 31.13900 27.83500
H  49.22300 30.24600 26.32100
H  50.63600 30.05700 27.31400
H  47.70300 29.29500 32.35000
H  50.20000 28.42900 36.09100
H  50.53000 30.08800 35.51500
H  51.46500 28.76600 34.84000
Mg -1.24200 33.93600 26.76200
C  -3.13900 32.17600 29.28200
C  -0.24000 36.07700 29.17800
C  0.25600 35.63500 24.37300
C  -2.74000 31.81000 24.29500
N  -1.60500 34.04500 28.94900
C  -2.33500 33.22200 29.77600
C  -2.14700 33.68900 31.22500
C  -1.45300 35.04700 31.14900
C  -1.01700 35.07600 29.65300
C  -2.34200 36.23000 31.64500
C  -1.47600 32.65200 32.11000
C  -2.24400 31.90300 33.26000
H  -1.68300 32.17400 34.69200
N  -0.24900 35.66500 26.70700
C  0.19800 36.32100 27.85500
C  1.02600 37.40600 27.44600
C  1.11800 37.38200 26.00000
C  0.40700 36.20300 25.64000
C  1.80000 38.33600 28.44800
C  1.91300 38.32900 25.16000
O  1.89700 38.24000 23.97100
C  2.83000 39.42500 25.81600
N  -1.42200 33.90500 24.58700
C  -0.44700 34.55600 23.93400
C  -0.30200 34.11100 22.48200
C  -1.01000 32.66200 22.58800
C  -1.79900 32.74200 23.90700
C  -1.00200 35.09200 21.49100
C  -0.03200 31.50800 22.55300
C  -0.47700 30.29000 21.64400
N  -2.64200 32.34500 26.70400
C  -3.14300 31.59500 25.63400
C  -4.03900 30.51200 26.16600
C  -4.08200 30.75600 27.59400
C  -3.23400 31.88100 27.86200
C  -4.74800 29.42400 25.37200
C  -4.63900 30.27900 28.81900
O  -5.44600 29.36300 29.03400
C  -3.98600 31.14500 30.00600
C  -5.09700 31.80100 30.69400
O  -5.61600 32.82800 30.29600
O  -5.33900 31.18500 31.90500
C  -6.44600 31.71400 32.69200
H  0.21000 36.71500 29.94100
H  0.90900 36.05900 23.60800
H  -2.97300 30.98700 23.61600
H  -3.14700 33.86700 31.62000
H  -0.50600 35.02400 31.68800
H  -3.32000 35.96600 32.04700
H  -2.41900 37.01100 30.88800
H  -1.78800 36.76700 32.41500
H  -0.63300 33.10200 32.63500
H  -1.11800 31.93800 31.36800
H  -2.30600 30.84200 33.01700
H  -3.23100 32.34300 33.40100
H  2.87500 38.17100 28.51000
H  1.54400 38.19500 29.49800
H  1.63500 39.40600 28.31500
H  2.16700 40.08900 26.37100
H  3.28900 39.95400 24.98100
H  3.65800 39.00500 26.38600
H  0.77600 34.06800 22.32800
H  -1.69800 32.55800 21.74800
H  -1.67900 35.80600 21.96100
H  -1.60700 34.60000 20.72900
H  -0.19100 35.57800 20.94900
H  0.20600 31.19900 23.57100
H  0.86600 31.84300 22.03300
H  -0.57600 29.37600 22.23000
H  0.30900 30.15300 20.90200
H  -1.45900 30.43300 21.19300
H  -4.75100 28.42900 25.81800
H  -4.19300 29.36300 24.43600
H  -5.76100 29.72000 25.09700
H  -3.43900 30.34800 30.50900
H  -6.02900 32.40100 33.43000
H  -6.92700 30.82500 33.10100
H  -7.14800 32.29400 32.09400

