158

Mg 6.64500 53.57700 40.76500
C  6.24900 50.03200 40.53600
C  9.95700 53.13300 39.98600
C  6.83800 56.79500 40.38800
C  3.06900 53.78000 40.85500
N  7.89900 51.86700 40.26800
C  7.56100 50.53500 40.21000
C  8.70000 49.64100 39.82200
C  9.90100 50.57100 40.19000
C  9.24800 52.00000 40.13200
C  10.59400 50.32100 41.57900
C  8.76500 49.00800 38.39800
C  8.41200 49.88600 37.12700
H  7.65000 51.20700 37.24900
N  8.26900 54.85300 40.33800
C  9.54500 54.44700 40.10600
C  10.26900 55.61500 40.13500
C  9.47300 56.72200 40.19700
C  8.11900 56.18900 40.23600
C  11.77900 55.62900 39.92600
C  9.80900 58.23400 40.06400
O  11.00000 58.50400 40.02400
C  8.82600 59.35600 40.03800
N  5.23700 54.95700 40.53500
C  5.61200 56.24300 40.58400
C  4.37500 57.17400 40.47400
C  3.21900 56.21200 40.23900
C  3.83900 54.91700 40.65400
C  4.16100 58.08600 41.69600
C  2.68000 56.14000 38.87100
C  1.13400 56.23400 38.65300
N  4.98300 52.19200 40.85000
C  3.60700 52.40300 40.97600
C  2.94800 51.07500 41.15000
C  4.00500 50.13700 41.01300
C  5.17500 50.86000 40.77000
C  1.49900 50.88700 41.32400
C  4.27400 48.71700 41.12000
O  3.55400 47.69300 41.21900
C  5.76300 48.64600 40.67800
C  5.73300 47.81800 39.54700
O  5.52200 48.14600 38.40600
O  6.22500 46.54800 39.92100
C  6.04100 45.45400 39.04800
H  11.04600 53.10400 39.91300
H  6.80700 57.88600 40.41400
H  1.98400 53.75900 40.97600
H  8.70800 48.75300 40.45500
H  10.67600 50.50000 39.42700
H  11.59900 49.94400 41.38700
H  10.03500 49.49400 42.01700
H  10.55500 51.18500 42.24200
H  8.05300 48.18800 38.49500
H  9.72900 48.50200 38.34500
H  7.73400 49.14600 36.70100
H  9.26000 50.06100 36.46600
H  12.02700 56.44100 39.24200
H  12.16500 54.71900 39.46700
H  12.21300 55.62200 40.92500
H  9.36100 60.30600 40.00500
H  8.29200 59.23600 40.98000
H  8.06900 59.24200 39.26200
H  4.44500 57.81200 39.59300
H  2.38700 56.40300 40.91700
H  4.59800 59.05400 41.45200
H  4.38300 57.64700 42.66800
H  3.13100 58.44200 41.73700
H  2.93000 55.16300 38.45800
H  3.08600 56.89900 38.20200
H  0.85900 56.62500 37.67300
H  0.86000 57.01100 39.36700
H  0.76200 55.23100 38.86100
H  1.37400 50.24300 42.19500
H  1.14100 50.22400 40.53700
H  0.91500 51.80600 41.37100
H  6.40800 48.10900 41.37300
H  6.88100 45.51800 38.35600
H  5.10700 45.68900 38.53700
H  5.88000 44.49000 39.53000
Mg 1.20600 42.99200 26.40200
C  3.29700 43.09600 29.20100
C  -1.39300 42.11600 28.50700
C  -0.62100 42.34400 23.72900
C  3.89100 43.72500 24.32300
N  1.00700 42.76000 28.61500
C  2.02600 42.75800 29.55200
C  1.46800 42.47300 31.01000
C  0.00400 41.89000 30.66400
C  -0.07900 42.16400 29.13600
C  -0.23900 40.45500 30.99600
C  1.52800 43.72900 31.91800
C  1.60800 43.40500 33.42400
H  1.22700 41.98300 33.95700
N  -0.72500 42.49200 26.19500
C  -1.67000 42.31300 27.18400
C  -2.98000 42.09500 26.53200
C  -2.72400 42.08300 25.09500
C  -1.34200 42.32200 24.96500
C  -4.33200 41.91600 27.37800
C  -3.73200 41.96100 24.03500
O  -3.48300 42.04000 22.81500
C  -5.18500 41.65900 24.43800
N  1.67000 42.82400 24.32500
C  0.67400 42.54700 23.44100
C  1.29800 42.45600 22.05600
C  2.56500 43.34800 22.16400
C  2.71000 43.30600 23.67300
C  1.70100 40.99200 21.84700
C  2.46600 44.73700 21.54800
C  2.30200 45.96600 22.51700
N  3.19300 43.38800 26.63600
C  4.19200 43.60900 25.71300
C  5.46100 43.79500 26.45300
C  5.11800 43.65000 27.80800
C  3.75600 43.29000 27.85900
C  6.73600 44.08800 25.81200
C  5.70200 43.62800 29.03300
O  6.88100 43.74000 29.35700
C  4.49800 43.39600 30.04600
C  4.88000 42.34500 31.05200
O  5.05700 41.16700 30.86500
O  4.89200 43.01900 32.26800
C  5.04900 42.08600 33.38200
H  -2.25100 41.72800 29.06000
H  -1.23700 42.19100 22.84100
H  4.71800 43.95800 23.65000
H  1.96800 41.69200 31.58300
H  -0.76000 42.49100 31.15700
H  -0.09900 39.85400 30.09700
H  -1.21100 40.36700 31.48100
H  0.35700 40.15300 31.85700
H  0.66700 44.28400 31.54500
H  2.38900 44.33800 31.64200
H  0.90800 44.08700 33.90500
H  2.58300 43.68700 33.82100
H  -5.04300 42.63500 26.97000
H  -4.21300 42.14700 28.43700
H  -4.68000 40.88500 27.31600
H  -5.59200 42.53500 24.94200
H  -5.19200 40.83400 25.15000
H  -5.84300 41.45200 23.59400
H  0.64500 42.83300 21.26900
H  3.48200 42.85400 21.84100
H  2.68000 40.83700 21.39300
H  1.08600 40.74200 20.98200
H  1.56500 40.33300 22.70500
H  1.70000 44.76600 20.77300
H  3.43300 44.88100 21.06700
H  3.27200 46.46400 22.52200
H  2.13700 45.69400 23.55900
H  1.55900 46.69600 22.19500
H  7.30000 43.97900 26.73800
H  6.57100 45.11000 25.46900
H  6.87200 43.38700 24.98800
H  4.37600 44.33000 30.59400
H  4.79700 41.04400 33.18400
H  4.25400 42.25400 34.11000
H  6.04200 42.21900 33.81200

