158

Mg -2.09200 34.43100 26.95800
C  -3.93900 32.91300 29.50500
C  -1.14300 36.91300 29.20800
C  -0.75700 36.12700 24.42500
C  -3.56800 32.31400 24.70600
N  -2.49700 34.87500 29.10300
C  -3.19900 33.99900 29.93300
C  -3.11200 34.44700 31.35200
C  -2.44700 35.91800 31.25200
C  -1.96200 35.95100 29.81700
C  -3.31000 37.09200 31.61800
C  -2.44900 33.43200 32.33100
C  -3.02300 33.43300 33.80000
H  -2.19400 34.08500 34.86000
N  -0.98300 36.14100 26.87100
C  -0.63200 37.00400 27.95000
C  0.28200 38.02200 27.36700
C  0.27400 37.88200 25.89800
C  -0.56300 36.73100 25.69500
C  0.87700 39.19700 28.14800
C  1.10600 38.62400 24.82300
O  0.83300 38.50800 23.67400
C  2.09100 39.69000 25.33800
N  -2.18900 34.29800 24.90900
C  -1.49600 35.07200 24.06900
C  -1.55600 34.53000 22.58300
C  -2.29900 33.22700 22.75400
C  -2.76900 33.31300 24.18400
C  -2.24100 35.61300 21.65800
C  -1.44400 31.96200 22.59500
C  -1.97800 30.73600 21.82000
N  -3.52900 32.89500 27.02500
C  -3.96100 32.08900 25.99700
C  -4.85800 31.07400 26.55100
C  -4.78800 31.31100 27.95700
C  -4.01200 32.45400 28.16300
C  -5.54600 29.96700 25.74900
C  -5.27600 30.80500 29.21100
O  -6.01000 29.84600 29.46100
C  -4.54400 31.76200 30.31400
C  -5.65300 32.19700 31.20200
O  -6.54300 32.96300 30.88600
O  -5.58500 31.54900 32.43900
C  -6.55500 31.87900 33.45000
H  -0.82900 37.75900 29.82200
H  -0.31200 36.58400 23.53900
H  -4.07100 31.63400 24.01700
H  -4.12400 34.53400 31.74700
H  -1.59500 36.01400 31.92400
H  -3.11700 37.36200 32.65600
H  -4.34300 36.80700 31.41700
H  -3.14100 37.98900 31.02300
H  -1.40900 33.75000 32.40900
H  -2.49000 32.45600 31.84800
H  -3.13000 32.38000 34.06100
H  -4.00400 33.90600 33.77600
H  1.96600 39.20200 28.19600
H  0.49800 39.26100 29.16800
H  0.64000 40.08800 27.56500
H  1.59700 40.56600 25.75900
H  2.77600 39.93500 24.52700
H  2.73800 39.12200 26.00600
H  -0.50900 34.43200 22.29600
H  -3.12100 33.16100 22.04100
H  -1.51700 35.93600 20.91000
H  -2.64900 36.44400 22.23400
H  -3.03400 35.10900 21.10500
H  -1.21900 31.67700 23.62300
H  -0.50900 32.21000 22.09300
H  -2.23900 29.93300 22.50900
H  -1.34800 30.53900 20.95200
H  -2.91000 31.09900 21.38600
H  -5.48000 30.10000 24.66900
H  -6.61300 29.85600 25.94400
H  -5.16400 28.98600 26.03100
H  -3.73900 31.24800 30.83900
H  -6.78200 31.08200 34.15800
H  -7.51600 32.20400 33.05100
H  -6.25800 32.70500 34.09800
Mg -5.17200 24.85900 27.03500
C  -3.80800 26.52400 29.74400
C  -6.50800 22.65300 29.29100
C  -6.15100 23.05600 24.42100
C  -3.31200 26.93000 24.89100
N  -4.93000 24.49600 29.23600
C  -4.50400 25.39600 30.13400
C  -4.95300 25.09300 31.60000
C  -5.45100 23.63700 31.42700
C  -5.69400 23.57500 29.89000
C  -4.45400 22.59000 31.88400
C  -5.98100 26.11700 32.06800
C  -6.10000 26.35000 33.57000
H  -5.76100 25.10700 34.45100
N  -6.18300 23.12300 26.92700
C  -6.72600 22.44900 27.93000
C  -7.69000 21.46900 27.36000
C  -7.67200 21.66400 25.94600
C  -6.61300 22.61500 25.65900
C  -8.51100 20.52000 28.15400
C  -8.52000 21.05300 24.80900
O  -8.42300 21.43400 23.66700
C  -9.56600 20.12200 25.08300
N  -4.63200 24.85000 24.90000
C  -5.32800 24.02300 24.02800
C  -4.89100 24.42400 22.61800
C  -4.09900 25.70800 22.75700
C  -3.96400 25.86900 24.22800
C  -4.21500 23.21500 21.92200
C  -4.87800 26.95000 22.23000
C  -4.17100 27.72100 21.17800
N  -3.75600 26.45000 27.24000
C  -3.08800 27.26000 26.28500
C  -2.22600 28.20100 26.97400
C  -2.46300 27.88700 28.31400
C  -3.40700 26.87100 28.40100
C  -1.20500 29.14300 26.36300
C  -2.09600 28.33800 29.64400
O  -1.38700 29.24700 30.07900
C  -3.07300 27.52400 30.61400
C  -2.30200 26.96600 31.84600
O  -1.42200 26.10600 31.75000
O  -2.77500 27.55500 32.97500
C  -2.26900 27.03400 34.19600
H  -7.09800 22.04400 29.98000
H  -6.56000 22.54700 23.54600
H  -2.77400 27.65900 24.28300
H  -4.06400 25.11200 32.23200
H  -6.36400 23.50100 32.00600
H  -4.28200 21.82000 31.13200
H  -4.91300 22.11400 32.75100
H  -3.51400 23.08200 32.13300
H  -6.96200 25.78900 31.72300
H  -5.85300 27.11300 31.64500
H  -7.05000 26.80800 33.84300
H  -5.26200 26.98600 33.85400
H  -9.50000 20.92200 28.37300
H  -8.01400 20.37000 29.11300
H  -8.63700 19.63000 27.53800
H  -9.13300 19.12800 25.20100
H  -10.15700 20.03500 24.17100
H  -10.18900 20.59300 25.84200
H  -5.75900 24.56800 21.97500
H  -3.11100 25.53700 22.33000
H  -4.03500 22.42500 22.65100
H  -3.32800 23.58000 21.40400
H  -4.82400 22.74600 21.15000
H  -5.13500 27.69300 22.98500
H  -5.78700 26.52100 21.80900
H  -3.31500 27.15800 20.80900
H  -3.76300 28.63500 21.61100
H  -4.77500 28.05100 20.33300
H  -0.82300 28.67400 25.45700
H  -0.40800 29.48600 27.02300
H  -1.67200 30.06500 26.01600
H  -3.76000 28.28300 30.98700
H  -1.45100 27.58400 34.66000
H  -1.83300 26.05500 33.99500
H  -3.08700 26.92300 34.90800

