158

Mg 2.56600 8.68500 26.39100
C  2.97400 10.97900 29.16300
C  3.03200 6.17300 28.71600
C  2.86200 6.67100 23.79700
C  2.83400 11.41300 24.25000
N  3.06200 8.61800 28.62400
C  3.07800 9.66800 29.55500
C  3.10800 9.11500 30.98400
C  3.07500 7.64100 30.77100
C  3.07600 7.43400 29.28200
C  4.15100 6.87000 31.50800
C  1.85700 9.63000 31.64400
C  1.42700 9.07100 32.99900
H  2.48800 8.43900 33.85100
N  2.78600 6.65200 26.28800
C  2.92900 5.78900 27.37400
C  2.92200 4.45900 26.77800
C  2.88200 4.51100 25.30700
C  2.81800 6.02400 25.06800
C  3.10700 3.17500 27.51700
C  2.84000 3.34800 24.27900
O  2.61700 3.55200 23.05200
C  3.14000 1.94100 24.66600
N  2.60100 9.01500 24.22900
C  2.79200 7.96800 23.42000
C  2.64500 8.40800 21.98100
C  2.84900 9.98700 22.06200
C  2.83100 10.19500 23.59100
C  3.48100 7.63700 20.90900
C  1.74800 10.87000 21.39100
C  0.33800 10.78100 21.81100
N  2.70200 10.79400 26.55300
C  2.81600 11.75600 25.60900
C  2.96600 13.08100 26.22300
C  2.96400 12.79700 27.62200
C  2.87500 11.40900 27.76500
C  3.16700 14.23400 25.45400
C  3.17500 13.43300 28.90100
O  3.36000 14.65100 29.12100
C  3.23500 12.28200 29.97700
C  4.54800 12.37100 30.55300
O  5.63700 12.51700 29.98500
O  4.44000 12.26200 31.91000
C  5.63600 12.16900 32.71700
H  2.94500 5.36500 29.44500
H  2.99100 5.99100 22.95200
H  3.01400 12.26400 23.59000
H  3.99700 9.48700 31.49500
H  2.08900 7.32200 31.10700
H  4.67400 6.40400 30.67200
H  3.51500 6.29500 32.18100
H  4.89900 7.46700 32.02800
H  1.04800 9.35900 30.96700
H  2.01500 10.70700 31.70000
H  0.64700 8.31500 32.90500
H  0.99900 9.89400 33.57200
H  4.03400 2.65200 27.28000
H  2.29600 2.47600 27.31400
H  3.29000 3.33300 28.58000
H  2.90200 1.30600 23.81300
H  2.38500 1.61900 25.38300
H  4.18000 1.81800 24.96900
H  1.58600 8.25600 21.77200
H  3.85700 10.23300 21.72900
H  4.34200 7.08200 21.28200
H  3.83100 8.32800 20.14200
H  2.87800 6.91800 20.35300
H  1.73800 10.61500 20.33100
H  2.01300 11.92700 21.42500
H  -0.34300 11.02100 20.99500
H  0.15400 11.53100 22.58100
H  0.01100 9.84900 22.27100
H  2.28700 14.68000 24.99100
H  3.90500 14.00100 24.68700
H  3.71300 14.97800 26.03500
H  2.39600 12.40800 30.66100
H  6.06400 13.17000 32.66100
H  6.32500 11.38700 32.39900
H  5.28500 11.98700 33.73300
Mg 39.88100 41.48200 26.86700
C  39.05300 43.69100 29.47900
C  40.36000 38.94900 29.17500
C  40.81600 39.45000 24.27000
C  39.20700 43.99100 24.56100
N  39.90100 41.42800 29.21200
C  39.40500 42.39700 30.03400
C  39.29800 41.86100 31.44900
C  39.76600 40.34600 31.26200
C  40.04400 40.24200 29.76300
C  41.00300 39.97900 32.23500
C  37.88900 42.05400 32.09000
C  37.58700 41.34900 33.44500
H  37.06400 42.37000 34.51600
N  40.59500 39.44300 26.79600
C  40.74500 38.60100 27.88600
C  41.14300 37.24500 27.37500
C  41.23800 37.39500 25.95100
C  40.88700 38.79900 25.60800
C  41.46100 36.02700 28.24100
C  41.68500 36.40300 24.87700
O  41.83600 36.65600 23.69600
C  41.83800 34.91300 25.21300
N  40.06800 41.71400 24.69900
C  40.47300 40.72000 23.90900
C  40.29500 41.05200 22.43900
C  39.52900 42.39700 22.54100
C  39.64500 42.76100 23.96700
C  41.51300 41.13000 21.52300
C  38.11000 42.41200 21.82100
C  37.15300 41.46900 22.31500
N  39.31700 43.41000 26.95600
C  39.10800 44.33700 25.92500
C  38.72900 45.60600 26.43300
C  38.67500 45.34900 27.84600
C  39.09200 44.04200 28.10000
C  38.45500 46.94100 25.63700
C  38.14600 45.97600 29.08600
O  37.54000 47.05200 29.27700
C  38.45200 44.90500 30.21900
C  39.34100 45.55500 31.22500
O  40.50000 45.91600 30.97500
O  38.73100 45.83500 32.42200
C  39.36300 46.72300 33.40100
H  40.48800 38.17800 29.93700
H  40.96300 38.74500 23.44900
H  38.97100 44.74900 23.81200
H  39.98700 42.43900 32.06500
H  38.95000 39.67800 31.53700
H  40.95000 38.94600 32.57900
H  41.13500 40.69100 33.05000
H  41.86800 39.93600 31.57300
H  37.07600 41.93300 31.37400
H  37.94200 43.12700 32.27000
H  38.45900 40.86700 33.88900
H  36.84300 40.62500 33.11500
H  42.54100 36.02400 28.38700
H  41.12200 35.12200 27.73700
H  40.90200 36.01200 29.17700
H  42.01500 34.27600 24.34600
H  40.91900 34.66200 25.74100
H  42.70100 34.71700 25.84900
H  39.63800 40.28900 22.02100
H  39.98900 43.23400 22.01700
H  42.42000 40.80600 22.03400
H  41.51800 42.17200 21.20200
H  41.33500 40.55600 20.61300
H  38.40800 42.04800 20.83800
H  37.59300 43.37200 21.82600
H  36.50600 42.01700 23.00000
H  37.72800 40.73600 22.88200
H  36.66300 41.02300 21.45000
H  37.41600 46.97500 25.30700
H  39.23700 47.03300 24.88400
H  38.55400 47.71200 26.40100
H  37.49700 44.63800 30.66900
H  40.22500 46.36600 33.96500
H  38.56700 47.15800 34.00500
H  39.69100 47.58000 32.81300

