158

Mg 24.93000 1.75500 29.38100
C  26.97800 1.60500 32.21200
C  22.14200 2.09400 31.57500
C  22.97500 1.80800 26.65000
C  27.78700 1.16500 27.37600
N  24.59700 1.67900 31.64200
C  25.63000 1.81400 32.57000
C  25.04500 2.04300 33.98900
C  23.52700 2.25700 33.72200
C  23.37800 2.01200 32.21500
C  22.60600 1.35000 34.58700
C  25.77700 3.11200 34.89800
C  25.92300 2.71000 36.39700
H  25.82600 3.91100 37.40100
N  22.80500 1.72900 29.17000
C  21.86000 1.89100 30.15200
C  20.54600 1.81900 29.51700
C  20.82200 1.76200 28.07400
C  22.24800 1.71800 27.91100
C  19.27100 1.77600 30.30700
C  19.87500 1.60500 26.91200
O  20.15700 1.70800 25.70700
C  18.42900 1.34900 27.23700
N  25.24500 1.43300 27.35400
C  24.31100 1.79500 26.38000
C  24.96400 1.76700 24.93700
C  26.48900 1.66900 25.31200
C  26.52900 1.41400 26.76700
C  24.51800 0.60500 24.04700
C  27.33000 2.95500 24.82600
C  27.23600 4.19200 25.62500
N  26.95600 1.39000 29.67100
C  28.00500 1.12700 28.78300
C  29.17800 0.86700 29.54300
C  28.79700 1.01400 30.91400
C  27.46000 1.27900 30.92000
C  30.51300 0.62000 29.02600
C  29.39100 0.96400 32.23500
O  30.53300 0.81900 32.62000
C  28.20100 1.42900 33.12100
C  27.96700 0.41000 34.19600
O  27.12900 -0.48300 34.08400
O  28.72600 0.66500 35.30200
C  28.50400 -0.25900 36.42500
H  21.24600 2.15300 32.19700
H  22.43200 1.95900 25.71500
H  28.59200 0.94600 26.67200
H  25.16000 1.12100 34.55900
H  23.32400 3.29900 33.96800
H  22.17900 0.53400 34.00300
H  21.81900 1.93900 35.05800
H  23.21100 0.97000 35.41000
H  25.25000 4.06500 34.87000
H  26.72500 3.30200 34.39400
H  26.95900 2.45200 36.61900
H  25.16200 1.97000 36.64100
H  18.69700 2.67900 30.09600
H  19.26500 1.83200 31.39600
H  18.82900 0.83500 29.98000
H  18.34600 0.49100 27.90500
H  17.84500 1.02500 26.37600
H  17.91300 2.21900 27.64200
H  24.80100 2.76000 24.51700
H  26.92600 0.77700 24.86200
H  25.23300 -0.19500 23.85300
H  24.27600 1.03200 23.07400
H  23.55500 0.21300 24.37600
H  26.99500 3.12100 23.80200
H  28.38900 2.72800 24.70100
H  26.98000 4.01100 26.66900
H  26.49100 4.82700 25.14700
H  28.18800 4.71900 25.54900
H  30.89400 1.41300 28.38200
H  30.48400 -0.26000 28.38400
H  31.15700 0.53300 29.90100
H  28.42200 2.42000 33.51800
H  29.04800 -1.16800 36.17200
H  27.45300 -0.54500 36.46600
H  28.78600 0.19800 37.37400
Mg 9.29900 47.47100 26.43700
C  7.35200 47.88900 29.42900
C  12.14100 48.36800 28.17500
C  11.01600 47.27600 23.61300
C  6.28600 46.62800 24.77300
N  9.63800 48.25600 28.50600
C  8.70800 48.21200 29.57800
C  9.36600 48.60300 30.87000
C  10.83400 49.10200 30.39200
C  10.88900 48.58100 28.91700
C  11.23300 50.59000 30.45500
C  9.67400 47.35900 31.80900
C  9.13600 47.52400 33.20500
H  9.35100 46.37300 34.24900
N  11.27200 47.67800 26.01600
C  12.32200 47.95400 26.87000
C  13.60400 48.01400 26.17700
C  13.33200 47.79300 24.83100
C  11.85700 47.56200 24.75200
C  14.96700 48.35100 26.85400
C  14.20700 47.60900 23.63500
O  13.75700 47.30300 22.56300
C  15.59900 47.88200 23.77700
N  8.76300 47.01500 24.54400
C  9.70000 46.95700 23.53700
C  9.04900 46.53800 22.24100
C  7.59400 46.16700 22.61600
C  7.49200 46.71000 24.04500
C  9.10900 47.62100 21.07300
C  7.29900 44.73400 22.38400
C  8.10500 43.68400 23.12900
N  7.20900 47.32500 26.90500
C  6.14400 47.04400 26.06900
C  4.98400 47.09000 26.89800
C  5.39500 47.33800 28.19400
C  6.79500 47.55300 28.20600
C  3.57100 46.98100 26.38200
C  4.92000 47.55400 29.56000
O  3.85800 47.63700 30.10400
C  6.19000 47.79600 30.42000
C  6.30900 46.55300 31.30200
O  6.68400 45.44100 30.99500
O  5.82900 46.79700 32.57900
C  5.88800 45.74400 33.56100
H  12.98200 48.76900 28.74500
H  11.35400 47.32100 22.57500
H  5.45800 46.30400 24.13900
H  8.79800 49.42900 31.29700
H  11.66900 48.64500 30.92300
H  11.98900 50.68900 29.67600
H  11.51900 50.95500 31.44100
H  10.22700 50.95500 30.24400
H  10.72500 47.19000 32.04200
H  9.12900 46.48300 31.45800
H  8.05100 47.58200 33.12200
H  9.41800 48.49900 33.60100
H  15.63300 47.49800 26.72900
H  15.01600 48.67200 27.89400
H  15.43900 49.24300 26.44300
H  16.16600 47.76100 22.85400
H  15.81700 47.08200 24.48500
H  15.70300 48.85200 24.26400
H  9.67700 45.74300 21.83900
H  6.89400 46.82800 22.10500
H  9.53800 47.18000 20.17300
H  9.80700 48.41300 21.34100
H  8.11900 47.99800 20.81500
H  7.25200 44.49100 21.32300
H  6.29000 44.60400 22.77500
H  9.05200 44.01500 23.55500
H  8.26400 42.82000 22.48300
H  7.65400 43.27700 24.03300
H  2.87900 47.52900 27.02100
H  3.24100 45.96300 26.17200
H  3.51900 47.50600 25.42800
H  6.16100 48.75000 30.94600
H  4.92100 45.24400 33.61100
H  5.89100 46.25900 34.52200
H  6.72100 45.05400 33.42300

