158

Mg 47.10300 34.57000 27.74300
C  45.37000 32.91900 30.15400
C  47.59800 37.24000 29.93100
C  48.32800 36.45200 25.24400
C  46.41700 32.06400 25.50000
N  46.59100 35.02400 29.81000
C  45.86700 34.11500 30.61500
C  46.02700 34.57100 32.14300
C  46.23500 36.11300 31.90000
C  46.82500 36.17300 30.44400
C  44.91800 36.97200 32.04800
C  47.17200 33.81900 32.82200
C  47.02500 33.68200 34.35500
H  46.02800 34.54300 35.13900
N  47.91100 36.57600 27.59100
C  48.05600 37.45700 28.63400
C  48.66600 38.65900 28.06900
C  48.81100 38.42700 26.70600
C  48.30700 37.17200 26.45800
C  49.02400 39.78000 28.97900
C  49.40300 39.31500 25.67900
O  49.28200 39.17300 24.47700
C  49.94800 40.59300 26.17700
N  47.22600 34.35300 25.63800
C  47.86400 35.20300 24.86800
C  48.15200 34.68700 23.46100
C  47.72800 33.19600 23.64300
C  47.06800 33.15600 25.02900
C  47.43500 35.46600 22.38500
C  48.79100 32.13900 23.68800
C  48.67300 30.90500 22.72800
N  46.03100 32.82200 27.73100
C  45.84100 31.84300 26.75500
C  45.24800 30.69400 27.32400
C  44.91700 31.15600 28.64900
C  45.45400 32.38900 28.89100
C  45.04700 29.35600 26.72500
C  44.33800 30.70800 29.84700
O  43.73900 29.67600 30.17500
C  44.44200 31.89400 30.83000
C  44.77900 31.40100 32.21500
O  45.68400 30.57200 32.47700
O  43.94600 31.85000 33.09900
C  44.15600 31.46500 34.46700
H  47.65800 38.02100 30.69200
H  48.67500 36.93000 24.32600
H  46.33500 31.23200 24.79800
H  45.09100 34.53000 32.70000
H  47.00200 36.45300 32.59600
H  43.94300 36.49300 31.97100
H  44.88300 37.72800 31.26300
H  45.00100 37.58900 32.94300
H  48.11000 34.32500 32.59600
H  47.24900 32.82400 32.38500
H  48.00400 34.01500 34.69900
H  46.90600 32.63200 34.62500
H  50.05800 40.12200 28.91900
H  48.68900 39.68800 30.01200
H  48.42300 40.67600 28.82700
H  49.21200 41.11400 26.78800
H  50.02200 41.19700 25.27300
H  50.93300 40.57400 26.64500
H  49.23300 34.68900 23.32100
H  47.05200 32.91600 22.83400
H  46.83500 36.23700 22.86900
H  46.71400 34.89200 21.80200
H  48.11600 35.71000 21.57000
H  48.99600 31.64300 24.63700
H  49.69000 32.65900 23.35600
H  47.74000 30.87500 22.16500
H  48.70800 29.92400 23.20200
H  49.49000 31.02100 22.01700
H  45.67800 29.08200 25.87900
H  44.01800 29.26000 26.38000
H  45.23400 28.73400 27.60100
H  43.47000 32.38800 30.83400
H  44.14600 30.41700 34.76800
H  43.41000 31.96800 35.08200
H  45.15400 31.76800 34.78500
Mg 34.88800 49.63600 25.58200
C  35.39800 47.63300 28.50800
C  33.28800 52.01300 27.53600
C  34.30400 51.06300 22.77800
C  36.01400 46.75400 23.79400
N  34.39400 49.75200 27.77000
C  34.71900 48.84200 28.79400
C  34.22700 49.42400 30.14500
C  33.39700 50.63200 29.73300
C  33.73800 50.89000 28.27300
C  31.84600 50.52000 30.03400
C  35.48700 49.75100 31.09700
C  35.41300 49.38200 32.54600
H  33.98100 49.51400 33.11900
N  33.96000 51.38200 25.20700
C  33.32200 52.25800 26.12800
C  32.81700 53.36800 25.38000
C  33.17700 53.10200 23.98400
C  33.80100 51.80700 23.92400
C  32.09600 54.51000 26.05600
C  32.98300 54.02400 22.80200
O  33.18000 53.74800 21.61900
C  32.37000 55.45400 22.94300
N  35.16700 49.06700 23.54300
C  34.95200 49.87800 22.57700
C  35.56600 49.51500 21.21600
C  35.93100 48.00200 21.48400
C  35.67900 47.89100 23.05300
C  34.49700 49.59600 20.05500
C  37.40700 47.62800 21.10500
C  38.50400 47.93100 22.08900
N  35.58300 47.63500 25.97300
C  36.03400 46.61800 25.14100
C  36.49600 45.47200 25.95200
C  36.24100 45.89100 27.27300
C  35.71700 47.13300 27.21400
C  37.14700 44.25600 25.45300
C  36.31200 45.44000 28.71800
O  36.69300 44.31900 29.17500
C  35.73700 46.53900 29.55400
C  34.58400 45.99700 30.34000
O  33.46500 45.69400 29.90000
O  34.96600 45.78600 31.63200
C  34.06700 45.01800 32.51200
H  32.93800 52.79500 28.21300
H  34.08400 51.56000 21.83100
H  36.43800 45.92400 23.22500
H  33.58800 48.79200 30.76200
H  33.80600 51.50100 30.24900
H  31.31600 50.80100 29.12400
H  31.66300 51.28600 30.78700
H  31.60900 49.55800 30.48800
H  35.66800 50.82600 31.12100
H  36.31700 49.30000 30.55400
H  36.07000 50.04100 33.11400
H  35.72700 48.33900 32.58300
H  32.41100 55.53300 25.85200
H  32.19600 54.59200 27.13800
H  31.05200 54.52600 25.74200
H  31.99900 55.69700 21.94700
H  33.06600 56.21800 23.28900
H  31.56000 55.32800 23.66100
H  36.44700 50.09200 20.93600
H  35.22200 47.30900 21.03100
H  34.31300 50.66000 19.90600
H  33.63600 49.00900 20.37500
H  34.72500 49.06300 19.13100
H  37.70500 48.17900 20.21300
H  37.55400 46.59000 20.80900
H  38.08500 48.43700 22.95900
H  39.22500 48.67900 21.75800
H  39.10600 47.11100 22.47900
H  37.40800 43.56700 26.25500
H  38.00100 44.49000 24.81800
H  36.40000 43.75000 24.84100
H  36.42400 46.96800 30.28400
H  33.28000 45.65700 32.91400
H  34.63700 44.80100 33.41500
H  33.70900 44.10900 32.02800

