158

Mg 1.86800 -1.67200 45.52100
C  5.10700 -0.72900 44.62700
C  0.75100 0.99600 43.83500
C  -1.21200 -3.04200 45.67500
C  3.22300 -4.67300 46.95500
N  2.88400 0.05300 44.47300
C  4.15700 0.18500 44.15900
C  4.38400 1.53900 43.41400
C  2.96400 2.21500 43.48900
C  2.10800 1.05000 43.98300
C  2.78800 3.45500 44.46800
C  4.97900 1.36900 41.97100
C  6.25200 2.14800 41.74500
H  7.42700 1.48100 40.98700
N  0.01500 -1.10500 44.80800
C  -0.23000 -0.00900 44.07500
C  -1.62800 0.02600 43.64500
C  -2.23200 -1.13300 44.20100
C  -1.14900 -1.83800 44.91000
C  -2.16400 1.26200 42.82200
C  -3.69000 -1.52000 44.03500
O  -4.40900 -0.83600 43.33200
C  -4.35100 -2.76500 44.47000
N  1.10100 -3.51100 46.44400
C  -0.25900 -3.77800 46.44000
C  -0.59400 -5.13000 47.13600
C  0.88900 -5.60400 47.61200
C  1.83300 -4.55200 46.99200
C  -1.71800 -5.04700 48.25000
C  1.35600 -7.09100 47.25100
C  1.57800 -8.01000 48.49800
N  3.74200 -2.62100 45.71400
C  4.15000 -3.76400 46.41000
C  5.59900 -3.81200 46.25900
C  6.00500 -2.62800 45.69100
C  4.85800 -1.94900 45.34000
C  6.38100 -4.97900 46.67900
C  7.08900 -1.86800 45.24900
O  8.27100 -2.04100 45.43000
C  6.62400 -0.58000 44.58600
C  7.00500 0.55100 45.41600
O  6.26600 1.17000 46.16400
O  8.34600 0.86500 45.19800
C  8.80500 2.12700 45.70000
H  0.44600 1.92100 43.34100
H  -2.24300 -3.37900 45.80300
H  3.66900 -5.59200 47.34100
H  5.05100 2.16200 44.01100
H  2.61000 2.47100 42.49100
H  1.85800 3.48900 45.03400
H  2.79300 4.37000 43.87600
H  3.64300 3.55600 45.13600
H  4.30900 1.67800 41.16900
H  5.22900 0.32700 41.76900
H  6.81000 2.37700 42.65300
H  5.94400 3.06300 41.23900
H  -2.09400 1.18300 41.73700
H  -1.64700 2.16000 43.16100
H  -3.21500 1.44600 43.04500
H  -4.24100 -2.69500 45.55200
H  -3.75100 -3.50300 43.93800
H  -5.40500 -2.69500 44.19900
H  -0.96200 -5.78300 46.34400
H  1.02100 -5.46900 48.68500
H  -1.26700 -5.32000 49.20400
H  -2.60400 -5.63000 47.99900
H  -2.10000 -4.03400 48.37700
H  2.22000 -7.06900 46.58700
H  0.47900 -7.45100 46.71200
H  0.58500 -8.16900 48.91900
H  2.03600 -7.35100 49.23600
H  2.27000 -8.82800 48.29800
H  7.43300 -4.77000 46.87000
H  6.26300 -5.80700 45.98000
H  6.05200 -5.44700 47.60700
H  7.12100 -0.35700 43.64200
H  9.61400 1.93500 46.40400
H  8.09400 2.71300 46.28200
H  9.26900 2.63300 44.85400
Mg 24.36600 0.55600 29.69800
C  26.46100 0.55400 32.56200
C  21.68700 0.55100 31.75100
C  22.45500 0.53100 26.97300
C  27.31300 -0.10600 27.76100
N  24.15000 0.69100 31.90500
C  25.09600 0.74600 32.88100
C  24.44200 1.00700 34.28000
C  22.92100 0.67000 33.88900
C  22.85700 0.63600 32.45500
C  22.52400 -0.74600 34.36200
C  24.83100 2.42100 34.78100
C  24.50900 2.58300 36.27200
H  25.55100 2.23300 37.28500
N  22.32200 0.65200 29.39200
C  21.35000 0.59400 30.38400
C  19.99600 0.67700 29.71600
C  20.25300 0.67800 28.28500
C  21.70300 0.61200 28.18800
C  18.67300 0.66000 30.43500
C  19.33000 0.77300 27.15200
O  19.54200 0.53300 25.97500
C  17.94800 1.09400 27.56900
N  24.84900 0.15000 27.66400
C  23.89800 0.40800 26.73000
C  24.48800 0.19000 25.29100
C  26.02500 0.10600 25.55400
C  26.06000 0.09100 27.10700
C  23.92200 -1.08100 24.60500
C  26.93900 1.20300 24.98600
C  27.15200 2.45600 25.78700
N  26.44500 0.22200 29.98700
C  27.53100 0.02100 29.11600
C  28.76500 0.03200 29.86300
C  28.41300 0.26800 31.13000
C  27.02000 0.28800 31.23300
C  30.13100 -0.20500 29.20400
C  28.93900 0.53700 32.46800
O  30.10700 0.65100 32.87400
C  27.65800 0.70600 33.45400
C  27.79500 -0.41100 34.43400
O  27.09000 -1.36400 34.46100
O  28.82200 -0.08700 35.27500
C  28.91300 -0.90000 36.43200
H  20.73600 0.67300 32.27500
H  21.88300 0.57700 26.04300
H  28.12900 -0.19400 27.04000
H  24.90000 0.38100 35.04600
H  22.24400 1.40500 34.32400
H  23.22600 -0.84300 35.19000
H  22.56400 -1.62600 33.72000
H  21.56000 -0.72700 34.87200
H  24.24100 3.16100 34.24100
H  25.89300 2.43100 34.53300
H  23.53700 2.12000 36.44500
H  24.27500 3.64700 36.29700
H  18.03500 1.46800 30.07800
H  18.76800 0.74100 31.51800
H  18.17800 -0.30200 30.29900
H  17.99200 2.05400 28.08200
H  17.58000 0.28400 28.19900
H  17.31600 1.36200 26.72200
H  24.24000 0.99500 24.60000
H  26.34300 -0.89800 25.27600
H  22.85200 -1.26800 24.70300
H  24.42000 -1.97900 24.97000
H  24.08600 -0.93700 23.53700
H  26.37400 1.57300 24.13000
H  27.86500 0.76300 24.61700
H  26.66000 2.59700 26.75000
H  27.14100 3.38400 25.21700
H  28.21400 2.34000 26.00300
H  30.12100 -0.12600 28.11700
H  30.43400 -1.21500 29.47800
H  30.98600 0.41600 29.46900
H  27.85500 1.68000 33.90200
H  28.82300 -1.95400 36.17100
H  28.12200 -0.73800 37.16500
H  29.85800 -0.65900 36.92000

