158

Mg 0.97700 7.69900 27.42900
C  1.66700 9.76700 30.28900
C  0.31900 5.11600 29.80300
C  0.08800 5.77400 24.95800
C  1.69600 10.43400 25.36400
N  1.19700 7.34500 29.84000
C  1.29800 8.44100 30.72400
C  1.04900 8.00900 32.19700
C  0.74800 6.45300 32.00000
C  0.73700 6.27400 30.49700
C  1.79600 5.52200 32.72400
C  -0.20900 8.69300 32.69400
C  -0.26400 9.13100 34.15200
H  0.37400 8.26600 35.28200
N  0.34700 5.75500 27.39000
C  0.25400 4.80600 28.41000
C  -0.16500 3.54400 27.86300
C  -0.29500 3.71500 26.47400
C  0.05100 5.12300 26.17900
C  -0.24000 2.31100 28.80500
C  -0.66300 2.66600 25.41000
O  -0.63200 2.90300 24.21000
C  -1.11700 1.33900 25.86300
N  0.82800 8.07300 25.48800
C  0.55200 7.08200 24.61800
C  0.59800 7.58200 23.13800
C  1.14600 8.99200 23.25000
C  1.19100 9.25700 24.78100
C  1.35000 6.60500 22.23800
C  0.31600 10.07800 22.38800
C  -0.78500 10.84300 23.02100
N  1.70700 9.57700 27.69000
C  1.91400 10.56900 26.71700
C  2.20800 11.81600 27.43000
C  2.00200 11.54700 28.79900
C  1.80600 10.19000 28.92900
C  2.40200 13.16800 26.80800
C  2.05100 12.10000 30.10300
O  2.26300 13.26000 30.39800
C  1.78500 11.02400 31.11300
C  2.72900 11.11400 32.16800
O  3.89200 10.80300 32.11600
O  2.17000 11.73800 33.21200
C  3.01800 11.89500 34.39400
H  -0.00900 4.35900 30.51900
H  -0.17300 5.08300 24.15400
H  1.93100 11.20300 24.62400
H  1.93300 8.17400 32.81300
H  -0.21700 6.27100 32.47200
H  2.45000 4.93200 32.08100
H  1.20200 4.80200 33.28700
H  2.31400 6.14000 33.45800
H  -1.11800 8.10400 32.57300
H  -0.42900 9.52500 32.02500
H  -1.35200 9.18000 34.20200
H  0.09000 10.15300 34.28600
H  0.56300 1.60400 28.60100
H  -1.17900 1.77100 28.68200
H  -0.11400 2.55400 29.86000
H  -1.63800 0.84300 25.04300
H  -1.82700 1.48200 26.67700
H  -0.33900 0.66000 26.21200
H  -0.42900 7.60900 22.77300
H  2.19900 9.03400 22.97100
H  1.30800 7.01700 21.22900
H  0.84500 5.64100 22.29800
H  2.38100 6.50700 22.57700
H  -0.17200 9.56700 21.55800
H  1.06000 10.77000 21.99300
H  -1.56300 11.09800 22.30100
H  -0.44500 11.77500 23.47300
H  -1.33400 10.22400 23.73100
H  1.40300 13.59800 26.74200
H  2.96800 13.14100 25.87600
H  2.93000 13.85900 27.46500
H  0.83000 11.27800 31.57300
H  3.10500 10.93900 34.91100
H  2.53200 12.57700 35.09100
H  4.01400 12.29200 34.19700
Mg 25.95800 0.49800 29.11000
C  28.05100 0.29000 32.10700
C  23.36100 0.79800 31.20800
C  24.31200 1.11800 26.35000
C  28.99000 0.35800 27.31800
N  25.82800 0.55900 31.43000
C  26.67300 0.45300 32.45700
C  26.02500 0.52800 33.81100
C  24.52100 0.29800 33.39000
C  24.52900 0.48300 31.86700
C  23.74400 -0.93300 33.78200
C  26.23300 1.87400 34.53300
C  25.50700 1.95000 35.84600
H  26.30400 2.27100 37.12200
N  23.99100 0.87600 28.81700
C  23.08400 1.04900 29.85900
C  21.83800 1.33500 29.21700
C  22.07700 1.43500 27.76300
C  23.49300 1.03700 27.56300
C  20.60300 1.55500 30.03000
C  21.24400 1.81100 26.63600
O  21.63600 1.76700 25.51600
C  19.78700 2.06600 26.86300
N  26.56500 0.54700 27.16800
C  25.65700 0.93200 26.17300
C  26.37600 1.24700 24.88000
C  27.81400 0.78700 25.15500
C  27.82200 0.59900 26.62800
C  25.76100 0.61200 23.56700
C  28.88600 1.77900 24.52900
C  30.16300 1.11600 23.88200
N  28.09200 0.23000 29.56800
C  29.20700 0.22000 28.71600
C  30.47500 0.06000 29.47700
C  30.04000 0.10800 30.78300
C  28.58600 0.19200 30.74100
C  31.86900 -0.08300 28.98300
C  30.44500 0.21600 32.14600
O  31.59700 0.17400 32.59700
C  29.18000 0.26300 33.03800
C  29.09900 -0.70400 34.11100
O  28.84900 -1.89900 34.01600
O  29.20200 -0.08800 35.38200
C  28.89100 -0.79300 36.59600
H  22.56700 0.73300 31.95400
H  23.88100 1.48200 25.41500
H  29.93700 0.31400 26.77500
H  26.34500 -0.24500 34.51100
H  23.86600 1.11800 33.68600
H  22.82500 -0.78100 34.34700
H  24.21600 -1.64900 34.45400
H  23.44000 -1.56100 32.94400
H  26.01900 2.73400 33.89900
H  27.31000 1.97800 34.67100
H  25.10600 0.95200 36.02400
H  24.70800 2.67800 35.70500
H  19.82700 0.91900 29.60400
H  20.28300 2.59600 29.98500
H  20.90000 1.37900 31.06400
H  19.62300 2.71000 27.72700
H  19.23000 1.13500 26.96400
H  19.28000 2.58800 26.05100
H  26.38700 2.33100 24.76900
H  28.06500 -0.18400 24.73000
H  24.89500 -0.01100 23.79000
H  26.40700 -0.14500 23.12300
H  25.51400 1.27800 22.74000
H  29.16800 2.37400 25.39800
H  28.35800 2.43600 23.83800
H  30.17400 1.09500 22.79200
H  30.37200 0.06500 24.08300
H  31.03000 1.71400 24.16300
H  31.81500 0.06100 27.90400
H  32.33700 -1.00500 29.32800
H  32.40300 0.80600 29.31700
H  29.21100 1.28400 33.41800
H  29.37000 -1.74900 36.80900
H  27.87500 -1.16600 36.45900
H  28.95400 -0.20700 37.51300

