158

Mg 48.49800 14.82900 28.39500
C  46.13800 14.90800 30.94500
C  50.67700 16.38100 30.43300
C  50.77600 14.71500 25.84000
C  46.15200 13.36800 26.29600
N  48.36700 15.61000 30.44900
C  47.33500 15.53800 31.34200
C  47.74900 16.10700 32.72100
C  49.15900 16.71700 32.40000
C  49.47700 16.21000 30.93800
C  49.30100 18.28400 32.52100
C  47.86500 14.84300 33.68800
C  47.18900 15.07400 35.08400
H  47.01700 16.44100 35.77000
N  50.42400 15.49600 28.20200
C  51.19700 16.09200 29.16100
C  52.49800 16.31300 28.63700
C  52.52200 15.72400 27.33000
C  51.24600 15.18100 27.07500
C  53.59300 17.02600 29.48700
C  53.65400 15.78800 26.25100
O  53.64600 15.17300 25.16600
C  54.88600 16.61400 26.57000
N  48.35200 14.37700 26.29800
C  49.50800 14.22000 25.55900
C  49.10300 13.61900 24.19100
C  47.70300 13.02400 24.43800
C  47.38600 13.62500 25.80500
C  49.22600 14.51000 22.91800
C  47.59900 11.49800 24.34600
C  46.38900 10.94700 23.60400
N  46.50700 14.38200 28.47300
C  45.71900 13.70900 27.56400
C  44.48600 13.36800 28.23400
C  44.62300 13.71000 29.61600
C  45.85400 14.40000 29.68400
C  43.34000 12.63100 27.66100
C  43.90500 13.76400 30.87200
O  42.79200 13.29500 31.29200
C  44.93400 14.49900 31.72800
C  44.14800 15.60400 32.40900
O  44.02800 16.78800 32.02200
O  43.55000 15.15100 33.53600
C  42.83600 16.10700 34.35400
H  51.47500 16.87900 30.98600
H  51.43000 14.55300 24.98100
H  45.43500 12.90600 25.61400
H  47.04600 16.86500 33.06700
H  49.90500 16.29900 33.07600
H  50.26800 18.48900 32.98000
H  48.49200 18.67400 33.14000
H  49.10500 18.73100 31.54700
H  48.92400 14.61200 33.80600
H  47.36700 13.99800 33.21300
H  47.83800 14.53500 35.77300
H  46.22600 14.56200 35.07600
H  54.01300 17.84200 28.90000
H  54.25100 16.21400 29.79600
H  53.38000 17.56000 30.41300
H  55.46500 16.51600 25.65100
H  55.45500 15.99800 27.26600
H  54.81900 17.67600 26.80700
H  49.84800 12.84000 24.02800
H  47.06200 13.47200 23.67900
H  49.63200 15.45900 23.26900
H  48.30900 14.65900 22.34900
H  50.01600 14.16300 22.25100
H  47.48600 11.15500 25.37400
H  48.53000 11.11500 23.92800
H  46.69700 10.87800 22.56100
H  45.55300 11.63700 23.72200
H  46.07100 9.98100 23.99600
H  43.37700 12.70000 26.57400
H  42.56000 13.18600 28.18300
H  43.39800 11.57500 27.92500
H  45.22600 13.78800 32.50100
H  41.77300 16.23900 34.15200
H  43.30700 17.08900 34.29800
H  42.97100 15.84100 35.40300
Mg 26.54100 50.64400 26.40600
C  24.15900 51.45600 28.95600
C  28.77900 50.11500 28.80900
C  28.76300 50.27800 23.88700
C  24.07200 51.60100 24.10300
N  26.42300 50.77100 28.59300
C  25.37900 51.00700 29.44000
C  25.72900 50.87600 30.88200
C  27.32200 50.56400 30.79300
C  27.57100 50.50600 29.31200
C  28.23500 51.51600 31.59700
C  24.85500 49.76100 31.57600
C  25.34900 49.26300 32.88100
H  24.60400 49.72400 34.14300
N  28.46500 50.06800 26.33600
C  29.23900 49.88800 27.47200
C  30.49700 49.37200 27.03000
C  30.56900 49.51200 25.58900
C  29.25200 49.98300 25.19500
C  31.54100 48.98600 28.14200
C  31.75800 49.23100 24.72200
O  31.61600 49.46500 23.52600
C  33.03900 48.60900 25.21500
N  26.35100 50.92200 24.27300
C  27.42300 50.74300 23.49900
C  27.02200 50.74200 22.05800
C  25.61200 51.33200 22.10500
C  25.27700 51.27800 23.55000
C  27.98500 51.64300 21.18900
C  24.54900 50.44100 21.29400
C  23.58700 51.10000 20.27600
N  24.57700 51.40700 26.43100
C  23.73900 51.71800 25.41500
C  22.35300 52.09400 25.91200
C  22.51200 52.06100 27.30500
C  23.85700 51.58400 27.55300
C  21.24600 52.67700 25.17600
C  21.86400 52.42900 28.55300
O  20.75000 52.88700 28.79500
C  22.87500 51.85900 29.67300
C  23.14800 53.08600 30.51200
O  23.92100 53.97900 30.16500
O  22.48400 53.13900 31.67800
C  22.72400 54.26100 32.58100
H  29.45200 49.83600 29.62200
H  29.45200 50.01400 23.08200
H  23.26400 51.83400 23.40600
H  25.54400 51.87000 31.28900
H  27.60100 49.60600 31.23100
H  29.07500 51.82900 30.97700
H  28.62500 51.09100 32.52200
H  27.69600 52.42900 31.84700
H  24.57200 48.96200 30.89200
H  23.90700 50.27500 31.73200
H  26.35500 49.59500 33.13800
H  25.28700 48.17500 32.85800
H  31.20000 49.04700 29.17600
H  32.43500 49.60800 28.17000
H  31.89000 47.99200 27.86200
H  32.80100 47.62100 25.60900
H  33.40300 49.29500 25.98000
H  33.65300 48.59400 24.31400
H  26.92700 49.75000 21.61600
H  25.70200 52.36700 21.77700
H  28.90000 51.09500 20.96200
H  28.15100 52.56000 21.75500
H  27.43000 52.02900 20.33300
H  23.87000 49.96800 22.00300
H  25.11500 49.64700 20.80600
H  23.43200 50.54700 19.34900
H  23.99900 52.06400 19.97700
H  22.60800 51.33200 20.69500
H  21.18400 52.16700 24.21500
H  21.47000 53.71700 24.93500
H  20.29500 52.50000 25.67700
H  22.47400 51.07600 30.31600
H  23.61600 54.11400 33.19100
H  22.05300 54.48600 33.41000
H  22.81200 55.21700 32.06400

