158

Mg 49.63300 34.98700 28.03100
C  47.44700 33.80000 30.34800
C  49.83800 37.89500 29.98700
C  51.65200 36.37200 25.66100
C  48.68800 32.67400 25.68500
N  48.91400 35.67500 30.01100
C  48.13800 34.89900 30.84100
C  47.99800 35.55300 32.22900
C  48.36000 37.07700 31.87600
C  49.15000 36.91700 30.54300
C  47.23000 38.14800 31.72100
C  49.07700 34.92400 33.19900
C  48.64500 34.62900 34.65700
H  49.17500 35.57900 35.72800
N  50.83000 36.80000 27.93000
C  50.72800 37.82400 28.80100
C  51.62700 38.91400 28.33900
C  52.23300 38.44100 27.12100
C  51.60500 37.10800 26.85400
C  51.70300 40.23400 29.03400
C  53.22800 39.14000 26.18400
O  53.75100 38.51900 25.26800
C  53.67600 40.57800 26.46200
N  50.05800 34.59000 25.89500
C  50.99900 35.26000 25.20100
C  51.08700 34.70600 23.69400
C  50.32700 33.35600 23.83100
C  49.68900 33.49600 25.25800
C  50.48900 35.71900 22.69400
C  51.27000 32.22800 23.72100
C  51.84800 32.01900 22.29400
N  48.36200 33.46400 28.02000
C  48.06200 32.55200 26.99600
C  47.02700 31.68900 27.45100
C  46.68000 32.20100 28.71000
C  47.62200 33.20700 29.07900
C  46.27400 30.62600 26.67600
C  45.80100 31.96400 29.85200
O  44.86700 31.15900 30.06700
C  46.30200 32.92500 31.00300
C  46.82400 31.98800 32.06100
O  47.94800 31.62000 32.28000
O  45.85800 31.66000 32.86600
C  46.12300 30.80500 34.00200
H  50.03700 38.86500 30.44800
H  52.29500 36.73800 24.85800
H  48.46300 31.85000 25.00400
H  46.99900 35.48800 32.65900
H  49.09900 37.25500 32.65700
H  46.23100 37.71100 31.75000
H  47.18900 38.57500 30.71900
H  47.23500 38.96600 32.44100
H  50.04100 35.43400 33.19200
H  49.27100 33.94200 32.76900
H  48.72800 33.65000 35.12900
H  47.55800 34.69500 34.61400
H  52.33800 40.98900 28.57100
H  52.04400 39.99800 30.04200
H  50.68800 40.62100 29.11800
H  52.84400 41.27800 26.53400
H  54.29200 40.86000 25.60800
H  54.35100 40.56300 27.31800
H  52.14100 34.54500 23.46600
H  49.47900 33.31400 23.14700
H  50.39400 36.73200 23.08700
H  49.51900 35.30700 22.41500
H  51.21100 35.77100 21.87900
H  50.79700 31.30900 24.06600
H  52.09500 32.39700 24.41400
H  51.35400 32.70200 21.60400
H  51.59800 31.01500 21.95100
H  52.91400 32.24600 22.32200
H  45.33100 30.38000 27.16400
H  46.81700 29.68500 26.58200
H  45.93200 30.82900 25.66100
H  45.48000 33.49800 31.43200
H  47.10900 30.95500 34.44300
H  46.03800 29.75600 33.71600
H  45.40000 30.92300 34.80900
Mg 1.39900 41.92900 25.19400
C  2.58400 41.64700 28.42800
C  -1.73000 40.52800 26.35200
C  0.37900 41.64100 22.09400
C  4.61300 43.02300 24.15700
N  0.57600 41.21300 27.21700
C  1.22400 41.31200 28.35500
C  0.34300 41.06200 29.58100
C  -1.11100 40.63900 28.90700
C  -0.79300 40.75000 27.38300
C  -1.63400 39.19100 29.21200
C  0.25500 42.28700 30.60800
C  -1.11500 42.66700 31.28700
H  -1.73200 41.51000 32.10700
N  -0.40100 41.19900 24.36800
C  -1.57400 40.70000 24.95700
C  -2.57600 40.52000 23.88800
C  -1.96300 40.78300 22.67300
C  -0.60700 41.24900 22.98100
C  -3.92900 40.09000 24.24100
C  -2.43400 40.36600 21.26700
O  -1.67800 40.54500 20.30000
C  -3.77100 39.74700 21.00800
N  2.43000 42.10400 23.34600
C  1.74700 42.01200 22.19300
C  2.64000 42.27400 20.99300
C  3.89300 42.96100 21.67400
C  3.64300 42.69400 23.20600
C  2.77800 41.04200 20.14300
C  4.21100 44.40400 21.25300
C  3.05000 45.42100 21.41600
N  3.28900 42.31100 26.07200
C  4.45400 42.84200 25.53400
C  5.46200 42.88800 26.60200
C  4.81700 42.40000 27.75100
C  3.45800 42.10300 27.35400
C  6.80800 43.55600 26.50300
C  4.95900 42.15400 29.07700
O  5.87600 42.28200 29.78700
C  3.55100 41.60200 29.60100
C  3.81900 40.23500 30.19400
O  4.59700 39.41400 29.75500
O  3.12900 40.09400 31.34200
C  2.98300 38.80400 31.93900
H  -2.71400 40.20100 26.69800
H  0.21700 41.64900 21.01400
H  5.58000 43.37700 23.79200
H  0.63200 40.20500 30.19000
H  -1.88600 41.37600 29.11600
H  -0.84400 38.63700 29.72000
H  -1.83200 38.64600 28.28900
H  -2.49800 39.34700 29.85800
H  0.65800 43.16500 30.10300
H  0.99700 42.06500 31.37500
H  -1.93800 42.94000 30.62600
H  -0.95500 43.43300 32.04600
H  -4.37000 40.89400 24.83000
H  -3.90400 39.27600 24.96500
H  -4.57000 39.97700 23.36600
H  -4.06300 38.95700 21.70100
H  -3.75500 39.34100 19.99700
H  -4.39300 40.63800 20.93000
H  2.24600 43.05600 20.34400
H  4.77000 42.34700 21.46900
H  2.31600 40.21700 20.68500
H  3.82600 40.87100 19.89400
H  2.22900 41.05200 19.20200
H  4.55400 44.27100 20.22700
H  5.11400 44.76300 21.74700
H  2.59200 45.36900 22.40300
H  2.35200 45.51800 20.58400
H  3.46500 46.42500 21.32500
H  6.93800 44.35700 27.23000
H  6.91200 43.92300 25.48200
H  7.54500 42.77500 26.68500
H  3.14500 42.26100 30.36800
H  1.90400 38.65300 31.97100
H  3.45300 38.94300 32.91300
H  3.59000 38.04000 31.45200

