158

Mg 36.10300 0.38300 30.41200
C  33.62500 1.55800 32.64200
C  38.43800 0.82700 32.77600
C  38.27200 -0.16400 28.07100
C  33.49300 0.71400 27.81400
N  36.04700 1.21000 32.41200
C  34.93000 1.39600 33.21200
C  35.24700 1.39200 34.73700
C  36.81800 1.67500 34.62800
C  37.15900 1.13800 33.22100
C  37.13600 3.20700 34.94500
C  34.89400 0.05400 35.48600
C  34.21200 0.15500 36.83500
H  34.22900 1.41100 37.81300
N  38.09500 0.29300 30.46300
C  38.89500 0.44700 31.48200
C  40.23100 0.08100 31.04000
C  40.23300 -0.29700 29.70000
C  38.83500 -0.09100 29.32400
C  41.34000 0.09900 32.06100
C  41.35000 -0.69500 28.84300
O  41.21100 -1.08300 27.70900
C  42.70500 -0.84200 29.45000
N  35.88100 0.60900 28.23400
C  36.98000 0.12500 27.58500
C  36.72900 0.07400 26.13400
C  35.19200 0.27000 25.96100
C  34.80400 0.52800 27.39100
C  37.57800 0.91000 25.21800
C  34.48200 -0.89200 25.20300
C  33.98400 -2.07000 26.03300
N  34.01300 0.96900 30.21700
C  33.11500 1.02500 29.13300
C  31.80500 1.24300 29.56700
C  32.00600 1.52200 30.93500
C  33.30600 1.30200 31.27400
C  30.48900 1.30700 28.78600
C  31.26300 1.95400 32.10900
O  30.08000 2.29600 32.16200
C  32.28800 1.85000 33.39200
C  32.30200 3.12800 34.21500
O  33.03600 4.09000 34.04900
O  31.34600 2.96600 35.23400
C  31.13000 4.14200 36.09600
H  39.14100 0.77700 33.61000
H  39.02400 -0.41700 27.32100
H  32.72600 0.64700 27.03900
H  34.74400 2.14600 35.34300
H  37.33200 1.04800 35.35700
H  37.02700 3.76600 34.01600
H  38.17800 3.27200 35.25800
H  36.49900 3.63500 35.71900
H  35.65700 -0.72400 35.46700
H  34.11000 -0.37600 34.86400
H  34.68500 -0.64200 37.40900
H  33.15000 -0.05900 36.71500
H  42.30300 0.38800 31.64000
H  41.55100 -0.87700 32.49800
H  41.08700 0.73600 32.90800
H  42.63600 -1.41100 30.37700
H  43.07500 0.17900 29.54000
H  43.35300 -1.46300 28.83200
H  37.19800 -0.88900 25.93000
H  35.01600 1.21900 25.45400
H  38.50000 1.22000 25.71000
H  37.03300 1.78800 24.87000
H  37.83200 0.33800 24.32600
H  35.18400 -1.27400 24.46200
H  33.69400 -0.37700 24.65300
H  34.31400 -1.94400 27.06400
H  34.44300 -2.96700 25.61800
H  32.92500 -2.30400 25.92100
H  30.48300 0.45500 28.10600
H  30.57500 2.22700 28.20800
H  29.60900 1.27100 29.42900
H  32.00300 0.99400 34.00400
H  31.33000 3.80400 37.11300
H  30.06200 4.35200 36.15200
H  31.76700 5.00700 35.91200
Mg 25.41200 50.04200 26.18500
C  23.34700 51.22800 28.81400
C  27.70000 49.37200 28.57400
C  27.61100 49.41300 23.76700
C  23.23100 51.26700 23.93400
N  25.38800 50.06100 28.52300
C  24.48300 50.70200 29.36400
C  24.82600 50.39100 30.82000
C  26.33300 50.09600 30.68500
C  26.53300 49.79200 29.18200
C  27.38400 51.18300 31.21400
C  23.97100 49.24100 31.35300
C  23.61900 49.31700 32.92600
H  24.37300 50.24500 33.84400
N  27.39300 49.37900 26.22000
C  28.14100 49.21100 27.30300
C  29.44900 48.74400 26.93800
C  29.47000 48.71200 25.51300
C  28.13800 49.10400 25.07700
C  30.58700 48.35700 27.88900
C  30.60500 48.43000 24.53900
O  30.54400 48.68700 23.32200
C  31.94900 47.91700 25.03500
N  25.40900 50.27400 24.15500
C  26.44500 49.94700 23.34400
C  25.99600 50.01500 21.85300
C  24.54300 50.52300 21.85000
C  24.36900 50.70200 23.40900
C  26.98200 50.63400 20.83300
C  23.50100 49.53000 21.31100
C  22.22400 50.10900 20.76800
N  23.65500 51.07600 26.32000
C  22.88000 51.55100 25.32000
C  21.69800 52.25800 25.84900
C  21.86700 52.11600 27.21500
C  23.07000 51.46700 27.43300
C  20.65800 52.93400 25.03800
C  21.32400 52.41800 28.50300
O  20.27100 53.02400 28.82000
C  22.21600 51.85800 29.60200
C  22.60300 53.02200 30.43900
O  23.15500 53.98400 30.03800
O  22.06600 52.88500 31.71500
C  22.43600 54.00600 32.61000
H  28.51900 49.22300 29.28100
H  28.22000 49.22300 22.88100
H  22.45500 51.55600 23.22100
H  24.67500 51.34400 31.32500
H  26.60400 49.16500 31.18100
H  26.88300 52.14400 31.32100
H  28.15000 51.39800 30.47000
H  27.83300 50.98800 32.18800
H  24.47900 48.32400 31.05400
H  23.00800 49.21300 30.84400
H  23.67500 48.28800 33.28000
H  22.56400 49.59100 32.92500
H  30.47500 48.78800 28.88400
H  31.58400 48.61100 27.52800
H  30.61000 47.27000 27.96500
H  32.46300 47.52700 24.15600
H  31.80800 47.04600 25.67600
H  32.48200 48.73300 25.52200
H  25.97000 48.98900 21.48600
H  24.39800 51.44400 21.28500
H  27.89900 50.87300 21.37100
H  26.51500 51.56600 20.51500
H  27.19100 49.90500 20.05100
H  23.22400 48.76600 22.03800
H  23.99100 48.97900 20.50900
H  21.50900 50.09300 21.59100
H  21.94700 49.66000 19.81500
H  22.34800 51.18400 20.63000
H  20.34400 52.53900 24.07200
H  21.06400 53.94200 24.95600
H  19.77800 53.02900 25.67400
H  21.60600 51.10800 30.10600
H  21.65500 54.75900 32.50300
H  23.41800 54.45100 32.44700
H  22.39100 53.71700 33.66000

