158

Mg 26.80300 49.81000 26.31600
C  24.71400 50.94100 28.93300
C  29.07400 48.78800 28.76100
C  28.85600 49.15800 23.88300
C  24.47700 51.24500 23.98600
N  26.85600 49.66400 28.56100
C  25.85200 50.17400 29.39600
C  26.13500 50.00800 30.80200
C  27.68900 49.55700 30.77400
C  27.88800 49.30600 29.30600
C  28.72100 50.64200 31.43200
C  25.05500 49.02300 31.36400
C  24.62500 49.24800 32.86700
H  25.57400 49.75300 33.94100
N  28.56400 48.90800 26.36100
C  29.35700 48.56600 27.40600
C  30.62500 47.97000 26.91400
C  30.58600 48.05000 25.46900
C  29.30700 48.72600 25.18700
C  31.60800 47.19000 27.78300
C  31.60500 47.52600 24.40000
O  31.46700 47.66200 23.20400
C  32.87600 46.77300 24.89100
N  26.71500 50.22400 24.26300
C  27.67400 49.87100 23.41300
C  27.41500 50.11800 21.97200
C  25.98400 50.50600 21.97100
C  25.62800 50.66800 23.48600
C  28.45400 50.93500 21.21500
C  25.05700 49.59300 21.09600
C  24.57000 48.29900 21.76400
N  25.02400 51.02200 26.41200
C  24.21800 51.46600 25.39200
C  23.06900 52.17400 25.99500
C  23.24200 51.90400 27.38300
C  24.41000 51.23800 27.57600
C  22.06500 52.98400 25.24300
C  22.68100 52.26200 28.64900
O  21.63900 52.92800 29.00600
C  23.57700 51.60800 29.80100
C  24.08400 52.67400 30.73300
O  24.94900 53.50000 30.48200
O  23.33100 52.56800 31.83500
C  23.74700 53.45800 32.94000
H  29.85000 48.61900 29.51000
H  29.48900 49.01200 23.00500
H  23.73300 51.69400 23.32500
H  26.08300 51.01000 31.22900
H  27.89200 48.60500 31.26600
H  28.35200 51.64000 31.66900
H  29.43200 50.83700 30.62900
H  29.30600 50.22800 32.25300
H  25.54300 48.04800 31.33400
H  24.15600 48.81600 30.78400
H  24.46400 48.24700 33.26700
H  23.64100 49.71400 32.82100
H  31.57400 46.15200 27.45500
H  31.33000 47.22100 28.83700
H  32.60400 47.63200 27.77600
H  33.67400 46.97900 24.17800
H  32.76500 45.70300 25.06600
H  33.22900 47.20900 25.82600
H  27.47800 49.16400 21.44800
H  25.92500 51.50200 21.53200
H  29.13800 50.31200 20.63800
H  29.04900 51.69900 21.71400
H  27.85000 51.45600 20.47300
H  25.64800 49.43100 20.19400
H  24.14300 50.06200 20.73100
H  23.48100 48.33900 21.74100
H  24.89400 48.13800 22.79200
H  24.89100 47.47700 21.12300
H  21.58300 53.73800 25.86600
H  21.22400 52.33500 24.99900
H  22.44700 53.37000 24.29800
H  23.00900 50.87800 30.37900
H  23.86600 54.48400 32.59200
H  24.66700 53.10100 33.40200
H  22.99900 53.52400 33.73100
Mg 9.88000 47.68800 25.51700
C  7.84700 47.93000 28.49700
C  12.44300 48.77300 27.23600
C  11.63400 47.35900 22.71100
C  6.83400 47.28300 23.73800
N  9.99600 48.31500 27.60200
C  9.22200 48.27000 28.68600
C  9.83500 48.69100 30.05400
C  11.20800 49.21000 29.49900
C  11.23500 48.72600 28.02400
C  11.57900 50.70200 29.67600
C  9.96900 47.49200 31.08600
C  9.53300 47.81100 32.46900
H  9.62600 46.60500 33.45600
N  11.85800 47.98300 25.02600
C  12.77500 48.35900 25.95000
C  14.07600 48.20500 25.34700
C  13.88000 47.87800 23.95100
C  12.39700 47.74800 23.81800
C  15.32600 48.51500 26.07300
C  14.89500 47.59600 22.83600
O  14.59000 47.34600 21.69500
C  16.37000 47.52600 23.10900
N  9.28300 47.42900 23.56200
C  10.24000 47.18000 22.54100
C  9.64000 46.49500 21.24700
C  8.15500 46.51600 21.73500
C  8.09800 47.15700 23.11600
C  9.82700 47.37900 19.90100
C  7.41600 45.11100 21.67300
C  7.79200 44.20500 22.80400
N  7.74400 47.41400 26.03000
C  6.64400 47.37400 25.16400
C  5.40400 47.35600 25.94800
C  5.86200 47.52000 27.32400
C  7.26800 47.62600 27.26600
C  4.07500 47.18300 25.30000
C  5.45500 47.59500 28.74100
O  4.33800 47.40700 29.22400
C  6.73600 47.85300 29.49800
C  6.77200 46.62700 30.24900
O  7.29700 45.55900 29.95400
O  6.25100 46.90500 31.49200
C  6.18700 45.85600 32.54600
H  13.18800 49.17000 27.92900
H  12.22100 47.23700 21.79800
H  5.96100 47.13200 23.09900
H  9.16100 49.49100 30.35800
H  12.03600 48.62200 29.89500
H  12.40800 50.74700 30.38300
H  10.75600 51.33600 30.00500
H  12.02400 50.99600 28.72600
H  11.03500 47.27100 31.13800
H  9.45100 46.62300 30.68200
H  8.45100 47.94500 32.49700
H  10.04200 48.71700 32.79800
H  15.20400 48.35400 27.14400
H  15.68200 49.53600 25.93600
H  16.12000 47.84600 25.74100
H  16.46100 46.70900 23.82400
H  16.66400 48.50200 23.49500
H  16.86000 47.28800 22.16500
H  10.11700 45.53600 21.04400
H  7.53200 47.15800 21.11200
H  8.93000 47.84300 19.49000
H  10.29300 46.89600 19.04200
H  10.42600 48.25400 20.14800
H  7.84500 44.57000 20.83000
H  6.36200 45.20400 21.41400
H  8.50100 44.59700 23.53400
H  8.32800 43.35000 22.39200
H  6.89800 43.87400 23.33200
H  3.91000 46.32900 24.64300
H  3.82100 48.08200 24.73800
H  3.30900 46.97100 26.04600
H  6.62900 48.82300 29.98300
H  5.48700 45.12400 32.14200
H  5.69400 46.31900 33.40100
H  7.14300 45.41400 32.82700

