158

Mg 0.58700 8.02000 27.22000
C  1.70000 10.14500 29.83900
C  0.74400 5.50400 29.45600
C  -0.09000 6.03300 24.65300
C  0.95700 10.66800 24.96400
N  1.06200 7.90700 29.43800
C  1.34700 8.92600 30.35800
C  1.12400 8.41600 31.82200
C  1.23700 6.87800 31.61000
C  1.04900 6.70800 30.07500
C  2.57400 6.22100 32.14500
C  -0.23800 8.87100 32.35500
C  -0.33400 8.82400 33.91000
H  0.90400 8.36200 34.78300
N  0.39700 5.93700 27.05700
C  0.46800 5.08000 28.10000
C  0.23500 3.73300 27.54600
C  0.00300 3.89600 26.14100
C  0.14300 5.36800 25.87500
C  0.14600 2.43300 28.36500
C  -0.24400 2.84800 25.04500
O  -0.56200 3.18700 23.90700
C  -0.30700 1.35000 25.34300
N  0.62600 8.27300 25.06900
C  0.08600 7.37000 24.30500
C  -0.27500 7.83200 22.90300
C  -0.13300 9.34400 23.01800
C  0.50400 9.48100 24.39900
C  0.49800 7.20800 21.75100
C  -1.42800 10.09900 22.86300
C  -1.32700 11.50000 22.27800
N  1.15400 10.02600 27.31200
C  1.36900 10.97200 26.34300
C  1.63200 12.27900 26.94000
C  1.76800 11.96500 28.30400
C  1.59800 10.53800 28.45100
C  1.96200 13.61000 26.27900
C  2.19400 12.56100 29.53000
O  2.47200 13.76100 29.77300
C  1.95500 11.45500 30.59500
C  2.97100 11.37700 31.65500
O  4.09100 10.93800 31.53100
O  2.41600 11.99700 32.85600
C  3.31600 12.09700 33.98200
H  0.78100 4.68400 30.17700
H  -0.36500 5.44400 23.77600
H  0.97000 11.56000 24.33400
H  1.93900 8.69900 32.48800
H  0.43200 6.53100 32.25800
H  3.24700 5.92500 31.34100
H  2.27200 5.35600 32.73500
H  3.12700 6.91800 32.77500
H  -1.06800 8.29600 31.94400
H  -0.23400 9.91800 32.05000
H  -1.14900 8.11300 34.04700
H  -0.71000 9.78800 34.25400
H  1.03300 1.82200 28.19700
H  -0.72600 1.82600 28.12100
H  0.16700 2.53500 29.45000
H  -0.09300 0.79700 24.42800
H  -1.31100 1.17700 25.73000
H  0.39300 1.09600 26.13800
H  -1.32700 7.59500 22.74800
H  0.54500 9.70000 22.24200
H  -0.14800 6.82500 20.96100
H  1.16500 6.38900 22.02100
H  1.16600 7.97400 21.35700
H  -1.83900 10.16000 23.87100
H  -2.02200 9.45500 22.21400
H  -1.05400 12.16200 23.10000
H  -2.17400 11.77000 21.64800
H  -0.51300 11.49200 21.55400
H  1.23400 13.90100 25.52200
H  2.89200 13.32100 25.79100
H  2.11000 14.38100 27.03600
H  0.95600 11.72300 30.94000
H  4.29100 12.43800 33.63500
H  3.45800 11.10300 34.40700
H  2.74600 12.68700 34.70000
Mg 10.12700 48.60400 24.79000
C  7.85500 48.83600 27.44100
C  12.54100 49.81600 26.81300
C  12.15500 48.39800 22.08600
C  7.31400 47.96600 22.68000
N  10.12600 49.30000 26.83100
C  9.15100 49.12800 27.80200
C  9.59200 49.61600 29.24100
C  10.84300 50.38900 28.75100
C  11.27100 49.80400 27.37900
C  10.72900 51.95700 28.66500
C  9.93800 48.47400 30.22600
C  9.52800 48.71100 31.66600
H  9.59700 47.58000 32.75600
N  12.11500 48.87600 24.56100
C  12.97700 49.37700 25.51900
C  14.37400 49.20900 24.99100
C  14.23600 48.78900 23.64200
C  12.76500 48.71900 23.33300
C  15.56700 49.52400 25.81900
C  15.30400 48.44700 22.59800
O  15.06500 47.97500 21.51900
C  16.70300 48.71800 22.99300
N  9.80800 48.32100 22.66800
C  10.81000 48.19700 21.80400
C  10.24800 47.63200 20.40000
C  8.76300 47.41800 20.73400
C  8.59400 47.96200 22.10100
C  10.48100 48.41100 19.17400
C  8.30300 45.86600 20.48100
C  8.35800 44.91100 21.71200
N  7.97000 48.44700 24.99700
C  7.05400 48.21700 24.02600
C  5.74800 48.34100 24.65800
C  5.94700 48.57500 25.96500
C  7.37000 48.66700 26.13500
C  4.49100 48.05100 24.04200
C  5.35100 48.75600 27.25800
O  4.17100 48.75100 27.56200
C  6.60000 48.91600 28.28900
C  6.56300 47.79600 29.19300
O  7.08100 46.73500 28.98200
O  5.86500 48.10100 30.26900
C  5.44500 47.02000 31.11000
H  13.35100 50.15600 27.46200
H  12.74100 48.25600 21.17500
H  6.45900 47.69300 22.05800
H  8.91200 50.34300 29.68400
H  11.65400 50.07500 29.40800
H  9.78000 52.13500 29.17000
H  10.58400 52.22200 27.61700
H  11.62400 52.51800 28.93400
H  11.02500 48.47600 30.30700
H  9.70400 47.46700 29.87900
H  8.60300 49.28600 31.62600
H  10.30500 49.38400 32.02700
H  16.12600 48.59500 25.92200
H  15.27500 49.75700 26.84300
H  16.21400 50.34400 25.50600
H  16.82100 49.76000 23.29100
H  17.35100 48.67600 22.11800
H  17.13900 48.10600 23.78300
H  10.74100 46.66000 20.40500
H  8.11700 48.03300 20.10800
H  9.53400 48.84700 18.85600
H  10.80700 47.81600 18.32100
H  11.19700 49.20300 19.39000
H  8.99200 45.50400 19.71800
H  7.27000 45.95500 20.14600
H  7.35900 44.64600 22.05800
H  8.99900 45.38000 22.45700
H  8.86400 43.95800 21.55100
H  4.61100 47.05000 23.62700
H  4.17800 48.84600 23.36500
H  3.76300 47.91900 24.84200
H  6.60400 49.83100 28.88200
H  5.46900 47.32900 32.15500
H  6.16800 46.21500 30.97600
H  4.41300 46.75000 30.88700

