158

Mg 40.75300 7.14300 28.90800
C  42.37900 8.43100 31.69900
C  38.43000 5.78100 31.15600
C  39.42900 5.74700 26.25000
C  43.24600 8.47400 26.99800
N  40.45900 7.12200 31.24900
C  41.21200 7.79500 32.10600
C  40.53800 7.91400 33.44700
C  39.37100 6.83100 33.30500
C  39.42300 6.47600 31.81300
C  39.57400 5.58100 34.17000
C  40.01200 9.33400 33.69200
C  39.94600 9.75400 35.16300
H  40.99500 10.69100 35.80800
N  39.17800 5.79300 28.70200
C  38.32800 5.43500 29.74800
C  37.22900 4.65400 29.13700
C  37.52300 4.59400 27.70500
C  38.70500 5.40100 27.47400
C  36.09600 4.10000 29.94300
C  36.71100 4.02100 26.54300
O  37.08000 3.95500 25.37900
C  35.49000 3.34900 26.93000
N  41.48600 6.75300 26.93200
C  40.61400 6.40700 25.98700
C  41.11200 6.57400 24.54600
C  42.11100 7.70600 24.84300
C  42.34100 7.67400 26.33700
C  41.69800 5.30500 23.89200
C  41.87500 9.09900 24.27200
C  40.64900 9.81300 24.79000
N  42.47800 8.15800 29.18300
C  43.42800 8.65000 28.34300
C  44.50300 9.34300 29.07000
C  44.11200 9.27600 30.42000
C  42.84900 8.60000 30.41400
C  45.72200 9.93000 28.48100
C  44.47200 9.68600 31.77100
O  45.35900 10.40400 32.19100
C  43.37000 9.15500 32.61700
C  43.94700 8.17000 33.57300
O  44.37500 7.07800 33.29500
O  43.78700 8.52800 34.90800
C  44.15600 7.58300 35.97100
H  37.65800 5.32800 31.78100
H  39.05500 5.34600 25.30600
H  43.92900 9.01700 26.34100
H  41.25600 7.51100 34.16200
H  38.36500 7.25000 33.29100
H  39.26700 4.71600 33.58300
H  39.05100 5.61700 35.12600
H  40.64300 5.56800 34.38500
H  38.95700 9.40600 33.42800
H  40.59000 10.10300 33.18000
H  39.90800 8.82100 35.72400
H  38.98500 10.25800 35.27500
H  35.23400 4.71300 29.68300
H  36.23200 3.96500 31.01600
H  35.86100 3.05200 29.75400
H  35.76400 2.72700 27.78200
H  35.03800 2.79300 26.10800
H  34.78000 4.12000 27.22800
H  40.19800 6.78800 23.99100
H  43.09600 7.40300 24.48800
H  42.73300 5.31100 23.55100
H  41.15100 5.14600 22.96300
H  41.55800 4.46200 24.56800
H  41.57800 8.84600 23.25400
H  42.79700 9.67200 24.37000
H  40.29600 9.37400 25.72300
H  39.85000 9.83400 24.05000
H  40.97700 10.84500 24.91900
H  46.05900 10.70400 29.17000
H  45.44900 10.48600 27.58400
H  46.54800 9.27000 28.21800
H  42.79600 9.96300 33.07200
H  44.59000 6.70400 35.49400
H  43.40800 7.19800 36.66400
H  44.98500 8.06200 36.49100
Mg 26.06200 51.97000 26.39000
C  23.91900 52.93000 28.94200
C  28.33000 51.13500 28.77500
C  28.28800 51.61100 23.86700
C  23.79400 53.48900 24.05800
N  26.02700 51.80500 28.57200
C  25.05700 52.25400 29.38600
C  25.39000 52.03100 30.88000
C  26.93700 51.66300 30.82900
C  27.12400 51.55200 29.31400
C  27.84500 52.76100 31.45400
C  24.45300 50.94900 31.62000
C  23.72500 51.57000 32.86900
H  23.54400 50.54400 34.03100
N  28.07400 51.47600 26.32300
C  28.80600 50.99700 27.44400
C  30.12700 50.58500 26.95200
C  30.14600 50.88000 25.58300
C  28.84100 51.34800 25.18000
C  31.26800 50.05500 27.85000
C  31.33000 50.79600 24.62300
O  31.20900 51.17400 23.41200
C  32.69600 50.47100 25.04400
N  26.05200 52.47300 24.32600
C  27.07100 52.15100 23.50900
C  26.77500 52.54500 22.02900
C  25.25200 52.88100 22.04200
C  25.03300 52.96900 23.54300
C  27.65600 53.71400 21.47100
C  24.42000 51.74200 21.31600
C  23.79700 52.25600 20.02900
N  24.13400 52.75900 26.45900
C  23.42700 53.39400 25.42100
C  22.10900 53.87100 25.97400
C  22.30200 53.66200 27.33800
C  23.54600 53.05600 27.59500
C  20.99300 54.60800 25.20000
C  21.64300 53.79800 28.59700
O  20.49000 54.16000 28.81500
C  22.67000 53.34500 29.67800
C  22.90300 54.48200 30.60800
O  23.80400 55.24000 30.44200
O  21.95800 54.45100 31.58000
C  22.02400 55.54100 32.63000
H  29.09800 50.92600 29.52200
H  28.97200 51.41800 23.03800
H  23.07000 53.69400 23.26700
H  25.18000 53.00600 31.32000
H  27.18800 50.67900 31.22400
H  27.45100 53.77600 31.48500
H  28.82100 52.78000 30.96800
H  28.19900 52.51200 32.45400
H  24.91400 49.99500 31.87200
H  23.68900 50.70700 30.88100
H  22.75100 51.83800 32.46000
H  24.28100 52.45500 33.17600
H  32.20300 50.52200 27.53900
H  31.27000 48.96900 27.75800
H  30.99300 50.37800 28.85400
H  32.70500 49.39400 25.21300
H  33.17200 51.09500 25.80100
H  33.29500 50.63600 24.14900
H  26.91500 51.60300 21.49900
H  25.08100 53.87600 21.63100
H  27.95100 54.42900 22.24000
H  27.01100 54.15900 20.71400
H  28.54600 53.32400 20.97800
H  23.66200 51.26800 21.94100
H  25.05800 50.96300 20.89800
H  24.42800 52.02700 19.17000
H  23.63400 53.33100 20.11000
H  22.73100 52.13600 19.83600
H  20.05800 54.10200 25.43800
H  21.05200 54.53600 24.11400
H  21.07000 55.65800 25.48300
H  22.18200 52.53700 30.22400
H  22.96100 55.58600 33.18600
H  21.27500 55.36300 33.40200
H  21.93500 56.50100 32.12200

