158

Mg 30.08700 58.90000 38.33700
C  27.44900 56.79600 37.35700
C  32.32900 56.40900 37.79300
C  32.55100 61.18300 38.35300
C  27.70600 61.56100 38.38300
N  29.85900 56.84800 37.57200
C  28.74700 56.17200 37.16900
C  29.04700 54.71600 36.96300
C  30.50400 54.57500 37.59900
C  30.94400 56.02500 37.65600
C  30.70900 53.72100 38.90000
C  28.95000 54.41300 35.42400
C  27.67200 53.65700 34.97400
H  26.78400 54.31100 33.91100
N  32.08600 58.80100 38.11200
C  32.89700 57.67800 37.93100
C  34.34100 58.05200 37.88900
C  34.40500 59.43100 38.12600
C  32.98900 59.87300 38.19900
C  35.41500 57.01800 37.64400
C  35.64400 60.28400 38.25900
O  36.76600 59.77200 38.09100
C  35.64400 61.76100 38.67300
N  30.10100 61.15500 38.17300
C  31.29100 61.81500 38.39500
C  30.98700 63.37700 38.37200
C  29.47300 63.49000 38.46400
C  29.05700 61.97200 38.33400
C  31.89600 64.14600 39.35500
C  28.87800 64.44500 37.42900
C  27.83200 65.45900 37.96400
N  28.03400 59.20200 37.98100
C  27.24300 60.29300 38.12200
C  25.80800 59.93500 38.06200
C  25.84100 58.56300 37.70300
C  27.19600 58.18700 37.67900
C  24.63300 60.80000 38.40100
C  25.03800 57.34400 37.51700
O  23.85500 57.08800 37.54100
C  26.04500 56.22600 37.10200
C  25.72700 54.92300 37.74800
O  26.04100 54.57800 38.89300
O  24.80500 54.34800 36.99800
C  23.97800 53.23900 37.67200
H  33.10600 55.64500 37.86100
H  33.21000 62.04400 38.48900
H  26.98200 62.37200 38.48100
H  28.33400 54.08900 37.49900
H  31.19800 54.15900 36.86900
H  29.76700 53.20000 39.07200
H  30.99800 54.15000 39.85900
H  31.44300 52.97200 38.60400
H  29.79100 53.77600 35.15200
H  29.06600 55.34500 34.87200
H  26.99100 53.29500 35.74400
H  28.04800 52.77300 34.45900
H  35.53700 56.89500 36.56700
H  35.12400 56.14900 38.23400
H  36.31900 57.35700 38.14900
H  36.67700 62.09700 38.76500
H  35.14700 61.75400 39.64400
H  35.08300 62.34900 37.94800
H  31.33800 63.65800 37.37900
H  29.30400 63.87100 39.47200
H  31.32200 64.77700 40.03300
H  32.53400 64.81500 38.77800
H  32.52600 63.50100 39.96700
H  28.32600 63.83200 36.71600
H  29.63500 64.90000 36.79100
H  26.82900 65.07300 37.78100
H  28.09400 66.45600 37.60900
H  28.00900 65.46100 39.04000
H  23.95800 60.33300 39.11700
H  24.20500 60.77200 37.39900
H  24.89000 61.81800 38.69400
H  25.80900 56.03300 36.05500
H  23.00700 53.07700 37.20500
H  23.87600 53.30200 38.75600
H  24.52500 52.30100 37.56900
Mg -1.76400 34.81600 26.86700
C  -3.04100 32.84500 29.53200
C  -0.23400 36.76500 29.07100
C  -0.97500 36.73600 24.23500
C  -3.40600 32.53800 24.59500
N  -1.81500 34.86700 29.11400
C  -2.19200 33.82600 29.99300
C  -1.72100 34.09600 31.41500
C  -0.76600 35.41200 31.19100
C  -0.97200 35.77200 29.69000
C  -1.02500 36.55600 32.18700
C  -0.98400 32.91800 32.04400
C  -1.67200 32.27800 33.25200
H  -0.82200 32.29700 34.53200
N  -0.72700 36.56500 26.69000
C  -0.13700 37.18600 27.73700
C  0.59200 38.22900 27.19900
C  0.44600 38.23400 25.76900
C  -0.46700 37.12700 25.48400
C  1.38700 39.18900 28.07900
C  1.02600 39.22200 24.72000
O  0.72900 39.25600 23.51700
C  2.02900 40.18500 25.14200
N  -2.53100 34.90300 24.68900
C  -1.80300 35.69100 23.87100
C  -1.84600 35.24300 22.40200
C  -2.35300 33.73800 22.62100
C  -2.85300 33.70300 24.02400
C  -2.85300 36.10100 21.55300
C  -1.21100 32.64000 22.35600
C  -1.74600 31.28300 21.92100
N  -3.03900 33.09100 26.95100
C  -3.55000 32.28000 25.97800
C  -4.12700 31.18000 26.64200
C  -4.08400 31.38000 28.04300
C  -3.32100 32.56000 28.16400
C  -4.88300 30.08800 25.98200
C  -4.50500 30.91700 29.31000
O  -5.27200 29.98000 29.59700
C  -3.79200 31.80800 30.33900
C  -4.93800 32.38100 31.10500
O  -5.60000 33.35600 30.81700
O  -5.13400 31.70600 32.33800
C  -5.99600 32.24700 33.36500
H  0.39500 37.28700 29.79400
H  -0.44400 37.19500 23.39800
H  -3.65700 31.76200 23.86900
H  -2.61600 34.33900 31.98800
H  0.26000 35.05800 31.29400
H  -1.55500 37.42400 31.79500
H  -0.00900 36.89500 32.38400
H  -1.45600 36.15600 33.10500
H  -0.00200 33.24400 32.38600
H  -0.85100 32.13900 31.29400
H  -1.85500 31.22500 33.04000
H  -2.68000 32.61100 33.50000
H  2.31700 39.50800 27.60800
H  1.67400 38.65700 28.98600
H  0.69000 40.02300 28.15400
H  1.65500 40.86300 25.90800
H  2.29800 40.65200 24.19400
H  2.90300 39.69700 25.57500
H  -0.81600 35.35500 22.06400
H  -3.10900 33.40600 21.91000
H  -3.15800 36.91600 22.20900
H  -3.74500 35.57000 21.22000
H  -2.48600 36.55000 20.63000
H  -0.64800 32.39100 23.25600
H  -0.55800 33.16500 21.66000
H  -1.29500 30.50000 22.53000
H  -1.44900 31.14900 20.88100
H  -2.83600 31.29100 21.94600
H  -5.07400 29.25900 26.66300
H  -4.37500 29.55400 25.17900
H  -5.83100 30.41300 25.55400
H  -3.16600 31.18900 30.98200
H  -6.73300 32.98500 33.04700
H  -5.39000 32.63200 34.18500
H  -6.45500 31.34200 33.76200

