158

Mg -2.35500 17.26100 27.26300
C  -2.68900 14.98400 29.87600
C  -2.80500 19.79500 29.46000
C  -2.30700 19.37600 24.55000
C  -2.14700 14.53200 25.04300
N  -2.67100 17.32200 29.43800
C  -2.79900 16.30800 30.31200
C  -2.80200 16.82700 31.76200
C  -3.23800 18.30500 31.52500
C  -2.85600 18.49800 30.07400
C  -4.77900 18.54300 31.73000
C  -1.43500 16.69800 32.55000
C  -1.55400 16.03100 33.96400
H  -0.47400 16.09600 34.97300
N  -2.53000 19.31800 27.00300
C  -2.64600 20.20000 28.01500
C  -2.56800 21.52800 27.54200
C  -2.35300 21.42200 26.14000
C  -2.36200 19.98100 25.83800
C  -2.63000 22.78900 28.43800
C  -1.99600 22.50500 25.11200
O  -1.64200 22.33100 23.97500
C  -2.03300 23.91300 25.49900
N  -2.58000 17.01700 25.11400
C  -2.45700 18.05300 24.17400
C  -2.28700 17.47400 22.77600
C  -2.05700 15.92200 22.95400
C  -2.30600 15.82600 24.47700
C  -3.51900 17.73900 21.86600
C  -0.66600 15.44600 22.37500
C  0.64800 15.54700 23.26100
N  -2.36700 15.17300 27.33400
C  -2.11000 14.20700 26.38800
C  -2.17300 12.90200 26.98600
C  -2.33000 13.17900 28.37300
C  -2.47500 14.55400 28.52700
C  -2.18900 11.69400 26.21500
C  -2.58700 12.59400 29.65800
O  -2.66600 11.39500 29.95200
C  -2.85300 13.74300 30.65600
C  -1.78200 13.44900 31.73200
O  -0.55800 13.63600 31.64600
O  -2.33300 12.78100 32.79000
C  -1.36000 12.28200 33.77200
H  -2.95500 20.61100 30.17000
H  -2.08900 20.05400 23.72200
H  -2.06500 13.70800 24.33200
H  -3.62000 16.34300 32.29500
H  -2.80500 18.99900 32.24500
H  -5.42200 17.66400 31.68900
H  -5.23300 19.28100 31.06900
H  -4.93300 18.82800 32.77100
H  -0.98900 17.68800 32.65000
H  -0.86400 15.94600 32.00600
H  -1.98200 15.02900 33.94200
H  -2.35200 16.65300 34.36900
H  -3.06500 22.52700 29.40200
H  -3.18800 23.63400 28.03600
H  -1.58100 23.06200 28.55400
H  -1.20300 24.27700 26.10500
H  -2.99800 24.12000 25.96100
H  -2.13800 24.56100 24.62900
H  -1.35300 17.91400 22.42700
H  -2.80100 15.39900 22.35300
H  -4.36600 17.33100 22.41900
H  -3.44200 17.18300 20.93100
H  -3.59700 18.81700 21.72700
H  -0.36200 16.02600 21.50400
H  -0.77500 14.40000 22.09100
H  1.10400 14.56000 23.32800
H  0.43500 15.91700 24.26400
H  1.43900 16.13700 22.79800
H  -1.67500 11.72300 25.25400
H  -3.23100 11.43500 26.02300
H  -1.83100 10.89000 26.85800
H  -3.78800 13.59400 31.19600
H  -1.87400 11.83900 34.62500
H  -0.78200 13.09000 34.21900
H  -0.69700 11.52400 33.35300
Mg 40.50500 9.53800 29.08000
C  42.03400 10.32600 31.99600
C  37.80000 8.28100 30.82000
C  39.26100 8.72400 26.09300
C  43.52700 10.54200 27.36100
N  39.96100 9.31600 31.14200
C  40.77900 9.75300 32.10200
C  40.10700 9.61400 33.47500
C  38.88600 8.71500 33.19000
C  38.80600 8.79000 31.61900
C  38.94500 7.26600 33.75000
C  39.87800 10.88200 34.31400
C  40.53900 10.70400 35.72800
H  40.97900 11.87300 36.62400
N  38.80200 8.65400 28.53700
C  37.79100 8.18200 29.39100
C  36.69100 7.62800 28.54700
C  37.21200 7.65500 27.21900
C  38.50600 8.43700 27.23700
C  35.34400 7.07300 29.11600
C  36.45400 7.25100 25.87100
O  36.88500 7.38400 24.72700
C  34.88800 6.90100 26.03900
N  41.19500 9.79500 26.93500
C  40.46800 9.34400 25.93600
C  41.26300 9.34100 24.61000
C  42.54400 10.13500 25.03300
C  42.40900 10.19000 26.58200
C  41.58100 7.84200 24.21100
C  42.63300 11.55900 24.40500
C  41.78200 12.77200 24.99100
N  42.42300 10.27700 29.46800
C  43.45700 10.67800 28.74100
C  44.43200 11.30200 29.63700
C  43.95800 11.15000 30.90600
C  42.71100 10.44200 30.78700
C  45.74200 11.92400 29.05900
C  44.12800 11.39300 32.35300
O  44.99000 11.97200 32.95700
C  42.96800 10.83000 33.08500
C  43.56000 9.74500 33.93600
O  43.83800 8.61600 33.47800
O  43.89900 10.09800 35.21000
C  44.79600 9.22600 36.00300
H  36.91100 7.93800 31.35300
H  38.94200 8.43500 25.08900
H  44.50700 10.65600 26.89300
H  40.85800 8.96700 33.93000
H  37.97400 9.11400 33.63300
H  38.05200 7.16600 34.36800
H  39.78400 6.99300 34.39000
H  38.92900 6.58100 32.90200
H  38.80600 11.06300 34.39700
H  40.25000 11.73600 33.74700
H  41.43400 10.11600 35.52400
H  39.83800 10.08800 36.29100
H  35.17200 7.40700 30.13900
H  35.40400 5.98900 29.21700
H  34.58800 7.44300 28.42300
H  34.80200 6.03600 26.69800
H  34.36300 6.66500 25.11400
H  34.43000 7.84000 26.34900
H  40.57400 9.78600 23.89300
H  43.45700 9.55700 24.89000
H  41.32200 7.17400 25.03200
H  42.63000 7.63200 24.00300
H  41.04200 7.51600 23.32100
H  42.42200 11.57900 23.33600
H  43.62300 11.95400 24.63300
H  41.31500 12.40100 25.90400
H  40.94500 13.11800 24.38500
H  42.44300 13.57900 25.30600
H  46.48000 11.14900 29.26300
H  46.15700 12.82500 29.51000
H  45.57900 12.17500 28.01100
H  42.46700 11.55400 33.72800
H  44.22600 8.46300 36.53300
H  45.25100 9.94800 36.68100
H  45.45100 8.63400 35.36400

