158

Mg 1.03700 8.28300 26.83400
C  1.80900 10.50900 29.35400
C  1.44500 5.70300 29.29700
C  0.72400 6.00900 24.44600
C  1.06800 10.88500 24.57000
N  1.52100 8.15600 29.05200
C  1.61900 9.23600 29.84000
C  1.38000 8.77100 31.32100
C  1.58400 7.26000 31.29000
C  1.47600 7.03200 29.81200
C  2.95700 6.77600 31.81700
C  -0.04400 9.31400 31.72600
C  -0.19100 9.31000 33.28500
H  0.98500 8.78300 34.18600
N  1.05600 6.16600 26.81500
C  1.17500 5.28900 27.87700
C  1.05300 3.91000 27.47100
C  1.01900 4.02700 26.01400
C  0.90900 5.46000 25.68500
C  1.09100 2.74600 28.41400
C  1.19000 2.93400 24.95900
O  1.26700 3.14100 23.76900
C  1.38400 1.50700 25.43700
N  1.10800 8.44500 24.74000
C  0.73900 7.34800 23.97500
C  0.39100 7.76500 22.52800
C  0.30800 9.36200 22.64300
C  0.86500 9.59600 24.05500
C  1.39000 7.31400 21.42400
C  -1.04400 10.03000 22.34000
C  -0.92500 11.16500 21.25800
N  1.48600 10.29500 26.92000
C  1.50600 11.19800 25.94900
C  1.93900 12.51600 26.47500
C  2.08200 12.32500 27.90400
C  1.79700 10.92100 28.03300
C  2.29200 13.78900 25.65900
C  2.49000 12.85700 29.16300
O  2.96300 13.93600 29.45400
C  2.16800 11.68400 30.18500
C  3.32300 11.51400 31.04900
O  4.35500 10.91700 30.80400
O  3.14700 12.24500 32.21300
C  4.18600 12.29600 33.28600
H  1.34600 4.91000 30.04100
H  0.39700 5.29500 23.68700
H  0.97000 11.67600 23.82300
H  2.10700 9.30600 31.93300
H  0.84800 6.70400 31.87100
H  2.80400 6.09500 32.65500
H  3.56800 7.65400 32.02900
H  3.47900 6.20300 31.05100
H  -0.72800 8.52300 31.41800
H  -0.41800 10.25900 31.33200
H  -1.03900 8.67900 33.55200
H  -0.42200 10.35900 33.47000
H  1.10100 3.08200 29.45100
H  2.03900 2.21900 28.31100
H  0.25900 2.06600 28.23200
H  0.43500 0.99400 25.59400
H  2.09200 1.58700 26.26100
H  1.92700 0.92700 24.69100
H  -0.58600 7.38600 22.22900
H  1.12700 9.74600 22.03500
H  2.34800 7.10400 21.89800
H  1.64500 8.00000 20.61700
H  0.90800 6.45900 20.95000
H  -1.25900 10.61400 23.23500
H  -1.85100 9.34900 22.06900
H  -0.88200 12.05900 21.88000
H  -1.71000 11.26200 20.50800
H  -0.02600 11.04200 20.65300
H  3.14000 14.33300 26.07700
H  1.51500 14.54900 25.57800
H  2.44000 13.51700 24.61400
H  1.31000 12.08200 30.72600
H  4.08400 13.20900 33.87200
H  5.17600 12.23600 32.83300
H  4.03600 11.49200 34.00600
Mg -11.70400 16.19500 41.59300
C  -8.62000 14.54100 41.35200
C  -10.33400 18.80500 39.86500
C  -14.79700 17.55900 41.45500
C  -13.00300 13.17800 42.81900
N  -9.64300 16.59400 40.75700
C  -8.53600 15.75800 40.73900
C  -7.35000 16.38000 40.07800
C  -7.96600 17.83500 39.65900
C  -9.39700 17.78500 40.18800
C  -7.24400 19.13200 40.12200
C  -6.73000 15.65200 38.87300
C  -5.15300 15.88500 38.84600
H  -4.57200 16.59500 37.60600
N  -12.38800 18.00200 40.85500
C  -11.70200 18.91800 40.21400
C  -12.54800 20.01200 39.93400
C  -13.83400 19.79100 40.49000
C  -13.73200 18.41500 40.98500
C  -11.97600 21.21200 39.19700
C  -15.10800 20.65000 40.46100
O  -15.06300 21.78800 39.94500
C  -16.39400 20.28400 41.16500
N  -13.65700 15.49600 42.08900
C  -14.75900 16.19100 41.90900
C  -16.06300 15.34000 42.20600
C  -15.45100 13.94800 42.63500
C  -13.92100 14.19600 42.51200
C  -16.92700 15.93600 43.37900
C  -15.96300 12.75200 41.84400
C  -15.83500 11.42200 42.64000
N  -11.06200 14.26100 42.09900
C  -11.69400 13.15100 42.61900
C  -10.73900 12.06800 42.67200
C  -9.51700 12.55100 42.16700
C  -9.78200 13.90400 41.85900
C  -11.11400 10.67500 43.18800
C  -8.07300 12.21800 41.97900
O  -7.43500 11.21900 42.32300
C  -7.44200 13.53400 41.51900
C  -6.48300 13.93800 42.52200
O  -6.69100 14.16900 43.74200
O  -5.30300 14.19500 41.87000
C  -4.21100 14.90000 42.60900
H  -9.89200 19.61900 39.28600
H  -15.84200 17.85900 41.35100
H  -13.49000 12.29200 43.23300
H  -6.57000 16.42500 40.83800
H  -7.95400 17.94700 38.57500
H  -6.41200 18.91700 40.79200
H  -7.94400 19.71200 40.72200
H  -6.93600 19.62600 39.20100
H  -7.15800 16.08000 37.96500
H  -6.97000 14.59000 38.82900
H  -4.60800 14.98600 39.13100
H  -4.87400 16.49200 39.70800
H  -12.74300 21.93800 38.92600
H  -11.42900 20.99300 38.28000
H  -11.43800 21.76200 39.96900
H  -16.82400 19.49700 40.54400
H  -17.11200 21.09700 41.05800
H  -16.21800 19.86500 42.15600
H  -16.64000 15.29400 41.28300
H  -15.77500 13.78300 43.66300
H  -16.66300 16.98800 43.48600
H  -16.73400 15.59700 44.39700
H  -18.00600 15.95600 43.22500
H  -15.41000 12.74400 40.90500
H  -17.02000 12.75700 41.57700
H  -16.66400 10.75000 42.41600
H  -15.69100 11.65200 43.69500
H  -14.98000 10.94800 42.15500
H  -10.27200 10.01100 42.98800
H  -12.02400 10.46400 42.62600
H  -11.42100 10.54500 44.22600
H  -6.97500 13.34900 40.55200
H  -4.42300 15.27900 43.60900
H  -3.89300 15.78200 42.05400
H  -3.37400 14.21600 42.74500

