158

Mg -1.96800 17.85600 27.30000
C  -2.46100 15.31400 29.70100
C  -2.87400 20.13100 29.69900
C  -2.37600 20.15300 24.91100
C  -2.05700 15.34400 24.94000
N  -2.46700 17.70900 29.51600
C  -2.53600 16.59900 30.30500
C  -2.72000 16.94400 31.80000
C  -3.06900 18.50200 31.69200
C  -2.72800 18.81400 30.24000
C  -4.50500 18.95800 32.18200
C  -1.52300 16.70100 32.71700
C  -1.80300 16.03900 34.07100
H  -0.85900 16.36100 35.29700
N  -2.27200 19.90600 27.34800
C  -2.62300 20.63100 28.43900
C  -2.71300 22.03600 28.09200
C  -2.43400 22.16700 26.68400
C  -2.33700 20.71400 26.19200
C  -3.01500 23.17600 29.03100
C  -2.15400 23.42800 25.84900
O  -1.84100 23.34700 24.67500
C  -2.01300 24.70200 26.54400
N  -2.04400 17.79200 25.23200
C  -2.32200 18.88000 24.45100
C  -2.40200 18.44200 22.95300
C  -2.27100 16.88600 23.02400
C  -2.01200 16.65100 24.49200
C  -3.68300 18.91700 22.17900
C  -1.13600 16.37500 22.11400
C  0.25600 16.34800 22.70100
N  -2.13700 15.74700 27.19200
C  -2.12000 14.88000 26.20800
C  -2.27300 13.52700 26.57200
C  -2.33100 13.59600 27.99000
C  -2.34300 14.98900 28.29400
C  -2.40700 12.26100 25.78100
C  -2.51800 12.89100 29.23900
O  -2.44600 11.61400 29.35600
C  -2.61600 13.95300 30.38900
C  -1.60800 13.48400 31.43100
O  -0.38800 13.66100 31.37800
O  -2.29800 12.75400 32.33600
C  -1.52900 12.23600 33.50000
H  -3.15400 20.87500 30.44900
H  -2.55700 20.90500 24.14000
H  -2.05000 14.57000 24.17000
H  -3.57700 16.41500 32.21700
H  -2.34600 19.19100 32.12900
H  -5.14900 19.05500 31.30800
H  -4.35000 19.87500 32.75000
H  -4.80800 18.19300 32.89700
H  -1.02200 17.66300 32.82800
H  -0.79900 16.11900 32.14600
H  -1.87600 14.95700 33.96800
H  -2.79700 16.36600 34.37700
H  -2.15400 23.82300 29.19500
H  -3.51500 22.96200 29.97600
H  -3.73400 23.74800 28.44500
H  -1.78900 25.50200 25.83800
H  -1.18700 24.54700 27.23800
H  -2.99200 25.00000 26.91700
H  -1.65800 18.93900 22.33100
H  -3.16900 16.33900 22.73800
H  -3.53400 19.67400 21.40900
H  -4.41800 19.44300 22.78700
H  -4.18800 18.04200 21.77000
H  -1.30300 16.98800 21.22800
H  -1.34100 15.35000 21.80600
H  0.46200 15.27800 22.71000
H  0.43300 16.58600 23.75000
H  0.99700 16.89400 22.11700
H  -2.33000 11.35700 26.38500
H  -1.57000 12.31000 25.08600
H  -3.31900 12.22200 25.18500
H  -3.61000 13.71700 30.77000
H  -1.51100 11.14600 33.52200
H  -1.91300 12.65900 34.42800
H  -0.50100 12.59400 33.56700
Mg 27.18500 50.28500 25.67000
C  25.49000 51.79400 28.27700
C  29.50500 49.29500 27.87000
C  28.78800 48.86700 23.10900
C  24.82000 51.78000 23.41600
N  27.49500 50.61700 27.81900
C  26.63400 51.09500 28.68200
C  26.97800 50.77000 30.18000
C  28.49000 50.37900 30.01900
C  28.49500 50.05500 28.47000
C  29.44100 51.54000 30.41700
C  26.14900 49.64300 30.79700
C  25.50200 50.04800 32.08400
H  26.44000 50.49400 33.22000
N  28.88600 49.23700 25.54900
C  29.73100 48.91000 26.58200
C  30.86500 48.06700 26.09300
C  30.53600 47.84700 24.68600
C  29.37900 48.67900 24.37500
C  32.01800 47.55400 26.84100
C  31.22900 46.98500 23.66600
O  30.89200 46.79200 22.52200
C  32.32100 46.08400 24.11800
N  26.91600 50.46200 23.61300
C  27.71100 49.73200 22.73800
C  27.24200 49.80600 21.31500
C  25.82800 50.49500 21.43500
C  25.86000 50.99900 22.91200
C  28.21900 50.55300 20.40900
C  24.63000 49.61100 21.09800
C  23.68800 50.15900 20.08600
N  25.55400 51.56600 25.75600
C  24.67600 52.06600 24.80100
C  23.68200 52.83600 25.42800
C  23.86900 52.63000 26.77700
C  25.06800 51.97500 26.95100
C  22.60800 53.48800 24.73200
C  23.28200 52.92400 28.04700
O  22.27000 53.51300 28.34300
C  24.29500 52.42000 29.12300
C  24.72900 53.56200 30.01700
O  25.47200 54.47200 29.79500
O  24.14500 53.37600 31.28100
C  24.55200 54.26700 32.32400
H  30.27300 48.93400 28.55800
H  29.14300 48.40300 22.18600
H  24.00900 52.28000 22.88100
H  26.78100 51.73600 30.64300
H  28.84000 49.45200 30.47400
H  28.89400 52.40600 30.79000
H  29.98900 51.84400 29.52500
H  30.23300 51.19700 31.08200
H  26.83100 48.80300 30.93500
H  25.44600 49.27600 30.05000
H  24.78300 49.28000 32.37100
H  24.87300 50.90300 31.83600
H  32.04400 48.10200 27.78300
H  32.94500 47.82600 26.33600
H  31.79500 46.49400 26.96500
H  32.64200 45.44100 23.29900
H  31.75600 45.44100 24.79300
H  33.22300 46.46600 24.59800
H  27.01700 48.87700 20.79100
H  25.78200 51.38800 20.81100
H  27.72800 50.98700 19.53800
H  28.88200 49.77100 20.04000
H  28.88300 51.22300 20.95500
H  24.07100 49.39500 22.00800
H  24.96700 48.62300 20.78200
H  24.06600 49.82800 19.11900
H  23.66400 51.24800 20.09500
H  22.70500 49.77700 20.36200
H  21.65200 53.00900 24.94200
H  22.80300 53.76300 23.69600
H  22.40800 54.46600 25.17000
H  23.72500 51.67100 29.67200
H  23.80700 54.48900 33.08800
H  24.83300 55.25300 31.95400
H  25.38900 53.87500 32.90200

