158

Mg 2.06100 -0.96200 43.36200
C  5.45900 -0.69600 42.89300
C  1.48300 1.66600 41.33500
C  -1.37400 -1.50900 43.75400
C  2.61300 -3.96000 45.10300
N  3.29100 0.44600 42.33800
C  4.72000 0.33400 42.23800
C  5.24400 1.41200 41.37600
C  4.00700 2.28000 40.94700
C  2.90500 1.42600 41.53000
C  4.00500 3.76400 41.51800
C  6.06300 0.84800 40.14300
C  7.30400 1.68000 39.66000
H  7.12800 2.72700 38.51500
N  0.32100 0.00700 42.71600
C  0.30400 1.06400 41.88700
C  -1.04000 1.51100 41.74600
C  -1.91200 0.63800 42.48200
C  -0.99600 -0.29900 43.11800
C  -1.45100 2.78500 40.94400
C  -3.41600 0.72800 42.48900
O  -4.03800 1.56300 41.84000
C  -4.26000 -0.33300 43.34200
N  0.73300 -2.57700 44.37700
C  -0.63300 -2.58100 44.31400
C  -1.21700 -3.91200 44.82000
C  0.14400 -4.57400 45.36700
C  1.23600 -3.63800 44.92100
C  -2.44700 -3.95800 45.77700
C  0.35700 -6.05300 44.85200
C  1.07600 -6.95600 45.85200
N  3.64800 -2.14900 43.90100
C  3.76700 -3.29500 44.64700
C  5.08800 -3.70500 44.76100
C  5.86400 -2.71000 44.08300
C  4.90500 -1.79500 43.59500
C  5.54300 -4.88300 45.49100
C  7.13100 -2.25200 43.73800
O  8.25800 -2.60300 44.01800
C  6.97400 -0.88700 42.93300
C  7.65800 0.06200 43.82100
O  7.68100 0.06800 45.03900
O  8.32800 0.92700 43.03700
C  9.17300 1.95300 43.67800
H  1.30300 2.52100 40.68000
H  -2.42500 -1.72400 43.95900
H  2.84500 -4.88900 45.62800
H  5.77400 2.04800 42.08400
H  3.91200 2.37200 39.86600
H  3.68000 4.46600 40.75000
H  5.01400 4.12300 41.72300
H  3.48800 3.98000 42.45300
H  5.49100 0.80200 39.21700
H  6.34100 -0.19600 40.29200
H  8.04900 0.90400 39.48200
H  7.53500 2.31600 40.51400
H  -2.07100 3.49100 41.49700
H  -1.94200 2.52500 40.00600
H  -0.54000 3.31500 40.66700
H  -5.29600 -0.01300 43.23200
H  -4.22700 -0.19100 44.42300
H  -4.16600 -1.35500 42.97600
H  -1.49800 -4.45500 43.91700
H  0.01400 -4.58100 46.44900
H  -2.75700 -2.92700 45.94400
H  -2.26900 -4.50800 46.70100
H  -3.30900 -4.46900 45.34800
H  0.99800 -6.02600 43.97000
H  -0.54100 -6.53100 44.46100
H  0.41700 -7.80400 46.03800
H  1.27600 -6.49500 46.81900
H  1.95500 -7.38300 45.36900
H  5.49600 -5.77200 44.86400
H  5.02100 -4.99100 46.44200
H  6.61400 -4.91400 45.69000
H  7.58900 -1.08400 42.05500
H  8.56400 2.41400 44.45600
H  9.61000 2.65300 42.96600
H  10.01100 1.38700 44.08500
Mg 30.52100 59.17900 39.53000
C  27.67800 57.32400 38.67500
C  32.49900 56.48900 38.80300
C  33.13600 61.23800 39.08800
C  28.50700 61.96200 39.90500
N  30.08700 57.21900 38.59800
C  28.90500 56.61500 38.40200
C  29.07000 55.23300 37.82600
C  30.53900 54.92900 38.35100
C  31.11100 56.31900 38.64300
C  30.52800 54.08800 39.59700
C  28.94600 55.28000 36.27500
C  28.07100 54.10300 35.74000
H  27.07400 54.45300 34.59900
N  32.56700 58.87200 39.08000
C  33.19300 57.69400 38.90200
C  34.59700 57.88900 38.76400
C  34.78900 59.30300 38.76900
C  33.43500 59.86000 38.87400
C  35.55000 56.73200 38.80600
C  36.14000 59.98900 38.60500
O  37.21800 59.39600 38.67600
C  36.24100 61.45200 38.41000
N  30.78500 61.31600 39.39000
C  31.94500 61.86500 39.31500
C  31.87600 63.40400 39.48700
C  30.44100 63.60800 39.85900
C  29.84400 62.20400 39.78700
C  32.96900 63.91900 40.55100
C  29.51100 64.47700 39.03700
C  29.86700 65.96000 38.75100
N  28.49600 59.58800 39.62600
C  27.84900 60.75500 39.68200
C  26.48400 60.54400 39.47000
C  26.32000 59.15400 39.13900
C  27.63200 58.65200 39.15800
C  25.47200 61.60100 39.43400
C  25.33700 58.09200 38.82900
O  24.08400 58.09000 38.62300
C  26.26200 56.81800 38.49500
C  25.85800 55.87400 39.63100
O  26.21300 55.87700 40.77800
O  24.94200 55.00300 39.17500
C  24.73200 53.92000 40.15800
H  33.02900 55.53800 38.71900
H  33.88200 62.01100 38.89400
H  27.82500 62.79700 40.07900
H  28.29700 54.56700 38.20900
H  31.12700 54.36800 37.62500
H  31.23500 54.44200 40.34800
H  30.62000 53.06200 39.24200
H  29.51700 54.14600 40.00000
H  29.92900 55.01400 35.88600
H  28.66000 56.25600 35.88200
H  27.40400 53.66400 36.48200
H  28.77200 53.29900 35.51600
H  36.08200 56.78100 39.75600
H  36.23100 56.81900 37.95800
H  35.12500 55.73400 38.69700
H  37.25800 61.71200 38.11700
H  35.97300 61.97500 39.32900
H  35.56300 61.80800 37.63400
H  32.06800 63.83700 38.50500
H  30.26100 63.91700 40.88800
H  33.43000 64.83800 40.19100
H  33.64600 63.13900 40.90000
H  32.39800 64.16300 41.44700
H  28.48500 64.63400 39.37000
H  29.52400 63.91100 38.10600
H  30.85800 66.19500 39.13700
H  29.17000 66.73000 39.08200
H  29.89100 66.10200 37.67000
H  25.10400 61.87100 40.42400
H  24.66200 61.32800 38.75800
H  25.99300 62.53300 39.21900
H  26.01700 56.36300 37.53500
H  24.55700 53.08200 39.48300
H  23.79100 54.10500 40.67500
H  25.50600 53.63000 40.87000

