158

Mg 53.74900 23.02800 45.62400
C  51.41400 25.47800 44.58500
C  51.66500 20.66300 44.35900
C  56.46300 20.75200 45.72600
C  56.06600 25.58300 46.17900
N  51.84300 23.21500 44.49200
C  50.96800 24.26700 44.29400
C  49.60600 23.83200 43.78400
C  49.66800 22.24600 44.08300
C  51.21200 22.01800 44.17300
C  48.98200 21.81900 45.42400
C  49.32500 24.23900 42.31800
C  48.29200 23.41600 41.61800
H  47.71500 23.71900 40.22800
N  54.01100 20.98400 45.23000
C  52.95800 20.18100 44.79500
C  53.46200 18.85400 44.91800
C  54.74100 18.77500 45.44000
C  55.15100 20.24700 45.48800
C  52.53300 17.79700 44.43800
C  55.63500 17.62900 45.83000
O  55.21100 16.49500 45.64200
C  56.91000 17.73400 46.47100
N  55.98100 23.15700 45.68800
C  56.87700 22.10000 45.78900
C  58.26900 22.59900 45.94600
C  58.07400 24.20900 46.12700
C  56.58300 24.31900 45.98000
C  58.86500 21.99900 47.17900
C  59.06800 24.99400 45.22800
C  59.81400 26.16800 46.02400
N  53.71800 25.05300 45.60000
C  54.67000 25.95000 45.97300
C  54.15400 27.27400 45.91600
C  52.83200 27.13700 45.40600
C  52.62400 25.80800 45.09700
C  54.85000 28.53400 46.18400
C  51.66600 27.87700 44.96700
O  51.41900 29.04000 45.02700
C  50.77700 26.81400 44.32200
C  50.68700 27.16200 42.83500
O  51.59600 27.05100 42.07700
O  49.44800 27.68000 42.57300
C  48.92800 27.91400 41.13900
H  50.85300 19.98200 44.09500
H  57.29300 20.05000 45.62500
H  56.82000 26.36400 46.29800
H  48.82300 24.28000 44.39500
H  49.19600 21.60600 43.33800
H  49.74300 21.34700 46.04600
H  48.29200 21.01200 45.17700
H  48.49600 22.65700 45.92300
H  50.25700 24.48600 41.80800
H  48.80900 25.19700 42.37700
H  47.52300 23.30200 42.38300
H  48.86000 22.50300 41.43800
H  52.91100 16.77800 44.53100
H  52.33700 17.92500 43.37400
H  51.62900 17.85000 45.04500
H  56.90300 18.51900 47.22700
H  57.69300 18.04600 45.78000
H  57.17500 16.81300 46.99200
H  58.84300 22.43800 45.03300
H  58.22000 24.39000 47.19200
H  58.20200 21.30900 47.70200
H  59.20700 22.73000 47.91200
H  59.75200 21.43500 46.89000
H  58.67000 25.53000 44.36600
H  59.80300 24.29800 44.82400
H  59.13600 27.01000 45.89100
H  60.83200 26.31600 45.66100
H  59.79000 25.96200 47.09400
H  55.71000 28.81500 45.57600
H  55.25400 28.44300 47.19200
H  54.13400 29.35200 46.09000
H  49.77300 26.88100 44.74100
H  47.85300 27.74500 41.20700
H  49.34200 27.26500 40.36700
H  49.14100 28.94500 40.85800
Mg 42.48700 41.63500 26.35500
C  42.08900 43.84800 29.08500
C  43.47400 39.29400 28.67600
C  43.91500 39.77900 23.82600
C  42.10200 44.29000 24.16400
N  42.68200 41.55100 28.71000
C  42.47300 42.55500 29.57700
C  42.44000 42.06700 31.04600
C  42.91200 40.59600 30.82500
C  43.08700 40.42300 29.33000
C  44.17800 40.11100 31.61500
C  40.98400 42.30500 31.65200
C  40.65800 41.34200 32.79500
H  39.83700 41.77600 34.06800
N  43.39700 39.78300 26.21000
C  43.62300 38.92500 27.32500
C  43.97900 37.60900 26.79500
C  44.16800 37.76400 25.40300
C  43.78500 39.15200 25.07900
C  44.14100 36.41200 27.69100
C  44.62500 36.76500 24.40800
O  45.00700 37.05900 23.28500
C  44.61200 35.32800 24.77400
N  42.92300 42.04900 24.22600
C  43.45500 41.03800 23.44100
C  43.34100 41.44900 21.92100
C  42.56600 42.85500 22.01200
C  42.47200 43.08600 23.54100
C  44.61500 41.44700 20.98500
C  41.17700 42.94500 21.37700
C  40.28700 41.74000 21.71400
N  42.06300 43.56600 26.54900
C  41.81900 44.51100 25.59300
C  41.40500 45.73300 26.22600
C  41.50400 45.48000 27.55700
C  41.92300 44.17400 27.72700
C  41.09200 46.97300 25.46100
C  41.39700 46.21700 28.83500
O  41.14800 47.33700 29.11800
C  41.65900 45.05300 29.93100
C  42.78200 45.51000 30.80000
O  43.95600 45.63900 30.40400
O  42.46200 45.67100 32.12500
C  43.45900 46.31500 32.95600
H  43.56500 38.45300 29.36600
H  44.26600 39.12500 23.02600
H  41.94700 45.18100 23.55200
H  43.16000 42.63500 31.63500
H  42.12600 39.85500 30.97400
H  45.08000 40.19300 31.00900
H  44.10300 39.05300 31.86400
H  44.24200 40.73800 32.50500
H  40.18200 42.52800 30.94800
H  41.09000 43.23800 32.20500
H  41.54700 40.73300 32.95700
H  39.90100 40.70700 32.33400
H  43.33900 35.68100 27.58800
H  44.03700 36.66100 28.74700
H  45.11700 35.95500 27.52700
H  43.75500 35.02900 25.37800
H  45.48300 35.21400 25.41900
H  44.76100 34.72800 23.87600
H  42.67500 40.80000 21.35300
H  43.30100 43.50500 21.53700
H  44.38100 41.10200 19.97700
H  45.43000 40.80200 21.31500
H  45.07000 42.40300 20.72700
H  41.29900 43.08900 20.30300
H  40.82400 43.82800 21.90900
H  40.24600 40.97300 20.94100
H  39.34800 42.22900 21.97600
H  40.70300 41.12200 22.51000
H  40.83100 47.76100 26.16700
H  40.23800 46.84100 24.79600
H  41.99300 47.33900 24.96900
H  40.85100 44.83800 30.63000
H  44.31400 45.64800 33.07300
H  42.87000 46.51000 33.85200
H  43.83500 47.26300 32.57200

