158

Mg 30.33400 58.12000 40.23100
C  27.69300 56.03800 38.99100
C  32.41400 55.82400 38.55400
C  32.71200 60.30200 40.34200
C  27.87000 60.41600 41.07100
N  29.99600 56.27600 38.65800
C  28.89500 55.62900 38.41800
C  29.17400 54.22900 37.81900
C  30.69600 54.12800 37.89600
C  31.05000 55.47100 38.36000
C  31.18100 52.95800 38.88100
C  28.68400 54.10000 36.32700
C  29.16800 55.28600 35.48300
H  28.00200 55.91700 34.62100
N  32.32100 58.07700 39.72100
C  33.01600 57.00200 39.12700
C  34.40600 57.29700 39.16600
C  34.52100 58.64100 39.65500
C  33.16800 59.06600 39.91500
C  35.41500 56.31000 38.61600
C  35.80100 59.39500 39.79600
O  36.85800 58.89100 39.49700
C  35.94800 60.89100 40.19400
N  30.34900 59.94700 40.96400
C  31.46400 60.71300 40.78900
C  31.21900 62.23800 40.91500
C  29.67500 62.28800 41.07300
C  29.27400 60.82900 41.06200
C  31.99400 62.95400 42.08600
C  28.96000 63.10300 39.97300
C  28.48700 64.49600 40.44600
N  28.30500 58.20600 40.26100
C  27.46000 59.15700 40.66600
C  26.11400 58.72900 40.55400
C  26.17500 57.56100 39.91800
C  27.50800 57.22000 39.72700
C  24.89300 59.47700 41.08900
C  25.33400 56.50800 39.26000
O  24.12600 56.53700 39.04900
C  26.33000 55.45100 38.72600
C  25.96800 54.13000 39.39600
O  26.41400 53.65600 40.45300
O  24.99000 53.55300 38.63400
C  24.34800 52.41000 39.30800
H  33.14900 55.05300 38.31400
H  33.46600 61.07500 40.18200
H  27.19300 61.27300 41.08600
H  28.58600 53.56200 38.45000
H  31.17200 53.91900 36.93800
H  30.35100 52.30800 39.15500
H  31.76300 53.36800 39.70600
H  31.95900 52.32300 38.45600
H  27.59900 54.02400 36.39500
H  29.09800 53.25900 35.77000
H  30.00700 54.98300 34.85600
H  29.44700 56.14000 36.10000
H  36.37400 56.81400 38.49000
H  35.12900 56.08000 37.59000
H  35.49500 55.38200 39.18300
H  35.43400 61.57900 39.52200
H  36.98700 61.14800 39.98500
H  35.73900 61.10500 41.24200
H  31.53700 62.71000 39.98500
H  29.39100 62.61500 42.07300
H  32.34600 63.92600 41.74100
H  32.82800 62.32300 42.39300
H  31.36500 63.14500 42.95500
H  28.20900 62.47300 39.49800
H  29.65200 63.14800 39.13200
H  28.80100 64.73400 41.46200
H  27.41600 64.31900 40.34600
H  28.66900 65.30400 39.73700
H  24.11900 58.71000 41.11700
H  24.57300 60.27800 40.42300
H  25.01800 59.85900 42.10200
H  26.07600 55.51300 37.66800
H  23.50900 52.04300 38.71800
H  23.90700 52.67800 40.26800
H  25.08000 51.63000 39.52200
Mg -4.19300 25.91900 25.86500
C  -3.13200 27.25400 28.92900
C  -6.03800 23.61800 27.54700
C  -4.97400 24.32700 22.95800
C  -1.96700 28.06900 24.26900
N  -4.49800 25.44700 27.94300
C  -4.09500 26.21800 29.01900
C  -4.73900 25.71400 30.30400
C  -5.54800 24.44400 29.79200
C  -5.31400 24.47800 28.31000
C  -5.14300 23.13800 30.42400
C  -5.67500 26.74000 31.00100
C  -5.44600 26.71700 32.51100
H  -5.08300 25.47400 33.26200
N  -5.34100 24.32800 25.31400
C  -6.14300 23.58700 26.17200
C  -7.02100 22.64500 25.50400
C  -6.68400 22.73500 24.13000
C  -5.60100 23.80400 24.06100
C  -7.98700 21.81800 26.20500
C  -7.03900 21.89800 22.94800
O  -6.32600 21.91600 21.95100
C  -8.35000 21.11100 23.03000
N  -3.63700 26.21100 23.90400
C  -3.98500 25.40800 22.87200
C  -3.20500 25.84400 21.54800
C  -2.61300 27.18800 21.93000
C  -2.75200 27.16600 23.50800
C  -2.11600 24.76700 21.13400
C  -3.21200 28.36200 21.17000
C  -3.45400 29.70900 21.85000
N  -2.81800 27.44800 26.47700
C  -1.97500 28.17900 25.68200
C  -1.19200 29.06000 26.56100
C  -1.64000 28.74800 27.88200
C  -2.61900 27.73700 27.71300
C  -0.24500 30.19300 26.13900
C  -1.49700 29.05200 29.29500
O  -0.89000 29.90000 29.87100
C  -2.47600 28.06300 30.04500
C  -1.73300 27.21700 30.99600
O  -1.11500 26.19500 30.64500
O  -1.76400 27.71400 32.32100
C  -0.67700 27.19100 33.16200
H  -6.61800 22.86400 28.08400
H  -5.05300 23.82800 21.99000
H  -1.26200 28.73100 23.76200
H  -3.93200 25.48400 30.99900
H  -6.62500 24.49900 29.94900
H  -6.09400 22.60800 30.48500
H  -4.72600 23.31300 31.41600
H  -4.32200 22.72900 29.83500
H  -6.76300 26.68000 30.99500
H  -5.37500 27.75400 30.73600
H  -6.27700 27.25600 32.96600
H  -4.53900 27.27800 32.73500
H  -8.46900 22.29400 27.05900
H  -7.52200 20.86300 26.45000
H  -8.77800 21.78600 25.45500
H  -9.18000 21.78500 23.24300
H  -8.20100 20.29300 23.73500
H  -8.60900 20.72200 22.04500
H  -3.88000 25.99300 20.70500
H  -1.53800 27.13800 21.75400
H  -2.16600 23.92900 21.82800
H  -1.09000 25.13600 21.15600
H  -2.36500 24.40600 20.13600
H  -4.19900 28.07200 20.80900
H  -2.52400 28.57400 20.35200
H  -2.85600 30.46200 21.33700
H  -3.21200 29.78100 22.91100
H  -4.49900 30.00200 21.75200
H  -0.70800 31.10300 25.75700
H  0.34300 29.67600 25.38100
H  0.48000 30.44900 26.91200
H  -3.15900 28.72800 30.57400
H  -0.93400 26.24500 33.63900
H  -0.39800 27.95300 33.88900
H  0.25500 27.10200 32.60400

