158

Mg 16.71300 51.95900 27.02000
C  18.77300 50.78400 29.49600
C  14.24800 52.61800 29.39400
C  14.72400 53.19300 24.55200
C  19.16500 51.18400 24.59600
N  16.56700 51.70300 29.20900
C  17.57400 51.30200 30.03500
C  17.18200 51.45700 31.48100
C  15.67900 51.84400 31.48500
C  15.43900 51.99700 29.95000
C  14.68400 50.74500 31.99900
C  18.11300 52.57200 32.16000
C  18.61200 52.44600 33.62200
H  17.70800 51.63800 34.52800
N  14.77500 52.84500 26.99200
C  13.98900 53.11400 28.10600
C  12.78100 53.76000 27.62800
C  12.86200 53.93400 26.22500
C  14.19500 53.32600 25.83100
C  11.69100 54.22000 28.62200
C  11.89300 54.66000 25.28200
O  12.09600 54.78200 24.13900
C  10.61500 55.22200 25.83300
N  16.83700 51.97500 24.85500
C  15.94100 52.66200 24.09700
C  16.38700 52.58900 22.58200
C  17.92300 52.44700 22.73500
C  18.04000 51.82600 24.13200
C  15.72400 51.40700 21.77800
C  18.87300 53.70200 22.66300
C  19.36800 54.08100 21.21100
N  18.45900 50.99600 26.94700
C  19.40700 50.76500 25.95100
C  20.49300 49.94700 26.45000
C  20.30900 50.01700 27.80800
C  19.08400 50.65800 28.10200
C  21.60900 49.33000 25.65400
C  20.88300 49.60700 29.06300
O  21.78700 48.77100 29.28400
C  19.97900 50.13800 30.26500
C  19.74500 48.98000 31.12300
O  19.28100 47.89500 30.69000
O  19.91500 49.42900 32.42700
C  19.52400 48.39400 33.37700
H  13.57300 52.89700 30.20500
H  14.07500 53.55000 23.74900
H  19.92500 51.16400 23.81300
H  17.26500 50.52600 32.04200
H  15.43500 52.73100 32.07000
H  14.18900 50.34900 31.11200
H  13.92600 51.19700 32.63900
H  15.26300 49.94700 32.46300
H  17.61800 53.53900 32.07200
H  18.93600 52.69400 31.45600
H  18.69300 53.38200 34.17500
H  19.62900 52.07600 33.75700
H  10.70400 53.88900 28.29700
H  11.78200 55.30100 28.51700
H  12.02800 53.89500 29.60600
H  9.95800 54.56600 26.40400
H  9.94300 55.52100 25.02700
H  10.69500 56.13200 26.42600
H  16.13300 53.53600 22.10600
H  18.33700 51.77100 21.98700
H  14.72900 51.32300 22.21500
H  16.22000 50.44100 21.86800
H  15.57000 51.70600 20.74100
H  19.71600 53.55300 23.33800
H  18.26500 54.53700 23.01300
H  19.01100 55.09500 21.02900
H  19.02400 53.40900 20.42400
H  20.44300 54.11900 21.38900
H  21.64100 49.85400 24.69900
H  21.51100 48.24500 25.64200
H  22.57900 49.46700 26.13200
H  20.46300 50.89600 30.88200
H  18.44300 48.26200 33.33500
H  19.67800 48.77000 34.38800
H  19.96600 47.40800 33.23700
Mg -5.74500 25.35000 25.67600
C  -4.29700 26.70500 28.47800
C  -7.51500 23.21900 27.91700
C  -7.17000 24.02300 23.05000
C  -3.81900 27.45700 23.67600
N  -5.89700 25.03700 27.92200
C  -5.25300 25.78200 28.83000
C  -5.72200 25.50500 30.27200
C  -6.55500 24.22900 30.03000
C  -6.77500 24.15300 28.56400
C  -5.86600 22.97500 30.64300
C  -6.52800 26.65800 30.97600
C  -6.10900 26.90800 32.43300
H  -6.01000 25.70300 33.38700
N  -7.07800 23.75300 25.53300
C  -7.65800 23.00100 26.50800
C  -8.54200 22.04000 25.84700
C  -8.53900 22.32400 24.42600
C  -7.60400 23.41000 24.28800
C  -9.42900 21.07900 26.64500
C  -9.18500 21.51200 23.25400
O  -9.11400 21.83700 22.07600
C  -10.00900 20.27000 23.47000
N  -5.37800 25.56300 23.68800
C  -6.22400 24.99500 22.73600
C  -6.02600 25.53600 21.39900
C  -5.09300 26.76800 21.63300
C  -4.79300 26.65300 23.12600
C  -5.45900 24.45100 20.38100
C  -5.70300 28.13700 21.17200
C  -4.86400 28.88700 20.13600
N  -4.30900 26.77600 25.98000
C  -3.57100 27.57800 25.06800
C  -2.56500 28.39300 25.78500
C  -2.88300 28.08600 27.12700
C  -3.94000 27.10700 27.15000
C  -1.61400 29.41700 25.28500
C  -2.59500 28.49300 28.48500
O  -1.69100 29.20300 28.91400
C  -3.46700 27.58900 29.39100
C  -2.58400 26.87400 30.26600
O  -1.83600 25.94500 30.00800
O  -2.62700 27.45200 31.51300
C  -1.73900 26.79500 32.54500
H  -8.14000 22.56600 28.52900
H  -7.75900 23.71300 22.18400
H  -3.41900 28.22600 23.01200
H  -4.82400 25.23800 30.82900
H  -7.56500 24.27500 30.43600
H  -4.99600 23.28600 31.22200
H  -5.65500 22.31900 29.79800
H  -6.59100 22.52200 31.32000
H  -7.60900 26.52400 30.94100
H  -6.38000 27.61500 30.47600
H  -6.87900 27.63200 32.70000
H  -5.15700 27.43500 32.36300
H  -10.47800 21.34800 26.52300
H  -9.28300 21.20800 27.71800
H  -9.16500 20.06200 26.35800
H  -9.43800 19.39600 23.78400
H  -10.23500 20.03300 22.43100
H  -10.82000 20.36100 24.19200
H  -7.02600 25.81700 21.06800
H  -4.08100 26.67100 21.24100
H  -5.98100 24.47200 19.42400
H  -5.31300 23.43000 20.73200
H  -4.45600 24.78400 20.11400
H  -5.79900 28.72700 22.08300
H  -6.70400 28.04100 20.75300
H  -4.91000 29.97000 20.25400
H  -5.34300 28.68300 19.17800
H  -3.82700 28.56200 20.05700
H  -2.04000 30.41900 25.25100
H  -1.38900 29.04300 24.28500
H  -0.76500 29.38900 25.96800
H  -4.12400 28.22200 29.98700
H  -1.90600 27.32100 33.48500
H  -0.66500 26.89600 32.38300
H  -2.09500 25.76500 32.56200

