158

Mg 43.85000 4.91500 47.41100
C  42.05600 7.96500 47.46000
C  40.77000 3.27700 47.43900
C  45.46200 2.05700 46.69800
C  46.74900 6.77300 46.59900
N  41.67100 5.57000 47.30200
C  41.21000 6.86900 47.30400
C  39.68900 6.98200 47.51500
C  39.27800 5.44300 47.67100
C  40.58800 4.74300 47.50800
C  38.51000 5.11000 49.04200
C  38.93300 7.57600 46.32400
C  39.61900 8.05300 45.01600
H  39.25200 7.21500 43.79700
N  43.26000 2.92400 47.20300
C  41.95300 2.44400 47.24600
C  42.05100 1.04600 47.04900
C  43.38000 0.65600 46.94200
C  44.11400 1.84700 46.94200
C  40.76800 0.14400 46.88500
C  43.87200 -0.75100 46.89900
O  43.07300 -1.70100 46.90300
C  45.29300 -1.12600 46.81400
N  45.80000 4.43200 46.75900
C  46.28400 3.15500 46.68900
C  47.86900 3.16100 46.31800
C  48.19000 4.71900 46.24400
C  46.81400 5.36400 46.50800
C  48.64000 2.34500 47.38500
C  48.95700 5.20600 44.98100
C  50.46200 5.04100 45.00400
N  44.35300 6.95800 47.11100
C  45.57200 7.51500 46.96900
C  45.42300 8.96600 46.99300
C  44.09900 9.20500 47.31200
C  43.40800 7.99200 47.24700
C  46.61000 9.96800 47.01900
C  43.04800 10.21700 47.55400
O  43.25700 11.43400 47.64300
C  41.65200 9.52900 47.58800
C  40.86700 9.81500 48.86400
O  40.99500 9.19600 49.96000
O  40.20300 10.99800 48.77700
C  39.19400 11.13600 49.82500
H  39.79400 2.78800 47.47400
H  46.08900 1.19600 46.45700
H  47.66000 7.37300 46.56600
H  39.37400 7.51800 48.41000
H  38.78000 5.03400 46.79200
H  38.14000 6.02000 49.51400
H  39.31400 4.70100 49.65500
H  37.74200 4.35600 48.87200
H  38.51400 8.48200 46.76300
H  37.98600 7.03700 46.29800
H  40.70300 8.05300 45.13000
H  39.30500 9.03500 44.66300
H  39.87000 0.75400 46.98000
H  40.65600 -0.69400 47.57300
H  40.80100 -0.29400 45.88700
H  45.73200 -0.52200 47.60800
H  45.65800 -0.85100 45.82400
H  45.54600 -2.17300 46.97900
H  48.00300 2.76200 45.31200
H  48.83000 4.96500 47.09100
H  49.50600 1.84900 46.94700
H  47.93500 1.58900 47.73000
H  49.01500 2.99000 48.18000
H  48.66300 6.16600 44.55800
H  48.56300 4.59000 44.17200
H  50.76200 4.25400 45.69600
H  51.03900 5.94200 45.21500
H  50.78200 4.63800 44.04300
H  47.49200 9.43300 47.36900
H  46.28000 10.81100 47.62700
H  46.73100 10.26400 45.97700
H  41.03500 9.84100 46.74600
H  39.57800 11.43900 50.79900
H  38.58200 10.23500 49.87100
H  38.54300 11.92500 49.45000
Mg -2.77400 33.98700 26.07400
C  -4.52100 32.50100 28.76900
C  -1.00800 35.97100 28.35600
C  -1.54700 35.80000 23.45700
C  -4.85400 32.37000 23.89600
N  -2.86200 34.31700 28.21600
C  -3.62400 33.50300 29.10600
C  -3.44000 34.02400 30.56300
C  -2.43800 35.19700 30.43100
C  -2.09500 35.17500 28.95500
C  -2.97800 36.57600 30.99000
C  -2.91500 32.82200 31.40700
C  -2.28800 33.21700 32.83100
H  -2.70100 32.40900 34.08000
N  -1.38800 35.57000 25.93600
C  -0.70000 36.19100 27.00300
C  0.25500 37.20200 26.34300
C  0.13300 37.05000 24.97600
C  -0.99200 36.10100 24.70400
C  1.16100 38.02000 27.21400
C  0.91100 37.81200 23.92800
O  0.68000 37.69900 22.76000
C  1.98300 38.68700 24.38500
N  -3.29300 34.23200 24.01200
C  -2.67100 35.04800 23.15600
C  -3.11600 34.86200 21.67900
C  -4.01200 33.53800 21.79000
C  -4.03000 33.34000 23.33900
C  -3.91700 36.07100 21.11600
C  -3.63900 32.27100 21.01100
C  -2.79700 31.22900 21.79800
N  -4.30500 32.62300 26.21200
C  -5.08700 32.05200 25.25200
C  -5.92800 31.05600 25.85100
C  -5.74200 31.24900 27.21400
C  -4.81200 32.22600 27.41200
C  -6.71600 30.04000 25.08800
C  -6.18500 30.75900 28.54300
O  -6.88500 29.82300 28.82900
C  -5.42200 31.58200 29.59400
C  -6.41700 32.24300 30.47200
O  -7.27800 33.01100 30.12200
O  -6.24800 31.79300 31.81400
C  -7.31500 32.14100 32.77000
H  -0.39100 36.55100 29.04500
H  -1.14100 36.27800 22.56300
H  -5.45000 31.75000 23.22400
H  -4.40300 34.37900 30.93100
H  -1.49400 35.10100 30.96700
H  -2.71500 37.43000 30.36600
H  -2.42900 36.86700 31.88600
H  -4.02100 36.57800 31.30900
H  -2.11700 32.36300 30.82200
H  -3.59500 32.01500 31.67800
H  -2.74300 34.17900 33.06800
H  -1.21600 33.38400 32.72200
H  1.03900 37.77400 28.26900
H  0.92900 39.07400 27.06400
H  2.23500 38.02400 27.02900
H  1.65500 39.68900 24.66100
H  2.68700 38.80100 23.56100
H  2.65900 38.15800 25.05700
H  -2.22800 34.52400 21.14500
H  -5.03500 33.79800 21.51800
H  -3.92000 36.91800 21.80200
H  -4.96400 35.94000 20.84200
H  -3.40200 36.36500 20.20100
H  -3.07300 32.63500 20.15400
H  -4.57900 31.82600 20.68500
H  -2.26100 31.66300 22.64200
H  -2.07100 30.68700 21.19100
H  -3.42200 30.42000 22.17500
H  -6.14300 29.16300 24.78700
H  -7.26000 30.49500 24.26100
H  -7.53800 29.75000 25.74200
H  -4.79600 30.87400 30.13700
H  -6.72600 32.26300 33.67900
H  -7.95500 31.28500 32.98800
H  -7.87600 33.01300 32.43500

