158

Mg 16.16700 -1.74300 27.64800
C  15.46000 0.51000 30.29200
C  18.33000 -3.40200 29.81800
C  17.59200 -3.14100 25.00400
C  14.37600 0.39400 25.51700
N  16.95600 -1.32800 29.69900
C  16.39800 -0.50300 30.61900
C  16.77100 -0.91500 32.01000
C  17.81800 -2.02800 31.84100
C  17.66200 -2.32800 30.37200
C  19.29000 -1.93300 32.34800
C  15.55400 -1.23300 32.97800
C  15.72400 -0.52500 34.36000
H  17.01700 -0.05600 34.83800
N  17.72200 -3.15900 27.41800
C  18.44600 -3.76500 28.41500
C  19.26200 -4.73100 27.78700
C  19.06100 -4.70600 26.35800
C  18.15700 -3.63200 26.20600
C  20.03900 -5.57100 28.68500
C  19.56800 -5.58600 25.21400
O  19.27900 -5.47500 24.03200
C  20.42600 -6.66500 25.59200
N  16.02200 -1.38000 25.58900
C  16.71300 -2.11100 24.69800
C  16.61000 -1.50800 23.28600
C  15.36200 -0.59900 23.40000
C  15.17700 -0.55500 24.91800
C  17.81900 -0.69400 22.76800
C  14.18500 -1.06600 22.54500
C  13.68600 -0.11600 21.45900
N  15.02100 0.00700 27.80400
C  14.32900 0.73000 26.85600
C  13.57800 1.73100 27.48400
C  14.02200 1.75400 28.85200
C  14.92700 0.68100 28.95600
C  12.63200 2.70500 26.84200
C  13.89800 2.44600 30.05100
O  13.14800 3.35800 30.45400
C  14.80800 1.60800 31.10400
C  15.76900 2.59200 31.72600
O  16.71100 3.09100 31.16400
O  15.38900 2.82800 33.00900
C  16.05800 3.99900 33.60400
H  18.83800 -3.87500 30.66100
H  18.00800 -3.56900 24.09000
H  13.89200 1.00200 24.75000
H  17.13500 0.07400 32.28700
H  17.40800 -2.88600 32.37500
H  20.00300 -1.69800 31.55800
H  19.44400 -2.92500 32.77300
H  19.52900 -1.26300 33.17400
H  15.50400 -2.32100 33.02800
H  14.66700 -0.87200 32.45600
H  15.36600 -1.33800 34.99200
H  15.04800 0.32800 34.41400
H  20.93300 -5.82500 28.11500
H  19.42100 -6.42200 28.97100
H  20.36600 -5.08100 29.60200
H  20.76300 -7.25500 24.74000
H  19.93900 -7.28000 26.34900
H  21.32800 -6.26400 26.05400
H  16.44000 -2.33300 22.59400
H  15.47400 0.43600 23.07700
H  18.72500 -1.25500 23.00000
H  17.91300 0.30600 23.19200
H  17.76700 -0.66700 21.68000
H  13.27400 -1.35300 23.07000
H  14.50500 -1.85900 21.87000
H  12.98400 0.67600 21.72100
H  13.15200 -0.73300 20.73600
H  14.48500 0.38700 20.91500
H  11.62200 2.48500 27.18700
H  12.55900 2.71400 25.75400
H  12.85000 3.75800 27.02200
H  14.12500 1.30900 31.89900
H  16.48800 3.68000 34.55300
H  15.28800 4.73700 33.83200
H  16.88500 4.41400 33.03000
Mg 47.76000 25.33600 29.55700
C  48.76900 27.40200 31.97500
C  46.41600 23.25500 31.98300
C  46.93600 22.95000 27.19100
C  49.38600 27.21600 27.15600
N  47.56400 25.39800 31.69700
C  47.98600 26.39100 32.48700
C  47.78800 26.11600 33.92700
C  47.06000 24.74200 33.90100
C  46.97900 24.42700 32.43500
C  47.84500 23.61300 34.75400
C  46.93500 27.20500 34.79500
C  47.30700 27.25600 36.33300
H  46.16700 26.97700 37.30300
N  46.56200 23.40400 29.52900
C  46.11500 22.75500 30.64600
C  45.49300 21.48600 30.26600
C  45.60600 21.38700 28.83200
C  46.44100 22.56800 28.44500
C  44.79900 20.60600 31.23200
C  45.06400 20.28100 27.90600
O  45.36700 20.18200 26.74500
C  44.24200 19.18600 28.44000
N  48.20400 25.02100 27.46300
C  47.61600 24.11700 26.71800
C  47.61500 24.49200 25.20100
C  48.36400 25.85800 25.20100
C  48.70400 26.04700 26.69500
C  48.12100 23.51000 24.10100
C  47.50200 27.09800 24.73200
C  48.26100 28.03300 23.65100
N  48.84000 26.91500 29.50300
C  49.51700 27.60900 28.49100
C  50.10100 28.79500 28.99800
C  49.88700 28.72300 30.34200
C  49.15400 27.62200 30.60800
C  50.83700 29.79200 28.12300
C  50.14000 29.38500 31.61700
O  50.62000 30.47200 31.90400
C  49.43300 28.48800 32.75700
C  50.53700 27.97300 33.59000
O  51.61500 27.52100 33.21900
O  50.19700 28.24000 34.87500
C  51.24600 27.84300 35.83200
H  46.10800 22.59100 32.79300
H  46.59300 22.38500 26.32200
H  49.72800 27.88200 26.36100
H  48.74500 25.97800 34.43100
H  46.08100 24.58500 34.35300
H  48.13100 22.73800 34.17000
H  47.13500 23.28800 35.51500
H  48.77700 23.98800 35.17800
H  45.87700 27.16800 34.53400
H  47.23800 28.19600 34.45600
H  47.68900 28.25700 36.53400
H  48.03000 26.45200 36.47500
H  43.76200 20.64600 30.90000
H  44.84000 20.87100 32.28900
H  45.14400 19.59400 31.02000
H  43.74400 18.57900 27.68300
H  43.57700 19.60300 29.19600
H  44.98200 18.59200 28.97600
H  46.55900 24.67000 24.99600
H  49.35800 25.81500 24.75600
H  48.67600 22.67600 24.52900
H  48.68900 24.08200 23.36600
H  47.26600 23.13400 23.53900
H  47.28500 27.69300 25.61900
H  46.62300 26.73800 24.19800
H  49.29100 27.67700 23.63000
H  48.06300 29.03300 24.03600
H  47.95100 27.84500 22.62300
H  50.99900 29.58100 27.06600
H  51.81900 29.94500 28.57100
H  50.26500 30.71300 28.23800
H  48.74500 29.10400 33.33500
H  51.34200 26.76000 35.75600
H  50.76700 27.99500 36.79900
H  52.23600 28.25500 35.63600

