158

Mg 34.93300 3.33300 30.41600
C  32.62500 4.44600 32.85200
C  37.31400 3.56700 32.61000
C  37.17900 2.92100 27.76100
C  32.36500 3.58000 28.01100
N  34.90200 4.04900 32.37600
C  33.91300 4.22400 33.34100
C  34.28700 4.26900 34.78300
C  35.82200 4.12800 34.63900
C  36.01600 3.91700 33.09900
C  36.66900 5.28100 35.37700
C  33.61800 3.04400 35.48600
C  33.10500 3.38800 36.89100
H  33.74500 4.55200 37.59100
N  36.98100 3.06100 30.21400
C  37.76700 3.30500 31.30600
C  39.09000 2.97200 30.88500
C  39.09900 2.65100 29.48400
C  37.73600 2.86900 29.06400
C  40.26100 3.15700 31.84400
C  40.30800 2.29100 28.55800
O  40.24700 2.14700 27.33700
C  41.68400 1.98200 29.06800
N  34.72000 3.24300 28.17100
C  35.85000 3.05400 27.37500
C  35.35500 3.02500 25.88600
C  33.84600 3.20300 25.96600
C  33.60000 3.26800 27.43600
C  36.04200 3.99600 24.81000
C  33.09500 2.08700 25.13800
C  32.66800 0.70200 25.74100
N  32.87300 3.89300 30.41800
C  31.93100 3.84900 29.30700
C  30.62100 4.29800 29.81300
C  30.83500 4.44100 31.23000
C  32.24300 4.23100 31.52400
C  29.37200 4.54900 28.99500
C  30.22100 4.82600 32.42600
O  29.07500 5.12500 32.68900
C  31.37000 4.73300 33.51800
C  31.26900 5.99600 34.26400
O  31.99800 6.95300 34.19500
O  30.35400 5.78700 35.22900
C  30.34800 6.82000 36.21600
H  38.10900 3.60500 33.35700
H  37.95300 2.89100 26.99100
H  31.53300 3.77100 27.32900
H  34.04300 5.27200 35.13300
H  36.13000 3.15400 35.02000
H  36.90900 6.01000 34.60300
H  37.62200 4.84700 35.67700
H  36.11100 5.64000 36.24200
H  34.27300 2.20200 35.71100
H  32.90900 2.64600 34.76000
H  33.28500 2.46400 37.44000
H  32.02400 3.50800 36.96400
H  41.22800 2.74400 31.55700
H  39.98400 2.67900 32.78300
H  40.49200 4.21000 32.00300
H  41.60700 1.21000 29.83400
H  42.04300 2.95000 29.41800
H  42.23100 1.51000 28.25200
H  35.69300 2.03000 25.59400
H  33.59200 4.17100 25.53400
H  36.78300 3.41300 24.26400
H  36.53100 4.84300 25.28900
H  35.25400 4.50200 24.25100
H  33.54500 1.92700 24.15800
H  32.17700 2.61300 24.87600
H  31.76800 0.98800 26.28500
H  33.41600 0.43900 26.49000
H  32.63200 -0.07200 24.97400
H  29.54500 5.36000 28.28800
H  28.58100 4.76700 29.71300
H  29.15800 3.62100 28.46500
H  31.17200 3.90200 34.19500
H  29.69100 7.64200 35.93200
H  31.33100 7.23500 36.44000
H  29.97600 6.37900 37.14100
Mg 43.18000 42.10400 25.82100
C  41.90800 44.36300 28.36200
C  44.18200 40.00700 28.27000
C  44.44900 40.35300 23.36000
C  42.18200 44.61000 23.39400
N  43.17100 42.28500 28.09600
C  42.59800 43.25500 28.95300
C  42.69200 42.87300 30.44400
C  43.40300 41.47900 30.28200
C  43.67100 41.20000 28.79700
C  44.51100 41.32200 31.26900
C  41.27400 42.86300 31.15900
C  41.04000 42.04400 32.48500
H  40.33000 42.78800 33.58600
N  44.13300 40.38100 25.86200
C  44.45800 39.62600 26.97100
C  45.00800 38.34200 26.48600
C  45.17200 38.42300 25.06400
C  44.64900 39.78000 24.73300
C  45.35500 37.26100 27.39100
C  45.57000 37.36500 23.98100
O  45.58300 37.59600 22.76100
C  45.87600 36.01400 24.55600
N  43.35700 42.47600 23.67600
C  43.91200 41.55600 22.89900
C  43.70800 41.84900 21.43800
C  42.74100 43.06500 21.49100
C  42.67500 43.39300 22.95200
C  45.01900 42.00000 20.56800
C  41.32500 42.63600 21.04200
C  41.03000 42.41500 19.56400
N  42.40000 44.05400 25.82100
C  42.03400 44.96800 24.78100
C  41.41800 46.22900 25.27900
C  41.36800 45.97800 26.66000
C  41.85500 44.64300 26.91500
C  40.98700 47.40900 24.51100
C  40.93600 46.69600 27.85800
O  40.44900 47.75400 28.17800
C  41.18600 45.60800 28.98000
C  42.10600 46.11100 30.07500
O  43.32600 46.06200 30.03700
O  41.38400 46.55500 31.16300
C  42.06100 46.53900 32.47700
H  44.36900 39.37000 29.13700
H  44.76700 39.71900 22.52900
H  41.89500 45.34000 22.63400
H  43.28400 43.59500 31.00700
H  42.72200 40.65600 30.50000
H  44.44400 40.32400 31.70200
H  44.52600 41.92600 32.17700
H  45.54700 41.29900 30.93000
H  40.61000 42.43300 30.41000
H  40.95900 43.90600 31.17700
H  41.98100 41.61100 32.82400
H  40.32200 41.27400 32.20000
H  45.23100 37.51500 28.44400
H  46.36400 36.89500 27.20500
H  44.71200 36.41100 27.16200
H  46.25700 35.32700 23.80100
H  44.99700 35.56300 25.01700
H  46.66400 36.18100 25.29100
H  43.22100 40.97300 21.00900
H  43.12600 43.89600 20.90000
H  45.23500 43.06800 20.53700
H  44.96700 41.65900 19.53400
H  45.79500 41.46800 21.11800
H  40.68000 43.39900 21.47800
H  41.11200 41.69300 21.54600
H  40.79500 41.36300 19.40000
H  41.94200 42.72000 19.05000
H  40.19900 43.10700 19.42600
H  41.81400 47.69000 23.85800
H  40.57300 48.24200 25.07900
H  40.14400 47.31400 23.82700
H  40.33700 45.31500 29.59800
H  42.29300 47.60300 32.51600
H  42.96800 45.93600 32.53000
H  41.37100 46.34900 33.29900

