158

Mg 36.10100 2.79500 30.22200
C  33.65500 3.89400 32.45300
C  38.44900 3.16300 32.86800
C  38.52600 2.02800 28.06800
C  33.78300 2.99600 27.63100
N  36.06200 3.47700 32.40100
C  34.92200 3.75100 33.06800
C  35.15100 3.62200 34.59700
C  36.68000 3.87000 34.66100
C  37.13000 3.47800 33.23500
C  37.12800 5.36300 35.00800
C  34.59600 2.32900 35.24100
C  33.97000 2.41200 36.60600
H  34.62500 3.37200 37.60400
N  38.15600 2.57600 30.42300
C  38.91900 2.76700 31.58900
C  40.31900 2.37200 31.29000
C  40.33100 1.91300 29.91100
C  38.98100 2.19100 29.38400
C  41.43900 2.35100 32.28100
C  41.45400 1.33200 29.09800
O  41.40600 1.15800 27.85500
C  42.78000 1.12500 29.73400
N  36.25900 2.91200 28.14000
C  37.33100 2.37200 27.47700
C  37.07400 2.12200 25.95200
C  35.51300 2.43400 25.85800
C  35.16900 2.84100 27.28100
C  37.91700 3.02200 24.98400
C  34.65000 1.24700 25.39100
C  33.85100 1.37000 24.01000
N  34.17200 3.26000 30.00700
C  33.33700 3.32500 28.89500
C  32.04400 3.70300 29.28300
C  32.10200 3.90600 30.64900
C  33.41600 3.60500 31.03900
C  30.80900 3.85900 28.46600
C  31.28200 4.38300 31.76700
O  30.15000 4.88500 31.82300
C  32.26500 4.13500 33.05700
C  32.20900 5.35400 34.01000
O  32.54400 6.48900 33.74900
O  31.72800 4.93800 35.22500
C  31.47800 5.94900 36.21900
H  39.06900 2.91900 33.73300
H  39.36700 1.62600 27.49800
H  32.99900 3.06200 26.87500
H  34.58000 4.46900 34.97600
H  37.09300 3.18400 35.40000
H  37.85800 5.77400 34.31000
H  37.69100 5.36000 35.94100
H  36.22100 5.96000 34.91500
H  35.42300 1.62800 35.36000
H  33.87300 2.00100 34.49400
H  34.02000 1.43600 37.08800
H  32.91200 2.67400 36.56100
H  42.41700 2.59900 31.86800
H  41.47100 1.39700 32.80600
H  41.21700 3.20100 32.92700
H  43.26100 2.07600 29.96300
H  43.38900 0.58800 29.00700
H  42.63100 0.58100 30.66600
H  37.33600 1.07400 25.81200
H  35.32800 3.27600 25.19200
H  38.12900 3.92100 25.56300
H  37.22100 3.22400 24.17000
H  38.76900 2.43700 24.64000
H  33.93500 0.94700 26.15600
H  35.33000 0.41200 25.22100
H  32.83700 1.70800 24.22400
H  33.91600 0.45300 23.42500
H  34.31100 2.13300 23.38200
H  29.95800 3.76600 29.14000
H  30.70900 3.11700 27.67400
H  30.73800 4.81600 27.94800
H  31.99200 3.20000 33.54500
H  32.26900 5.91000 36.96800
H  30.52500 5.75300 36.71100
H  31.44000 6.95800 35.80900
Mg 41.17700 40.27900 27.25600
C  40.31100 42.94900 29.37900
C  42.20200 38.59100 29.92500
C  42.32900 38.00800 25.04500
C  40.83500 42.44400 24.44200
N  40.98700 40.55600 29.39400
C  40.60300 41.71200 30.03300
C  40.35100 41.51600 31.51900
C  41.05200 40.08800 31.73700
C  41.58700 39.76600 30.22600
C  42.36600 40.18500 32.66500
C  38.79500 41.65600 31.84200
C  38.51400 42.62400 32.98700
H  37.88400 42.04800 34.30200
N  42.10900 38.53000 27.45800
C  42.47500 37.99500 28.66400
C  43.10100 36.72000 28.44500
C  43.08300 36.47000 26.98600
C  42.49900 37.69100 26.43600
C  43.73100 35.94200 29.64500
C  43.59400 35.21100 26.20200
O  43.50400 34.89400 25.04300
C  44.20300 34.13900 26.96800
N  41.61600 40.29400 25.07700
C  41.99600 39.15900 24.34600
C  42.04600 39.40500 22.84300
C  41.46900 40.85300 22.74700
C  41.29600 41.23700 24.17200
C  43.49200 39.10400 22.23900
C  40.11700 40.88100 22.00300
C  38.84800 40.06600 22.47000
N  40.68800 42.29600 26.89700
C  40.58200 43.01600 25.72700
C  40.13800 44.35500 26.06400
C  40.03200 44.38100 27.50700
C  40.36800 43.05900 27.95800
C  39.90200 45.43400 25.04600
C  39.81900 45.17800 28.66800
O  39.57600 46.38100 28.78900
C  39.94500 44.29800 29.91700
C  41.08100 44.79600 30.77400
O  42.26800 44.78000 30.57100
O  40.57800 45.18300 31.99600
C  41.49700 45.56200 33.08800
H  42.49700 37.98300 30.78300
H  42.62300 37.11300 24.49200
H  40.60200 43.08000 23.58500
H  40.88300 42.28600 32.07800
H  40.35600 39.35900 32.15200
H  42.51500 41.22700 32.94900
H  43.22900 39.70100 32.20800
H  42.14800 39.52400 33.50400
H  38.48200 40.61500 31.92100
H  38.34100 42.03500 30.92700
H  37.72600 43.30800 32.67300
H  39.43200 43.05200 33.39100
H  44.04800 36.68100 30.38000
H  44.59700 35.34300 29.36200
H  43.00900 35.27600 30.11900
H  43.35300 33.94300 27.62100
H  45.02800 34.57800 27.52900
H  44.52500 33.24800 26.42900
H  41.37700 38.65700 22.41700
H  42.24700 41.43300 22.25100
H  44.16800 38.84500 23.05400
H  43.92800 39.88700 21.61900
H  43.41900 38.21600 21.61100
H  40.40000 40.47000 21.03300
H  39.75100 41.90400 21.92400
H  38.58200 39.36800 21.67600
H  37.93900 40.66200 22.55800
H  39.00800 39.42900 23.34000
H  40.63500 45.34500 24.24400
H  40.13900 46.40100 25.49000
H  38.87500 45.57900 24.70900
H  39.06900 44.26600 30.56500
H  42.54200 45.26100 33.00900
H  41.00500 45.08300 33.93500
H  41.41400 46.64700 33.15600

