158

Mg -1.30800 17.71500 25.98100
C  -1.92500 15.73400 28.60800
C  -2.03500 20.44700 28.05500
C  -0.76200 19.82300 23.41900
C  -1.40300 15.02700 23.87100
N  -1.79900 18.00400 28.12800
C  -1.89000 17.03900 29.03900
C  -2.18000 17.58000 30.43300
C  -2.57900 19.11600 30.14900
C  -2.14200 19.19800 28.68000
C  -4.09200 19.40200 30.22900
C  -1.09000 17.41600 31.41700
C  -1.50300 16.81400 32.76400
H  -0.23000 16.31300 33.51300
N  -1.17700 19.76400 25.81600
C  -1.55800 20.70900 26.76000
C  -1.36000 22.03100 26.20300
C  -0.82100 21.91600 24.90400
C  -0.82700 20.44300 24.66700
C  -1.61900 23.33400 26.94700
C  -0.44200 22.98300 23.92600
O  0.03600 22.75900 22.82600
C  -0.56900 24.39900 24.27300
N  -1.26100 17.44300 23.88900
C  -0.98100 18.45800 23.06500
C  -0.85200 17.89700 21.55900
C  -0.71600 16.34900 21.78900
C  -1.14500 16.23800 23.28700
C  -1.95300 18.36300 20.57400
C  0.62900 15.68200 21.35900
C  1.72000 15.70200 22.42200
N  -1.61000 15.76300 26.15400
C  -1.65700 14.77900 25.19600
C  -1.85800 13.52400 25.87200
C  -1.92200 13.84700 27.21800
C  -1.86400 15.20400 27.29700
C  -1.96300 12.22200 25.19500
C  -2.07000 13.31200 28.47000
O  -2.17500 12.07500 28.72600
C  -2.31300 14.50400 29.40600
C  -1.64700 14.12200 30.63500
O  -0.47400 14.19600 30.90000
O  -2.63200 13.50800 31.43300
C  -2.19100 12.95200 32.69300
H  -2.29900 21.29000 28.69600
H  -0.72400 20.52100 22.58000
H  -1.22100 14.16300 23.22900
H  -2.98300 16.95300 30.82000
H  -2.11000 19.81400 30.84200
H  -4.38400 20.25500 29.61600
H  -4.40100 19.61700 31.25200
H  -4.62700 18.56000 29.79000
H  -0.66300 18.38400 31.67600
H  -0.26800 16.84100 30.99100
H  -2.28000 16.07200 32.58400
H  -1.89900 17.66500 33.31900
H  -0.70700 23.89300 27.16100
H  -2.14900 23.17500 27.88600
H  -2.29800 23.95600 26.36400
H  0.03400 24.46200 25.17800
H  -1.59600 24.74500 24.38300
H  -0.15200 25.04400 23.50000
H  0.14400 18.16000 21.20200
H  -1.51400 15.78500 21.30500
H  -2.57000 18.95400 21.25100
H  -2.60600 17.58800 20.17100
H  -1.54500 19.04600 19.82900
H  1.16400 16.05600 20.48600
H  0.44900 14.65400 21.04500
H  1.56900 16.42600 23.22200
H  2.67100 15.94100 21.94600
H  1.80800 14.69500 22.83200
H  -1.66800 11.41600 25.86700
H  -1.32400 12.32700 24.31800
H  -2.98800 12.06900 24.85500
H  -3.38400 14.62200 29.57500
H  -3.05300 12.45000 33.13400
H  -1.86100 13.82200 33.26100
H  -1.29600 12.33100 32.66000
Mg 35.48500 2.11300 30.41700
C  33.37300 3.38100 32.99400
C  38.12400 2.11800 32.62500
C  37.33600 1.21500 27.76700
C  32.74500 2.66500 28.05500
N  35.65300 2.59200 32.50000
C  34.69500 3.10700 33.35400
C  35.19700 3.43400 34.76600
C  36.73000 3.44600 34.45100
C  36.85600 2.65000 33.08100
C  37.38000 4.87000 34.51600
C  34.74300 2.40600 35.88000
C  34.43200 2.99900 37.35000
H  35.20800 4.21200 37.82900
N  37.45400 1.49300 30.31500
C  38.41600 1.53700 31.29700
C  39.65000 0.97900 30.80500
C  39.45400 0.73800 29.43600
C  38.03500 1.13600 29.08600
C  40.90500 0.95200 31.67400
C  40.43000 0.14600 28.35400
O  40.08300 0.04200 27.15500
C  41.82100 -0.22000 28.67400
N  35.06200 1.83200 28.28900
C  36.06300 1.59300 27.46300
C  35.65300 1.73400 26.02800
C  34.12500 2.15200 26.05000
C  33.94200 2.22700 27.56700
C  36.54800 2.61200 25.15500
C  33.20100 1.18000 25.27300
C  32.04400 1.95800 24.54900
N  33.46300 2.75100 30.50000
C  32.46400 2.86000 29.45000
C  31.25100 3.26400 30.09600
C  31.52200 3.43900 31.47300
C  32.87400 3.15800 31.65600
C  29.90500 3.46300 29.37900
C  30.96700 3.79400 32.78500
O  29.88900 4.11700 33.13900
C  32.13600 3.74000 33.82900
C  32.30200 5.08900 34.49700
O  32.77500 6.07200 33.97500
O  31.58500 5.09400 35.63800
C  31.36600 6.31900 36.42500
H  38.90300 2.14400 33.39000
H  37.86500 0.89900 26.86600
H  31.86400 2.71800 27.41200
H  34.84900 4.44000 34.99800
H  37.32800 2.99900 35.24500
H  37.71400 5.10900 33.50700
H  38.17900 4.82800 35.25700
H  36.68100 5.59700 34.92800
H  35.55300 1.68700 36.00200
H  33.81800 2.01200 35.46000
H  34.45700 2.18300 38.07200
H  33.41500 3.38900 37.31700
H  41.81700 0.98400 31.07800
H  40.85400 0.02000 32.23700
H  40.94100 1.85700 32.28000
H  42.49300 0.62100 28.50200
H  42.06400 -1.10800 28.09000
H  41.89600 -0.58800 29.69800
H  35.87500 0.72600 25.67700
H  33.84500 3.17900 25.81700
H  35.91800 3.08700 24.40300
H  37.32100 2.00200 24.68800
H  37.04700 3.33400 25.80200
H  32.81000 0.33400 25.83800
H  33.78800 0.76400 24.45400
H  32.23600 3.02400 24.42800
H  31.14800 1.78700 25.14500
H  31.96000 1.59400 23.52500
H  29.04500 3.74100 29.98800
H  29.68100 2.49500 28.93000
H  30.09400 4.14700 28.55100
H  31.98100 2.98400 34.59900
H  30.32300 6.63400 36.38700
H  31.90200 7.17400 36.01200
H  31.74500 5.99700 37.39500

