158

Mg 2.03300 -1.73300 44.23400
C  5.32400 -1.11000 43.38900
C  1.20200 1.03800 42.30900
C  -1.08300 -2.87100 43.92000
C  3.08300 -4.56700 45.92600
N  3.20900 -0.28100 42.82300
C  4.54400 -0.14500 42.79000
C  5.01800 1.03000 41.92000
C  3.67900 1.84100 41.77400
C  2.59800 0.85000 42.30500
C  3.69600 3.11000 42.66700
C  5.71800 0.60900 40.60700
C  6.81800 1.57600 40.06600
H  6.28900 2.50800 38.92200
N  0.24700 -0.90600 43.37500
C  0.14200 0.25900 42.72600
C  -1.28000 0.57800 42.49900
C  -1.98500 -0.65300 42.87800
C  -0.93900 -1.57900 43.34600
C  -1.73600 1.89200 42.10800
C  -3.52100 -0.75100 42.94100
O  -4.19800 0.18000 42.58500
C  -4.27700 -1.90200 43.56200
N  1.07500 -3.36500 44.93400
C  -0.19600 -3.71500 44.58200
C  -0.50600 -5.16300 44.98700
C  0.88700 -5.75400 45.37600
C  1.73000 -4.43500 45.52400
C  -1.59600 -5.29400 46.02800
C  1.27200 -6.98400 44.54100
C  1.53100 -8.22800 45.42400
N  3.76700 -2.59600 44.69000
C  4.08300 -3.70700 45.42900
C  5.53100 -3.90300 45.53900
C  6.02600 -2.85600 44.81100
C  4.91900 -2.15500 44.20900
C  6.22100 -5.02700 46.34200
C  7.26200 -2.17900 44.40200
O  8.41400 -2.42600 44.69800
C  6.86200 -1.00000 43.51100
C  7.37700 0.22000 44.11900
O  6.97500 0.61700 45.23100
O  8.25400 0.90600 43.28300
C  8.37000 2.32600 43.46200
H  0.83700 1.94900 41.82900
H  -2.03400 -3.36200 43.70500
H  3.31400 -5.56500 46.30300
H  5.73200 1.66300 42.44600
H  3.34300 1.95900 40.74400
H  3.02900 3.05800 43.52700
H  3.28700 3.86500 41.99600
H  4.64200 3.39700 43.12700
H  4.98000 0.54400 39.80800
H  6.19500 -0.36600 40.71200
H  7.69100 1.05700 39.67100
H  7.25800 2.30600 40.74600
H  -1.12300 2.21600 41.26700
H  -1.55200 2.55300 42.95500
H  -2.79600 1.92700 41.85400
H  -5.25400 -1.64800 43.97200
H  -3.79200 -2.26400 44.46900
H  -4.36400 -2.69400 42.81800
H  -0.86300 -5.63000 44.06900
H  0.73900 -6.05400 46.41300
H  -2.15100 -4.35500 46.04000
H  -1.10400 -5.39000 46.99600
H  -2.31800 -6.11000 46.00900
H  2.15800 -6.64700 44.00400
H  0.52300 -7.36700 43.84800
H  2.55200 -8.57800 45.26900
H  0.83500 -9.01900 45.14200
H  1.50700 -8.09100 46.50500
H  5.56400 -5.68500 46.91000
H  6.88100 -4.43400 46.97500
H  6.74700 -5.65400 45.62100
H  7.33600 -1.12700 42.53800
H  7.71400 2.85200 42.76800
H  9.37800 2.68200 43.24700
H  8.12000 2.57900 44.49300
Mg 9.11000 48.41300 25.96500
C  7.00800 48.86600 28.65700
C  11.81300 49.70600 27.76700
C  11.04400 48.01100 23.22300
C  6.23700 47.72000 24.03400
N  9.35600 49.26700 27.87600
C  8.36400 49.14800 28.88900
C  9.06400 49.48700 30.26600
C  10.37900 50.15700 29.82600
C  10.54500 49.70000 28.40900
C  10.43300 51.66600 30.09700
C  9.43300 48.22300 31.12000
C  9.55200 48.37200 32.67900
H  8.95600 47.35600 33.66900
N  11.14900 48.73500 25.60200
C  12.08300 49.22600 26.43800
C  13.36600 49.06600 25.79800
C  13.16700 48.56900 24.52700
C  11.76500 48.45000 24.36400
C  14.64400 49.51300 26.51300
C  14.16000 48.33300 23.43800
O  13.85600 48.14200 22.26600
C  15.72100 48.39200 23.77700
N  8.71100 48.03400 23.92600
C  9.63800 47.83200 22.97000
C  9.03900 47.45500 21.65500
C  7.54500 47.39700 21.98200
C  7.48800 47.69500 23.39600
C  9.42400 48.34500 20.41600
C  7.00200 45.98900 21.57400
C  5.81600 46.16700 20.61400
N  6.98100 48.42500 26.20900
C  5.96400 48.08400 25.36600
C  4.73500 48.10400 26.07200
C  5.13900 48.44500 27.38700
C  6.48600 48.63500 27.40500
C  3.40600 47.72800 25.60400
C  4.57700 48.60800 28.68700
O  3.43200 48.54800 29.11200
C  5.83400 48.93900 29.56300
C  5.81400 47.89200 30.61900
O  6.23200 46.80900 30.43100
O  5.29800 48.34800 31.82400
C  5.08100 47.27800 32.78300
H  12.64900 50.05700 28.37500
H  11.51300 47.93000 22.24000
H  5.37000 47.35900 23.47700
H  8.53500 50.20700 30.89000
H  11.22400 49.77000 30.39500
H  10.61300 52.07700 29.10400
H  11.28400 51.86400 30.74900
H  9.50400 52.01000 30.55300
H  10.38900 47.77100 30.85300
H  8.73900 47.43900 30.81600
H  9.08700 49.34100 32.86400
H  10.59700 48.52800 32.94700
H  14.42900 49.69800 27.56500
H  15.08400 50.41300 26.08300
H  15.43700 48.76600 26.47800
H  16.17100 47.51200 24.23500
H  15.89100 49.37400 24.22000
H  16.17900 48.44000 22.78900
H  9.62000 46.55200 21.46500
H  7.07100 48.18600 21.39800
H  9.86700 49.25200 20.82500
H  8.57800 48.58000 19.77000
H  10.09000 47.72000 19.82100
H  6.69500 45.56000 22.52800
H  7.76600 45.29600 21.22100
H  5.15300 45.30200 20.62600
H  5.98600 46.45200 19.57600
H  5.18900 46.98100 20.98000
H  3.54600 46.91300 24.89400
H  2.92900 48.52600 25.03500
H  2.63600 47.50900 26.34400
H  5.59900 49.82200 30.15700
H  5.62200 47.54100 33.69300
H  5.30400 46.24600 32.51400
H  4.00300 47.41100 32.87200

