158

Mg 41.15000 41.33900 27.05100
C  40.26200 43.71200 29.47200
C  42.04200 39.28500 29.61300
C  42.30300 39.14400 24.80400
C  40.77300 43.80800 24.58500
N  41.07900 41.51800 29.16100
C  40.52900 42.44900 29.95500
C  40.57800 42.14500 31.44700
C  41.17300 40.67500 31.51400
C  41.51600 40.49300 30.00200
C  42.36200 40.48000 32.49900
C  39.23800 42.29400 32.21100
C  39.20900 41.61000 33.56200
H  38.46100 42.24200 34.72100
N  42.06700 39.46200 27.22000
C  42.37900 38.77600 28.39400
C  42.69700 37.42900 28.04800
C  42.63800 37.30400 26.64200
C  42.30000 38.65800 26.12200
C  42.94300 36.34900 29.14000
C  42.90300 36.01600 25.75500
O  42.96000 36.02700 24.51400
C  42.86800 34.73000 26.55100
N  41.63800 41.46300 25.05400
C  42.07400 40.43200 24.33000
C  41.99500 40.69100 22.80400
C  41.40700 42.15200 22.72800
C  41.19900 42.48300 24.21600
C  43.38300 40.46900 22.00000
C  40.15700 42.33700 21.79500
C  38.77700 42.20900 22.44500
N  40.57700 43.31200 26.96000
C  40.53200 44.21900 25.89800
C  39.96800 45.41700 26.37800
C  39.87100 45.30400 27.77100
C  40.29700 44.05900 28.07200
C  39.77400 46.61700 25.56600
C  39.44500 45.99300 29.00700
O  38.94100 47.07100 29.13400
C  39.63700 44.98700 30.11400
C  40.56700 45.61600 31.09700
O  41.78500 45.61100 30.97700
O  39.94000 46.27300 32.17700
C  40.82100 46.83700 33.24800
H  42.35500 38.59300 30.39800
H  42.53800 38.46600 23.98100
H  40.59000 44.46500 23.73200
H  41.36100 42.80500 31.82100
H  40.42900 39.91200 31.74300
H  43.29500 40.23100 31.99400
H  42.06000 39.74300 33.24300
H  42.49400 41.40800 33.05700
H  38.32700 42.00100 31.69000
H  38.95500 43.32800 32.41000
H  40.26900 41.58300 33.81300
H  38.79900 40.60600 33.46000
H  42.51100 36.64600 30.09600
H  44.02100 36.21300 29.23000
H  42.41500 35.43300 28.87700
H  41.93400 34.64200 27.10600
H  43.72000 34.67200 27.22900
H  42.84700 33.91800 25.82400
H  41.24700 40.04400 22.34500
H  42.23600 42.83100 22.52800
H  43.17100 39.70900 21.24800
H  44.09200 40.09400 22.73800
H  43.61100 41.44900 21.58100
H  40.39200 41.73800 20.91600
H  40.06200 43.40200 21.58500
H  38.15300 41.49600 21.90700
H  38.25200 43.15300 22.59400
H  38.93200 41.85900 23.46600
H  39.17700 47.36900 26.08200
H  39.24800 46.28400 24.67100
H  40.60400 47.20600 25.17500
H  38.68200 44.76000 30.58800
H  40.45700 46.60300 34.24800
H  40.95100 47.89700 33.02700
H  41.78600 46.35800 33.41600
Mg -8.90200 40.78400 41.15400
C  -8.14700 37.48900 40.47000
C  -5.96600 41.71500 39.58500
C  -10.04400 43.82900 41.07800
C  -12.18900 39.57300 42.22000
N  -7.28800 39.76900 40.05600
C  -7.22500 38.41000 39.94300
C  -5.97700 37.98400 39.12000
C  -5.11800 39.27500 39.19100
C  -6.19400 40.34700 39.56700
C  -3.98500 39.25800 40.33100
C  -6.34700 37.56200 37.73200
C  -5.87300 36.20100 37.29000
H  -4.91100 36.29600 36.04400
N  -8.12200 42.54100 40.50100
C  -6.86000 42.73600 40.02200
C  -6.64800 44.20400 39.97400
C  -7.76000 44.81800 40.45100
C  -8.73200 43.69300 40.65000
C  -5.35000 44.71300 39.48500
C  -8.02600 46.35800 40.65800
O  -7.14900 47.15800 40.41700
C  -9.28000 46.90600 41.18000
N  -10.94100 41.56400 41.54300
C  -11.02400 42.93900 41.47200
C  -12.46500 43.28600 41.65700
C  -13.22700 41.97000 42.18300
C  -12.09500 40.96200 41.96500
C  -12.86300 44.53800 42.46000
C  -14.56000 41.78500 41.44100
C  -15.79400 41.38800 42.29900
N  -9.88500 38.90600 41.47700
C  -11.18200 38.59400 41.89800
C  -11.26100 37.19300 42.08000
C  -10.07700 36.66900 41.50700
C  -9.31800 37.78100 41.17500
C  -12.48700 36.44600 42.63500
C  -9.32400 35.51100 41.19100
O  -9.52100 34.35200 41.49300
C  -8.05600 35.98600 40.45200
C  -6.88700 35.39800 41.13900
O  -6.38800 35.80100 42.17900
O  -6.65300 34.16000 40.54200
C  -5.60700 33.30300 41.12000
H  -4.92800 42.00500 39.41200
H  -10.53100 44.79200 40.91000
H  -13.20600 39.20500 42.36800
H  -5.48400 37.15200 39.62300
H  -4.61400 39.56600 38.26900
H  -3.99800 38.27200 40.79400
H  -4.22700 40.00200 41.09100
H  -3.01000 39.41700 39.87100
H  -6.00600 38.34800 37.05900
H  -7.40400 37.70000 37.50500
H  -6.72000 35.52200 37.19800
H  -5.23600 35.68500 38.00800
H  -4.56700 44.37800 40.16500
H  -5.35100 45.80000 39.40900
H  -5.15000 44.46800 38.44100
H  -9.64400 46.46400 42.10700
H  -10.08800 46.87500 40.44900
H  -9.08300 47.97000 41.31300
H  -12.83000 43.59800 40.67900
H  -13.39800 42.18200 43.23800
H  -11.98100 45.02100 42.88100
H  -13.50900 44.41600 43.33000
H  -13.23800 45.35600 41.84400
H  -14.47000 41.02800 40.66200
H  -14.77200 42.71900 40.92000
H  -16.03100 40.38000 41.96000
H  -16.61700 42.04200 42.01000
H  -15.49900 41.37100 43.34900
H  -13.31800 36.48200 41.93100
H  -12.75300 36.91500 43.58200
H  -12.36900 35.41400 42.96700
H  -8.02200 35.72500 39.39500
H  -5.09600 33.82300 41.93100
H  -4.88600 33.12200 40.32300
H  -6.04200 32.37100 41.47900

