158

Mg 9.05700 3.61200 27.74500
C  10.36100 1.95600 30.66400
C  7.14700 5.49100 29.81900
C  7.50700 4.68600 24.97100
C  10.57500 1.02400 25.79500
N  8.79600 3.74000 30.08300
C  9.52600 3.00100 31.04600
C  9.19000 3.51700 32.41900
C  8.05900 4.62700 32.18400
C  7.99100 4.64400 30.59000
C  6.65700 4.37900 32.89700
C  10.42400 3.92900 33.27500
C  10.09000 4.97700 34.33500
H  10.59300 4.84700 35.74500
N  7.63400 5.01000 27.37900
C  6.98400 5.73700 28.37200
C  6.17500 6.73400 27.81500
C  6.40700 6.70500 26.36800
C  7.20100 5.41400 26.15100
C  5.28400 7.75600 28.45800
C  6.01700 7.66000 25.21600
O  6.18200 7.37200 24.01800
C  5.36500 8.99400 25.53900
N  8.86900 2.76200 25.70000
C  8.24700 3.51800 24.68200
C  8.66900 3.10200 23.31200
C  9.45700 1.78400 23.62400
C  9.67300 1.87700 25.11900
C  7.54600 2.94100 22.19800
C  10.80700 1.69800 22.83700
C  11.09200 0.27000 22.18100
N  10.20200 1.96400 28.02200
C  10.78400 1.02700 27.13000
C  11.61500 0.13400 27.84100
C  11.51300 0.52000 29.18300
C  10.63100 1.56600 29.27800
C  12.35900 -1.03800 27.22000
C  11.91500 0.11900 30.50500
O  12.71500 -0.72300 30.82000
C  11.28600 1.10300 31.47000
C  10.50800 0.29700 32.49100
O  9.60100 -0.48100 32.20100
O  11.03800 0.43800 33.71900
C  10.47900 -0.46000 34.70400
H  6.75000 6.27400 30.46900
H  7.12300 5.16700 24.06900
H  11.25300 0.40300 25.20600
H  8.83700 2.69400 33.03900
H  8.38600 5.65800 32.32200
H  5.80400 4.49300 32.22800
H  6.55300 5.23600 33.56200
H  6.70500 3.48200 33.51400
H  11.18200 4.23000 32.55200
H  10.79500 3.01400 33.73600
H  9.00200 5.00700 34.39800
H  10.52500 5.92600 34.02300
H  5.49500 8.81400 28.29800
H  5.29900 7.57100 29.53200
H  4.26200 7.56100 28.13200
H  6.09300 9.54500 26.13600
H  4.39300 8.80700 25.99500
H  5.08700 9.53400 24.63400
H  9.27800 3.94100 22.97500
H  8.81100 0.90800 23.57300
H  7.84400 3.60800 21.39000
H  6.53400 3.24300 22.46700
H  7.43100 1.90600 21.87500
H  11.69300 2.01600 23.38500
H  10.83200 2.40500 22.00800
H  11.30200 0.41000 21.12100
H  10.37700 -0.54600 22.28500
H  12.02400 0.01800 22.68700
H  12.89000 -0.64600 26.35300
H  11.58500 -1.77500 27.00700
H  13.00800 -1.34600 28.04000
H  12.10900 1.60700 31.97800
H  11.32900 -1.05500 35.03800
H  9.66300 -1.11500 34.39600
H  10.00400 0.15000 35.47200
Mg -0.65100 44.15800 25.81600
C  1.42200 43.89400 28.65400
C  -3.20500 42.81400 27.90700
C  -2.60600 44.06700 23.16300
C  2.11400 45.16700 23.95000
N  -0.92700 43.66300 28.13300
C  0.04000 43.66800 29.01500
C  -0.39600 43.19500 30.41300
C  -1.83800 42.62000 30.05700
C  -2.01000 43.02200 28.62800
C  -2.07700 41.04100 30.28900
C  -0.40500 44.42000 31.39700
C  -0.07500 44.20100 32.89700
H  -0.22800 42.77200 33.52500
N  -2.63900 43.64100 25.60200
C  -3.48500 43.11000 26.52400
C  -4.73200 42.73500 25.83600
C  -4.59400 42.94800 24.47300
C  -3.22900 43.50700 24.34800
C  -5.96800 42.20600 26.48000
C  -5.54200 42.65800 23.30300
O  -5.19000 42.80400 22.11400
C  -6.86600 42.02000 23.42300
N  -0.30400 44.54400 23.87400
C  -1.31200 44.63600 22.95600
C  -0.79600 45.13700 21.66900
C  0.60800 45.72200 21.98500
C  0.86200 45.13300 23.36300
C  -0.68400 44.09400 20.52900
C  0.50100 47.28800 21.95000
C  1.12200 47.89400 20.76200
N  1.43000 44.45900 26.15500
C  2.41800 44.77700 25.27000
C  3.69900 44.77000 25.97100
C  3.33600 44.38300 27.30600
C  1.94600 44.24100 27.37200
C  5.07600 45.06600 25.44400
C  3.90400 44.16600 28.60000
O  5.08500 44.24200 28.97100
C  2.71100 43.89300 29.53300
C  2.85600 42.57300 30.16500
O  2.83700 41.53400 29.53100
O  3.23900 42.68600 31.46600
C  3.76700 41.46100 32.07700
H  -3.95500 42.26900 28.48500
H  -3.22800 44.31200 22.30000
H  3.00000 45.53300 23.42600
H  0.26100 42.37800 30.71000
H  -2.57600 43.05900 30.72900
H  -2.80000 40.87600 31.08800
H  -1.13000 40.67900 30.69000
H  -2.28100 40.36400 29.45900
H  -1.46000 44.68900 31.43700
H  0.05100 45.30600 30.95400
H  -0.72400 44.90300 33.42000
H  0.94800 44.56400 33.00200
H  -6.72200 42.98800 26.39000
H  -5.73000 41.95400 27.51300
H  -6.44100 41.36100 25.97900
H  -6.85600 41.06000 23.94000
H  -7.03300 41.72000 22.38900
H  -7.68900 42.67400 23.71300
H  -1.43000 45.94200 21.29900
H  1.51300 45.37700 21.48400
H  -0.67800 43.11900 21.01600
H  0.23500 44.26500 19.97000
H  -1.41800 44.17200 19.72700
H  1.10200 47.51600 22.83000
H  -0.46600 47.75600 22.12900
H  2.03200 48.41900 21.05200
H  0.39500 48.51000 20.23100
H  1.39500 47.05800 20.11800
H  5.85300 44.54100 26.00100
H  5.28300 46.13600 25.40600
H  5.11200 44.62900 24.44700
H  2.66800 44.58000 30.37700
H  4.85100 41.49600 31.96600
H  3.41700 40.52100 31.65100
H  3.48400 41.46500 33.12900

