158

Mg 47.22100 15.10300 27.54300
C  45.60000 15.07400 30.66700
C  49.57100 17.13500 28.76100
C  48.63400 15.12500 24.42900
C  44.56600 13.22900 26.30200
N  47.46900 16.03500 29.49000
C  46.75200 15.84600 30.63600
C  47.45400 16.43100 31.80000
C  48.57600 17.33000 31.13900
C  48.60500 16.76800 29.70600
C  48.25600 18.76500 31.16900
C  48.02700 15.42600 32.78500
C  47.63700 15.61500 34.28400
H  48.71500 15.53800 35.26600
N  48.94200 15.97800 26.71000
C  49.74800 16.80200 27.36500
C  50.90400 17.01800 26.55300
C  50.70600 16.30500 25.33800
C  49.30000 15.82100 25.39900
C  52.12500 17.82600 27.18800
C  51.63600 16.27000 24.15000
O  51.27200 16.01700 23.01900
C  53.03700 16.47200 24.39900
N  46.71900 14.31700 25.69000
C  47.45000 14.44800 24.50600
C  46.84700 13.70200 23.29100
C  45.49500 13.10300 23.91900
C  45.64100 13.52000 25.41300
C  46.57600 14.53800 22.03200
C  45.37100 11.61100 23.68600
C  46.51600 10.81500 24.35900
N  45.40100 14.38400 28.27100
C  44.43500 13.67100 27.65200
C  43.38100 13.38700 28.55300
C  43.80000 13.87200 29.84300
C  45.01200 14.46100 29.55200
C  42.05000 12.62500 28.20100
C  43.41000 13.98400 31.22500
O  42.52800 13.50700 31.89900
C  44.59900 14.84600 31.82500
C  44.00100 16.04800 32.47900
O  43.43300 16.94300 31.93100
O  44.14700 15.88700 33.87000
C  43.21200 16.70000 34.62100
H  50.25900 17.90300 29.12200
H  49.09500 15.19200 23.44100
H  43.83100 12.50200 25.95000
H  46.71400 17.03100 32.32900
H  49.51900 17.16500 31.66000
H  47.84200 19.04600 32.13800
H  47.46200 19.02800 30.47000
H  49.16500 19.36000 31.08800
H  49.11000 15.37100 32.67100
H  47.71800 14.44700 32.41800
H  46.93900 14.80600 34.50000
H  46.97000 16.46600 34.42200
H  53.03800 17.23300 27.13600
H  52.19600 17.98900 28.26300
H  52.34500 18.67200 26.53600
H  53.24400 15.79100 25.22500
H  53.13500 17.51200 24.70900
H  53.71700 16.18400 23.59700
H  47.36900 12.78900 23.00600
H  44.65500 13.66400 23.51200
H  47.35200 14.14300 21.37700
H  46.74600 15.59900 22.21200
H  45.58500 14.28600 21.65300
H  45.32000 11.44200 22.61000
H  44.47700 11.14200 24.09700
H  46.17400 10.16700 25.16600
H  47.32200 11.43000 24.76100
H  46.87500 10.22600 23.51500
H  42.25600 11.64700 27.76400
H  41.43700 13.07700 27.42100
H  41.45400 12.39500 29.08400
H  45.08100 14.34000 32.66200
H  42.88000 15.99200 35.38000
H  42.32800 17.00300 34.06100
H  43.70000 17.54100 35.11400
Mg 35.90300 49.57200 25.51700
C  36.00800 48.01500 28.57800
C  34.75700 52.47600 27.05700
C  35.43500 50.95900 22.42100
C  36.69400 46.45800 23.96500
N  35.29100 50.10700 27.51800
C  35.52200 49.32200 28.65000
C  35.33600 50.07100 29.94700
C  34.64000 51.47900 29.38800
C  34.89000 51.37400 27.91300
C  33.19800 51.76100 29.91500
C  36.63500 50.28900 30.78400
C  36.44300 50.25200 32.33700
H  35.00400 50.66100 32.93700
N  35.26300 51.51100 24.81300
C  34.86600 52.52800 25.59900
C  34.74100 53.73300 24.71800
C  35.01300 53.32500 23.34600
C  35.27100 51.88300 23.50000
C  34.46400 55.08600 25.34200
C  35.10900 54.13300 22.07900
O  35.26100 53.66000 21.00100
C  34.62300 55.61200 22.22600
N  36.07600 48.85300 23.47900
C  35.78400 49.58900 22.38300
C  36.01600 48.82700 21.13200
C  36.62600 47.40700 21.67000
C  36.46900 47.58700 23.12800
C  34.68500 48.82900 20.25300
C  38.13200 47.19500 21.22800
C  39.15400 48.27000 21.62100
N  36.29300 47.64100 26.10400
C  36.64600 46.52900 25.37300
C  36.95300 45.43300 26.28300
C  36.69300 45.97100 27.61100
C  36.31400 47.29600 27.39300
C  37.39700 44.14900 25.77800
C  36.69400 45.62900 29.08500
O  37.06900 44.64400 29.69700
C  36.20200 46.98300 29.74500
C  34.90200 46.68800 30.40600
O  33.85300 46.59100 29.78200
O  35.07900 46.66200 31.76300
C  33.91700 46.53700 32.60400
H  34.40000 53.37500 27.56400
H  35.45500 51.28600 21.38000
H  37.06000 45.50500 23.57900
H  34.67400 49.61100 30.68000
H  35.27200 52.28400 29.76200
H  32.83400 50.85900 30.40500
H  32.53000 52.10400 29.12500
H  33.14100 52.58000 30.63200
H  37.05900 51.27500 30.59300
H  37.34900 49.54400 30.43600
H  37.18800 50.97800 32.66300
H  36.74900 49.28300 32.73000
H  35.01500 55.78100 24.70800
H  34.79400 55.27900 26.36300
H  33.37800 55.15800 25.29200
H  35.46400 56.18700 22.61400
H  33.80000 55.71900 22.93200
H  34.31600 55.90200 21.22100
H  36.71100 49.42800 20.54500
H  36.05300 46.61400 21.18900
H  33.83500 49.11700 20.87300
H  34.48100 47.85900 19.80100
H  34.72000 49.62100 19.50500
H  38.18300 47.32800 20.14700
H  38.46900 46.18600 21.46600
H  38.75600 49.07200 22.24300
H  39.69900 48.56400 20.72400
H  39.87400 47.78300 22.27900
H  37.60600 43.54600 26.66200
H  38.31300 44.24000 25.19500
H  36.55800 43.70700 25.24000
H  36.99100 47.34700 30.40400
H  33.08100 47.07000 32.15100
H  34.27100 46.98700 33.53200
H  33.68000 45.49400 32.81400

