158

Mg 49.04600 45.92900 43.04100
C  45.61600 46.23000 42.00100
C  49.00300 42.76600 41.72600
C  52.35300 46.05400 43.08500
C  48.90800 49.40200 43.62500
N  47.49000 44.68900 41.93400
C  46.17600 44.99100 41.66600
C  45.51900 43.73300 41.13500
C  46.51700 42.62000 41.35500
C  47.74800 43.37400 41.78300
C  46.14500 41.45400 42.32600
C  44.88300 43.80400 39.66000
C  45.94100 44.00700 38.48100
H  45.93300 42.98600 37.41800
N  50.52400 44.53500 42.67600
C  50.26500 43.30100 42.09600
C  51.56200 42.61300 42.10100
C  52.51800 43.44600 42.64900
C  51.81900 44.74000 42.85600
C  51.73400 41.21300 41.85600
C  54.04600 43.19700 42.73200
O  54.41800 42.14200 42.24400
C  54.97800 44.24100 43.28500
N  50.42600 47.60600 43.07700
C  51.73600 47.31500 43.18000
C  52.56500 48.66000 43.28000
C  51.42200 49.73100 43.67400
C  50.16200 48.89800 43.51600
C  53.86700 48.66800 44.14100
C  51.46200 51.06600 42.92700
C  52.40400 51.99600 43.54700
N  47.53500 47.49600 43.11700
C  47.63400 48.83500 43.39100
C  46.29500 49.50300 43.27400
C  45.48000 48.44500 42.69100
C  46.30200 47.27600 42.68200
C  45.91500 50.99000 43.34100
C  44.21100 48.19500 42.16900
O  43.32400 48.96100 41.88100
C  44.19800 46.74300 41.66300
C  43.09500 45.90900 42.18200
O  42.11200 45.49800 41.50800
O  43.22300 45.59400 43.50400
C  42.00300 44.92800 44.04400
H  49.04600 41.70600 41.46800
H  53.43500 46.12900 43.21900
H  48.90500 50.46500 43.87700
H  44.60500 43.58200 41.71000
H  46.85500 42.06300 40.48200
H  45.26900 41.64300 42.94600
H  46.83400 41.29100 43.15600
H  45.90800 40.54700 41.77100
H  44.05200 44.50800 39.71500
H  44.32200 42.88500 39.49100
H  46.90200 43.81800 38.95900
H  46.02900 45.02500 38.10100
H  52.44200 41.12400 41.03300
H  50.82500 40.67400 41.58800
H  52.17700 40.72600 42.72500
H  55.16300 45.01900 42.54400
H  55.90800 43.70200 43.46600
H  54.54500 44.67300 44.18600
H  52.84500 48.83900 42.24200
H  51.44300 49.96800 44.73800
H  53.82300 47.84900 44.85900
H  54.07200 49.56400 44.72700
H  54.70400 48.44500 43.48000
H  50.49600 51.57000 42.89800
H  51.75900 50.93200 41.88700
H  52.90800 51.50700 44.38000
H  51.90200 52.88600 43.92500
H  53.11300 52.35900 42.80200
H  44.94400 51.19200 42.88900
H  46.65100 51.61000 42.82900
H  45.85900 51.27200 44.39300
H  44.00100 46.78400 40.59200
H  42.18100 44.84900 45.11700
H  41.83100 43.93700 43.62300
H  41.05900 45.47200 44.07600
Mg -5.73900 24.91100 25.37500
C  -4.07300 26.13200 28.17600
C  -7.28900 22.57400 27.40900
C  -7.14300 23.43800 22.62700
C  -3.67900 26.90800 23.32200
N  -5.42800 24.31700 27.57600
C  -4.94100 25.09700 28.49600
C  -5.64300 24.80500 29.85600
C  -6.33500 23.44700 29.59300
C  -6.33600 23.45100 28.03600
C  -5.58900 22.17600 30.10300
C  -6.49100 25.95300 30.34500
C  -6.31000 26.36400 31.83500
H  -5.70400 25.40700 32.88400
N  -7.08300 23.21500 25.10200
C  -7.65300 22.50400 26.06200
C  -8.63100 21.61000 25.46700
C  -8.64400 21.86000 24.02200
C  -7.61400 22.89500 23.82500
C  -9.42000 20.64100 26.28900
C  -9.60100 21.32800 22.97600
O  -9.60500 21.72800 21.79400
C  -10.70800 20.33100 23.41700
N  -5.47600 25.15200 23.31200
C  -6.15600 24.39700 22.40800
C  -5.81200 24.83500 20.94600
C  -4.76000 26.02300 21.08800
C  -4.66000 26.08600 22.67200
C  -5.32700 23.65100 19.96800
C  -5.11100 27.37000 20.50600
C  -4.39300 27.78000 19.21700
N  -4.12700 26.18800 25.62300
C  -3.53200 27.01800 24.74500
C  -2.66800 27.93600 25.43900
C  -2.93000 27.70800 26.78200
C  -3.73700 26.58300 26.84600
C  -1.80400 28.95900 24.80800
C  -2.57000 28.07700 28.09900
O  -1.78100 29.00700 28.46700
C  -3.34200 27.13900 29.14100
C  -2.27900 26.60800 30.15000
O  -1.17700 26.15700 29.93400
O  -2.79600 26.95200 31.34600
C  -1.94000 26.90700 32.46100
H  -7.88300 21.90800 28.03700
H  -7.57400 22.94500 21.75300
H  -3.11600 27.59300 22.68400
H  -4.91400 24.60700 30.64200
H  -7.35900 23.43700 29.96500
H  -6.19400 21.32600 30.41800
H  -4.91300 22.41500 30.92500
H  -4.85800 21.79700 29.39000
H  -7.56700 25.78300 30.30500
H  -6.28000 26.77000 29.65500
H  -7.28400 26.69900 32.19200
H  -5.71400 27.27600 31.81100
H  -9.07200 20.41100 27.29600
H  -9.50600 19.64100 25.86300
H  -10.48500 20.83600 26.41600
H  -11.28400 20.82000 24.20200
H  -10.25100 19.43800 23.84200
H  -11.25900 20.01800 22.52900
H  -6.70600 25.23500 20.46800
H  -3.82400 25.57900 20.74800
H  -5.72600 23.88800 18.98300
H  -5.52800 22.62900 20.29200
H  -4.23900 23.63900 20.04100
H  -5.07300 28.14800 21.26800
H  -6.12100 27.33500 20.09900
H  -3.34200 27.49200 19.19700
H  -4.49700 28.86200 19.12800
H  -4.96400 27.31000 18.41700
H  -2.47800 29.59300 24.23300
H  -1.06700 28.51900 24.13600
H  -1.35400 29.55500 25.60300
H  -4.06100 27.89800 29.44700
H  -1.68900 25.91300 32.83200
H  -2.33000 27.42800 33.33500
H  -0.91500 27.26900 32.37600

