158

Mg 35.34300 2.14400 29.70800
C  33.05100 3.26900 32.18700
C  37.83200 2.32000 32.12200
C  37.63600 1.67500 27.28600
C  32.78900 2.39300 27.29000
N  35.41700 2.66000 31.90600
C  34.37900 3.07300 32.71400
C  34.82300 3.29000 34.15800
C  36.32500 2.97200 34.10800
C  36.58000 2.63600 32.59900
C  37.22700 4.13700 34.69900
C  33.98700 2.41900 35.15900
C  34.49800 2.06800 36.58500
H  35.05300 3.19100 37.40000
N  37.40400 1.88700 29.73900
C  38.27900 1.94400 30.79500
C  39.61100 1.62300 30.40200
C  39.60900 1.35100 29.01600
C  38.18500 1.68900 28.59100
C  40.75200 1.58100 31.32900
C  40.78500 1.01200 28.16300
O  40.68500 0.86300 26.96400
C  42.15900 0.81000 28.74300
N  35.23500 1.92200 27.70300
C  36.29000 1.77800 26.86400
C  35.90900 1.86500 25.31900
C  34.39100 1.82600 25.44900
C  34.10300 2.03500 26.95200
C  36.42000 3.19600 24.73900
C  33.66600 0.49200 24.96900
C  32.58900 0.56300 23.87300
N  33.28700 2.68700 29.65900
C  32.37300 2.86100 28.60000
C  31.11000 3.38000 29.11600
C  31.37200 3.49000 30.54800
C  32.67900 3.06800 30.80200
C  29.90000 3.72100 28.30500
C  30.74600 3.96200 31.79800
O  29.61500 4.49700 31.98700
C  31.77200 3.62600 32.98500
C  31.96800 4.85900 33.85100
O  32.76400 5.83500 33.66200
O  31.18000 4.67500 35.03200
C  31.15100 5.81600 35.91200
H  38.70800 2.38000 32.77100
H  38.36200 1.53500 26.48200
H  32.03100 2.35600 26.50400
H  34.68400 4.34700 34.38600
H  36.60300 2.02100 34.56300
H  36.67000 4.88800 35.26000
H  37.66500 4.72900 33.89500
H  38.00100 3.80500 35.39100
H  33.78400 1.43800 34.73000
H  33.07700 3.01500 35.22400
H  35.22000 1.26900 36.41800
H  33.60900 1.70500 37.10100
H  41.69500 1.95400 30.92800
H  40.92700 0.54100 31.60400
H  40.56700 2.20600 32.20200
H  42.54300 1.78200 29.05300
H  42.77200 0.34200 27.97300
H  42.22400 0.08600 29.55500
H  36.42300 1.02400 24.85400
H  33.95900 2.69800 24.95900
H  35.70300 3.99500 24.54700
H  36.95200 2.98500 23.81100
H  37.17000 3.68900 25.35700
H  33.26200 -0.12300 25.77300
H  34.35700 -0.20200 24.48900
H  33.22600 0.43200 22.99900
H  32.15200 1.56100 23.91200
H  31.92700 -0.29700 23.97300
H  29.46700 4.43900 29.00100
H  29.19000 2.89600 28.23400
H  30.12600 4.24500 27.37700
H  31.29300 2.79900 33.51100
H  30.80900 5.55300 36.91300
H  30.64500 6.65400 35.43100
H  32.12900 6.26600 36.08500
Mg 41.78900 41.38000 25.80000
C  40.68000 43.69000 28.14600
C  42.69000 39.28100 28.39000
C  42.97500 39.39600 23.41100
C  41.06300 43.80900 23.20300
N  41.40800 41.38300 28.08600
C  41.02600 42.51700 28.74900
C  40.92100 42.14100 30.32600
C  41.82600 40.88900 30.30500
C  41.94100 40.44000 28.85700
C  43.23800 41.18100 30.85900
C  39.52000 41.94700 30.93500
C  39.56600 41.52000 32.46800
H  38.79700 42.39000 33.40900
N  42.55800 39.53700 25.88400
C  42.85900 38.79800 27.01900
C  43.27000 37.52000 26.55100
C  43.42500 37.55400 25.16900
C  43.00200 38.88700 24.76400
C  43.54700 36.32300 27.48400
C  43.92500 36.53300 24.13500
O  43.89800 36.68500 22.92500
C  44.21700 35.24200 24.56100
N  41.90100 41.51400 23.57500
C  42.56900 40.65600 22.84100
C  42.72300 41.07900 21.36600
C  41.68200 42.22200 21.30400
C  41.52000 42.56000 22.78500
C  44.09700 41.45500 20.88900
C  40.30700 41.87500 20.62700
C  39.31100 40.94800 21.48800
N  41.08700 43.31900 25.67000
C  40.88800 44.16000 24.56900
C  40.37000 45.48100 25.01600
C  40.26300 45.28600 26.40200
C  40.75300 44.00500 26.76100
C  39.85600 46.57200 24.11800
C  39.81100 45.94800 27.64600
O  39.22700 47.00900 27.74500
C  40.07600 44.96100 28.79900
C  40.96700 45.56000 29.74400
O  42.09500 46.02900 29.51300
O  40.46200 45.32100 31.00300
C  41.41000 45.40400 32.15400
H  42.93100 38.61400 29.22100
H  43.49800 38.95900 22.55700
H  40.78000 44.48500 22.39400
H  41.36900 42.99500 30.83400
H  41.35400 40.03700 30.79400
H  44.03200 40.97900 30.14100
H  43.56000 40.41500 31.56400
H  43.35000 42.14700 31.35200
H  38.88600 41.43600 30.21000
H  39.05600 42.92600 31.05300
H  40.55100 41.54200 32.93400
H  39.07800 40.54500 32.46700
H  43.47600 36.69600 28.50600
H  44.60000 36.04500 27.46300
H  43.07500 35.35800 27.29200
H  44.96900 35.37800 25.33800
H  44.57600 34.64000 23.72700
H  43.32300 34.80300 25.00400
H  42.36800 40.28700 20.70500
H  42.06100 43.01400 20.65900
H  44.91800 41.30300 21.58900
H  44.25600 42.47300 20.53500
H  44.33300 40.86700 20.00200
H  40.61000 41.25300 19.78400
H  39.72200 42.67400 20.17200
H  39.85900 40.27800 22.15000
H  38.60600 40.47000 20.80800
H  38.66000 41.66700 21.98500
H  39.61900 46.11900 23.15600
H  40.69400 47.20500 23.82500
H  39.07700 47.27800 24.40400
H  39.08400 44.86200 29.23900
H  42.43400 45.74900 32.01000
H  41.34300 44.49200 32.74700
H  40.88400 46.17400 32.71800

