158

Mg 34.97800 49.37500 26.74500
C  35.42600 46.82800 29.13200
C  34.00000 51.49000 29.29100
C  34.38900 51.60000 24.50000
C  35.80000 46.96800 24.36000
N  34.78300 49.20600 28.96500
C  35.05600 48.08400 29.73400
C  35.01000 48.37700 31.20300
C  34.18400 49.71800 31.19600
C  34.30500 50.24300 29.71000
C  32.70100 49.50100 31.55700
C  36.47000 48.54600 31.85700
C  36.55400 47.94600 33.25300
H  36.33500 48.98900 34.39300
N  34.30100 51.36100 26.84900
C  34.06300 52.10800 28.03000
C  33.91300 53.50800 27.61100
C  34.00500 53.55300 26.18900
C  34.25900 52.14100 25.76800
C  33.71100 54.64800 28.58700
C  34.03400 54.75000 25.27500
O  34.43900 54.72400 24.08100
C  33.63100 56.12600 25.90900
N  34.68900 49.16900 24.69400
C  34.56200 50.30200 23.95700
C  34.75400 49.97800 22.45600
C  35.60500 48.71800 22.60000
C  35.42200 48.27100 23.98200
C  33.40200 49.75700 21.69100
C  37.12900 48.91400 22.39200
C  37.85200 47.95200 21.52800
N  35.58100 47.36100 26.72900
C  35.87100 46.54300 25.67500
C  36.24300 45.19000 26.12900
C  36.09400 45.30500 27.53800
C  35.66800 46.61100 27.77600
C  36.62200 44.03700 25.30900
C  36.20700 44.62800 28.83000
O  36.55100 43.49500 29.09800
C  35.79000 45.62000 29.89200
C  34.59300 45.10900 30.61800
O  33.48300 44.95200 30.18300
O  35.07400 44.63800 31.83000
C  34.16300 43.77100 32.54700
H  33.64200 52.19600 30.04300
H  34.49000 52.38700 23.75000
H  36.15600 46.28300 23.58700
H  34.53900 47.59000 31.79300
H  34.58700 50.40800 31.93700
H  32.05400 49.78600 30.72700
H  32.47400 50.15100 32.40100
H  32.54200 48.46100 31.84200
H  36.72400 49.60200 31.76400
H  37.09400 47.87900 31.26300
H  37.56400 47.54900 33.35100
H  35.85200 47.13800 33.46200
H  34.48600 55.41200 28.51600
H  33.73700 54.26300 29.60700
H  32.68400 54.99600 28.48100
H  32.58400 56.08000 26.20900
H  33.69100 56.82200 25.07200
H  34.33800 56.44800 26.67300
H  35.41600 50.73300 22.03400
H  35.32700 47.95100 21.87700
H  32.65500 49.70800 22.48400
H  33.45500 48.82600 21.12700
H  33.19700 50.54400 20.96500
H  37.68300 48.88800 23.33100
H  37.44100 49.86300 21.95600
H  38.17600 48.49000 20.63700
H  37.37100 46.99900 21.30700
H  38.70300 47.60800 22.11600
H  36.09200 44.07200 24.35700
H  36.44400 43.07400 25.78900
H  37.68700 44.03200 25.07700
H  36.60000 45.78000 30.60300
H  33.49400 44.35300 33.18100
H  34.78800 43.14100 33.18000
H  33.66600 43.15700 31.79500
Mg 9.76800 48.08600 25.98100
C  7.45000 47.91000 28.64300
C  12.10600 49.51100 28.08500
C  11.81000 48.31700 23.38000
C  7.12300 47.07500 23.92000
N  9.63100 48.92700 27.99300
C  8.70300 48.48500 28.99500
C  9.24100 48.67100 30.52100
C  10.61800 49.41300 30.18100
C  10.83200 49.25200 28.66300
C  10.60600 50.88100 30.71300
C  9.26200 47.28300 31.28300
C  10.27600 47.07000 32.42500
H  9.83400 46.09400 33.53500
N  11.73100 48.75700 25.77600
C  12.51100 49.30900 26.74300
C  13.87100 49.38100 26.24000
C  13.75200 49.07800 24.84900
C  12.37300 48.74000 24.61200
C  15.01700 49.85200 26.97800
C  14.84000 49.07300 23.77900
O  14.69800 48.83100 22.59900
C  16.25700 49.46800 24.18800
N  9.57600 47.75600 23.92200
C  10.52400 47.87100 22.97600
C  10.19400 47.23600 21.59600
C  8.69700 46.82500 21.85700
C  8.42900 47.18600 23.35300
C  10.43400 48.18000 20.42800
C  8.39300 45.37500 21.51300
C  8.63300 44.20700 22.52100
N  7.71000 47.65700 26.16500
C  6.83800 47.29400 25.24300
C  5.52300 47.08800 25.84200
C  5.72800 47.31400 27.20800
C  7.09000 47.62700 27.30500
C  4.24200 46.76500 25.09300
C  5.06600 47.29900 28.48900
O  3.93400 47.00600 28.82600
C  6.23400 47.61500 29.50100
C  6.37400 46.31900 30.20900
O  7.04000 45.37500 29.80400
O  5.74600 46.41100 31.41500
C  5.91000 45.28600 32.33500
H  12.90800 49.81600 28.76100
H  12.49900 48.21400 22.54000
H  6.35000 46.75200 23.21900
H  8.54500 49.36600 30.99000
H  11.36600 48.77400 30.65100
H  11.51800 50.92700 31.30800
H  9.78700 51.03100 31.41700
H  10.52200 51.56800 29.87100
H  9.49400 46.45100 30.61800
H  8.27600 47.07900 31.70100
H  10.26600 48.06600 32.86600
H  11.29400 47.08600 32.03600
H  14.77100 50.50900 27.81300
H  15.60000 50.60500 26.44800
H  15.79700 49.15700 27.28900
H  16.26700 50.52200 24.46600
H  16.90400 49.32100 23.32300
H  16.64900 48.85200 24.99800
H  10.77400 46.31800 21.50400
H  8.02500 47.35600 21.18200
H  9.51500 48.34100 19.86600
H  11.14900 47.69400 19.76400
H  10.94100 49.08900 20.75400
H  8.86500 45.14700 20.55800
H  7.31100 45.28500 21.40800
H  9.21900 44.51700 23.38600
H  9.16200 43.39100 22.02900
H  7.65100 43.77300 22.70900
H  3.66900 47.69100 25.06100
H  3.58600 46.09500 25.65000
H  4.45300 46.39500 24.08900
H  6.04100 48.37600 30.25800
H  6.21400 44.40800 31.76600
H  5.07000 45.06800 32.99500
H  6.75600 45.52000 32.98100

