158

Mg 43.51900 3.98400 47.64300
C  41.50100 6.82500 47.09900
C  40.71800 2.03900 47.35200
C  45.62400 1.39400 47.51200
C  46.41500 6.22000 47.76600
N  41.47500 4.41300 47.23500
C  40.78800 5.62000 47.30600
C  39.26900 5.42500 47.35700
C  39.14000 3.88700 47.59000
C  40.59300 3.40000 47.32400
C  38.51500 3.50100 48.97200
C  38.46700 5.98700 46.04200
C  38.83900 5.36800 44.63000
H  39.33500 6.24200 43.47400
N  43.24000 1.94300 47.53100
C  41.98700 1.31500 47.40500
C  42.23500 -0.11600 47.27500
C  43.62100 -0.27700 47.28400
C  44.24700 1.07800 47.51500
C  41.25200 -1.22100 47.27600
C  44.32100 -1.66300 47.14000
O  43.62300 -2.62300 46.85300
C  45.75400 -1.88100 47.31400
N  45.75900 3.85200 47.58900
C  46.29200 2.61800 47.62800
C  47.83200 2.71600 47.83300
C  48.08400 4.23600 47.94000
C  46.68400 4.81100 47.77000
C  48.30100 1.87800 49.01900
C  49.09800 4.81100 46.94400
C  50.53900 4.36000 47.05000
N  43.92800 6.15600 47.53800
C  45.12300 6.84800 47.54600
C  44.75900 8.27500 47.48500
C  43.33500 8.31300 47.30900
C  42.88500 6.97300 47.25600
C  45.80600 9.39500 47.63500
C  42.13500 9.11100 47.23000
O  41.91100 10.31100 47.20300
C  40.91200 8.20800 47.10700
C  39.95500 8.40400 48.29200
O  40.23600 8.14300 49.46500
O  38.77000 8.76300 47.84800
C  37.79200 8.95900 48.93300
H  39.76600 1.50500 47.31800
H  46.23800 0.53700 47.79700
H  47.35300 6.77600 47.70900
H  38.99900 5.93000 48.28400
H  38.54000 3.42700 46.80500
H  39.21400 2.97800 49.62500
H  37.65900 2.84200 48.82700
H  38.03600 4.36700 49.42700
H  38.65900 7.05100 45.90100
H  37.42000 5.81100 46.28900
H  38.03000 4.70400 44.32500
H  39.64200 4.63000 44.62700
H  41.41400 -2.05900 47.95400
H  41.17800 -1.61700 46.26300
H  40.28800 -0.71700 47.34700
H  45.97000 -1.46600 48.29800
H  46.36600 -1.35000 46.58500
H  45.82800 -2.96700 47.24500
H  48.33200 2.35800 46.93300
H  48.47900 4.43800 48.93500
H  48.58100 0.88300 48.67400
H  47.46700 1.82600 49.71900
H  49.20800 2.32900 49.42100
H  49.19400 5.89300 47.03300
H  48.82300 4.47300 45.94500
H  51.22000 5.21000 47.00900
H  50.70100 3.74600 46.16400
H  50.81800 3.75000 47.90900
H  45.30200 10.35300 47.50900
H  46.61600 9.32700 46.90900
H  46.34700 9.39600 48.58100
H  40.33000 8.43400 46.21300
H  36.91200 9.45000 48.51800
H  38.20500 9.61100 49.70300
H  37.50600 7.99200 49.34700
Mg 46.63900 16.87500 28.83600
C  44.55400 16.33100 31.50900
C  48.69700 18.69500 30.85500
C  48.24500 17.92600 26.09300
C  44.16500 15.36400 26.76500
N  46.63100 17.39400 31.00400
C  45.68700 17.06200 31.90500
C  46.27000 17.34700 33.37200
C  47.46000 18.37400 33.07500
C  47.67000 18.12700 31.56200
C  47.25400 19.88300 33.35600
C  46.69600 16.03900 34.18900
C  46.20800 15.99500 35.61000
H  45.83500 17.29500 36.36000
N  48.26200 18.13600 28.56600
C  49.04600 18.75600 29.56200
C  50.15600 19.40200 28.95200
C  50.03400 19.20900 27.49700
C  48.74500 18.40300 27.32300
C  51.19900 20.22000 29.76500
C  50.94300 19.60900 26.41300
O  50.66000 19.47200 25.24300
C  52.35900 20.19300 26.80300
N  46.34700 16.55100 26.68900
C  47.07200 17.23500 25.75800
C  46.57600 16.91400 24.35500
C  45.45100 15.88400 24.62700
C  45.27700 15.89900 26.11900
C  46.14200 18.18700 23.52600
C  45.86000 14.44000 24.08400
C  44.80900 13.55300 23.37000
N  44.76100 15.97200 29.05400
C  43.89200 15.43200 28.17500
C  42.68500 14.95900 28.85800
C  42.90500 15.24300 30.20600
C  44.22000 15.79300 30.25000
C  41.49300 14.49100 28.25700
C  42.40800 15.14100 31.56900
O  41.38700 14.64100 32.06200
C  43.42200 15.85700 32.44900
C  42.72200 16.92200 33.15700
O  42.70300 18.06600 32.78500
O  42.21900 16.38800 34.31900
C  41.38800 17.29600 35.04800
H  49.43700 19.20400 31.47500
H  48.82900 18.03800 25.17700
H  43.40900 14.97700 26.07900
H  45.49800 17.84200 33.96200
H  48.25900 17.99500 33.71300
H  48.09600 20.24600 33.94500
H  46.34000 20.01200 33.93600
H  47.16000 20.46600 32.44000
H  47.76500 15.82600 34.17000
H  46.22700 15.22800 33.63100
H  46.94100 15.70600 36.36300
H  45.42800 15.23600 35.67700
H  52.11000 19.70900 30.07700
H  50.72800 20.56700 30.68500
H  51.29500 21.17700 29.25200
H  52.73500 19.53000 27.58200
H  52.14000 21.11400 27.34200
H  53.02300 20.30900 25.94600
H  47.40100 16.49700 23.77700
H  44.49400 16.15800 24.18200
H  45.10900 18.09200 23.19200
H  46.65600 18.36900 22.58200
H  46.21900 19.02300 24.22000
H  46.26300 13.95800 24.97500
H  46.73700 14.56100 23.44800
H  45.17900 13.37400 22.36000
H  43.77000 13.86100 23.48700
H  44.82800 12.62300 23.93700
H  41.52200 13.40900 28.13300
H  41.43400 14.99500 27.29200
H  40.63200 14.79900 28.85100
H  43.88400 15.17200 33.15900
H  40.61000 17.81600 34.48900
H  42.05800 18.07200 35.41700
H  40.95400 16.88100 35.95800

