158

Mg 17.36800 -1.84600 28.39300
C  16.33700 0.21900 30.92200
C  19.62600 -3.35300 30.66400
C  18.94000 -3.49800 25.81700
C  15.48400 -0.08100 26.05400
N  17.83400 -1.71700 30.59400
C  17.14600 -0.89000 31.39100
C  17.63000 -0.97100 32.85000
C  18.78000 -1.99700 32.76300
C  18.77900 -2.40900 31.30900
C  20.11000 -1.59000 33.47400
C  16.46700 -1.39400 33.86700
C  16.14600 -0.40900 34.99700
H  17.36000 0.09500 35.90000
N  19.06100 -3.29600 28.29300
C  19.69200 -3.86200 29.31300
C  20.53400 -4.89800 28.84700
C  20.46100 -4.89000 27.48800
C  19.39500 -3.92100 27.15000
C  21.46700 -5.68300 29.91400
C  21.32500 -5.62200 26.41500
O  21.16000 -5.66600 25.23400
C  22.40800 -6.47700 26.88100
N  17.32200 -1.64300 26.21900
C  17.98500 -2.52800 25.39800
C  17.65700 -2.34200 23.93600
C  16.43900 -1.30000 24.10000
C  16.31400 -1.05800 25.59600
C  18.84500 -1.87200 23.04700
C  15.13300 -1.76000 23.41100
C  13.93200 -2.35700 24.23200
N  16.07900 -0.32900 28.49000
C  15.38500 0.34000 27.45600
C  14.61300 1.43900 28.07600
C  14.94700 1.34200 29.46500
C  15.89100 0.32900 29.64600
C  13.66300 2.49100 27.56400
C  14.63800 1.79300 30.68900
O  13.74900 2.66100 30.92900
C  15.62100 1.20900 31.68300
C  16.52000 2.32400 32.30800
O  17.62600 2.60800 31.89500
O  15.81900 2.85900 33.33900
C  16.56200 3.91100 34.05000
H  20.36900 -3.67100 31.39800
H  19.37600 -4.15400 25.06000
H  14.97500 0.45000 25.24700
H  17.90800 0.03100 33.17500
H  18.44500 -2.90300 33.26700
H  20.14100 -2.31100 34.29000
H  19.96200 -0.60600 33.91800
H  21.06200 -1.57300 32.94300
H  16.69300 -2.30500 34.42100
H  15.65100 -1.54700 33.16000
H  15.35800 -0.68700 35.69800
H  15.80000 0.49100 34.48900
H  21.25400 -5.34800 30.92900
H  22.53800 -5.70400 29.71200
H  21.05000 -6.69000 29.94200
H  22.94400 -6.84100 26.00400
H  22.00000 -7.24800 27.53300
H  23.12500 -5.93500 27.49800
H  17.28100 -3.31800 23.63000
H  16.67700 -0.27700 23.80700
H  18.43800 -1.10000 22.39400
H  19.32900 -2.66500 22.47600
H  19.60200 -1.37900 23.65700
H  15.32600 -2.55100 22.68700
H  14.75700 -0.87800 22.89300
H  14.01900 -2.40700 25.31800
H  13.54700 -3.30900 23.86700
H  13.13200 -1.63900 24.04900
H  12.60300 2.23400 27.56700
H  14.01100 2.74600 26.56300
H  13.77700 3.44900 28.07000
H  14.92700 0.76900 32.39900
H  16.30900 4.02300 35.10500
H  16.62700 4.84200 33.48700
H  17.58200 3.54900 34.17900
Mg -1.94100 34.28600 25.78000
C  -3.65000 32.58700 28.30100
C  -0.70200 36.36800 28.11300
C  -0.36400 35.62300 23.33700
C  -3.52700 32.01300 23.41700
N  -2.29600 34.56400 28.00200
C  -2.90000 33.64100 28.84600
C  -2.83700 34.04800 30.24000
C  -2.00900 35.36100 30.09900
C  -1.53200 35.41400 28.67500
C  -2.77700 36.68900 30.46400
C  -2.26400 32.91600 31.18300
C  -1.49300 33.26500 32.48700
H  -1.79900 32.37500 33.67800
N  -0.72000 35.85400 25.71300
C  -0.25800 36.58900 26.76400
C  0.68000 37.61400 26.24400
C  0.81600 37.35700 24.86300
C  -0.16400 36.28000 24.59400
C  1.38500 38.63900 27.08700
C  1.75000 37.99900 23.75000
O  1.77200 37.72700 22.56100
C  2.65200 39.06700 24.06400
N  -2.04900 33.89400 23.62500
C  -1.20400 34.59700 22.81000
C  -0.98300 33.90200 21.43300
C  -1.86600 32.69500 21.59500
C  -2.51900 32.89800 22.95200
C  -1.24100 34.81600 20.23300
C  -1.16600 31.29600 21.39900
C  0.06700 31.14000 22.30100
N  -3.38200 32.79600 25.75200
C  -3.90600 31.91900 24.72800
C  -4.84500 30.97400 25.35800
C  -4.76800 31.24900 26.73100
C  -3.84600 32.34900 26.92200
C  -5.66400 29.96200 24.71100
C  -5.35800 30.77900 27.97100
O  -6.17100 29.89200 28.18700
C  -4.62500 31.65900 29.05300
C  -5.60600 32.36700 29.86700
O  -6.34000 33.17000 29.44400
O  -5.63200 31.84600 31.11400
C  -6.29500 32.56700 32.18300
H  -0.17400 37.08700 28.74200
H  0.38100 35.93300 22.60100
H  -3.88000 31.14500 22.85700
H  -3.80900 34.36300 30.61900
H  -1.21400 35.33900 30.84500
H  -2.47900 37.01700 31.46000
H  -3.84200 36.47300 30.54200
H  -2.71900 37.41500 29.65300
H  -1.42800 32.40000 30.71100
H  -3.11700 32.29000 31.44500
H  -1.82700 34.27700 32.71600
H  -0.40900 33.18600 32.40800
H  1.26000 39.59600 26.57800
H  2.41000 38.29300 27.21600
H  1.01100 38.64100 28.11000
H  2.17700 39.81200 24.70300
H  3.09100 39.37400 23.11500
H  3.31200 38.50200 24.72200
H  0.04600 33.56400 21.30700
H  -2.64200 32.76000 20.83200
H  -0.31600 35.04500 19.70500
H  -1.63900 35.73900 20.65400
H  -1.95100 34.47700 19.47900
H  -0.80500 31.08700 20.39200
H  -1.92800 30.54800 21.61800
H  -0.07900 31.74200 23.19800
H  1.03400 31.37600 21.85600
H  0.12000 30.10900 22.65100
H  -5.34600 28.97300 25.03900
H  -5.55600 30.09700 23.63500
H  -6.68700 30.22300 24.98000
H  -4.20700 30.83800 29.63500
H  -5.68400 33.44000 32.41200
H  -6.25500 32.00000 33.11300
H  -7.34400 32.78600 31.98000

