158

Mg 41.10700 9.49200 29.47000
C  43.27800 10.30700 32.04600
C  38.71400 8.54400 31.78500
C  39.42200 7.94900 26.94200
C  43.58500 10.44200 27.23300
N  41.08900 9.22800 31.57700
C  42.07700 9.68900 32.44100
C  41.40300 9.77400 33.89700
C  40.10200 9.06000 33.70500
C  39.92400 8.96600 32.24500
C  40.16000 7.62100 34.22300
C  41.25400 11.29700 34.40900
C  42.06000 11.75200 35.69400
H  41.32000 12.36200 36.84800
N  39.30300 8.45900 29.34000
C  38.46000 8.26500 30.43500
C  37.23500 7.62400 29.89600
C  37.39900 7.48000 28.55100
C  38.76200 7.91300 28.21300
C  36.08300 7.13700 30.68400
C  36.36500 7.01400 27.54400
O  36.64100 6.76100 26.40300
C  34.87000 7.15800 27.89100
N  41.54200 9.20300 27.43900
C  40.69200 8.49800 26.65800
C  41.11900 8.57200 25.16000
C  42.50100 9.26000 25.31800
C  42.49000 9.71700 26.76600
C  41.16900 7.24800 24.45700
C  42.70100 10.42500 24.34600
C  44.07100 10.42300 23.55000
N  43.02600 10.24800 29.56800
C  43.89400 10.59400 28.54000
C  45.11000 11.12500 29.14200
C  44.95200 10.98900 30.48200
C  43.64200 10.47500 30.70400
C  46.17200 11.74600 28.38500
C  45.51200 11.28600 31.80100
O  46.64300 11.65300 32.14400
C  44.42300 10.86100 32.85200
C  44.92600 9.92700 33.89900
O  45.16400 8.72800 33.72100
O  45.20500 10.58200 35.06100
C  45.76900 9.71000 36.17000
H  37.87500 8.32900 32.45000
H  38.94200 7.36900 26.15200
H  44.30500 10.84700 26.51900
H  41.98000 9.13300 34.56400
H  39.18700 9.41600 34.17800
H  40.90000 7.52700 35.01800
H  40.23100 6.85500 33.45100
H  39.23500 7.33100 34.72200
H  40.18600 11.51300 34.39800
H  41.52800 12.09400 33.71700
H  42.75500 12.53100 35.37900
H  42.74000 10.97500 36.04200
H  36.39200 7.03200 31.72400
H  35.64000 6.22100 30.29400
H  35.29600 7.88700 30.76400
H  34.30500 7.19500 26.96000
H  34.68100 8.13100 28.34500
H  34.52300 6.34600 28.53100
H  40.36100 9.16200 24.64600
H  43.23900 8.46200 25.24300
H  40.61900 6.58300 25.12300
H  42.19200 6.90100 24.30900
H  40.63500 7.37000 23.51500
H  42.65700 11.33700 24.94200
H  41.89000 10.47100 23.61900
H  44.50000 11.42200 23.62100
H  43.91100 10.20400 22.49400
H  44.72600 9.67700 24.00000
H  45.84000 12.38500 27.56700
H  46.89200 11.09600 27.88700
H  46.68900 12.43900 29.05000
H  43.94800 11.68500 33.38500
H  46.36100 8.84900 35.86000
H  44.88500 9.34000 36.69000
H  46.31400 10.33100 36.88100
Mg 6.12200 52.94400 40.94900
C  5.03500 49.54100 40.79200
C  9.23800 51.91000 39.63700
C  6.86400 56.06800 40.52500
C  2.71500 53.67400 41.72200
N  6.94400 51.01500 40.30000
C  6.39400 49.73500 40.32900
C  7.39000 48.70100 39.82100
C  8.73700 49.47900 39.79200
C  8.28800 50.93400 39.95100
C  9.75100 49.02300 40.96300
C  7.17800 47.98100 38.48500
C  6.44900 48.78900 37.31900
H  7.26600 49.36500 36.14500
N  7.94200 53.88700 40.39400
C  9.09000 53.33500 39.83100
C  10.08400 54.34400 39.60600
C  9.36200 55.56500 39.92300
C  8.00000 55.24600 40.34600
C  11.57100 54.30300 39.33600
C  9.98200 56.93400 39.80800
O  11.10900 57.15700 39.46200
C  9.17300 58.10700 40.20800
N  4.92100 54.63400 40.88400
C  5.47200 55.80300 40.70700
C  4.35900 56.85500 40.70100
C  3.09500 56.07100 41.18300
C  3.65100 54.72400 41.39300
C  4.66400 58.13100 41.58100
C  1.94900 55.97200 40.10900
C  0.50000 56.49200 40.50300
N  4.26100 51.82500 41.37700
C  2.93300 52.29000 41.66500
C  2.12300 51.15100 41.93100
C  2.88900 50.05300 41.60200
C  4.12200 50.49400 41.19400
C  0.72000 51.09100 42.48000
C  2.83600 48.66500 41.53300
O  1.95100 47.85100 41.74900
C  4.31900 48.19800 41.02300
C  4.12000 47.37000 39.76200
O  3.68400 47.79500 38.73700
O  4.63800 46.11000 39.92700
C  4.60100 45.25200 38.73200
H  10.20200 51.49700 39.33400
H  7.00500 57.14700 40.44200
H  1.74800 54.06300 42.04900
H  7.39800 47.98100 40.64000
H  9.19400 49.29300 38.82000
H  10.69100 48.86600 40.43300
H  9.45800 48.08500 41.43300
H  9.83600 49.81200 41.71000
H  6.55300 47.11800 38.71300
H  8.12300 47.51900 38.20100
H  6.03600 49.66000 37.82800
H  5.60000 48.15100 37.07300
H  12.07600 54.69100 40.22000
H  11.80800 55.01300 38.54300
H  11.88900 53.27300 39.17500
H  8.43600 58.22400 39.41300
H  9.71400 59.04000 40.05200
H  8.93600 58.05200 41.27000
H  4.30900 57.16000 39.65600
H  2.65700 56.55600 42.05500
H  4.37100 59.01300 41.01200
H  5.71900 58.13700 41.85700
H  4.11300 58.13800 42.52100
H  1.91800 54.98700 39.64200
H  2.16000 56.64200 39.27500
H  -0.18600 55.77100 40.05900
H  0.28000 57.47100 40.07700
H  0.34600 56.56900 41.58000
H  0.08900 51.83100 41.98800
H  0.78100 51.38200 43.52900
H  0.35800 50.08300 42.27300
H  4.71200 47.48100 41.74500
H  5.07700 44.28300 38.88200
H  5.02300 45.68000 37.82200
H  3.57300 45.01200 38.46000

