158

Mg 42.86100 41.27700 26.14200
C  42.08400 43.47400 28.66100
C  44.44500 39.26600 28.58500
C  43.85400 39.11300 23.68900
C  42.14500 43.70100 23.74100
N  43.25600 41.40800 28.38900
C  42.63200 42.31000 29.14900
C  42.75500 41.99200 30.65400
C  43.73800 40.72600 30.61800
C  43.79100 40.39700 29.12500
C  45.07900 40.99400 31.21800
C  41.41800 41.87700 31.37000
C  41.54300 42.00500 32.85500
H  40.47500 42.68400 33.62900
N  43.73300 39.32600 26.18200
C  44.38600 38.71600 27.22600
C  44.79500 37.38600 26.79000
C  44.50700 37.30100 25.34400
C  44.06100 38.65700 24.99200
C  45.33800 36.33800 27.74200
C  44.76200 36.18600 24.42500
O  44.48400 36.21200 23.25600
C  45.36600 34.82800 24.97100
N  43.03200 41.43300 23.89700
C  43.37400 40.36800 23.11300
C  43.04400 40.64200 21.67400
C  42.63100 42.16800 21.65800
C  42.60000 42.50200 23.19300
C  44.13800 40.25600 20.64800
C  41.26900 42.49300 20.96900
C  41.35800 43.60600 19.90100
N  42.28900 43.23500 26.08300
C  42.02200 44.08000 25.06900
C  41.49400 45.30900 25.66100
C  41.53800 45.14100 27.04000
C  42.04500 43.88600 27.29200
C  41.08800 46.50600 24.81900
C  41.24100 45.76000 28.35300
O  40.82700 46.86400 28.58500
C  41.63600 44.75500 29.42400
C  42.76800 45.37400 30.28900
O  43.80200 45.95000 29.85400
O  42.29600 45.35600 31.63200
C  43.18000 45.87900 32.62300
H  45.00000 38.57500 29.22300
H  43.89100 38.30900 22.95200
H  41.89600 44.42100 22.95800
H  43.22200 42.84900 31.13900
H  43.17400 39.91100 31.07200
H  45.81800 40.94800 30.41900
H  45.18300 40.20900 31.96700
H  45.14100 41.96600 31.70700
H  41.14600 40.89400 30.98700
H  40.61900 42.56900 31.10100
H  42.50000 42.33300 33.26100
H  41.48500 40.95300 33.13800
H  45.05400 36.58700 28.76500
H  46.42600 36.31200 27.79700
H  44.91700 35.39400 27.39500
H  45.86600 34.28600 24.16800
H  44.55400 34.20600 25.34800
H  46.21500 35.11000 25.59400
H  42.09100 40.14400 21.49300
H  43.40900 42.81700 21.25600
H  44.35100 41.02400 19.90500
H  43.73500 39.51000 19.96300
H  45.02600 39.80800 21.09500
H  40.47300 42.75600 21.66500
H  40.85200 41.57900 20.54500
H  42.04300 43.39100 19.08100
H  41.63600 44.56900 20.33100
H  40.36300 43.75500 19.48400
H  41.96600 46.87800 24.29100
H  40.71100 47.20900 25.56100
H  40.27900 46.30500 24.11600
H  40.77700 44.55300 30.06400
H  44.13000 45.34800 32.68700
H  42.68200 45.78600 33.58800
H  43.53200 46.88900 32.41300
Mg -5.67000 25.75300 25.62400
C  -4.36400 26.90200 28.69800
C  -7.56800 23.62900 27.42800
C  -6.51000 24.35500 22.71900
C  -3.50600 27.94900 23.95800
N  -5.74600 25.16600 27.79300
C  -5.15900 25.81500 28.83000
C  -5.72600 25.33200 30.16700
C  -6.52500 23.97800 29.79100
C  -6.65600 24.26000 28.25900
C  -5.94800 22.64000 30.17000
C  -6.64400 26.39800 30.74900
C  -6.59600 26.63000 32.24600
H  -5.98200 25.49200 33.05900
N  -7.01200 24.34000 25.13600
C  -7.73200 23.61600 26.01400
C  -8.66800 22.83800 25.27600
C  -8.24700 22.79500 23.92800
C  -7.21400 23.87600 23.86800
C  -9.84200 22.13700 25.92700
C  -8.68300 22.00900 22.73600
O  -8.11800 22.13200 21.66700
C  -9.88900 21.12400 22.90200
N  -5.06900 26.09000 23.56000
C  -5.56100 25.35200 22.55000
C  -4.99500 25.84600 21.28800
C  -3.95600 26.91200 21.67500
C  -4.19800 27.06100 23.13300
C  -4.38500 24.69900 20.43500
C  -4.14600 28.20000 20.89700
C  -2.84700 28.94700 20.67900
N  -4.14200 27.07700 26.20400
C  -3.39700 27.97000 25.35700
C  -2.61700 28.80700 26.19300
C  -3.03200 28.47000 27.52800
C  -3.88800 27.41500 27.46100
C  -1.65500 29.86400 25.69300
C  -2.81000 28.83600 28.85700
O  -2.06500 29.62200 29.35400
C  -3.71500 27.83500 29.73400
C  -2.80100 27.14500 30.64700
O  -2.24300 26.10400 30.44400
O  -2.69100 27.92400 31.76600
C  -1.89100 27.30900 32.81900
H  -8.17100 22.95600 28.04100
H  -6.76400 23.92400 21.74900
H  -3.02200 28.86900 23.62500
H  -4.90400 25.03500 30.81800
H  -7.52500 23.94200 30.22400
H  -6.67300 22.09500 30.77500
H  -5.17400 22.93000 30.88000
H  -5.63200 22.03400 29.32000
H  -7.67900 26.10400 30.57700
H  -6.63400 27.31500 30.16100
H  -7.59500 26.76900 32.65900
H  -6.01900 27.54400 32.38900
H  -9.96700 22.47100 26.95700
H  -9.80400 21.04900 25.98800
H  -10.82100 22.26000 25.46300
H  -10.78200 21.68400 23.18000
H  -9.65100 20.35200 23.63300
H  -9.98400 20.65300 21.92300
H  -5.73100 26.29400 20.62200
H  -2.97100 26.44700 21.69800
H  -3.37800 24.86200 20.05400
H  -4.97500 24.55600 19.53000
H  -4.40600 23.72900 20.93300
H  -4.81500 28.80300 21.51100
H  -4.65200 28.04900 19.94400
H  -1.96400 28.31100 20.61300
H  -2.73800 29.71700 21.44200
H  -2.91600 29.49800 19.74100
H  -1.34300 30.50000 26.52100
H  -2.10400 30.52500 24.95100
H  -0.66800 29.50600 25.39700
H  -4.50400 28.37600 30.25600
H  -0.88200 27.04100 32.50300
H  -2.40500 26.43000 33.20900
H  -1.89300 27.97300 33.68300

