158

Mg 2.12300 -0.88300 44.21400
C  5.58400 -0.35000 43.65000
C  1.51400 1.93600 42.26400
C  -1.11900 -1.82900 43.97900
C  2.93900 -4.16000 45.37700
N  3.47200 0.58100 42.98900
C  4.81800 0.58600 43.00400
C  5.34000 1.74500 42.18800
C  4.01700 2.54100 41.87700
C  2.92700 1.70900 42.44600
C  3.91700 3.97400 42.40800
C  6.03000 1.23300 40.90500
C  7.19100 2.08100 40.37300
H  6.73900 2.93600 39.23900
N  0.45000 0.00200 43.35800
C  0.40900 1.14600 42.66100
C  -0.99100 1.51200 42.48800
C  -1.82700 0.46100 42.92100
C  -0.85100 -0.53600 43.45000
C  -1.31400 2.96500 42.00200
C  -3.39800 0.51400 43.08500
O  -3.98200 1.52700 42.80400
C  -4.16800 -0.58500 43.66100
N  1.07900 -2.66200 44.75900
C  -0.28500 -2.75700 44.66600
C  -0.82300 -4.14500 45.13500
C  0.47600 -4.82100 45.57800
C  1.56400 -3.85200 45.18200
C  -1.88500 -4.04200 46.29500
C  0.65600 -6.22000 44.89000
C  1.28300 -7.32200 45.81600
N  3.92900 -1.96500 44.54700
C  4.05500 -3.24400 45.04000
C  5.49500 -3.50600 45.25100
C  6.14200 -2.34900 44.73800
C  5.10700 -1.48200 44.32800
C  5.95300 -4.73000 46.01200
C  7.42000 -1.72600 44.51400
O  8.51900 -2.18700 44.79200
C  7.10200 -0.33500 43.83500
C  7.73400 0.79100 44.67400
O  7.22500 1.20800 45.70300
O  8.80100 1.31500 44.03600
C  9.48700 2.41300 44.70300
H  1.37700 2.85600 41.69100
H  -2.13300 -2.23400 43.95500
H  3.00000 -5.21000 45.67300
H  5.92700 2.46800 42.75400
H  3.85600 2.69400 40.81000
H  3.86100 3.78200 43.47900
H  3.06500 4.54200 42.03200
H  4.80600 4.50900 42.07400
H  5.31800 1.08300 40.09300
H  6.48100 0.28800 41.20900
H  7.95200 1.37500 40.03900
H  7.54700 2.76400 41.14400
H  -2.35500 3.07200 41.69600
H  -0.71700 3.16300 41.11200
H  -1.07600 3.62800 42.83400
H  -5.16300 -0.27700 43.98100
H  -3.71800 -0.83800 44.62100
H  -4.16000 -1.40100 42.93800
H  -1.41200 -4.64600 44.36700
H  0.51900 -4.89100 46.66500
H  -1.74600 -4.82800 47.03700
H  -2.84000 -4.31900 45.84800
H  -2.04900 -3.04000 46.69300
H  1.31000 -6.01500 44.04300
H  -0.32400 -6.57000 44.56600
H  1.61900 -6.88500 46.75600
H  2.19500 -7.73700 45.38800
H  0.42100 -7.97600 45.95500
H  5.27300 -5.06100 46.79600
H  7.00800 -4.60500 46.25500
H  5.93300 -5.62600 45.39100
H  7.60900 -0.26100 42.87300
H  10.37600 2.63900 44.11500
H  9.73300 2.11800 45.72300
H  8.86900 3.30100 44.83100
Mg -10.06500 40.50900 42.32000
C  -9.31100 37.22700 41.31800
C  -7.22700 41.45200 40.53900
C  -11.29200 43.66800 42.08100
C  -13.42500 39.25700 42.97500
N  -8.55500 39.45500 40.94400
C  -8.37000 38.07300 40.84600
C  -6.96600 37.68700 40.40700
C  -6.24800 39.10000 40.44100
C  -7.39500 40.11400 40.63600
C  -5.16900 39.26000 41.49600
C  -6.95200 37.14700 38.93600
C  -6.32000 35.75100 38.68900
H  -5.19300 35.63700 37.56900
N  -9.25000 42.31100 41.69000
C  -8.09500 42.47500 41.02800
C  -7.84900 43.88000 40.83400
C  -9.08500 44.55700 41.13700
C  -9.94400 43.51400 41.64000
C  -6.52000 44.48900 40.37900
C  -9.31200 46.02700 40.96400
O  -8.39000 46.70100 40.46600
C  -10.63400 46.74300 41.34400
N  -12.03100 41.35500 42.61800
C  -12.25100 42.73900 42.53300
C  -13.70300 43.10900 43.01500
C  -14.34900 41.65100 43.28000
C  -13.19000 40.69100 42.88800
C  -13.67600 43.95400 44.30100
C  -15.62300 41.39400 42.38300
C  -16.93600 41.33800 43.20300
N  -11.17900 38.61200 42.36400
C  -12.47800 38.25900 42.64100
C  -12.62600 36.81600 42.56800
C  -11.43300 36.36800 42.09800
C  -10.57600 37.53200 41.85600
C  -13.87300 35.97500 42.67600
C  -10.67700 35.19600 41.65700
O  -10.89600 34.02700 41.65700
C  -9.36900 35.73700 41.09600
C  -8.23200 35.04300 41.69200
O  -7.52400 35.56500 42.55000
O  -8.06300 33.81300 41.15500
C  -6.82800 33.15900 41.56100
H  -6.26800 41.68300 40.07100
H  -11.78100 44.64300 42.02600
H  -14.44300 38.94500 43.21800
H  -6.36500 37.04100 41.04800
H  -5.75700 39.31600 39.49200
H  -4.21700 39.67400 41.16600
H  -5.15600 38.43800 42.21100
H  -5.39500 40.07100 42.18900
H  -6.41800 37.90300 38.36000
H  -7.93900 37.10700 38.47500
H  -7.17500 35.23000 38.25900
H  -5.90800 35.30700 39.59500
H  -6.22900 45.10100 41.23300
H  -6.78500 45.16600 39.56700
H  -5.83400 43.69400 40.08800
H  -10.87900 46.68200 42.40400
H  -11.39200 46.46800 40.61000
H  -10.39400 47.78100 41.11500
H  -14.15900 43.70900 42.22800
H  -14.52100 41.32600 44.30600
H  -12.67100 43.75200 44.67000
H  -14.50500 43.74100 44.97700
H  -13.76300 44.98900 43.96900
H  -15.54300 40.57900 41.66400
H  -15.72400 42.36800 41.90500
H  -17.04000 42.31900 43.66700
H  -16.86100 40.49300 43.88700
H  -17.81400 41.25500 42.56300
H  -14.13500 35.70300 43.69800
H  -13.78200 35.04900 42.10800
H  -14.68800 36.51700 42.19700
H  -9.34200 35.51100 40.03000
H  -6.73600 33.00000 42.63600
H  -5.92900 33.67200 41.22200
H  -6.85500 32.19300 41.05800

