158

Mg 44.14700 3.36600 47.25900
C  43.33600 6.62400 46.22200
C  40.97700 2.34000 45.94900
C  45.22700 0.22500 47.33700
C  47.44900 4.42700 47.78300
N  42.37900 4.37100 46.24400
C  42.35200 5.73600 45.91600
C  41.03900 5.94300 45.13200
C  40.18000 4.70500 45.49900
C  41.21900 3.75200 45.86200
C  39.10100 4.96000 46.49700
C  41.24600 6.23800 43.62200
C  40.38200 7.35800 42.96800
H  39.32000 6.90800 41.94200
N  43.20400 1.56300 46.83700
C  41.91900 1.33600 46.39500
C  41.57400 -0.07000 46.38000
C  42.86200 -0.73200 46.81700
C  43.83700 0.35600 47.00500
C  40.28300 -0.69000 45.89600
C  43.02900 -2.26700 47.01200
O  42.07100 -3.05200 46.83700
C  44.27300 -2.91200 47.45800
N  46.01000 2.40700 47.69700
C  46.23000 1.11700 47.68700
C  47.62800 0.69600 48.04100
C  48.40300 2.02000 48.14300
C  47.20000 3.05400 47.88700
C  47.63400 -0.12100 49.35600
C  49.59600 2.14200 47.23200
C  50.66600 3.00700 47.80300
N  45.16000 5.17300 47.22500
C  46.51500 5.42000 47.40100
C  46.71600 6.84100 47.30100
C  45.47800 7.37800 46.88100
C  44.57700 6.30000 46.70200
C  47.95400 7.67900 47.66800
C  44.77700 8.57900 46.57100
O  45.15700 9.73500 46.55500
C  43.28700 8.17500 46.16400
C  42.42200 8.81200 47.20300
O  42.56100 8.77500 48.38900
O  41.21900 9.25100 46.63600
C  40.40200 9.99000 47.55600
H  39.97800 1.92800 45.79000
H  45.53900 -0.82200 47.35800
H  48.43500 4.86900 47.94300
H  40.47200 6.75800 45.58200
H  39.66400 4.47800 44.56600
H  38.90300 3.96700 46.90200
H  38.22000 5.45000 46.08200
H  39.58800 5.53200 47.28700
H  40.96600 5.35200 43.05200
H  42.30000 6.27500 43.34800
H  41.02700 8.18600 42.67300
H  39.82800 7.84100 43.77200
H  39.49200 0.05000 46.02200
H  40.03700 -1.52400 46.55200
H  40.34400 -1.07800 44.87900
H  44.73900 -2.60100 48.39300
H  45.02200 -2.92400 46.66600
H  43.97100 -3.95500 47.54900
H  47.96500 0.03800 47.24000
H  48.74500 2.09000 49.17600
H  48.30300 0.38700 50.05100
H  47.92200 -1.16900 49.26800
H  46.65300 -0.09700 49.83200
H  49.29300 2.59700 46.28900
H  49.96300 1.13600 47.03000
H  51.55900 2.46400 48.11100
H  50.32500 3.65200 48.61200
H  50.96500 3.78600 47.10200
H  48.35000 7.60800 48.68100
H  47.70200 8.70900 47.41500
H  48.70200 7.42300 46.91700
H  43.01900 8.51000 45.16200
H  40.68600 11.04200 47.52500
H  40.50900 9.70700 48.60300
H  39.39200 9.77000 47.20900
Mg 35.84300 50.04900 25.56400
C  35.48600 48.49800 28.63000
C  35.12900 53.13000 27.04700
C  35.49800 51.64000 22.46400
C  36.39000 47.07400 23.97700
N  35.18200 50.63900 27.52400
C  35.20800 49.88600 28.67500
C  35.05800 50.66900 29.99800
C  34.90600 52.10600 29.43400
C  35.08400 51.97000 27.90600
C  33.53800 52.81100 29.90200
C  36.16300 50.54400 31.14400
C  35.72600 49.92600 32.44000
H  34.29600 50.21200 33.11500
N  35.39500 52.15300 24.88100
C  35.16200 53.21900 25.64700
C  34.86600 54.36900 24.84700
C  34.94800 53.94800 23.52300
C  35.28100 52.58900 23.56800
C  34.51800 55.76500 25.32900
C  34.84900 54.74100 22.18500
O  34.91100 54.16700 21.09800
C  34.84000 56.22400 22.23400
N  35.81900 49.36900 23.46100
C  35.74600 50.26200 22.40800
C  36.04800 49.57100 21.06000
C  36.40200 48.07700 21.57400
C  36.19700 48.16100 23.11200
C  34.77500 49.54900 20.09500
C  37.80800 47.53700 21.03400
C  38.95000 48.03200 21.96900
N  35.87900 48.14600 26.17700
C  36.24200 47.09700 25.40300
C  36.31500 45.93000 26.33500
C  35.93800 46.43500 27.62900
C  35.74300 47.78300 27.43200
C  36.79500 44.58500 25.93800
C  35.88800 46.11400 29.01700
O  36.02400 45.02400 29.69900
C  35.56200 47.46100 29.75400
C  34.24100 47.10000 30.34400
O  33.20000 47.61900 29.96800
O  34.34900 46.38600 31.54500
C  33.17100 46.02400 32.28100
H  34.94400 54.03100 27.63500
H  35.47700 51.96300 21.42100
H  36.76400 46.14300 23.54700
H  34.10500 50.37600 30.43700
H  35.76000 52.69300 29.77000
H  33.78900 53.85800 30.07300
H  33.10100 52.38100 30.80200
H  32.78200 52.76100 29.11800
H  36.73700 51.46700 31.22600
H  36.85500 49.82400 30.71000
H  36.36200 50.38900 33.19500
H  36.01100 48.87500 32.40900
H  34.35800 55.78500 26.40700
H  33.66900 56.15600 24.76800
H  35.54300 56.12400 25.24000
H  35.46800 56.65300 23.01400
H  33.87600 56.67300 22.47200
H  35.23000 56.48800 21.25100
H  36.92300 49.97900 20.55200
H  35.62300 47.38500 21.25400
H  33.98900 50.24000 20.40000
H  34.22900 48.60900 20.17100
H  35.02900 49.80600 19.06600
H  38.06700 47.79700 20.00800
H  37.70300 46.46800 21.22100
H  39.23300 47.19200 22.60400
H  38.59200 48.74400 22.71300
H  39.70600 48.64100 21.47400
H  36.01800 43.99300 25.45300
H  37.09600 44.12400 26.87900
H  37.63700 44.59100 25.24600
H  36.44400 47.49700 30.39400
H  32.87300 45.00400 32.03700
H  32.33300 46.66800 32.01100
H  33.45700 45.98500 33.33200

