158

Mg 36.04200 48.59800 24.83600
C  36.04500 46.67500 27.85700
C  34.14200 50.84000 26.47600
C  35.10100 49.93100 21.84000
C  37.13200 45.78800 23.18500
N  35.08500 48.63700 26.95800
C  35.34900 47.88900 28.01700
C  35.05300 48.68300 29.32000
C  34.25000 49.88300 28.76700
C  34.56100 49.82900 27.33000
C  32.69200 49.94600 29.18500
C  36.35000 49.13600 30.02700
C  36.29600 49.64900 31.54300
H  34.96900 49.64700 32.36100
N  34.99700 50.37200 24.22900
C  34.33900 51.14200 25.06300
C  33.83800 52.35900 24.37200
C  34.18400 52.05800 23.02300
C  34.71400 50.69200 22.96700
C  33.00500 53.49900 24.92600
C  34.15300 52.97300 21.83500
O  34.58600 52.60400 20.73700
C  33.68600 54.43300 22.02700
N  35.92500 47.92200 22.87600
C  35.57400 48.66000 21.85400
C  35.72800 47.91100 20.41400
C  36.52800 46.69800 20.87100
C  36.55500 46.76600 22.42400
C  34.31600 47.58000 19.82400
C  37.96100 46.65000 20.22800
C  38.89900 47.83900 20.57400
N  36.47700 46.59500 25.37600
C  37.08000 45.65000 24.59700
C  37.41100 44.51400 25.42200
C  37.09300 44.90100 26.76500
C  36.54300 46.19400 26.61700
C  37.97400 43.20400 24.99300
C  36.99700 44.53900 28.13300
O  37.22100 43.45000 28.64700
C  36.49900 45.77800 28.96600
C  35.54700 45.34600 30.07300
O  34.54800 44.71200 29.90600
O  36.04600 45.89300 31.20600
C  35.15000 45.61000 32.39900
H  33.44900 51.58500 26.87200
H  34.89300 50.36000 20.85800
H  37.47900 44.87500 22.69700
H  34.48500 48.08900 30.03500
H  34.55900 50.85500 29.15100
H  32.47700 49.10000 29.83700
H  32.06600 49.85500 28.29700
H  32.52300 50.90900 29.66600
H  36.78700 49.89000 29.37200
H  37.11800 48.36900 30.13000
H  36.55300 50.70800 31.52300
H  37.12400 49.21600 32.10500
H  33.56400 54.42700 25.04200
H  32.71000 53.30400 25.95700
H  32.10400 53.53400 24.31300
H  33.75600 54.96100 21.07500
H  34.46300 54.78600 22.70500
H  32.69000 54.44300 22.46800
H  36.28400 48.49400 19.67900
H  36.08500 45.74600 20.58000
H  34.33400 46.51100 19.61300
H  34.11300 48.12500 18.90200
H  33.58700 47.82100 20.59700
H  37.97500 46.58700 19.14000
H  38.48900 45.76200 20.57700
H  38.89300 48.51500 19.71900
H  39.88100 47.37500 20.67500
H  38.70300 48.49700 21.42000
H  38.57100 43.42900 24.10900
H  37.13600 42.58300 24.67900
H  38.63900 42.88800 25.79700
H  37.39100 46.09200 29.50800
H  35.22200 44.65100 32.91300
H  34.12500 45.70000 32.04100
H  35.34300 46.36800 33.15700
Mg 26.88100 50.50100 26.08400
C  24.87000 51.57700 28.77800
C  28.98500 49.03100 28.30300
C  28.81000 49.54700 23.45800
C  24.83700 52.29100 23.99800
N  26.85500 50.23200 28.28100
C  26.00900 50.86000 29.25300
C  26.41000 50.44400 30.67600
C  27.89800 49.94900 30.45200
C  27.94200 49.73200 28.90100
C  29.08400 50.84200 30.84300
C  25.42700 49.35200 31.25700
C  24.64800 49.70900 32.59700
H  24.72000 48.69300 33.81300
N  28.63500 49.32600 25.91700
C  29.30800 48.74800 26.96300
C  30.53200 48.07400 26.41600
C  30.58700 48.34900 25.01800
C  29.29000 49.02400 24.70200
C  31.48400 47.36900 27.33600
C  31.70100 47.95100 23.93400
O  31.57300 48.20600 22.77200
C  32.87500 47.13100 24.45600
N  26.89400 50.90100 23.99400
C  27.82300 50.49900 23.13400
C  27.41700 50.91400 21.71800
C  25.93500 51.42200 21.82900
C  25.92300 51.59100 23.37200
C  28.39700 51.97100 21.18600
C  24.81500 50.45200 21.44700
C  23.44800 50.99300 21.05200
N  25.21200 51.71300 26.24400
C  24.46600 52.35300 25.32000
C  23.29100 52.92000 25.91700
C  23.43300 52.68900 27.34000
C  24.54400 51.82800 27.46300
C  22.23900 53.65900 25.07800
C  22.84500 52.88000 28.62500
O  21.96500 53.59000 29.09000
C  23.79200 52.17200 29.59200
C  24.28900 53.15600 30.51500
O  25.22800 53.91000 30.33100
O  23.51600 53.13300 31.64800
C  24.06000 54.12800 32.58300
H  29.66200 48.64700 29.06900
H  29.34500 49.28500 22.54300
H  24.15600 52.63200 23.21500
H  26.37800 51.38900 31.21900
H  28.14200 49.02700 30.98100
H  29.78300 50.91500 30.01000
H  29.55500 50.39300 31.71800
H  28.65300 51.80600 31.11400
H  25.95700 48.44600 31.55400
H  24.59300 49.23700 30.56400
H  23.60800 49.79700 32.28500
H  24.99000 50.65100 33.02700
H  31.86900 46.41400 26.97600
H  31.17700 47.36900 28.38200
H  32.43200 47.90400 27.27200
H  33.65900 46.96600 23.71700
H  32.50200 46.18800 24.85600
H  33.44600 47.58800 25.26500
H  27.32600 49.99000 21.14700
H  25.86900 52.37400 21.30200
H  29.09300 52.19000 21.99500
H  28.01700 52.98200 21.03100
H  28.92100 51.58900 20.31000
H  24.73500 49.60200 22.12500
H  25.18100 50.08700 20.48700
H  22.59300 50.69100 21.65700
H  23.39200 50.83000 19.97500
H  23.48600 52.07500 21.17800
H  21.62300 52.94600 24.53100
H  22.72100 54.33200 24.37000
H  21.57400 54.25600 25.70300
H  23.11200 51.46400 30.06700
H  25.02400 53.73800 32.91000
H  23.42300 54.24700 33.45900
H  24.21500 55.10200 32.11900

