158

Mg 47.94100 15.30100 28.53100
C  45.91900 14.94800 31.31200
C  49.88400 17.49700 30.35200
C  49.66500 16.06600 25.74400
C  45.67100 13.31400 26.75600
N  47.86400 16.10500 30.66200
C  46.98200 15.74300 31.61000
C  47.26500 16.54300 32.92700
C  48.54000 17.39200 32.56700
C  48.76200 17.00100 31.05200
C  48.46700 18.81100 32.90000
C  47.36300 15.61800 34.18200
C  46.87800 16.24500 35.49300
H  47.87500 16.15500 36.69200
N  49.57600 16.59600 28.10900
C  50.23300 17.38700 29.01700
C  51.35400 17.93200 28.37500
C  51.43600 17.48900 27.04000
C  50.20900 16.65700 26.89700
C  52.46500 18.70300 29.15800
C  52.52500 17.54400 25.98200
O  52.38500 16.95400 24.89300
C  53.88000 18.14100 26.22900
N  47.63100 14.84900 26.51500
C  48.57000 15.12600 25.56700
C  48.33800 14.30500 24.26800
C  47.19000 13.35700 24.71300
C  46.77300 13.86200 26.07400
C  48.00100 15.25800 23.09300
C  47.62600 11.83500 24.48900
C  48.11700 11.05900 25.72300
N  46.20000 14.21800 28.89700
C  45.30700 13.52500 28.10600
C  44.06000 13.17100 28.84800
C  44.29700 13.70000 30.10600
C  45.59300 14.31000 30.06200
C  42.89700 12.42200 28.32100
C  43.80200 13.71900 31.43500
O  42.83200 13.15300 31.85600
C  44.73500 14.53500 32.26300
C  43.92200 15.71000 32.66300
O  43.74500 16.77600 32.11200
O  43.47300 15.44400 33.91700
C  42.47600 16.39700 34.43100
H  50.51600 18.01500 31.07600
H  50.17800 16.28000 24.80400
H  44.98800 12.72400 26.14000
H  46.46800 17.26400 33.11400
H  49.40000 16.93900 33.06100
H  47.62200 18.86600 33.58600
H  48.17700 19.44300 32.06100
H  49.43200 19.13500 33.29000
H  48.42400 15.40100 34.30000
H  46.84100 14.69100 33.94700
H  45.95000 15.70900 35.69200
H  46.57400 17.29100 35.44200
H  52.41200 18.69500 30.24700
H  52.50600 19.75200 28.86200
H  53.39200 18.18600 28.91300
H  54.29800 17.47100 26.98000
H  53.60600 19.12800 26.60400
H  54.48600 18.15400 25.32300
H  49.27500 13.80300 24.02500
H  46.30700 13.50200 24.08900
H  47.39600 14.76100 22.33500
H  48.90900 15.50500 22.54400
H  47.42400 16.12000 23.42700
H  48.45000 11.77800 23.77800
H  46.87800 11.25100 23.95200
H  47.80300 11.67700 26.56400
H  49.18800 10.87600 25.64600
H  47.55600 10.15100 25.94800
H  42.92000 11.46400 28.84100
H  42.89200 12.27500 27.24100
H  41.99900 12.97900 28.58600
H  44.96900 13.87500 33.09800
H  43.02900 17.12900 35.01900
H  41.91400 15.72100 35.07600
H  41.70400 16.79300 33.77000
Mg 0.14300 43.40200 26.00900
C  2.28400 43.11200 28.79700
C  -2.41300 42.51700 28.15500
C  -1.84300 43.20100 23.37500
C  2.83100 44.27000 24.03400
N  -0.06000 42.73700 28.25100
C  0.93500 42.84400 29.17500
C  0.47100 42.66700 30.64500
C  -1.01900 42.12400 30.34200
C  -1.24100 42.55700 28.85300
C  -1.27700 40.58900 30.56600
C  0.61000 44.02600 31.46200
C  1.26700 43.89800 32.81000
H  0.87600 42.64700 33.65200
N  -1.90700 42.93400 25.80200
C  -2.82100 42.65500 26.77200
C  -4.10700 42.47500 26.22000
C  -3.91000 42.58300 24.77100
C  -2.46400 42.92300 24.56200
C  -5.27100 42.31400 27.16400
C  -4.92800 42.48900 23.60800
O  -4.70900 42.62400 22.45800
C  -6.34500 42.05800 23.96700
N  0.49500 43.63700 24.01200
C  -0.54700 43.57000 23.08600
C  -0.12800 44.05000 21.68100
C  1.34100 44.56600 21.99200
C  1.57000 44.20700 23.39900
C  -0.20600 42.89300 20.62200
C  1.53000 46.06700 21.76600
C  1.40200 46.61300 20.37500
N  2.11500 43.63800 26.28900
C  3.12300 43.96000 25.41600
C  4.44000 43.93900 26.08800
C  4.05500 43.66900 27.42500
C  2.68100 43.41800 27.48500
C  5.77100 44.03300 25.43300
C  4.66700 43.41600 28.70500
O  5.89100 43.38700 28.96600
C  3.53000 43.09600 29.71100
C  3.81100 41.68300 30.19500
O  3.87100 40.65700 29.50500
O  4.09400 41.69000 31.49900
C  4.85800 40.62800 32.12800
H  -3.24600 42.23700 28.80500
H  -2.50600 43.30200 22.51300
H  3.61700 44.77600 23.47100
H  0.97200 41.84900 31.16200
H  -1.74900 42.66300 30.94700
H  -1.79600 40.54700 31.52400
H  -0.32800 40.07900 30.39800
H  -1.83500 40.28400 29.68100
H  -0.34300 44.50500 31.68600
H  1.23500 44.71400 30.89400
H  1.05900 44.82400 33.34600
H  2.34700 44.02200 32.73600
H  -5.19400 41.25100 27.39300
H  -6.23000 42.45400 26.66600
H  -5.09100 42.88800 28.07300
H  -7.07800 42.85100 23.82100
H  -6.28700 41.55600 24.93200
H  -6.64800 41.22300 23.33600
H  -0.74900 44.90300 21.40700
H  2.08000 44.00900 21.41600
H  0.76400 42.72100 20.15600
H  -0.78700 43.28900 19.78900
H  -0.67800 41.94600 20.88300
H  2.47800 46.43200 22.16200
H  0.90200 46.55900 22.50800
H  0.99200 47.60000 20.59100
H  0.64000 46.18400 19.72600
H  2.37300 46.76600 19.90400
H  5.77900 44.08300 24.34400
H  6.49500 43.34700 25.87200
H  6.11800 45.05000 25.61800
H  3.41300 43.79900 30.53600
H  4.19700 39.92400 32.63300
H  5.52900 41.05500 32.87300
H  5.36600 39.98600 31.40800

