158

Mg 16.57900 -0.75500 27.83000
C  15.77400 1.30900 30.51000
C  18.68800 -2.55700 29.94200
C  17.99500 -2.34200 24.99200
C  15.28700 1.65000 25.61300
N  17.00600 -0.73700 29.98900
C  16.51900 0.15200 30.87100
C  16.89600 -0.17900 32.36200
C  17.81700 -1.47800 32.12400
C  17.98200 -1.53400 30.56100
C  19.24400 -1.39900 32.79100
C  15.72900 -0.49100 33.36900
C  15.67700 0.19700 34.71600
H  17.00600 0.55200 35.50500
N  18.06600 -2.31200 27.52000
C  18.70400 -2.98600 28.56000
C  19.59400 -3.93000 27.90700
C  19.34100 -3.95500 26.49200
C  18.38600 -2.85400 26.23500
C  20.51800 -4.80600 28.66300
C  19.95900 -4.83300 25.42800
O  19.73800 -4.72300 24.21700
C  21.00500 -5.83100 25.76600
N  16.68600 -0.37100 25.58700
C  17.29000 -1.19700 24.69200
C  17.16200 -0.56700 23.22700
C  16.13900 0.55700 23.55600
C  16.00300 0.62100 25.03100
C  18.50700 0.06500 22.68200
C  14.69500 0.35900 22.87500
C  14.19700 1.59500 21.97300
N  15.63000 1.06700 27.98600
C  15.18600 1.92300 27.01200
C  14.35200 2.89200 27.68600
C  14.63600 2.74500 29.06600
C  15.41500 1.59000 29.14700
C  13.58100 3.98000 27.08800
C  14.40300 3.37500 30.35900
O  13.73400 4.37200 30.64300
C  15.17400 2.40000 31.40200
C  16.09100 3.12600 32.26800
O  17.23000 3.39800 32.01100
O  15.58400 3.55200 33.49700
C  16.48300 4.41900 34.28600
H  19.18000 -3.32200 30.54600
H  18.33700 -2.76400 24.04500
H  14.70300 2.41100 25.09000
H  17.62300 0.57200 32.67000
H  17.31600 -2.35000 32.54400
H  20.06400 -1.28700 32.08200
H  19.29700 -2.28300 33.42500
H  19.31200 -0.50800 33.41500
H  15.72800 -1.55100 33.62200
H  14.74700 -0.36800 32.91100
H  14.99300 -0.35400 35.36200
H  15.12900 1.12400 34.55000
H  21.49400 -4.95400 28.20000
H  20.06100 -5.78800 28.78400
H  20.60800 -4.34700 29.64700
H  20.47200 -6.63200 26.27900
H  21.75700 -5.24000 26.28700
H  21.41700 -6.29000 24.86700
H  16.71400 -1.30800 22.56500
H  16.64500 1.45800 23.21100
H  19.21500 0.08500 23.51000
H  18.51300 1.07300 22.26800
H  18.93500 -0.64400 21.97300
H  13.91200 0.23100 23.62300
H  14.63100 -0.52600 22.24200
H  13.31200 2.06100 22.40700
H  13.87000 1.40100 20.95200
H  14.99000 2.33800 21.89700
H  14.21800 4.49400 26.36900
H  13.39600 4.74200 27.84600
H  12.73400 3.49900 26.59900
H  14.30300 2.04700 31.95400
H  16.47600 5.31500 33.66600
H  17.44300 3.94400 34.48600
H  15.99600 4.62800 35.23900
Mg 45.46800 5.48200 48.69000
C  43.36100 8.12800 47.79400
C  42.97900 3.32200 47.95200
C  47.88300 3.01600 48.42800
C  48.20400 7.79600 48.66800
N  43.37900 5.76900 48.16500
C  42.70900 6.91500 47.69500
C  41.30200 6.56100 47.18700
C  41.06700 5.12500 47.79600
C  42.55000 4.65800 48.01300
C  40.11800 4.96900 49.17300
C  41.23400 6.78700 45.67600
C  39.90600 7.40400 45.15100
H  39.29700 6.73400 43.92300
N  45.43700 3.45200 48.35000
C  44.24000 2.77000 48.12600
C  44.51900 1.40200 47.93800
C  45.93800 1.24700 47.92000
C  46.49800 2.57800 48.31200
C  43.44300 0.40000 47.56700
C  46.75200 0.00300 47.72300
O  46.18100 -1.02000 47.41400
C  48.26700 -0.02000 47.84800
N  47.76900 5.42500 48.60400
C  48.44400 4.26800 48.56100
C  49.92200 4.44000 48.78600
C  50.06300 5.99300 48.71200
C  48.60500 6.43500 48.73200
C  50.51400 3.74800 50.12500
C  50.98700 6.44200 47.49700
C  52.12400 7.34800 47.94800
N  45.73800 7.56300 48.45600
C  46.87000 8.34500 48.47200
C  46.53300 9.71500 48.30300
C  45.17500 9.70200 48.09500
C  44.71700 8.32600 48.14000
C  47.41900 10.95200 48.22000
C  43.96600 10.54900 47.70400
O  43.81300 11.77200 47.55700
C  42.80600 9.54100 47.55800
C  41.69200 9.99100 48.56700
O  41.52900 9.52400 49.65100
O  40.92100 10.97600 48.00100
C  39.81800 11.50600 48.88200
H  42.08700 2.69500 47.99900
H  48.67000 2.26600 48.52500
H  48.94300 8.58800 48.52400
H  40.54200 7.23300 47.58600
H  40.65600 4.45200 47.04400
H  39.99900 5.95300 49.62500
H  40.54100 4.33900 49.95600
H  39.13900 4.60300 48.86500
H  41.19100 5.82200 45.17200
H  42.08500 7.37800 45.33700
H  40.08900 8.46600 44.99100
H  39.12700 7.36800 45.91300
H  43.70400 -0.21800 46.70800
H  42.50100 0.89600 47.33500
H  43.31900 -0.33200 48.36500
H  48.79600 0.57300 47.10200
H  48.51800 -1.04000 47.55900
H  48.58200 0.18800 48.87100
H  50.38700 4.00200 47.90300
H  50.57800 6.35700 49.60100
H  49.78900 3.72900 50.93900
H  51.38000 4.26200 50.54300
H  50.74000 2.70800 49.89000
H  50.33900 6.96300 46.79300
H  51.47300 5.58700 47.02900
H  52.20800 8.12900 47.19300
H  53.08000 6.83400 48.05100
H  51.85900 7.84800 48.88000
H  48.35800 10.62800 47.77100
H  47.54000 11.45700 49.17900
H  47.10700 11.71300 47.50500
H  42.43600 9.52200 46.53300
H  39.06000 11.92400 48.22000
H  40.32500 12.24700 49.50000
H  39.33900 10.79700 49.55700

