158

Mg 30.55100 58.69600 41.03200
C  27.78800 56.89700 39.93600
C  32.55600 56.28800 39.65300
C  33.08500 60.99600 41.01800
C  28.31300 61.40500 41.77700
N  30.12000 56.88400 39.81100
C  28.96600 56.23500 39.65300
C  29.11200 54.76500 39.27700
C  30.64600 54.58400 39.34500
C  31.16700 55.98200 39.67400
C  31.17400 53.39700 40.17900
C  28.40300 54.26700 38.03300
C  28.20200 55.22000 36.80900
H  28.36100 54.82800 35.37800
N  32.53300 58.61900 40.55400
C  33.15300 57.56000 39.92700
C  34.57800 57.88400 39.83100
C  34.78100 59.20800 40.15200
C  33.46400 59.66500 40.59600
C  35.64000 56.94800 39.27800
C  36.13000 59.92400 40.08900
O  37.07600 59.38900 39.49600
C  36.40400 61.29700 40.65200
N  30.61000 60.81000 41.59400
C  31.81700 61.49200 41.52800
C  31.71600 62.98000 41.88000
C  30.18500 63.10400 42.21200
C  29.65700 61.74400 41.81500
C  32.65600 63.39900 43.03300
C  29.35700 64.29000 41.68100
C  29.08600 65.49200 42.69300
N  28.43000 59.06500 41.08200
C  27.64800 60.18500 41.37200
C  26.26800 59.91600 41.15100
C  26.32400 58.61300 40.59400
C  27.62300 58.16900 40.48000
C  25.18600 60.90800 41.35800
C  25.43500 57.54900 40.07600
O  24.23200 57.56700 39.92900
C  26.39200 56.36700 39.76300
C  26.10000 55.32100 40.78100
O  26.58800 55.16800 41.87600
O  25.14800 54.43700 40.26300
C  24.70500 53.22900 41.05300
H  33.24600 55.53600 39.26400
H  33.74900 61.85300 40.89000
H  27.59100 62.21400 41.90600
H  28.68100 54.33100 40.17900
H  31.07300 54.44700 38.35200
H  31.92200 53.72900 40.89800
H  31.55000 52.69100 39.43800
H  30.44700 52.89100 40.81400
H  27.43700 53.88700 38.36500
H  29.00700 53.48100 37.58000
H  28.92800 56.02200 36.94200
H  27.18000 55.57900 36.92600
H  35.68000 57.22400 38.22500
H  35.33700 55.90600 39.38800
H  36.57600 57.08800 39.81800
H  35.92900 61.54600 41.60200
H  36.14200 62.01600 39.87500
H  37.47900 61.36700 40.81400
H  31.80000 63.54000 40.94900
H  30.15700 63.07300 43.30200
H  33.16300 62.52200 43.43600
H  32.19000 63.90200 43.88000
H  33.32700 64.17300 42.66200
H  28.47400 63.91300 41.16500
H  29.93000 64.61200 40.81100
H  29.32000 65.24700 43.72900
H  28.00600 65.63800 42.66200
H  29.56600 66.40300 42.33600
H  25.40500 61.47400 42.26300
H  24.30600 60.29300 41.54800
H  25.04600 61.45500 40.42600
H  26.09600 56.08700 38.75100
H  24.26900 53.60500 41.97900
H  25.51900 52.57500 41.36600
H  24.00200 52.68100 40.42600
Mg 9.35600 47.52000 26.02100
C  7.24000 47.82500 28.67600
C  11.95000 48.50800 27.88500
C  11.21300 47.53300 23.14400
C  6.38600 47.26800 23.98000
N  9.59900 48.15400 27.97000
C  8.57200 48.16300 28.90600
C  9.21300 48.47800 30.29900
C  10.56300 49.19500 29.88200
C  10.75100 48.55300 28.51400
C  10.44200 50.73100 29.83900
C  9.50000 47.11600 31.08600
C  10.28000 47.18500 32.42600
H  9.87500 46.08400 33.45500
N  11.30300 48.03400 25.61100
C  12.28400 48.25400 26.53900
C  13.52300 48.42600 25.93400
C  13.34300 48.18000 24.55100
C  11.92400 47.87400 24.32700
C  14.77100 48.82500 26.60600
C  14.35300 47.95700 23.40700
O  14.03100 47.82900 22.21600
C  15.79700 47.92600 23.78900
N  8.83400 47.32000 23.82900
C  9.86600 47.36900 22.84500
C  9.26800 47.15200 21.45800
C  7.69200 46.99000 21.72900
C  7.62700 47.23100 23.28000
C  9.64400 48.12100 20.29600
C  7.02200 45.67500 21.33900
C  6.36800 45.70400 19.91700
N  7.19500 47.46500 26.29100
C  6.16400 47.40700 25.37700
C  4.86700 47.32600 26.05100
C  5.26000 47.50800 27.40500
C  6.67100 47.55300 27.43100
C  3.53300 47.10400 25.43100
C  4.81800 47.71400 28.82700
O  3.67900 47.78400 29.31300
C  6.14400 47.66900 29.67000
C  6.18700 46.31100 30.39400
O  6.25000 45.22900 29.80300
O  6.04200 46.40400 31.71300
C  6.05100 45.18700 32.46900
H  12.79800 49.03600 28.32600
H  11.82300 47.55100 22.23800
H  5.49000 47.32300 23.35800
H  8.51000 49.15700 30.78100
H  11.39300 49.05200 30.57500
H  10.76100 51.12100 28.87200
H  11.09000 51.19300 30.58300
H  9.44700 51.06000 30.13900
H  10.00500 46.46600 30.37200
H  8.48300 46.85500 31.38000
H  10.17700 48.14300 32.93700
H  11.33500 47.10000 32.16800
H  15.41900 47.95400 26.69900
H  14.68600 49.30500 27.58100
H  15.35400 49.56300 26.05500
H  16.37900 47.74300 22.88500
H  16.04200 47.05500 24.39800
H  16.22300 48.83900 24.20400
H  9.60000 46.18400 21.08300
H  7.24100 47.83000 21.20000
H  8.88000 48.85700 20.04700
H  9.78200 47.55300 19.37600
H  10.53500 48.71300 20.50500
H  6.26700 45.23500 21.99100
H  7.79400 44.93100 21.14700
H  6.56200 46.70500 19.53100
H  5.31100 45.47600 20.05300
H  6.83400 44.98900 19.23900
H  3.00300 46.20000 25.73300
H  3.57000 46.94400 24.35400
H  2.90900 47.96800 25.66100
H  6.21500 48.39700 30.47800
H  5.25100 45.17700 33.21000
H  6.98300 45.10000 33.02900
H  6.07900 44.32500 31.80200

