158

Mg 46.98100 25.69100 28.85000
C  47.94300 27.82500 31.60500
C  45.66500 23.51800 31.12300
C  46.64700 23.42900 26.33100
C  48.64200 27.75600 26.74200
N  46.78600 25.74600 31.10200
C  47.23100 26.69300 32.03200
C  46.88400 26.25200 33.44700
C  46.17400 24.89700 33.30400
C  46.21600 24.69400 31.75700
C  46.82600 23.76500 34.13300
C  46.01900 27.32700 34.19100
C  46.51900 27.76800 35.58100
H  45.48000 27.58300 36.69600
N  46.18800 23.78000 28.76600
C  45.70200 23.05400 29.80700
C  45.15800 21.81800 29.27600
C  45.44400 21.75800 27.87700
C  46.20300 22.99900 27.59300
C  44.37600 20.70100 30.11300
C  44.83500 20.72300 26.87000
O  45.20800 20.67900 25.67200
C  43.78900 19.70300 27.27400
N  47.38700 25.64700 26.80100
C  47.23500 24.61100 25.93700
C  47.78300 24.91800 24.53800
C  48.11000 26.38000 24.62000
C  48.10500 26.59500 26.16000
C  49.01500 23.97300 24.31700
C  47.10600 27.32500 23.82500
C  47.61300 28.02600 22.55600
N  48.01200 27.52500 29.05500
C  48.70200 28.15700 28.08500
C  49.44100 29.30200 28.70800
C  49.08700 29.26600 30.07400
C  48.29400 28.10100 30.25800
C  50.20600 30.37000 28.01200
C  49.26700 29.94400 31.36900
O  49.86000 30.96600 31.61700
C  48.48900 29.00300 32.45000
C  49.57800 28.64200 33.49300
O  50.58400 28.04200 33.24400
O  49.20600 29.11100 34.72300
C  50.11100 29.04800 35.84500
H  45.12600 22.79000 31.73300
H  46.65900 22.58400 25.63900
H  49.11500 28.40100 25.99900
H  47.88200 26.14600 33.87200
H  45.15600 24.98000 33.68700
H  46.05200 23.32000 34.75900
H  47.55000 24.08400 34.88400
H  47.27600 23.04400 33.45200
H  44.96800 27.03700 34.21100
H  46.04000 28.16800 33.49900
H  46.74400 28.82900 35.46900
H  47.44400 27.28100 35.89000
H  43.31800 20.64400 29.85400
H  44.37300 20.93600 31.17700
H  44.87400 19.75400 29.90400
H  44.29900 18.85500 27.73100
H  43.36200 19.30500 26.35300
H  42.90600 20.09100 27.78200
H  47.10900 24.68200 23.71400
H  49.10500 26.60900 24.23600
H  48.83400 22.97100 24.70700
H  49.86600 24.32700 24.89800
H  49.31100 23.90400 23.27000
H  46.92300 28.06800 24.60100
H  46.22000 26.71700 23.64400
H  48.69200 27.96000 22.41500
H  47.46100 29.08700 22.75400
H  47.14500 27.71600 21.62200
H  49.61200 30.64400 27.14000
H  51.17600 29.97200 27.71300
H  50.37400 31.14200 28.76300
H  47.64400 29.58000 32.82600
H  49.93600 29.95000 36.43100
H  51.16000 29.15500 35.57000
H  50.02300 28.10700 36.38900
Mg 10.62600 47.53800 25.90300
C  8.53900 47.34600 28.84100
C  13.19900 48.49900 27.96200
C  12.65500 47.46900 23.28300
C  7.98000 46.70300 23.95400
N  10.72400 47.97600 28.17300
C  9.82800 47.74100 29.18300
C  10.42200 48.10000 30.55200
C  11.76500 48.80400 30.13700
C  11.95800 48.27200 28.68200
C  11.70600 50.34300 30.05300
C  10.64400 46.81800 31.39200
C  10.14500 46.89200 32.82100
H  10.37600 45.67600 33.71000
N  12.66200 48.00600 25.65200
C  13.56400 48.34000 26.64300
C  14.87600 48.22400 26.09100
C  14.78800 47.91500 24.74500
C  13.32600 47.88300 24.52100
C  16.12800 48.44700 27.02400
C  15.94800 47.79300 23.76700
O  15.73200 47.81000 22.52000
C  17.35400 47.73400 24.31200
N  10.34000 47.34700 23.85300
C  11.33200 47.35600 22.94100
C  10.85500 47.11900 21.57900
C  9.36500 46.92700 21.78200
C  9.21200 46.99700 23.30600
C  11.14700 48.21600 20.58400
C  8.86200 45.66100 21.06000
C  9.24000 44.29500 21.63400
N  8.61500 47.24700 26.22800
C  7.65100 46.81200 25.32400
C  6.40400 46.61500 25.97700
C  6.72200 46.84800 27.34400
C  8.07900 47.19400 27.44700
C  5.06900 46.03900 25.43100
C  6.12700 46.75400 28.73700
O  5.01700 46.44300 29.17900
C  7.35600 47.04000 29.77300
C  7.53500 45.74800 30.46500
O  8.29800 44.82200 30.20200
O  6.71300 45.77300 31.53500
C  6.84800 44.57400 32.45700
H  13.94400 48.88600 28.66100
H  13.33300 47.16500 22.48300
H  7.19800 46.38900 23.26000
H  9.71600 48.76000 31.05400
H  12.65900 48.53400 30.70000
H  10.95500 50.77800 30.71200
H  11.31900 50.54900 29.05400
H  12.71700 50.74100 30.13400
H  11.72600 46.75900 31.50400
H  10.40000 45.91500 30.83200
H  9.10200 47.20800 32.80200
H  10.69900 47.69900 33.30100
H  15.80900 48.51400 28.06400
H  16.57800 49.43500 26.92500
H  16.77200 47.57100 26.94400
H  17.45100 46.98600 25.09900
H  17.54800 48.73800 24.68900
H  18.03300 47.46800 23.50200
H  11.28300 46.20100 21.17600
H  8.77800 47.74500 21.36400
H  11.52900 47.80700 19.64900
H  11.76400 48.94200 21.11400
H  10.22900 48.72800 20.29600
H  9.23000 45.66900 20.03400
H  7.78100 45.69600 20.92500
H  9.30000 44.30300 22.72200
H  10.21600 43.91100 21.33600
H  8.49200 43.54200 21.38700
H  4.56800 46.82100 24.86200
H  4.40500 45.56800 26.15600
H  5.38500 45.23300 24.76800
H  7.24500 47.89200 30.44400
H  7.60700 44.56000 33.24000
H  6.84100 43.67400 31.84400
H  5.91600 44.52700 33.02000

