158

Mg 1.89300 -1.80500 44.05200
C  5.38600 -1.48000 43.73800
C  1.46200 1.01200 42.42800
C  -1.31700 -2.73700 43.50900
C  2.54900 -5.03300 45.31200
N  3.24900 -0.47800 43.13600
C  4.62300 -0.45000 43.15100
C  5.17600 0.77100 42.34400
C  3.92900 1.75400 42.29400
C  2.77500 0.71900 42.66300
C  4.06700 2.93300 43.30000
C  5.71800 0.33800 40.92300
C  7.14100 0.86400 40.54700
H  7.41200 0.86800 39.05900
N  0.18400 -0.93900 43.09200
C  0.26400 0.27600 42.58100
C  -1.05100 0.58800 42.07800
C  -1.81800 -0.65900 42.13600
C  -0.98000 -1.47300 42.95300
C  -1.39200 1.99800 41.53000
C  -3.19000 -0.91800 41.64300
O  -3.70100 -0.08700 40.84200
C  -3.97400 -2.16600 41.75600
N  0.82200 -3.66600 44.32000
C  -0.50400 -3.73200 44.14900
C  -1.15700 -4.93400 44.92600
C  0.11700 -5.66700 45.45500
C  1.30300 -4.74300 44.97600
C  -2.17800 -4.47700 45.98200
C  0.29100 -7.15400 44.94400
C  0.63800 -8.11300 46.01500
N  3.56000 -3.00900 44.56700
C  3.64800 -4.27600 45.12600
C  4.98000 -4.59900 45.48300
C  5.73000 -3.51900 44.94200
C  4.80200 -2.66700 44.36000
C  5.52800 -5.87700 45.96900
C  7.07400 -2.94100 44.70600
O  8.20600 -3.30900 45.02700
C  6.90400 -1.66300 43.89500
C  7.56200 -0.50400 44.56200
O  7.45200 -0.27200 45.76500
O  8.27600 0.23000 43.67800
C  8.64800 1.64000 44.08400
H  1.44100 2.04700 42.08100
H  -2.32900 -3.09600 43.31000
H  2.77600 -5.96900 45.82700
H  6.06500 1.08100 42.89500
H  3.79500 2.14900 41.28700
H  4.42800 3.83700 42.81000
H  4.71700 2.74600 44.15500
H  3.11200 3.09300 43.80100
H  4.95800 0.65400 40.20800
H  5.82900 -0.73400 40.75900
H  7.83200 0.16700 41.02100
H  7.18300 1.88600 40.92400
H  -0.73700 2.30200 40.71400
H  -1.07900 2.67900 42.32200
H  -2.42900 2.31900 41.43000
H  -4.94700 -2.01700 41.28700
H  -4.23300 -2.25700 42.81100
H  -3.51900 -3.11000 41.45700
H  -1.60100 -5.54500 44.14000
H  0.14200 -5.67700 46.54500
H  -3.17100 -4.63100 45.56000
H  -1.95200 -3.42100 46.12800
H  -2.06200 -5.00100 46.93100
H  1.09200 -7.15500 44.20500
H  -0.64500 -7.47000 44.48300
H  -0.21600 -8.22800 46.68300
H  1.50300 -7.76800 46.58100
H  1.04000 -9.07900 45.71100
H  6.51900 -5.71700 46.39600
H  5.74200 -6.66500 45.24600
H  5.06900 -6.27300 46.87500
H  7.40000 -1.84900 42.94300
H  9.46600 1.55600 44.80000
H  7.87800 2.21900 44.59400
H  9.01800 2.31000 43.30800
Mg 30.48800 58.53500 40.60500
C  27.89700 56.28900 39.46500
C  32.70400 56.21400 39.28100
C  32.82200 60.69000 41.00400
C  27.98700 60.85000 41.16700
N  30.23500 56.55300 39.47200
C  29.17000 55.89300 39.01200
C  29.52300 54.62100 38.18900
C  31.05500 54.48300 38.47500
C  31.39700 55.79900 39.13100
C  31.54100 53.40600 39.47400
C  29.25300 54.77800 36.61800
C  28.00800 54.17600 36.05500
H  27.04700 55.00700 35.22300
N  32.48300 58.51600 40.22000
C  33.24700 57.48500 39.75000
C  34.66700 57.95700 39.62100
C  34.74900 59.11800 40.37800
C  33.33500 59.53300 40.55200
C  35.73400 57.13200 39.14500
C  36.01100 59.83700 40.85500
O  37.14300 59.41100 40.58100
C  36.02300 61.06400 41.65100
N  30.41600 60.54100 40.93600
C  31.52400 61.23200 41.22300
C  31.23700 62.69200 41.52900
C  29.66700 62.71900 41.61000
C  29.30600 61.32200 41.25100
C  32.02300 63.25700 42.77800
C  28.85700 63.79600 40.73800
C  27.56400 64.43600 41.33800
N  28.41400 58.58200 40.43000
C  27.55700 59.56300 40.82400
C  26.15900 59.12100 40.70200
C  26.29400 57.83600 40.19000
C  27.64300 57.52000 40.03600
C  25.00700 59.88900 41.17900
C  25.50300 56.73300 39.61800
O  24.31600 56.57700 39.46200
C  26.58300 55.60600 39.14400
C  26.41600 54.40400 40.04900
O  26.75200 54.32000 41.20600
O  25.58500 53.55500 39.38200
C  25.03100 52.49200 40.16600
H  33.43400 55.61200 38.73700
H  33.52300 61.49000 41.25000
H  27.25800 61.60800 41.45800
H  28.87300 53.79400 38.47600
H  31.58600 54.43300 37.52500
H  32.58300 53.15300 39.27600
H  30.86500 52.56200 39.33600
H  31.39100 53.76700 40.49200
H  30.05500 54.37800 35.99600
H  29.40400 55.83100 36.38200
H  27.36500 53.89400 36.88800
H  28.17900 53.20400 35.59300
H  35.38800 56.63300 38.24000
H  36.04600 56.36200 39.85000
H  36.64600 57.63700 38.82900
H  35.87500 61.99800 41.11000
H  36.99200 61.06600 42.15100
H  35.31800 60.99200 42.47900
H  31.63200 63.31300 40.72500
H  29.38100 62.97400 42.63000
H  32.76000 62.47200 42.95300
H  31.37700 63.34000 43.65200
H  32.57700 64.14500 42.47400
H  28.51400 63.28800 39.83600
H  29.50000 64.63200 40.46400
H  26.70700 64.46100 40.66400
H  27.73600 65.47300 41.62800
H  27.29900 63.84100 42.21100
H  24.28100 59.07900 41.25400
H  24.77300 60.66400 40.44900
H  25.17600 60.33400 42.15900
H  26.46400 55.43200 38.07400
H  25.84700 51.88600 40.55900
H  24.36700 51.78700 39.66600
H  24.51400 52.81600 41.06900

