158

Mg 48.70700 34.00500 26.57900
C  47.17300 32.69400 29.47200
C  49.13000 36.92500 28.29900
C  49.45500 35.52900 23.60300
C  47.62700 31.09600 24.80900
N  48.29400 34.62100 28.70700
C  47.73000 33.92900 29.71100
C  47.89200 34.71100 31.00500
C  47.97000 36.17700 30.46700
C  48.67400 35.89100 29.06100
C  46.55700 36.83500 30.41100
C  49.03400 34.24400 31.89000
C  48.88800 34.12800 33.47300
H  47.80300 34.91400 34.21000
N  49.34700 35.87000 26.05200
C  49.45100 36.93500 26.90000
C  50.08200 38.09900 26.16900
C  50.18300 37.67900 24.80300
C  49.59400 36.35300 24.71700
C  50.62200 39.31900 26.81000
C  50.76500 38.36200 23.52500
O  50.75600 37.83100 22.37300
C  51.48500 39.73200 23.69400
N  48.59100 33.40400 24.56200
C  48.96500 34.24600 23.52900
C  48.85700 33.48900 22.13000
C  48.29700 32.01800 22.56400
C  48.13300 32.22400 24.07600
C  48.06500 34.24200 20.97900
C  49.28900 30.99100 22.20000
C  50.58500 30.81200 22.97500
N  47.77200 32.18900 26.96000
C  47.41400 31.09900 26.18100
C  46.85800 30.01700 27.03600
C  46.59800 30.63500 28.31300
C  47.16100 31.98300 28.19900
C  46.41400 28.68300 26.58700
C  46.04900 30.44800 29.54400
O  45.40200 29.47600 29.97900
C  46.24600 31.86000 30.28300
C  46.60200 31.48700 31.74000
O  47.76500 31.32200 32.20400
O  45.43000 31.24600 32.41000
C  45.47400 31.12700 33.84500
H  49.22600 37.89400 28.79400
H  49.92300 35.75700 22.64300
H  47.28400 30.24900 24.21100
H  46.96100 34.46800 31.51600
H  48.72600 36.72300 31.03200
H  46.58300 37.75300 30.99800
H  45.82600 36.08300 30.71000
H  46.30400 36.97100 29.36000
H  49.87300 34.90300 31.66700
H  49.40500 33.28500 31.52700
H  49.83600 34.57600 33.77100
H  49.02400 33.09900 33.80600
H  51.70400 39.21500 26.72200
H  50.41800 39.49300 27.86600
H  50.26000 40.22700 26.32900
H  50.76900 40.50800 23.96600
H  51.86700 39.96600 22.70000
H  52.30900 39.64000 24.40100
H  49.86700 33.29500 21.76600
H  47.36000 31.79200 22.05500
H  47.74400 35.24900 21.24800
H  47.19300 33.62600 20.75600
H  48.58700 34.30400 20.02400
H  49.46900 31.12800 21.13300
H  48.70200 30.08100 22.31700
H  50.63200 31.02600 24.04300
H  51.44200 31.29600 22.50700
H  50.83600 29.75100 22.95400
H  45.33600 28.55300 26.48900
H  46.86400 27.94000 27.24500
H  46.64300 28.56600 25.52800
H  45.30800 32.40300 30.39900
H  45.73300 32.11000 34.23800
H  46.18700 30.40000 34.23400
H  44.46100 30.77500 34.04100
Mg 6.30600 53.11700 41.53300
C  5.61800 49.70000 41.39700
C  9.63400 52.45100 40.83900
C  6.97600 56.56500 41.44700
C  2.95000 53.86000 41.87600
N  7.45300 51.19600 40.92500
C  6.98000 49.94600 41.06000
C  8.15500 48.90200 40.88300
C  9.45200 49.88800 40.84000
C  8.85500 51.29100 40.99100
C  10.52700 49.47500 41.93800
C  8.12700 48.17400 39.56800
C  8.08000 48.96000 38.26000
H  7.15700 48.45200 37.19800
N  8.08800 54.34100 41.21200
C  9.35400 53.82200 41.01500
C  10.28600 54.95500 40.75500
C  9.55100 56.09100 40.90000
C  8.11700 55.71600 41.31200
C  11.81100 54.84900 40.51900
C  10.15700 57.53100 40.68900
O  11.34600 57.60500 40.42500
C  9.39200 58.80000 40.69300
N  5.14400 54.93000 41.59200
C  5.63500 56.20400 41.62600
C  4.54300 57.18600 41.60300
C  3.22900 56.36500 41.71500
C  3.78100 54.97800 41.65800
C  4.60500 58.31900 42.67500
C  2.05500 56.49800 40.64300
C  1.01000 57.54100 41.16000
N  4.62600 52.02900 41.57100
C  3.31100 52.49000 41.77300
C  2.42700 51.33600 42.11700
C  3.30500 50.20700 41.87600
C  4.60600 50.69100 41.62000
C  1.03200 51.35800 42.56400
C  3.38700 48.73800 41.98000
O  2.51800 47.92700 42.36100
C  4.81200 48.37500 41.60100
C  4.83600 47.49500 40.46400
O  4.41800 47.76400 39.36000
O  5.36700 46.29200 40.76400
C  5.41400 45.36500 39.61900
H  10.65500 52.14900 40.59600
H  7.15300 57.64200 41.44500
H  1.92700 54.13400 42.14100
H  8.27700 48.17100 41.68200
H  10.08700 49.78100 39.96000
H  11.47700 49.08900 41.56700
H  10.04900 48.90200 42.73300
H  10.77500 50.45900 42.33600
H  7.32900 47.43200 39.57700
H  9.08200 47.64900 39.57800
H  9.05600 48.80300 37.80200
H  7.76200 49.98800 38.43500
H  12.09900 55.34200 39.59100
H  12.10200 53.81100 40.36400
H  12.31700 55.31400 41.36600
H  8.58000 58.77300 39.96700
H  9.93500 59.72300 40.48800
H  9.07900 59.01300 41.71500
H  4.54600 57.56100 40.58000
H  2.76300 56.43700 42.69800
H  3.68500 58.49400 43.23200
H  4.77600 59.30200 42.23700
H  5.41900 58.11300 43.37100
H  1.51500 55.57200 40.44500
H  2.37300 56.88300 39.67400
H  0.85600 58.19100 40.29900
H  1.41400 58.13800 41.97700
H  0.00800 57.21800 41.44200
H  0.76100 50.79100 43.45500
H  0.58000 50.92800 41.67000
H  0.76600 52.40200 42.73100
H  5.24500 47.79300 42.41500
H  5.91500 44.41000 39.77700
H  5.97000 45.76600 38.77200
H  4.40700 45.19200 39.23700

