158

Mg 30.07700 60.27400 40.37400
C  26.90200 59.13800 39.46500
C  31.36800 57.29000 39.05900
C  33.03300 61.69300 40.50600
C  28.54600 63.59600 40.91700
N  29.16200 58.43300 39.23600
C  27.87600 58.16900 39.11700
C  27.71500 56.88800 38.32700
C  29.00600 56.16100 38.58100
C  29.96700 57.37200 38.92300
C  29.09600 54.95600 39.53100
C  27.20400 57.24800 36.81500
C  25.90400 56.56000 36.36700
H  26.09100 55.58200 35.18800
N  32.01700 59.48600 39.97100
C  32.33400 58.25500 39.48500
C  33.73000 58.19800 39.48300
C  34.27300 59.47400 39.84400
C  33.05000 60.31300 40.17400
C  34.57600 57.00900 39.05700
C  35.74500 59.75300 39.90000
O  36.61500 58.90400 39.57600
C  36.30900 61.01800 40.37400
N  30.71400 62.46700 40.64200
C  32.01300 62.65900 40.74200
C  32.28800 64.18600 41.00400
C  30.86700 64.80700 41.21100
C  29.98400 63.58400 40.95900
C  33.26500 64.46400 42.18000
C  30.47200 65.96400 40.23700
C  30.04900 67.30300 40.96400
N  28.22800 61.19100 40.33500
C  27.76000 62.47000 40.64000
C  26.27300 62.38000 40.70500
C  25.93100 61.11500 40.17200
C  27.11100 60.42700 40.07300
C  25.40000 63.54900 41.15800
C  24.81000 60.32200 39.76500
O  23.62700 60.51800 39.83500
C  25.45500 58.96300 39.26100
C  24.81300 57.76600 39.84600
O  24.97500 57.44200 41.01100
O  23.92500 57.20000 39.00500
C  23.43300 55.85700 39.40800
H  31.92300 56.36700 38.88200
H  34.01200 62.16900 40.59100
H  28.14900 64.59800 41.09400
H  26.95500 56.24000 38.76500
H  29.45300 55.82000 37.64700
H  28.27300 54.24600 39.60700
H  29.20900 55.35900 40.53700
H  30.00300 54.42100 39.25000
H  28.02700 56.90400 36.18800
H  27.06400 58.32900 36.83200
H  25.19400 57.32400 36.05100
H  25.50100 55.95200 37.17600
H  35.07800 57.17400 38.10300
H  33.89500 56.17500 38.89200
H  35.27900 56.64000 39.80400
H  37.38600 60.97800 40.53500
H  35.89400 61.13200 41.37500
H  36.10400 61.84300 39.69300
H  32.66400 64.61500 40.07600
H  30.71900 65.03000 42.26800
H  33.51900 63.51700 42.65600
H  32.72800 65.00200 42.96100
H  34.14500 65.03000 41.87700
H  29.68100 65.59900 39.58100
H  31.25700 66.26600 39.54500
H  30.52900 67.33200 41.94200
H  28.96600 67.19100 41.02300
H  30.36800 68.23200 40.49100
H  24.78300 63.98600 40.37300
H  26.07600 64.30800 41.55100
H  24.64500 63.24300 41.88200
H  25.27200 59.02400 38.18800
H  22.40600 55.86100 39.77400
H  24.11400 55.36000 40.09900
H  23.38600 55.30300 38.47000
Mg 25.70300 51.36600 26.50000
C  23.59600 52.15600 29.28300
C  28.14600 50.53900 28.84600
C  27.88000 50.88300 24.00500
C  23.24600 52.43900 24.35200
N  25.81800 51.28000 28.83600
C  24.85900 51.72000 29.74800
C  25.46200 51.81700 31.17700
C  26.89100 51.15300 31.01200
C  26.95300 51.00200 29.44200
C  28.07400 52.05800 31.49900
C  24.60100 51.02400 32.22800
C  25.18600 50.76900 33.69200
H  24.41100 51.43800 34.81700
N  27.72100 50.82000 26.44800
C  28.53900 50.48400 27.48600
C  29.86000 50.09900 26.98300
C  29.85000 50.37600 25.58600
C  28.44200 50.68300 25.28900
C  30.92300 49.46100 27.81400
C  30.98600 50.16300 24.63700
O  30.79700 50.37300 23.44800
C  32.33700 49.97200 25.15800
N  25.66400 51.72800 24.47600
C  26.65000 51.41600 23.66200
C  26.16400 51.43400 22.17600
C  24.68400 51.95500 22.22400
C  24.46700 52.02300 23.77700
C  27.05300 52.19800 21.27200
C  23.75100 50.99200 21.43600
C  23.77700 49.43400 21.69800
N  23.82900 52.12900 26.71400
C  22.90400 52.48600 25.73900
C  21.62300 52.90600 26.47700
C  21.92300 52.75400 27.78900
C  23.22500 52.23500 27.91000
C  20.46000 53.39500 25.80600
C  21.30700 53.01600 29.04100
O  20.22000 53.38700 29.33900
C  22.46000 52.79300 30.07500
C  22.84000 54.12900 30.51400
O  23.65800 54.82900 29.97000
O  22.23500 54.38500 31.70000
C  22.55400 55.62700 32.46800
H  28.87700 50.38400 29.64200
H  28.49900 50.74600 23.11700
H  22.47100 52.74100 23.64500
H  25.48000 52.85100 31.52300
H  27.11000 50.16400 31.41500
H  28.81000 51.48900 32.06600
H  27.52000 52.74400 32.14100
H  28.66400 52.51500 30.70500
H  24.54000 49.99600 31.87000
H  23.62600 51.49700 32.34600
H  26.22500 50.99100 33.93500
H  25.03400 49.71600 33.92500
H  30.67400 49.28800 28.86100
H  31.80600 50.08900 27.68800
H  31.15700 48.56800 27.23500
H  32.37200 48.92100 25.44500
H  32.66100 50.64400 25.95400
H  33.02600 50.10400 24.32300
H  26.15800 50.41100 21.80100
H  24.62300 52.97100 21.83300
H  27.90500 51.53000 21.14800
H  27.22200 52.99900 21.99200
H  26.58500 52.72800 20.44200
H  24.07600 51.10500 20.40100
H  22.76600 51.45700 21.40900
H  22.75400 49.09800 21.86500
H  24.46700 49.15800 22.49500
H  24.17800 48.93500 20.81500
H  20.73000 53.86200 24.85900
H  20.09600 54.20400 26.43900
H  19.77400 52.54800 25.79100
H  22.18100 52.15800 30.91500
H  22.59300 56.47500 31.78500
H  23.47500 55.56200 33.04800
H  21.69400 55.87600 33.09100

