158

Mg -3.23300 17.26500 25.56500
C  -3.24600 14.82100 28.20100
C  -3.95500 19.57000 27.92100
C  -3.35700 19.41900 23.09200
C  -2.77800 14.68500 23.33000
N  -3.55300 17.13600 27.91500
C  -3.39300 16.11200 28.73000
C  -3.50500 16.53600 30.20100
C  -4.04400 18.00500 30.08100
C  -3.87200 18.30600 28.53100
C  -5.43500 18.42800 30.61200
C  -2.08500 16.32900 30.85500
C  -1.52600 17.08200 32.06300
H  -1.30600 16.17800 33.29500
N  -3.63900 19.21100 25.47100
C  -3.82700 19.99300 26.57000
C  -4.08300 21.29500 26.11600
C  -3.83300 21.38600 24.75000
C  -3.63000 19.96600 24.35700
C  -4.47400 22.45400 27.09700
C  -3.71600 22.66500 23.82500
O  -3.68500 22.56600 22.62200
C  -3.55400 24.03300 24.50500
N  -2.74600 17.11600 23.51200
C  -2.97700 18.16700 22.70800
C  -2.76700 17.82200 21.20600
C  -2.85700 16.28200 21.36800
C  -2.66600 15.98800 22.80200
C  -3.77100 18.36500 20.12400
C  -1.97000 15.43000 20.36900
C  -2.56900 14.24400 19.64100
N  -3.16400 15.23800 25.71000
C  -3.05200 14.31800 24.69100
C  -3.14700 12.97900 25.15000
C  -3.19500 13.17100 26.48800
C  -3.22400 14.56200 26.83800
C  -3.06000 11.67800 24.43800
C  -3.26200 12.39900 27.72400
O  -3.16600 11.19500 27.89300
C  -3.26100 13.49300 28.89100
C  -2.03900 13.12200 29.71500
O  -0.86100 13.31500 29.42900
O  -2.47800 12.56700 30.90900
C  -1.47700 12.48000 31.93200
H  -4.35400 20.26100 28.66700
H  -3.39400 20.10100 22.24000
H  -2.81000 13.91600 22.55600
H  -4.23500 15.84400 30.62100
H  -3.37400 18.65500 30.64300
H  -5.93700 17.59300 31.10100
H  -6.08900 18.70900 29.78700
H  -5.43500 19.23000 31.35000
H  -1.34000 16.51800 30.08200
H  -2.02100 15.24700 30.97500
H  -2.28500 17.83400 32.27900
H  -0.52100 17.43600 31.83400
H  -4.88100 22.04300 28.02100
H  -5.25900 22.96600 26.54200
H  -3.58700 23.06600 27.26300
H  -3.50800 24.80800 23.73900
H  -2.60300 24.07500 25.03700
H  -4.38600 24.22700 25.18200
H  -1.77000 18.08400 20.85000
H  -3.81800 15.80700 21.17300
H  -4.72300 18.60400 20.59700
H  -3.81500 17.66700 19.28700
H  -3.32500 19.31200 19.82100
H  -1.14900 15.05500 20.98000
H  -1.56400 16.13500 19.64400
H  -3.56800 14.09200 20.05000
H  -1.91100 13.37800 19.70700
H  -2.63600 14.54600 18.59600
H  -4.07300 11.37600 24.17000
H  -2.51500 10.87700 24.93600
H  -2.39000 11.71600 23.57900
H  -4.13100 13.29300 29.51600
H  -0.65300 13.19300 31.95100
H  -1.05500 11.48100 31.82900
H  -2.11300 12.65400 32.80100
Mg 40.96600 8.58100 29.90400
C  42.97100 9.81000 32.34300
C  38.74800 7.45100 32.21000
C  38.96100 7.69300 27.45100
C  43.43900 9.31300 27.55800
N  40.79200 8.70900 32.05300
C  41.74300 9.28200 32.91100
C  41.30300 9.20800 34.42600
C  40.06100 8.27800 34.25300
C  39.86300 8.05200 32.74800
C  40.28500 6.91800 34.92000
C  41.02000 10.68400 35.04900
C  41.60600 10.81400 36.52200
H  41.13800 11.89600 37.46800
N  39.16500 7.54600 29.78100
C  38.48300 7.10300 30.88700
C  37.27600 6.40900 30.42100
C  37.23000 6.63100 28.99800
C  38.54400 7.23900 28.68900
C  36.29500 5.73900 31.35000
C  36.14700 6.32900 28.02100
O  36.16600 6.60500 26.85700
C  34.96900 5.62700 28.56400
N  41.20700 8.29100 27.74100
C  40.14300 8.12500 26.97400
C  40.41800 8.43400 25.49400
C  41.92700 8.89400 25.48900
C  42.19300 8.88900 27.01500
C  40.09500 7.25900 24.38600
C  42.16000 10.24200 24.76200
C  41.63500 11.52100 25.67300
N  42.91100 9.30000 29.93700
C  43.76200 9.49100 28.90000
C  45.09300 9.94100 29.42900
C  44.74100 10.16400 30.81300
C  43.41400 9.78300 31.01000
C  46.30500 10.45900 28.74900
C  45.31500 10.57800 32.10900
O  46.42200 10.90700 32.45500
C  44.14600 10.45300 33.14700
C  44.53400 9.55000 34.28800
O  44.86300 8.38400 34.21200
O  44.85300 10.30900 35.41300
C  45.82300 9.81200 36.39300
H  38.04900 7.09600 32.97000
H  38.35500 7.61800 26.54600
H  44.20700 9.57400 26.82700
H  42.09800 8.69000 34.96300
H  39.25800 8.83400 34.73500
H  41.32600 6.60800 35.01100
H  39.72300 6.11300 34.44600
H  39.93100 7.03900 35.94400
H  39.94700 10.85600 35.13900
H  41.48800 11.45500 34.43700
H  42.68500 10.92100 36.63500
H  41.46600 9.82900 36.96800
H  35.74200 4.90300 30.92000
H  35.58400 6.48100 31.71400
H  36.75000 5.39400 32.27800
H  34.57800 6.24700 29.37100
H  35.23900 4.60600 28.83100
H  34.26400 5.39300 27.76700
H  39.77700 9.31000 25.39200
H  42.59900 8.13100 25.09700
H  40.98400 6.70100 24.09300
H  39.65800 7.77100 23.52900
H  39.28500 6.62600 24.74900
H  41.51800 10.23300 23.88100
H  43.23400 10.36700 24.61900
H  41.97600 11.68900 26.69500
H  40.54900 11.42600 25.66800
H  41.88600 12.38700 25.06100
H  46.55300 9.71800 27.99000
H  47.14200 10.53600 29.44400
H  46.08800 11.45100 28.35200
H  43.97700 11.43800 33.58100
H  45.42100 9.01100 37.01300
H  46.24100 10.61400 37.00100
H  46.65200 9.50000 35.75800

