158

Mg 16.52500 52.07000 26.31400
C  18.52000 50.60200 28.85400
C  14.24700 52.93700 28.69300
C  14.77000 53.39000 23.82200
C  18.96900 50.98900 24.00400
N  16.44800 51.84200 28.52300
C  17.33600 51.11800 29.34700
C  16.88000 51.31500 30.88500
C  15.42700 51.88900 30.72300
C  15.43700 52.31300 29.23800
C  14.24000 50.87400 31.00600
C  17.81100 52.42700 31.53500
C  18.19600 52.06900 32.95400
H  17.37500 52.65000 34.09200
N  14.73800 52.97400 26.24900
C  13.94200 53.31300 27.36300
C  12.77800 54.06500 26.87000
C  12.93200 54.17200 25.46400
C  14.11800 53.40900 25.14400
C  11.69200 54.52300 27.89600
C  12.07100 54.97200 24.43100
O  12.19000 54.82100 23.22700
C  11.06500 55.86400 24.82900
N  16.76500 52.16300 24.26300
C  16.00100 52.93600 23.45100
C  16.40800 52.82100 21.98500
C  17.78000 52.12600 22.07800
C  17.91600 51.83100 23.52500
C  15.37000 52.23900 20.91200
C  18.95900 52.92600 21.42200
C  18.86800 52.79900 19.83300
N  18.33800 50.91200 26.35600
C  19.23100 50.70400 25.40100
C  20.39100 50.06800 25.88800
C  20.13700 50.00600 27.25400
C  18.90700 50.54400 27.52900
C  21.62400 49.57400 25.16300
C  20.65500 49.49900 28.55800
O  21.65300 48.83400 28.69600
C  19.62000 49.99900 29.68800
C  19.08800 48.91100 30.53600
O  18.38700 47.94500 30.19900
O  19.63300 49.15900 31.72900
C  19.45100 48.08200 32.73300
H  13.44200 53.23600 29.36800
H  14.24800 53.76300 22.93900
H  19.72900 50.76000 23.25400
H  16.93200 50.36000 31.40900
H  15.34100 52.77600 31.35000
H  14.60800 49.86600 31.20000
H  13.58800 50.78000 30.13700
H  13.57200 51.17600 31.81200
H  17.35600 53.40500 31.69100
H  18.64000 52.61800 30.85300
H  19.23000 52.32200 33.18500
H  18.20300 50.98000 32.96400
H  11.63500 53.96900 28.83300
H  10.70100 54.47400 27.44400
H  11.76600 55.57900 28.15700
H  11.54500 56.63600 25.43000
H  10.45000 55.20100 25.43600
H  10.58500 56.30800 23.95700
H  16.57000 53.85300 21.67200
H  17.74600 51.13500 21.62500
H  14.46400 51.97300 21.45700
H  15.82300 51.40900 20.36900
H  15.08100 53.04300 20.23600
H  19.90900 52.49100 21.73100
H  18.84400 53.98400 21.65800
H  18.71200 53.78600 19.39700
H  17.93500 52.24200 19.74300
H  19.67400 52.24900 19.34600
H  21.34100 49.23600 24.16600
H  21.91800 48.76400 25.83100
H  22.30800 50.41700 25.06100
H  20.01100 50.79400 30.32300
H  19.86900 47.11900 32.44000
H  18.44700 47.87600 33.10400
H  20.02000 48.32900 33.63000
Mg -11.01600 15.73400 43.56300
C  -7.58700 16.78400 43.51500
C  -11.77100 19.04500 42.85100
C  -14.07400 14.74800 43.14000
C  -9.85800 12.49300 43.41500
N  -9.84200 17.72700 43.20100
C  -8.44800 17.87000 43.20700
C  -8.08500 19.32200 42.78900
C  -9.42900 20.12200 42.89900
C  -10.40000 18.92700 43.03300
C  -9.59300 21.02400 44.16800
C  -7.48500 19.41500 41.41500
C  -6.18000 20.21200 41.27100
H  -4.97900 19.53500 40.54900
N  -12.74700 16.68200 43.04700
C  -12.85100 18.06200 42.89000
C  -14.24700 18.34100 42.60200
C  -14.95100 17.13000 42.62600
C  -13.93900 16.13400 42.90500
C  -14.75600 19.76700 42.21300
C  -16.49200 16.97000 42.32600
O  -17.09200 17.94300 41.92600
C  -17.21700 15.69300 42.49700
N  -11.82400 13.79900 43.27400
C  -13.17400 13.71100 43.27000
C  -13.63400 12.24100 43.40300
C  -12.25400 11.45300 43.42300
C  -11.22500 12.64000 43.41200
C  -14.49000 11.99300 44.62600
C  -12.03900 10.29600 42.28200
C  -11.93000 8.82800 42.64500
N  -9.15700 14.80600 43.54600
C  -8.90000 13.47200 43.55000
C  -7.49600 13.26400 43.69600
C  -6.94900 14.53700 43.78000
C  -7.98300 15.42100 43.61100
C  -6.81300 11.98200 43.65300
C  -5.73600 15.33400 44.03300
O  -4.59500 15.04400 44.26700
C  -6.21700 16.80700 44.02700
C  -6.15100 17.27700 45.46400
O  -6.32900 16.55500 46.44000
O  -5.69900 18.56500 45.44000
C  -5.20800 18.99400 46.72000
H  -12.09900 20.07900 42.73000
H  -15.06500 14.29200 43.18300
H  -9.42200 11.49200 43.39600
H  -7.34400 19.63000 43.52600
H  -9.70500 20.69600 42.01400
H  -8.61500 21.21300 44.60800
H  -10.35700 20.81400 44.91700
H  -9.99100 21.96400 43.78400
H  -8.19600 19.87000 40.72400
H  -7.35400 18.34600 41.24900
H  -5.88600 20.57400 42.25600
H  -6.50600 21.04100 40.64300
H  -15.37000 19.66500 41.31900
H  -14.00200 20.50300 41.93300
H  -15.25700 20.20300 43.07800
H  -18.29300 15.75500 42.33100
H  -17.07800 15.23300 43.47500
H  -16.94800 14.93900 41.75800
H  -14.25400 12.04100 42.52900
H  -12.04100 10.93500 44.35900
H  -15.48200 11.90200 44.18300
H  -14.44600 12.76400 45.39600
H  -14.26900 11.02800 45.08200
H  -11.32500 10.68000 41.55300
H  -12.98200 10.32200 41.73600
H  -11.30400 8.35200 41.89000
H  -12.89500 8.32500 42.58200
H  -11.60600 8.67000 43.67300
H  -5.73000 12.08400 43.58200
H  -7.16200 11.55800 42.71100
H  -7.03800 11.26900 44.44500
H  -5.55200 17.37700 43.38000
H  -4.64900 18.17900 47.17900
H  -6.00700 19.38200 47.35300
H  -4.41500 19.73100 46.59600

