158

Mg 47.71500 44.00700 42.38500
C  44.35500 43.07200 42.58800
C  48.46200 40.62500 41.84000
C  50.86000 44.92500 41.52300
C  46.66400 47.43200 42.19500
N  46.45400 42.02900 42.19700
C  45.08800 41.89400 42.34900
C  44.70600 40.41000 42.18700
C  46.10600 39.66500 42.18100
C  47.10900 40.82700 42.12200
C  46.22200 38.77800 43.39200
C  43.72200 39.98300 41.12900
C  43.76100 40.61600 39.68100
H  44.13700 39.69500 38.49400
N  49.45100 42.88900 41.79400
C  49.55700 41.51200 41.67300
C  50.89300 41.16700 41.43100
C  51.54300 42.40500 41.20900
C  50.60200 43.51600 41.45600
C  51.30700 39.72600 41.30000
C  52.98500 42.46100 40.88500
O  53.71800 41.47600 40.63900
C  53.76800 43.76800 40.76200
N  48.64900 45.91500 42.06100
C  49.94800 46.01300 41.80100
C  50.35200 47.52800 41.79500
C  48.96600 48.21900 41.45600
C  48.02600 47.16400 42.05100
C  51.06700 48.18600 42.92500
C  48.65500 48.44200 39.86900
C  48.19900 49.84700 39.49200
N  45.95700 45.07300 42.52900
C  45.64700 46.48500 42.43000
C  44.27200 46.67100 42.64200
C  43.74100 45.39500 42.69100
C  44.76800 44.46600 42.62100
C  43.63400 48.03200 42.76600
C  42.50100 44.65900 42.86300
O  41.38700 45.12300 42.96600
C  42.87000 43.12600 42.87900
C  42.50700 42.59600 44.23100
O  42.07500 41.43400 44.44000
O  42.96300 43.42800 45.18900
C  42.95100 42.96300 46.61100
H  48.60300 39.55400 41.67900
H  51.85200 45.15000 41.12600
H  46.44100 48.49400 42.31400
H  44.22300 40.16500 43.13300
H  46.29000 39.04200 41.30500
H  47.14700 38.21500 43.26200
H  45.25300 38.30700 43.55600
H  46.37500 39.44800 44.23800
H  42.70700 40.22300 41.44700
H  43.80600 38.90000 41.04700
H  44.38000 41.51100 39.61700
H  42.75100 40.98100 39.49500
H  51.99400 39.56100 40.47100
H  50.52300 39.02100 41.02300
H  51.75800 39.26700 42.18000
H  53.53300 44.24900 39.81300
H  54.79700 43.41600 40.83300
H  53.66200 44.34700 41.68000
H  51.02000 47.68600 40.94800
H  48.73900 49.09100 42.06900
H  52.09600 48.39800 42.63500
H  50.93700 47.56900 43.81400
H  50.75900 49.22700 43.02900
H  47.78100 47.82900 39.64900
H  49.41600 48.03200 39.20500
H  47.57500 50.42100 40.17800
H  47.48700 49.78100 38.66900
H  49.01300 50.54600 39.30100
H  43.82400 48.49400 41.79800
H  44.07500 48.58400 43.59600
H  42.56500 47.83900 42.84900
H  42.26700 42.54700 42.17800
H  42.51100 42.01300 46.91600
H  42.30100 43.66900 47.12700
H  43.96000 42.94600 47.02400
Mg -11.07400 40.51800 40.92600
C  -10.11700 37.14600 40.13500
C  -8.02800 41.46800 39.95400
C  -12.35000 43.59400 40.93900
C  -14.35700 39.16500 41.42300
N  -9.35100 39.35100 40.07200
C  -9.14700 38.03700 39.84500
C  -7.76400 37.74200 39.26500
C  -7.03200 39.11900 39.48400
C  -8.15400 40.03800 39.95200
C  -5.80600 39.17100 40.47800
C  -7.70700 37.26300 37.81800
C  -7.15200 35.87200 37.55800
H  -6.31500 35.78900 36.24600
N  -10.24100 42.38000 40.59900
C  -8.97500 42.51900 40.15900
C  -8.66400 43.96400 40.17000
C  -9.98600 44.59900 40.33600
C  -10.97100 43.50200 40.66400
C  -7.28000 44.59400 39.83200
C  -10.23400 46.11100 40.18000
O  -9.27500 46.71300 39.78100
C  -11.54300 46.76300 40.23200
N  -12.97900 41.22200 41.21100
C  -13.22500 42.59800 41.34800
C  -14.70800 42.91300 41.65400
C  -15.29000 41.45900 41.83800
C  -14.16900 40.54800 41.36800
C  -14.82000 43.83300 42.92000
C  -16.67700 41.27600 41.04500
C  -17.86600 40.74300 41.87900
N  -12.01400 38.56800 41.00000
C  -13.34500 38.17700 41.22400
C  -13.47600 36.74000 41.21600
C  -12.19300 36.30200 40.79700
C  -11.38100 37.41300 40.67400
C  -14.80900 35.92700 41.48500
C  -11.42400 35.15800 40.49000
O  -11.71200 33.95300 40.53000
C  -10.10600 35.68500 40.00700
C  -9.11400 34.86400 40.96000
O  -8.85700 35.03400 42.14400
O  -8.59400 33.82600 40.19200
C  -7.84600 32.86300 40.95600
H  -6.97400 41.72200 39.82200
H  -12.92200 44.52400 40.92900
H  -15.38300 38.87500 41.65800
H  -7.36100 37.02900 39.98400
H  -6.77100 39.40200 38.46400
H  -5.96000 39.89200 41.28000
H  -4.87300 39.46900 40.00000
H  -5.61700 38.19100 40.91800
H  -7.16200 37.97400 37.19700
H  -8.75000 37.26200 37.50200
H  -7.88300 35.07300 37.43800
H  -6.44000 35.65500 38.35400
H  -7.27700 44.93100 38.79600
H  -6.47800 43.89500 40.06500
H  -7.29300 45.53000 40.39100
H  -12.02500 46.48400 41.17000
H  -12.17300 46.74100 39.34300
H  -11.26200 47.79200 40.45800
H  -14.97400 43.39400 40.71200
H  -15.40000 41.07900 42.85300
H  -15.11200 43.36000 43.85700
H  -15.42900 44.72100 42.75100
H  -13.83100 44.26900 43.06400
H  -16.50500 40.61900 40.19300
H  -16.93900 42.20100 40.53100
H  -17.61200 40.17100 42.77100
H  -18.47700 40.19500 41.16100
H  -18.55000 41.54600 42.15200
H  -14.59600 34.91200 41.81900
H  -15.26800 35.65200 40.53600
H  -15.53800 36.40500 42.13900
H  -10.00500 35.36800 38.96900
H  -8.41900 32.57200 41.83600
H  -6.87800 33.25400 41.27000
H  -7.64500 32.00800 40.31000

