158

Mg 49.23800 46.14900 43.84300
C  46.04300 46.60600 42.55500
C  49.56400 43.26900 41.98800
C  52.47800 46.36800 44.29300
C  48.92300 49.53400 45.21600
N  47.95800 45.06400 42.35700
C  46.71200 45.46000 42.00800
C  46.10800 44.45500 40.98400
C  47.07300 43.29400 41.16000
C  48.30300 43.91900 41.78000
C  46.69400 41.97900 41.91500
C  45.87400 45.09100 39.56200
C  44.50200 44.82700 38.94300
H  44.33500 43.77700 37.82800
N  50.77100 44.95900 43.29300
C  50.69300 43.78000 42.58200
C  51.93800 43.15800 42.55900
C  52.83600 43.98800 43.21400
C  52.02800 45.15100 43.66800
C  52.19600 41.77200 41.97100
C  54.25800 43.76700 43.44200
O  54.78500 42.77300 43.00900
C  55.10700 44.61100 44.24600
N  50.59600 47.88700 44.44700
C  51.91100 47.57900 44.68800
C  52.51600 48.66300 45.55700
C  51.40300 49.75000 45.79800
C  50.24500 49.01400 45.13700
C  53.25600 48.04900 46.74700
C  51.80000 51.13800 45.19400
C  52.89900 51.81500 46.02200
N  47.75000 47.72400 44.01900
C  47.76500 48.95700 44.66100
C  46.46000 49.47100 44.64300
C  45.74500 48.57900 43.81100
C  46.55500 47.59300 43.41700
C  45.91800 50.62500 45.39400
C  44.48600 48.31300 43.11400
O  43.44700 48.95500 43.06200
C  44.64900 47.04200 42.29800
C  43.63100 46.07000 42.80000
O  43.59600 45.45800 43.86200
O  42.68900 45.87400 41.84100
C  41.55500 44.95700 42.08200
H  49.60600 42.34900 41.40100
H  53.52300 46.41700 44.60800
H  48.82600 50.49000 45.73600
H  45.15400 44.05600 41.33000
H  47.44200 43.03900 40.16700
H  46.47100 41.20200 41.18300
H  45.81600 42.21600 42.51500
H  47.45800 41.69100 42.63700
H  46.63900 44.68200 38.90200
H  46.08100 46.15300 39.69800
H  44.23200 45.73100 38.39600
H  43.68400 44.72200 39.65500
H  53.12300 41.79800 41.39800
H  51.35400 41.41800 41.37600
H  52.32200 41.13500 42.84600
H  55.96300 43.99900 44.53000
H  54.62500 44.76600 45.21100
H  55.39700 45.54600 43.76600
H  53.31600 49.11500 44.97100
H  51.16500 49.99300 46.83300
H  52.98600 47.02100 46.99100
H  53.03100 48.62400 47.64500
H  54.31100 48.30200 46.64200
H  50.89100 51.74000 45.16200
H  52.17500 51.05800 44.17400
H  52.55100 52.53000 46.76700
H  53.53400 52.36300 45.32600
H  53.41300 50.92500 46.38300
H  46.53200 50.74300 46.28700
H  44.84400 50.57200 45.56900
H  46.12800 51.48700 44.76000
H  44.28800 47.29900 41.30200
H  40.91000 45.11400 41.21800
H  40.95200 45.24100 42.94500
H  41.87600 43.91700 42.12600
Mg 35.84300 48.01500 25.90300
C  36.03000 46.12200 28.81900
C  34.17600 50.42600 27.60800
C  35.36500 49.59500 22.85800
C  37.38000 45.41900 24.19700
N  35.08700 48.18600 27.91000
C  35.42500 47.36800 28.99400
C  34.98900 48.01800 30.34000
C  34.29600 49.29100 29.96000
C  34.53000 49.28900 28.41100
C  32.76600 49.47400 30.47100
C  36.18300 48.13200 31.31900
C  35.89800 47.87400 32.72800
H  35.92800 49.14600 33.66500
N  34.88500 49.73500 25.29800
C  34.38200 50.69700 26.20500
C  34.09600 51.93100 25.44600
C  34.49600 51.70200 24.09700
C  34.95800 50.28900 23.97900
C  33.49800 53.13300 26.14900
C  34.62300 52.72200 23.00000
O  35.00900 52.47200 21.90400
C  34.37900 54.19000 23.33600
N  36.12300 47.48600 23.77500
C  35.90100 48.29000 22.76400
C  36.50700 47.69500 21.44300
C  37.20600 46.41700 21.87500
C  36.96800 46.48100 23.42400
C  35.57700 47.31200 20.30400
C  38.72800 46.36300 21.48900
C  39.02700 45.79200 20.11000
N  36.59700 46.13200 26.39000
C  37.13200 45.15300 25.57300
C  37.42900 43.94600 26.30300
C  36.99500 44.24900 27.68400
C  36.48100 45.60800 27.61900
C  38.07200 42.67600 25.82800
C  36.94200 43.75200 29.02600
O  37.27500 42.68200 29.50300
C  36.35300 45.01300 29.85400
C  35.19100 44.51000 30.64600
O  34.24800 43.87800 30.11700
O  35.31500 44.75500 32.02300
C  34.16600 44.42100 32.87600
H  33.88700 51.30200 28.19300
H  35.31200 50.09400 21.88800
H  37.95300 44.64600 23.68100
H  34.22500 47.37600 30.77900
H  34.90700 50.08800 30.38200
H  32.78100 50.24200 31.24400
H  32.39100 48.57000 30.95100
H  32.11600 49.83400 29.67300
H  36.63300 49.11500 31.18000
H  37.01200 47.50400 30.99200
H  36.72100 47.23100 33.03800
H  34.93200 47.38500 32.85800
H  33.92100 54.07400 25.79700
H  33.77800 53.25500 27.19500
H  32.41600 53.14500 26.01900
H  33.32900 54.46100 23.44800
H  34.64400 54.74400 22.43600
H  35.08000 54.59200 24.06700
H  37.12300 48.48700 21.01700
H  36.74100 45.48800 21.54400
H  35.50100 48.05400 19.50900
H  34.61200 46.95500 20.66500
H  36.00700 46.50800 19.70600
H  39.34200 45.75000 22.15000
H  39.09100 47.37800 21.65500
H  38.08600 45.49500 19.64800
H  39.75400 44.98100 20.14100
H  39.53700 46.54100 19.50400
H  39.08800 42.62200 26.22000
H  38.13800 42.60500 24.74200
H  37.46900 41.83200 26.16600
H  37.07600 45.35800 30.59300
H  33.95000 45.22300 33.58100
H  34.38000 43.53700 33.47700
H  33.22600 44.32900 32.33200

