158

Mg -2.11900 16.80500 26.99500
C  -2.70200 14.58400 29.59800
C  -2.42200 19.45400 29.16600
C  -2.07600 18.92500 24.34800
C  -2.53900 14.10100 24.73100
N  -2.42800 16.94500 29.13400
C  -2.47400 15.89400 30.08100
C  -2.63500 16.41500 31.51100
C  -2.62200 17.97100 31.23100
C  -2.53500 18.17400 29.71700
C  -3.87700 18.80400 31.76000
C  -1.58300 15.81900 32.54300
C  -1.15400 16.73600 33.73600
H  -1.18700 16.09200 35.18200
N  -1.97700 18.88900 26.79600
C  -2.16100 19.78600 27.80600
C  -2.06100 21.11000 27.29200
C  -1.94500 20.94200 25.86900
C  -2.04200 19.51800 25.60500
C  -2.09500 22.32400 28.25300
C  -1.82200 22.06700 24.84100
O  -2.00100 21.95200 23.60000
C  -1.77400 23.50500 25.34000
N  -2.59000 16.57000 24.79000
C  -2.25500 17.56000 23.97600
C  -2.49700 17.17000 22.48900
C  -2.36200 15.55700 22.62300
C  -2.46200 15.38500 24.15100
C  -3.93500 17.56200 22.03500
C  -1.11300 14.78500 21.99500
C  -1.37800 13.36200 21.41000
N  -2.51900 14.74000 27.09200
C  -2.60200 13.74800 26.09400
C  -2.71300 12.48900 26.66800
C  -2.79400 12.78900 28.02900
C  -2.65000 14.14400 28.24100
C  -2.86500 11.12700 26.08700
C  -2.91100 12.16700 29.30100
O  -3.05100 11.00500 29.63700
C  -2.83100 13.31900 30.38300
C  -1.64400 13.03700 31.22200
O  -0.45500 13.23900 30.93700
O  -2.09000 12.51000 32.41200
C  -1.09100 12.20300 33.40600
H  -2.48700 20.17500 29.98300
H  -1.95400 19.60000 23.49800
H  -2.60700 13.26200 24.03400
H  -3.62000 16.14700 31.89300
H  -1.71500 18.36300 31.69300
H  -4.44300 19.01100 30.85200
H  -3.68900 19.72800 32.30700
H  -4.59100 18.19900 32.31800
H  -0.76500 15.54900 31.87400
H  -2.04600 14.93200 32.97500
H  -1.66700 17.69700 33.69000
H  -0.14100 17.11700 33.61000
H  -3.06100 22.82700 28.21100
H  -1.37300 23.10800 28.02300
H  -2.10400 22.03700 29.30500
H  -1.63800 24.09900 24.43600
H  -0.79500 23.55200 25.81600
H  -2.59900 23.76700 26.00200
H  -1.78400 17.64400 21.81400
H  -3.25100 15.10200 22.18600
H  -4.60500 17.82600 22.85300
H  -4.39900 16.78600 21.42600
H  -3.79100 18.48700 21.47700
H  -0.28300 14.76600 22.70100
H  -0.73200 15.37300 21.16000
H  -0.91600 13.24900 20.43000
H  -2.44700 13.20500 21.26200
H  -0.96200 12.57300 22.03600
H  -3.88000 11.04100 25.69800
H  -2.57900 10.30200 26.73900
H  -2.26700 10.91400 25.20100
H  -3.71800 13.36300 31.01500
H  -1.44100 11.24600 33.79400
H  -1.23100 12.89500 34.23700
H  -0.04800 12.16700 33.09200
Mg 2.35700 -2.03500 45.04700
C  5.69100 -1.05500 44.45100
C  1.32300 0.53800 43.03300
C  -0.68700 -3.30600 45.37300
C  3.70200 -4.97200 46.63100
N  3.41000 -0.52900 43.67800
C  4.77200 -0.24600 43.73600
C  5.10900 0.94000 42.79900
C  3.68400 1.53100 42.51200
C  2.74600 0.45500 43.13700
C  3.35600 2.98500 43.05100
C  5.96400 0.47400 41.55600
C  7.25400 1.32100 41.30600
H  7.93100 1.15100 40.00900
N  0.52600 -1.37600 44.33700
C  0.32500 -0.35700 43.51800
C  -1.04400 -0.37700 43.19800
C  -1.73500 -1.37400 43.96400
C  -0.65400 -2.04900 44.63500
C  -1.58700 0.66300 42.19600
C  -3.17900 -1.71400 43.92700
O  -3.83000 -0.98300 43.24900
C  -3.84200 -2.61300 44.86000
N  1.63800 -3.88800 45.89400
C  0.27300 -4.13400 45.92300
C  0.09700 -5.49300 46.66900
C  1.45500 -6.14000 46.75900
C  2.34100 -4.95400 46.42400
C  -0.70900 -5.26100 48.05800
C  1.76100 -7.41200 45.93400
C  2.64500 -8.49600 46.55600
N  4.25500 -2.87600 45.54000
C  4.61100 -4.08300 46.14000
C  6.07700 -4.10400 46.33700
C  6.52000 -2.90800 45.67500
C  5.42300 -2.22800 45.15800
C  6.92800 -5.17400 46.95200
C  7.69400 -2.23900 45.19600
O  8.89400 -2.50800 45.20900
C  7.16900 -0.93800 44.56000
C  7.51400 0.02000 45.53400
O  7.30200 -0.13400 46.72900
O  7.98600 1.19400 44.90600
C  7.98700 2.43400 45.71300
H  0.82700 1.31200 42.44400
H  -1.71700 -3.64500 45.50300
H  4.00500 -5.83700 47.22500
H  5.58200 1.63600 43.49200
H  3.48200 1.56300 41.44100
H  4.32200 3.38600 43.35900
H  2.63400 2.98400 43.86800
H  2.99400 3.49100 42.15700
H  5.37300 0.31800 40.65400
H  6.33900 -0.51500 41.81800
H  8.00200 1.14300 42.07800
H  6.89800 2.33100 41.50800
H  -1.13800 0.48300 41.21900
H  -1.38600 1.68100 42.53200
H  -2.67400 0.65200 42.11800
H  -3.74200 -3.66400 44.59200
H  -4.89800 -2.35700 44.77700
H  -3.38200 -2.37000 45.81800
H  -0.54200 -6.09400 46.02300
H  1.59400 -6.38000 47.81400
H  -0.97600 -6.12100 48.67100
H  -1.64100 -4.77900 47.76000
H  -0.14700 -4.59700 48.71500
H  2.23100 -7.18300 44.97800
H  0.82200 -7.88500 45.64700
H  3.43100 -8.78000 45.85600
H  2.16100 -9.42800 46.84800
H  3.06100 -8.05500 47.46200
H  7.87800 -4.83700 47.36600
H  7.18400 -5.89600 46.17700
H  6.42700 -5.68400 47.77500
H  7.71300 -0.74500 43.63500
H  9.03300 2.68100 45.89300
H  7.45500 2.29900 46.65500
H  7.45000 3.21400 45.17300

