158

Mg 47.52500 16.15700 28.90600
C  45.67100 15.59400 31.82400
C  49.60100 18.25200 30.74700
C  49.35000 16.80100 26.12300
C  45.13800 14.60300 27.07200
N  47.50700 16.88300 31.05200
C  46.75300 16.46000 32.05700
C  47.33600 16.82000 33.45400
C  48.37100 17.89500 32.99100
C  48.54300 17.60800 31.49400
C  48.15400 19.41100 33.18500
C  47.86900 15.51000 34.18800
C  47.78500 15.53700 35.71400
H  47.39700 16.91100 36.40400
N  49.32200 17.30800 28.50100
C  50.00600 18.05300 29.40500
C  51.19800 18.47800 28.72900
C  51.09800 18.23000 27.35600
C  49.90700 17.45100 27.24800
C  52.28400 19.20300 29.54200
C  52.13100 18.55400 26.14400
O  51.98700 18.22100 24.99500
C  53.44500 19.22600 26.54500
N  47.30400 15.75900 26.93100
C  48.19600 16.08500 26.00100
C  47.65000 15.74400 24.57500
C  46.43400 14.87000 24.94300
C  46.22300 15.17200 26.38200
C  47.27000 16.98000 23.67200
C  46.51800 13.37400 24.48100
C  45.73900 13.09600 23.11600
N  45.79700 15.19000 29.29900
C  44.89000 14.62100 28.47300
C  43.88800 13.97600 29.22500
C  44.18200 14.27300 30.57600
C  45.33300 15.06300 30.59300
C  42.65000 13.13300 28.74700
C  43.68000 14.08600 31.93000
O  42.66500 13.56000 32.37400
C  44.66400 15.02500 32.80500
C  43.96800 16.15800 33.49100
O  43.75200 17.30800 33.13900
O  43.67000 15.70300 34.76300
C  43.23800 16.73000 35.77200
H  50.29200 18.86000 31.33400
H  49.81700 16.80000 25.13600
H  44.48100 13.95600 26.48700
H  46.41900 17.20500 33.89800
H  49.31400 17.69700 33.50100
H  49.00300 19.92200 33.63900
H  47.28400 19.60300 33.81300
H  47.96400 19.84000 32.20100
H  48.86600 15.30200 33.80000
H  47.19000 14.70400 33.91200
H  48.75600 15.19300 36.06800
H  47.01200 14.85500 36.07000
H  52.99600 19.72200 28.90000
H  52.93100 18.47800 30.03700
H  51.89900 19.96200 30.22300
H  53.94700 18.70500 27.36100
H  53.25500 20.25900 26.83700
H  54.05400 19.35100 25.65000
H  48.41700 15.11700 24.12100
H  45.52900 15.28400 24.49800
H  47.55600 17.85200 24.26100
H  46.22100 16.99400 23.37500
H  47.84900 16.87500 22.75500
H  46.25500 12.72800 25.31900
H  47.54700 13.14300 24.20800
H  45.26100 12.14300 23.34200
H  46.39000 12.90800 22.26200
H  44.88600 13.71100 22.82900
H  42.83800 12.72700 27.75300
H  41.69300 13.65400 28.77200
H  42.57700 12.34900 29.50100
H  45.10500 14.49100 33.64600
H  43.54600 16.41200 36.76800
H  42.15300 16.80900 35.83800
H  43.72100 17.69900 35.64500
Mg 25.92200 49.78500 26.16200
C  23.75700 51.14300 28.85500
C  28.05600 48.93800 28.58800
C  27.99600 49.03200 23.70300
C  23.71900 51.24100 23.92900
N  25.83600 50.08200 28.50100
C  24.89000 50.49000 29.38100
C  25.29400 50.19900 30.81700
C  26.70800 49.61900 30.75100
C  26.90400 49.45200 29.15700
C  27.91900 50.29400 31.43100
C  24.24800 49.39800 31.57600
C  23.71100 50.03900 32.90800
H  24.80100 50.45400 33.90900
N  27.75700 48.94000 26.15600
C  28.56200 48.65700 27.27200
C  29.86800 48.18900 26.84700
C  29.82000 48.17000 25.37500
C  28.48400 48.75900 24.99600
C  31.01400 47.78500 27.79800
C  30.93000 47.82400 24.39800
O  30.90100 47.96600 23.16700
C  32.21600 47.13200 25.05000
N  25.89600 50.14700 24.10800
C  26.80400 49.63200 23.26100
C  26.41300 49.77400 21.86300
C  24.96700 50.41900 21.95600
C  24.88800 50.66500 23.45200
C  27.46600 50.69300 21.12200
C  23.88600 49.51400 21.32600
C  22.68200 50.13300 20.63400
N  24.12000 51.01100 26.29500
C  23.39400 51.53300 25.23300
C  22.24800 52.21000 25.79500
C  22.30300 52.02700 27.18100
C  23.50100 51.36100 27.46600
C  21.28900 52.87700 24.88800
C  21.66500 52.31200 28.46500
O  20.57600 52.86000 28.67600
C  22.61600 51.71600 29.61300
C  23.06400 52.76500 30.51000
O  24.03300 53.55300 30.26700
O  22.10700 52.87700 31.55500
C  22.55100 53.92600 32.51500
H  28.75600 48.56800 29.34000
H  28.67000 48.86600 22.86000
H  23.03000 51.59500 23.16000
H  25.36100 51.16500 31.31700
H  26.70100 48.57200 31.05500
H  27.68700 51.30500 31.76800
H  28.77200 50.33400 30.75400
H  28.16300 49.64500 32.27200
H  24.78700 48.53700 31.97300
H  23.52800 48.89200 30.93300
H  23.01700 49.38200 33.43200
H  23.25300 50.97300 32.58000
H  30.62100 47.87500 28.81100
H  31.84400 48.49000 27.78100
H  31.30000 46.73300 27.77700
H  32.02400 46.10200 25.34800
H  32.52000 47.76600 25.88400
H  33.03000 46.99600 24.33800
H  26.46200 48.75600 21.47600
H  24.98400 51.31500 21.33500
H  28.29400 50.87000 21.80700
H  27.09700 51.71500 21.02600
H  27.87100 50.17800 20.25100
H  23.56600 48.80200 22.08600
H  24.42000 48.94300 20.56700
H  21.78500 49.67000 21.04600
H  22.62200 50.16400 19.54600
H  22.69600 51.18100 20.93400
H  20.92400 52.14100 24.17100
H  21.73300 53.68300 24.30400
H  20.44600 53.24000 25.47500
H  22.16600 50.84300 30.08500
H  22.94900 54.81300 32.02300
H  23.23700 53.42800 33.20000
H  21.67400 54.15400 33.12100

