158

Mg 26.22600 0.67700 28.76700
C  28.18300 0.35900 31.71000
C  23.56800 1.24800 30.98100
C  24.28500 0.93500 26.12100
C  29.01600 -0.24400 26.88000
N  25.93100 0.63600 31.05900
C  26.83100 0.60000 32.07900
C  26.29800 0.79900 33.48100
C  24.82000 0.90700 33.15100
C  24.75200 0.98900 31.64800
C  24.05900 -0.38900 33.70800
C  26.99600 2.01100 34.13800
C  26.25600 2.75500 35.25000
H  27.00400 2.93800 36.65100
N  24.22200 1.06100 28.57600
C  23.32200 1.23800 29.59800
C  21.98600 1.45700 29.01900
C  22.24100 1.30300 27.54400
C  23.63100 1.09500 27.37900
C  20.75700 1.74800 29.82300
C  21.15400 1.28500 26.47400
O  21.32400 0.95300 25.32100
C  19.77700 1.63400 26.86000
N  26.62100 0.20900 26.74600
C  25.62200 0.53200 25.75900
C  26.16800 0.28500 24.32500
C  27.65600 -0.19600 24.64300
C  27.81000 0.00300 26.24200
C  25.35600 -0.66700 23.36300
C  28.80600 0.51600 23.87900
C  29.70600 -0.41100 23.03200
N  28.16500 0.18700 29.14800
C  29.18700 -0.19200 28.26600
C  30.37900 -0.51800 29.05400
C  29.97700 -0.22700 30.40600
C  28.64400 0.15500 30.39800
C  31.80800 -0.98200 28.74400
C  30.48400 -0.32400 31.74400
O  31.54500 -0.65300 32.25200
C  29.29700 0.14400 32.64800
C  28.92700 -0.90600 33.55500
O  28.40100 -1.98400 33.25200
O  29.49300 -0.62900 34.76400
C  29.16900 -1.56300 35.87100
H  22.74900 1.43500 31.67900
H  23.72300 1.04000 25.19100
H  29.92000 -0.44000 26.29900
H  26.47800 -0.05300 34.13600
H  24.32800 1.72400 33.67900
H  24.72600 -1.20200 33.99600
H  23.58900 -0.88700 32.86000
H  23.38500 -0.13600 34.52600
H  27.17900 2.76100 33.36800
H  28.00400 1.74800 34.46000
H  25.38900 2.16300 35.54300
H  25.99200 3.76700 34.94400
H  21.00000 1.69100 30.88400
H  20.00500 0.97000 29.69200
H  20.35500 2.75200 29.68900
H  19.07000 1.34600 26.08200
H  19.66000 2.69800 27.06500
H  19.46100 1.02500 27.70700
H  26.33600 1.26300 23.87300
H  27.62700 -1.24000 24.33000
H  25.88900 -1.59500 23.15500
H  25.26000 -0.11400 22.42900
H  24.38700 -0.95600 23.76900
H  29.50200 0.92900 24.60900
H  28.37100 1.26400 23.21700
H  29.26400 -0.72400 22.08600
H  29.89200 -1.37600 23.50400
H  30.67400 0.01200 22.76200
H  32.33100 -0.20200 28.19100
H  31.80600 -1.85500 28.09100
H  32.46800 -1.33400 29.53800
H  29.67000 0.97800 33.24300
H  29.07600 -2.59300 35.52700
H  28.25700 -1.33400 36.42300
H  30.02900 -1.53500 36.53900
Mg 0.54700 44.00100 24.97500
C  2.51800 43.62600 27.94200
C  -2.30300 43.29800 26.92200
C  -1.24100 43.55100 22.22800
C  3.53600 44.01500 23.04400
N  0.26100 43.43000 27.19500
C  1.13400 43.50700 28.21600
C  0.45200 43.43100 29.63200
C  -1.02400 43.12300 29.12200
C  -1.04500 43.22700 27.64500
C  -1.62900 41.84600 29.73300
C  0.55500 44.73100 30.49800
C  1.09200 44.55600 31.96600
H  0.89900 43.19500 32.73000
N  -1.49100 43.84600 24.66000
C  -2.47400 43.53500 25.53800
C  -3.70000 43.55800 24.89100
C  -3.46800 43.72100 23.49900
C  -1.99600 43.64100 23.41400
C  -4.98800 43.44800 25.60300
C  -4.46200 43.77800 22.31800
O  -4.13500 43.92600 21.13100
C  -5.86300 44.02800 22.69500
N  1.09700 43.83500 22.91300
C  0.16300 43.70500 21.93400
C  0.75700 43.36800 20.58300
C  2.20800 43.99600 20.79600
C  2.31300 43.94700 22.38400
C  0.86900 41.87700 20.16500
C  2.51600 45.39200 20.22300
C  3.30000 45.41100 18.88000
N  2.64900 43.83800 25.32600
C  3.73200 43.95600 24.44300
C  4.94700 43.99900 25.25400
C  4.51100 43.91000 26.57600
C  3.11900 43.77100 26.63800
C  6.32000 44.15600 24.63100
C  5.03300 43.78300 27.95200
O  6.17900 43.78500 28.41400
C  3.71300 43.73200 28.90600
C  3.83700 42.48100 29.67400
O  3.62300 41.38200 29.26400
O  4.24700 42.80400 30.97200
C  4.80900 41.66700 31.79800
H  -3.14300 43.42700 27.60800
H  -1.76900 43.28100 21.31200
H  4.48400 44.16700 22.52400
H  0.81600 42.63300 30.27900
H  -1.72300 43.87600 29.48700
H  -1.86900 41.28200 28.83300
H  -2.52600 42.11000 30.29300
H  -0.92100 41.28500 30.34300
H  -0.40300 45.25100 30.48400
H  1.28500 45.35000 29.97600
H  0.81700 45.42000 32.57200
H  2.16000 44.63700 31.76300
H  -4.96200 43.05500 26.62000
H  -5.76700 42.86900 25.10700
H  -5.29000 44.49500 25.58500
H  -6.45300 44.54900 21.94100
H  -5.91900 44.57600 23.63600
H  -6.25200 43.01500 22.79700
H  0.14800 43.87200 19.83200
H  2.97600 43.32300 20.41300
H  1.87400 41.56500 19.88100
H  0.21200 41.83400 19.29600
H  0.58200 41.20000 20.97000
H  3.05400 46.04900 20.90600
H  1.52200 45.76400 19.97300
H  4.00700 44.58200 18.91800
H  3.88900 46.32400 18.79700
H  2.61100 45.40200 18.03500
H  6.63900 45.19300 24.73500
H  6.35000 43.75700 23.61700
H  7.10000 43.66700 25.21400
H  3.63500 44.59800 29.56300
H  4.37000 40.71700 31.49500
H  4.44300 41.88300 32.80200
H  5.89100 41.53000 31.80000

