158

Mg 8.19400 3.02700 27.61200
C  9.45400 1.60100 30.62900
C  6.04200 4.94000 29.49100
C  6.74100 4.15400 24.76700
C  9.91600 0.54500 25.90700
N  7.96200 3.33900 29.85100
C  8.50300 2.64000 30.83100
C  8.07400 3.18900 32.22000
C  6.89000 4.16900 31.87400
C  6.89200 4.12700 30.30400
C  5.50500 3.74100 32.58900
C  9.18100 3.79400 33.09300
C  9.40200 3.06000 34.48100
H  9.84300 3.98000 35.68700
N  6.73500 4.35800 27.21700
C  6.02900 5.13200 28.10700
C  5.29000 6.14200 27.47200
C  5.34400 5.88100 26.06400
C  6.30600 4.77200 25.96500
C  4.50400 7.19100 28.20800
C  4.62000 6.61200 24.85900
O  5.00600 6.35200 23.69500
C  3.68700 7.76900 25.06200
N  8.24000 2.42700 25.56900
C  7.65300 3.00800 24.58300
C  7.88100 2.33600 23.29200
C  8.68400 1.07900 23.65800
C  9.03600 1.33700 25.17200
C  6.51300 2.00700 22.58200
C  9.94300 0.79400 22.78000
C  10.17200 -0.66800 22.46400
N  9.56500 1.42900 28.14900
C  10.19800 0.57900 27.25800
C  10.88500 -0.36300 28.09300
C  10.70100 0.04200 29.40600
C  9.82300 1.08200 29.36200
C  11.44300 -1.64100 27.66200
C  11.00700 -0.23700 30.78200
O  11.71500 -1.07000 31.36200
C  10.15900 0.71500 31.66300
C  9.35000 -0.25000 32.36800
O  8.27800 -0.71300 32.00000
O  9.80500 -0.43100 33.65100
C  8.89000 -1.03700 34.54000
H  5.41700 5.50200 30.18900
H  6.31800 4.47500 23.81300
H  10.34400 -0.30500 25.37200
H  7.60200 2.32300 32.68400
H  7.07400 5.22800 32.05500
H  4.72300 3.42400 31.89900
H  4.93800 4.36600 33.27900
H  5.73400 2.86100 33.19000
H  9.01800 4.86500 33.21100
H  10.08200 3.81400 32.48100
H  10.19700 2.33500 34.30900
H  8.51700 2.49600 34.77700
H  3.44900 6.91500 28.22800
H  4.55700 8.10500 27.61700
H  4.86200 7.35600 29.22400
H  3.42300 8.12800 24.06700
H  4.15600 8.66700 25.46500
H  2.84400 7.66200 25.74600
H  8.39700 2.99100 22.59000
H  8.09500 0.16600 23.57200
H  5.75900 2.19200 23.34700
H  6.40200 0.98700 22.21400
H  6.40800 2.71600 21.76100
H  10.80500 1.24300 23.27300
H  9.75600 1.13300 21.76100
H  11.21900 -0.94300 22.34300
H  9.60900 -1.03200 21.60500
H  9.82400 -1.35100 23.23900
H  10.83800 -2.10100 26.88000
H  11.53200 -2.35600 28.48000
H  12.48900 -1.48600 27.40000
H  10.67200 1.28300 32.43900
H  9.46600 -1.30100 35.42700
H  8.41800 -1.93800 34.14800
H  8.08000 -0.35900 34.80800
Mg 46.03300 17.38100 29.14600
C  43.83700 16.80300 31.94300
C  48.19900 19.04100 31.08200
C  47.56700 18.17400 26.33300
C  43.33800 15.90900 27.15500
N  45.99600 17.88600 31.19200
C  45.03200 17.54700 32.17500
C  45.67900 17.80900 33.53000
C  46.77600 18.84800 33.19100
C  47.01800 18.61000 31.74100
C  46.31700 20.27900 33.61800
C  46.09300 16.50000 34.28700
C  45.54300 16.37200 35.77000
H  45.70400 17.71300 36.45500
N  47.72000 18.31600 28.75600
C  48.58100 18.89300 29.69500
C  49.76900 19.30500 29.05200
C  49.61700 19.19600 27.65000
C  48.29200 18.50900 27.51800
C  50.86600 19.77600 29.84600
C  50.53400 19.49700 26.56100
O  50.41800 19.01400 25.43600
C  51.59700 20.42300 26.78600
N  45.55500 16.98700 27.10300
C  46.30600 17.57000 26.14500
C  45.80700 17.25100 24.70500
C  44.58900 16.34700 25.04200
C  44.45900 16.45200 26.54200
C  45.37100 18.53900 23.87700
C  44.70400 14.83000 24.50000
C  43.72300 14.47700 23.37900
N  44.00300 16.38100 29.45800
C  43.07400 15.79600 28.55100
C  42.00000 15.26100 29.32500
C  42.30100 15.61100 30.67500
C  43.47900 16.31400 30.66100
C  40.75300 14.57400 28.81800
C  41.77100 15.58400 32.06800
O  40.72700 15.10600 32.50200
C  42.86500 16.25800 32.98100
C  42.30800 17.33400 33.71200
O  41.93400 18.41700 33.23200
O  42.16500 16.97700 35.02900
C  41.57600 17.99300 35.92600
H  48.91800 19.56900 31.71300
H  48.06000 18.47000 25.40400
H  42.54200 15.45400 26.56100
H  44.86000 18.22800 34.11400
H  47.68200 18.62500 33.75300
H  46.15400 20.83500 32.69500
H  47.12200 20.77000 34.16500
H  45.36100 20.20100 34.13600
H  47.16600 16.30400 34.27700
H  45.59200 15.72000 33.71300
H  46.25400 15.78700 36.35400
H  44.53000 16.00400 35.93300
H  51.78900 19.29300 29.52600
H  50.73700 19.47700 30.88600
H  50.95000 20.86300 29.86700
H  52.03300 20.79800 25.86000
H  52.36400 19.94900 27.39900
H  51.09500 21.24300 27.29800
H  46.51000 16.69900 24.08200
H  43.70400 16.84400 24.64300
H  45.47100 19.45800 24.45500
H  44.39400 18.59300 23.39700
H  46.09300 18.63400 23.06600
H  44.53900 14.14600 25.33200
H  45.72400 14.72900 24.12900
H  42.98300 13.80900 23.81900
H  44.30900 14.08300 22.54900
H  43.16800 15.36400 23.07000
H  39.88500 14.87500 29.40400
H  40.86300 13.49100 28.87300
H  40.64500 14.75300 27.74800
H  43.21900 15.42300 33.58500
H  42.04900 17.73300 36.87200
H  40.50400 17.88400 36.08800
H  41.69200 19.04700 35.67100

