158

Mg 1.56400 -1.81300 43.83600
C  4.92600 -1.18300 43.23900
C  0.82300 0.95800 41.97100
C  -1.65800 -2.72900 43.76500
C  2.37000 -4.99200 44.97700
N  2.82400 -0.37700 42.60600
C  4.16800 -0.31300 42.55300
C  4.60000 0.89500 41.70300
C  3.24400 1.76300 41.52900
C  2.18300 0.71200 42.03500
C  3.23100 3.19100 42.12800
C  5.28000 0.69200 40.30800
C  6.49400 1.64900 40.05700
H  6.61200 2.29800 38.75600
N  -0.20600 -0.99500 42.91600
C  -0.29300 0.18400 42.31400
C  -1.64500 0.47800 41.93500
C  -2.45500 -0.51500 42.55200
C  -1.45600 -1.43600 43.17200
C  -2.28300 1.74100 41.24800
C  -3.97800 -0.62100 42.41600
O  -4.71000 0.17700 41.78200
C  -4.70700 -1.78600 43.06300
N  0.48100 -3.69500 44.11200
C  -0.81900 -3.67600 44.28200
C  -1.31300 -5.02600 44.83200
C  -0.03700 -5.61800 45.45800
C  1.04400 -4.76000 44.76300
C  -2.52900 -5.10600 45.79600
C  0.08400 -7.06600 44.98600
C  0.75800 -8.02700 46.08000
N  3.24800 -2.88200 44.18800
C  3.49100 -4.12200 44.69600
C  4.86600 -4.32900 44.96100
C  5.45600 -3.19800 44.47100
C  4.44100 -2.36100 43.86500
C  5.44800 -5.50000 45.64400
C  6.70400 -2.46200 44.41000
O  7.86500 -2.66900 44.87300
C  6.40400 -1.13900 43.59000
C  6.78000 0.08100 44.38100
O  6.34900 0.47100 45.48500
O  7.73600 0.76000 43.65600
C  8.19900 2.05300 44.22700
H  0.48200 1.89400 41.52500
H  -2.70000 -3.00700 43.59000
H  2.75100 -5.83100 45.56300
H  5.21700 1.37200 42.46300
H  3.04400 1.89900 40.46600
H  3.07500 3.95300 41.36500
H  4.23900 3.22500 42.54200
H  2.51400 3.22400 42.94800
H  4.63900 0.84300 39.43900
H  5.61200 -0.34600 40.32200
H  7.37100 1.01500 40.18100
H  6.63600 2.35300 40.87700
H  -2.90300 2.33900 41.91700
H  -2.77900 1.39300 40.34200
H  -1.50000 2.38000 40.84100
H  -4.54900 -2.64000 42.40400
H  -5.78400 -1.61400 43.07500
H  -4.31200 -1.93500 44.06800
H  -1.63600 -5.49800 43.90400
H  0.06400 -5.60100 46.54300
H  -3.21900 -4.26800 45.69800
H  -2.17900 -5.10700 46.82800
H  -3.02700 -6.06300 45.64000
H  0.66700 -6.95600 44.07200
H  -0.89200 -7.51500 44.80400
H  1.18700 -7.41900 46.87600
H  1.56900 -8.53300 45.55700
H  0.00500 -8.71600 46.46300
H  4.91000 -5.45600 46.59100
H  6.42800 -5.23500 46.04100
H  5.28100 -6.37400 45.01400
H  7.01300 -0.96700 42.70200
H  7.35300 2.73900 44.27000
H  8.93400 2.48600 43.54700
H  8.62900 1.94600 45.22300
Mg 0.02700 7.99000 26.73800
C  0.84600 9.79600 29.64900
C  -0.22900 5.18900 28.70000
C  -0.11900 6.12900 23.80100
C  0.59200 10.80600 24.93500
N  0.40300 7.52400 28.95400
C  0.44800 8.43300 29.93900
C  0.15400 7.87500 31.32000
C  0.19900 6.33500 31.04300
C  0.18400 6.29800 29.46800
C  1.42600 5.65300 31.72500
C  -1.22500 8.44800 31.79100
C  -1.29200 9.06700 33.15100
H  -0.23200 8.84500 34.23000
N  -0.25700 5.93500 26.31300
C  -0.27300 4.94100 27.23900
C  -0.59800 3.62600 26.62400
C  -0.50800 3.85300 25.18400
C  -0.28500 5.37600 25.02900
C  -0.93100 2.37900 27.36600
C  -0.47600 2.89600 23.94900
O  -0.28200 3.22800 22.81000
C  -0.77700 1.35600 24.12100
N  0.49200 8.38300 24.62300
C  0.13300 7.48800 23.59200
C  0.10800 8.18200 22.23000
C  0.23400 9.74600 22.70000
C  0.41900 9.67000 24.20500
C  1.23200 7.68200 21.28200
C  -1.03200 10.61000 22.25800
C  -0.66800 11.75100 21.31600
N  0.59900 9.94700 27.12700
C  0.83000 10.99700 26.28300
C  1.23600 12.16000 27.02900
C  1.26500 11.75800 28.38000
C  0.93000 10.40100 28.36700
C  1.45200 13.52800 26.53500
C  1.61400 12.12900 29.71400
O  2.20200 13.10800 30.06300
C  1.24600 10.88200 30.61700
C  2.35700 10.45100 31.50600
O  3.11600 9.51200 31.40700
O  2.43100 11.35000 32.48700
C  3.69200 11.31300 33.19200
H  -0.24900 4.26900 29.28800
H  -0.19900 5.62800 22.83400
H  0.60900 11.74000 24.36900
H  0.92800 8.16400 32.03100
H  -0.74200 5.93700 31.42200
H  2.37800 5.86700 31.23900
H  1.20300 4.58900 31.65000
H  1.50000 5.94900 32.77200
H  -1.99100 7.67300 31.82700
H  -1.54100 9.17700 31.04500
H  -2.27800 8.76700 33.50700
H  -1.35600 10.13500 32.94200
H  -0.03700 1.81200 27.62600
H  -1.57000 1.84700 26.66100
H  -1.52200 2.55800 28.26400
H  -0.88200 0.90000 23.13700
H  -1.62000 1.08600 24.75700
H  0.12700 1.05500 24.65200
H  -0.82000 7.90100 21.73200
H  1.14600 10.21400 22.32800
H  1.93900 7.07800 21.85000
H  1.88100 8.42800 20.82500
H  0.82600 7.15600 20.41800
H  -1.43200 10.99700 23.19500
H  -1.79100 10.05400 21.70800
H  -1.50300 11.91800 20.63500
H  0.30900 11.73700 20.83300
H  -0.71800 12.67100 21.89700
H  2.53000 13.67100 26.46100
H  1.06100 14.27200 27.22800
H  0.92100 13.65800 25.59200
H  0.39700 11.14800 31.24600
H  4.46400 11.15400 32.43900
H  3.88500 10.48400 33.87300
H  3.90600 12.30400 33.59200

