158

Mg 16.80700 52.17200 26.14600
C  18.84900 50.74300 28.56600
C  14.56100 52.81200 28.69700
C  14.78300 53.39300 23.81400
C  18.89000 50.91700 23.65200
N  16.70800 51.73900 28.31000
C  17.75200 51.34600 29.09900
C  17.41800 51.41600 30.56100
C  15.87200 51.66600 30.55000
C  15.69800 52.10100 29.12700
C  14.99000 50.47800 30.98800
C  18.29000 52.49700 31.25800
C  18.49400 52.50200 32.80000
H  17.57600 51.56900 33.63800
N  14.96400 52.93700 26.27500
C  14.22200 53.28200 27.35200
C  13.10400 53.99900 27.01100
C  13.03700 54.11700 25.59900
C  14.28300 53.44700 25.14200
C  12.11100 54.57100 28.13300
C  12.01200 54.78200 24.62900
O  12.12100 54.89000 23.41600
C  10.85900 55.64000 25.25200
N  16.76400 52.05300 23.99800
C  15.87800 52.72700 23.25400
C  16.29000 52.84300 21.79100
C  17.62100 52.11100 21.74200
C  17.84700 51.65800 23.23100
C  15.22700 52.41200 20.71600
C  18.85900 53.00700 21.35400
C  20.01000 52.20200 20.78200
N  18.62400 51.13900 26.08600
C  19.24900 50.59700 24.98800
C  20.47300 49.96700 25.46700
C  20.32000 49.92400 26.89800
C  19.18100 50.66800 27.20000
C  21.55800 49.25200 24.66100
C  20.97500 49.41200 28.11900
O  22.01000 48.75900 28.24600
C  19.97400 49.95300 29.28700
C  19.69000 48.79700 30.18000
O  18.90800 47.92500 29.81800
O  20.22900 48.91500 31.45400
C  19.83100 47.92900 32.44900
H  13.80300 52.94700 29.47100
H  14.23900 53.87000 22.99600
H  19.54200 50.51700 22.87200
H  17.51700 50.43500 31.02600
H  15.69500 52.48900 31.24300
H  15.53500 49.60600 31.34800
H  14.30000 50.31100 30.16100
H  14.44100 50.77500 31.88100
H  17.80900 53.46300 31.10900
H  19.29600 52.53700 30.83900
H  18.30800 53.50200 33.19200
H  19.52200 52.18300 32.97600
H  11.12400 54.11200 28.19600
H  11.87200 55.57900 27.79700
H  12.39500 54.74800 29.17100
H  10.08600 55.80100 24.50200
H  11.28700 56.62800 25.42300
H  10.36100 55.18600 26.10900
H  16.30900 53.90800 21.56100
H  17.41800 51.27300 21.07500
H  14.73800 53.24100 20.20400
H  14.47800 51.83900 21.26200
H  15.61800 51.67100 20.01800
H  19.27300 53.48400 22.24200
H  18.48700 53.67400 20.57600
H  19.84400 51.13600 20.63000
H  20.97100 52.40800 21.25300
H  20.15900 52.58800 19.77300
H  22.32900 49.97300 24.38900
H  21.26300 48.76000 23.73500
H  21.94000 48.50100 25.35300
H  20.59000 50.59300 29.91800
H  18.76100 48.00800 32.64300
H  20.43000 48.06700 33.34900
H  20.14800 46.94500 32.10400
Mg 9.97900 47.62400 25.97000
C  8.23900 47.90500 28.96900
C  12.65500 49.17600 27.56200
C  11.71000 47.58000 23.09500
C  7.06800 46.63600 24.40600
N  10.25400 48.59900 28.00400
C  9.48600 48.45500 29.07400
C  10.12500 48.98400 30.41800
C  11.37600 49.74700 29.82200
C  11.45700 49.12700 28.38400
C  11.11600 51.27900 29.79100
C  10.57700 47.84100 31.40600
C  9.96500 47.87200 32.82200
H  10.19100 46.62000 33.76000
N  11.90900 48.18100 25.44700
C  12.86100 48.76800 26.25700
C  14.12800 48.83600 25.56700
C  13.94900 48.37700 24.23100
C  12.44700 48.01200 24.21700
C  15.28400 49.50900 26.25500
C  14.90900 48.13500 23.14100
O  14.69900 47.58800 22.04400
C  16.27500 48.61100 23.36100
N  9.42300 47.39400 24.05000
C  10.37200 47.28500 22.95300
C  9.69400 46.85200 21.69000
C  8.40700 46.33500 22.22100
C  8.23200 46.87300 23.63800
C  9.53700 47.82700 20.43400
C  8.21900 44.81400 21.96200
C  9.18600 44.08400 22.90600
N  8.00100 47.50700 26.44900
C  6.93700 46.99300 25.78800
C  5.73800 46.98800 26.61700
C  6.28400 47.26400 27.87800
C  7.64500 47.58700 27.77000
C  4.37700 46.62700 26.22400
C  5.90800 47.29700 29.28200
O  4.82000 47.11800 29.77000
C  7.17700 47.67300 30.06500
C  7.45400 46.41500 30.83800
O  8.03800 45.41500 30.41600
O  6.93400 46.43200 32.17500
C  7.11500 45.17800 32.95200
H  13.47200 49.49900 28.21000
H  12.34800 47.69000 22.21500
H  6.29400 46.07400 23.87800
H  9.45600 49.68000 30.92300
H  12.19600 49.54500 30.51100
H  11.89200 51.79800 30.35400
H  10.19000 51.50100 30.32200
H  11.13600 51.55100 28.73600
H  11.65700 47.82800 31.55100
H  10.22100 46.89400 31.00200
H  8.90100 48.07600 32.70100
H  10.31900 48.81900 33.22800
H  15.90900 49.92300 25.46300
H  15.77600 48.96900 27.06400
H  15.10500 50.43600 26.79900
H  16.69500 48.15400 24.25600
H  16.25900 49.69800 23.29000
H  17.02200 48.33500 22.61700
H  10.31400 46.00600 21.39500
H  7.58000 46.71500 21.62200
H  9.95300 48.78300 20.75000
H  8.49400 47.88700 20.12300
H  10.11600 47.41400 19.60800
H  8.36200 44.59400 20.90400
H  7.19300 44.58100 22.24600
H  8.62400 43.73100 23.77000
H  10.03700 44.62500 23.31800
H  9.46500 43.19000 22.34800
H  3.97800 47.44900 25.63000
H  3.75700 46.40600 27.09300
H  4.34500 45.79900 25.51700
H  7.00200 48.45200 30.80700
H  7.51400 45.36300 33.95000
H  7.78400 44.47900 32.45100
H  6.18300 44.63400 33.10300

