158

Mg 2.34700 -1.46900 43.29700
C  5.63700 -0.51000 43.11800
C  1.54600 1.51200 41.71800
C  -0.86500 -2.63200 42.65500
C  3.29900 -4.46700 44.80000
N  3.49800 0.24900 42.36900
C  4.80400 0.50400 42.58300
C  5.18500 1.83000 41.99700
C  3.78100 2.57500 41.90200
C  2.89200 1.39300 42.02300
C  3.61300 3.86600 42.77500
C  6.22300 1.83800 40.77300
C  5.97400 0.71900 39.82300
H  5.15600 1.19300 38.56800
N  0.60200 -0.71700 42.24700
C  0.53900 0.57000 41.78600
C  -0.76600 0.80400 41.22100
C  -1.51200 -0.44200 41.46800
C  -0.58400 -1.34700 42.17100
C  -1.21500 2.03300 40.52900
C  -2.82100 -0.64200 40.78800
O  -3.29100 0.21200 40.03200
C  -3.57300 -1.96000 41.03900
N  1.42600 -3.31200 43.51700
C  0.05900 -3.50400 43.32000
C  -0.41100 -4.87400 43.87200
C  0.91200 -5.37500 44.60300
C  2.00700 -4.39300 44.25000
C  -1.60900 -4.88300 44.85800
C  1.24700 -6.84900 44.18900
C  1.24200 -7.77500 45.38800
N  4.02100 -2.42800 43.80600
C  4.32700 -3.64600 44.38900
C  5.72900 -3.83300 44.61600
C  6.34300 -2.58800 44.12900
C  5.21600 -1.81300 43.60600
C  6.31400 -4.96200 45.45300
C  7.57400 -1.83500 44.04300
O  8.71900 -2.14000 44.33400
C  7.18100 -0.55000 43.31200
C  7.60400 0.55900 44.28600
O  7.22100 0.64400 45.46700
O  8.45600 1.50300 43.68400
C  8.79000 2.61200 44.50400
H  1.31500 2.54000 41.43000
H  -1.85200 -3.07000 42.49300
H  3.50200 -5.39500 45.33800
H  5.84000 2.32600 42.71400
H  3.64700 2.83100 40.85100
H  3.45500 3.68100 43.83800
H  2.66300 4.29300 42.45400
H  4.43800 4.54900 42.57300
H  7.22700 1.94700 41.18300
H  6.16100 2.75200 40.18200
H  5.22900 0.00800 40.18000
H  6.90400 0.18700 39.62300
H  -2.15800 2.35100 40.97300
H  -1.45200 1.80700 39.48900
H  -0.52500 2.86600 40.66200
H  -3.16600 -2.77800 40.44600
H  -4.58600 -1.76800 40.68500
H  -3.62600 -2.16700 42.10800
H  -0.68900 -5.36100 42.93800
H  0.84500 -5.35500 45.69100
H  -1.43900 -5.40700 45.79900
H  -2.44700 -5.36000 44.35000
H  -1.84200 -3.85200 45.12600
H  2.19000 -6.82200 43.64400
H  0.50100 -7.22800 43.49000
H  0.85300 -8.78600 45.26700
H  0.62500 -7.46000 46.22900
H  2.16800 -7.83200 45.95900
H  7.27800 -4.57600 45.78600
H  6.52600 -5.81900 44.81400
H  5.63400 -5.29800 46.23600
H  7.64800 -0.25100 42.37400
H  8.00100 2.86800 45.21000
H  8.87400 3.29300 43.65700
H  9.73700 2.44100 45.01700
Mg 0.59100 41.99900 25.87000
C  3.17700 41.78400 28.38700
C  -1.56100 40.95600 28.27400
C  -1.66900 41.64700 23.48500
C  3.16200 42.21000 23.53500
N  0.80400 41.63600 28.15200
C  1.90100 41.64300 28.91900
C  1.59400 41.52400 30.40300
C  0.14900 40.92700 30.30600
C  -0.31700 41.24300 28.82900
C  0.14300 39.38200 30.54200
C  1.74700 42.92300 31.07500
C  1.82500 42.91200 32.63900
H  1.21800 41.70900 33.35900
N  -1.32800 41.55900 25.90300
C  -2.06100 41.14700 26.96300
C  -3.46400 41.19100 26.59600
C  -3.49000 41.44400 25.15300
C  -2.10600 41.51800 24.83000
C  -4.66700 40.94700 27.58100
C  -4.69500 41.58400 24.28100
O  -4.62300 41.79300 23.09800
C  -6.12000 41.55400 24.89400
N  0.73200 42.01000 23.81900
C  -0.36500 41.96700 22.99500
C  -0.02100 42.28000 21.58700
C  1.43800 42.82500 21.70200
C  1.81700 42.36700 23.11000
C  -0.13900 41.08700 20.56700
C  1.67700 44.38700 21.51100
C  1.74100 45.35500 22.72800
N  2.78800 42.02800 25.87000
C  3.66900 42.04700 24.85000
C  5.05200 41.88400 25.35600
C  4.91200 41.81700 26.80700
C  3.47700 41.77600 27.01900
C  6.24300 41.72000 24.50000
C  5.59200 41.74500 28.03500
O  6.78500 41.61000 28.20600
C  4.50000 41.80400 29.13800
C  4.59600 40.71900 30.20600
O  4.28800 39.54400 30.09700
O  5.03100 41.27100 31.38800
C  4.79900 40.40400 32.55900
H  -2.31900 40.59900 28.97400
H  -2.42400 41.67800 22.69700
H  3.96400 42.41100 22.82200
H  2.20300 40.80000 30.94400
H  -0.62200 41.30100 30.98000
H  1.13900 39.04800 30.83300
H  -0.05500 38.97000 29.55200
H  -0.61400 39.08800 31.26900
H  0.90000 43.51800 30.73600
H  2.65100 43.39100 30.68600
H  1.29900 43.80100 32.98700
H  2.87500 42.92200 32.92800
H  -5.25400 41.82300 27.86100
H  -4.26900 40.65500 28.55300
H  -5.30300 40.19900 27.10800
H  -6.36800 40.51500 25.11200
H  -6.84900 41.84000 24.13600
H  -6.25500 42.12100 25.81500
H  -0.71200 43.04600 21.23300
H  2.04200 42.27400 20.98100
H  0.54900 40.25100 20.69400
H  -0.10000 41.44200 19.53700
H  -1.14100 40.68600 20.72000
H  0.89900 44.75600 20.84300
H  2.60700 44.40300 20.94300
H  1.73800 44.90100 23.71900
H  0.77500 45.86000 22.72400
H  2.46100 46.15200 22.54400
H  6.55900 42.72300 24.21400
H  6.00000 41.05300 23.67300
H  7.07000 41.28300 25.06000
H  4.62100 42.80100 29.56300
H  5.04400 40.83700 33.52900
H  5.49500 39.56500 32.58900
H  3.78300 40.01100 32.60700

