158

Mg 23.79700 -5.40300 45.48600
C  25.66100 -2.79900 44.05700
C  21.13000 -4.35800 43.42500
C  22.38000 -8.50500 45.90500
C  26.75100 -6.57700 46.92100
N  23.47800 -3.82000 43.88500
C  24.42800 -2.91000 43.51400
C  23.92000 -2.04300 42.33100
C  22.36800 -2.26800 42.42900
C  22.26300 -3.55700 43.25700
C  21.64900 -1.04000 43.16400
C  24.57400 -2.44200 40.99700
C  25.00700 -1.38100 40.00900
H  24.68800 -1.65800 38.47600
N  22.06800 -6.30200 44.87600
C  21.07500 -5.61800 44.06500
C  19.90300 -6.49900 44.09100
C  20.21100 -7.66300 44.80700
C  21.58700 -7.53600 45.29100
C  18.57600 -6.13100 43.40200
C  19.23500 -8.80800 45.10200
O  18.12200 -8.82300 44.58900
C  19.47800 -9.97100 45.96400
N  24.41700 -7.21800 46.43800
C  23.65400 -8.38000 46.46800
C  24.45800 -9.52500 47.17300
C  25.69700 -8.81900 47.74500
C  25.62900 -7.39700 47.00700
C  23.65600 -10.20300 48.31700
C  26.97700 -9.66300 47.63500
C  27.98200 -9.41500 48.83600
N  25.78800 -4.78300 45.62500
C  26.88900 -5.35100 46.25200
C  28.00300 -4.49200 46.24200
C  27.59500 -3.40300 45.37100
C  26.20200 -3.65100 45.06100
C  29.37300 -4.64300 46.95700
C  28.04400 -2.15400 44.69600
O  29.13300 -1.64800 44.54600
C  26.77000 -1.79400 43.77600
C  26.39600 -0.44100 44.16400
O  26.04800 -0.09100 45.26500
O  26.57600 0.43200 43.07200
C  26.79700 1.88200 43.38000
H  20.23900 -3.94400 42.94700
H  21.82100 -9.44200 45.93500
H  27.67100 -6.94600 47.38000
H  24.10700 -1.00500 42.60700
H  21.84900 -2.40300 41.48000
H  22.10400 -0.84800 44.13600
H  20.58800 -1.23700 43.31600
H  21.76400 -0.25600 42.41600
H  23.86700 -3.04800 40.43000
H  25.41500 -3.07100 41.29000
H  26.08500 -1.31200 40.15600
H  24.61700 -0.42400 40.35700
H  18.13700 -6.96800 42.85800
H  18.72700 -5.40100 42.60700
H  17.81800 -5.71300 44.06500
H  18.51800 -10.48600 45.97900
H  19.81300 -9.69200 46.96300
H  20.22800 -10.55500 45.43000
H  24.72400 -10.17100 46.33700
H  25.65300 -8.51900 48.79200
H  23.90100 -9.65300 49.22500
H  23.81500 -11.28200 48.33100
H  22.59500 -10.04100 48.12800
H  27.51800 -9.43400 46.71700
H  26.82200 -10.74200 47.66800
H  27.62700 -10.10800 49.59800
H  28.18500 -8.40400 49.19100
H  28.93400 -9.80300 48.47500
H  29.26700 -5.50900 47.61100
H  29.82100 -3.84400 47.54800
H  29.95000 -4.96600 46.09000
H  27.06000 -1.87200 42.72900
H  26.85500 2.27500 44.39600
H  25.98500 2.44300 42.91800
H  27.77900 2.19200 43.02200
Mg 53.63100 24.93100 45.03700
C  51.19800 27.28500 44.01200
C  51.60400 22.36600 43.97000
C  56.32900 22.78800 44.76400
C  55.82300 27.57900 45.57300
N  51.65100 24.87700 43.90500
C  50.79800 25.95500 43.76500
C  49.37900 25.44400 43.39300
C  49.42000 23.91200 43.77700
C  50.94500 23.63300 43.95800
C  48.63400 23.41000 45.02900
C  49.10100 25.70900 41.83800
C  47.62700 25.66900 41.38800
H  47.23800 25.39700 39.92600
N  53.95600 22.91000 44.38800
C  52.93400 22.03600 44.02900
C  53.45200 20.69100 43.84800
C  54.85300 20.74100 44.19500
C  55.11100 22.15600 44.42900
C  52.63600 19.55700 43.45200
C  55.77500 19.56700 44.03700
O  55.30400 18.42300 43.96400
C  57.20700 19.77300 43.87000
N  55.73000 25.20700 44.87500
C  56.62600 24.13100 45.03000
C  58.03000 24.53900 45.28000
C  57.91700 26.11100 45.29800
C  56.35200 26.34900 45.28000
C  58.69400 23.88200 46.61000
C  58.64400 26.90300 44.15100
C  60.11600 27.35900 44.56600
N  53.50500 27.00300 45.19100
C  54.44100 27.92600 45.46500
C  53.80200 29.23500 45.45900
C  52.54500 29.01300 44.82200
C  52.42600 27.65300 44.63000
C  54.49400 30.46400 45.78600
C  51.37000 29.71900 44.26200
O  51.02900 30.88900 44.12000
C  50.47600 28.61200 43.68300
C  50.24800 28.89700 42.23900
O  51.01900 28.78100 41.33800
O  48.91200 29.30600 42.05000
C  48.31700 29.57900 40.73300
H  50.99000 21.48500 43.77100
H  57.15100 22.08000 44.89100
H  56.54700 28.38900 45.68400
H  48.61300 25.95100 43.98000
H  49.06500 23.33800 42.92100
H  48.00100 24.17400 45.48100
H  49.34700 22.91700 45.69000
H  47.93200 22.62800 44.74000
H  49.59100 24.91700 41.27100
H  49.59500 26.56500 41.37900
H  47.15300 26.63200 41.57800
H  47.17300 24.97700 42.09800
H  53.19900 18.75000 42.98300
H  51.81700 19.76900 42.76500
H  52.16500 19.19200 44.36400
H  57.57600 18.81200 43.50900
H  57.73100 20.05100 44.78400
H  57.30400 20.47600 43.04200
H  58.69300 24.22900 44.47200
H  58.20200 26.57500 46.24200
H  59.78000 23.79800 46.59800
H  58.25700 22.90700 46.82700
H  58.50500 24.52100 47.47300
H  58.20100 27.78400 43.68500
H  58.68100 26.18800 43.33000
H  60.27100 27.15500 45.62500
H  60.24000 28.43200 44.41900
H  60.91700 26.81200 44.06800
H  54.62100 30.66700 46.84900
H  53.89300 31.25400 45.33500
H  55.50000 30.56500 45.37900
H  49.56300 28.68700 44.27300
H  48.95100 29.45700 39.85500
H  47.97000 30.60700 40.62500
H  47.50700 28.90000 40.46900

