158

Mg 17.41600 -2.36300 27.57900
C  16.38100 -0.58800 30.28400
C  19.55700 -4.03900 29.79000
C  18.64700 -3.96800 24.93400
C  15.59100 -0.23500 25.48300
N  17.94800 -2.17200 29.79800
C  17.34700 -1.46700 30.67600
C  17.65500 -1.80600 32.16500
C  18.93100 -2.72600 31.92700
C  18.84600 -2.98500 30.39100
C  20.27300 -2.19800 32.56000
C  16.49700 -2.47900 32.98200
C  16.32000 -1.92800 34.46900
H  17.62700 -1.49900 35.19800
N  18.93500 -3.78400 27.36600
C  19.62700 -4.36600 28.43400
C  20.36000 -5.49000 27.88500
C  20.10600 -5.50900 26.45200
C  19.15300 -4.44300 26.19500
C  21.30200 -6.43100 28.73800
C  20.71700 -6.43200 25.42300
O  20.37400 -6.35000 24.24400
C  21.78400 -7.37000 25.73100
N  17.20200 -2.10300 25.49300
C  17.75100 -2.94000 24.61800
C  17.40900 -2.55000 23.18500
C  16.21700 -1.49100 23.38100
C  16.32500 -1.22800 24.88800
C  18.64700 -2.05700 22.47100
C  14.74100 -1.95500 23.07500
C  13.78300 -0.89800 22.45100
N  16.25100 -0.77500 27.76200
C  15.54100 -0.02700 26.86400
C  14.76500 0.92800 27.55600
C  15.10000 0.74700 28.87800
C  16.01700 -0.28300 28.98600
C  13.89900 2.00700 26.95700
C  14.73000 1.29400 30.23100
O  14.00800 2.19100 30.58700
C  15.58900 0.44200 31.17300
C  16.34800 1.40900 32.03100
O  17.39200 1.96200 31.76100
O  15.65700 1.65100 33.12700
C  16.01900 2.89400 33.88300
H  20.08700 -4.66400 30.51200
H  18.97000 -4.44500 24.00700
H  14.92000 0.41500 24.91800
H  17.90800 -0.88700 32.69400
H  18.68200 -3.72500 32.28700
H  20.18900 -1.19500 32.97800
H  21.03100 -2.07600 31.78600
H  20.62200 -2.92000 33.29800
H  16.50600 -3.56800 32.96500
H  15.61500 -2.09300 32.47100
H  15.69400 -2.72100 34.87900
H  15.70500 -1.03100 34.40200
H  21.63300 -6.09300 29.72000
H  22.25800 -6.61200 28.24700
H  20.84100 -7.41900 28.76500
H  21.91200 -8.01900 24.86400
H  21.46800 -7.99700 26.56400
H  22.73200 -6.92400 26.03100
H  17.06400 -3.34900 22.53000
H  16.51700 -0.55800 22.90400
H  18.59900 -2.37200 21.42900
H  19.62700 -2.25600 22.90400
H  18.61800 -0.97000 22.38400
H  14.22400 -2.21000 24.00000
H  14.57300 -2.79700 22.40300
H  14.27200 0.06800 22.32700
H  12.83500 -0.73000 22.96100
H  13.49500 -1.27600 21.47000
H  13.14300 1.50200 26.35600
H  14.58600 2.52500 26.28800
H  13.50800 2.63600 27.75700
H  14.91600 -0.13100 31.81100
H  16.85100 2.78600 34.57900
H  15.15300 3.30000 34.40600
H  16.24000 3.54200 33.03400
Mg 41.47600 41.29700 26.56900
C  40.82300 43.71400 29.11700
C  42.31800 39.27000 29.16700
C  42.46300 39.13700 24.26400
C  40.97900 43.73300 24.15800
N  41.69000 41.51500 28.85100
C  41.24800 42.53100 29.68600
C  41.60200 42.22000 31.15400
C  42.05300 40.76500 31.12000
C  41.98200 40.51400 29.59600
C  43.48100 40.53700 31.84100
C  40.32300 42.32000 32.09200
C  40.22200 41.53600 33.47700
H  39.46700 42.18100 34.66900
N  42.31000 39.47500 26.63400
C  42.51300 38.80000 27.83400
C  42.97900 37.44500 27.52500
C  43.07100 37.39100 26.13700
C  42.64000 38.69100 25.63600
C  43.39800 36.36100 28.61100
C  43.63200 36.24500 25.23000
O  43.71500 36.31300 23.98800
C  44.15200 35.07900 25.91500
N  41.86500 41.43600 24.49300
C  42.17300 40.35400 23.67600
C  42.06200 40.67600 22.14700
C  41.36400 42.07700 22.21900
C  41.44800 42.44600 23.71300
C  43.45800 40.65300 21.42000
C  39.86500 42.08600 21.86900
C  38.84000 41.11100 22.58300
N  41.08600 43.28000 26.56600
C  40.85600 44.10900 25.52800
C  40.65300 45.49800 26.04300
C  40.52600 45.32400 27.43600
C  40.78600 43.97200 27.72100
C  40.47600 46.80300 25.31900
C  40.14100 46.02000 28.64700
O  39.86100 47.18400 28.86700
C  40.38400 44.96400 29.74500
C  41.26600 45.43400 30.83400
O  42.48800 45.50500 30.85200
O  40.47000 45.90700 31.82800
C  41.15900 46.67900 32.96900
H  42.49200 38.59700 30.00900
H  43.01000 38.51000 23.55700
H  40.95400 44.50100 23.38200
H  42.37900 42.91300 31.47800
H  41.30400 40.17400 31.64600
H  44.26900 40.49700 31.08900
H  43.49300 39.75600 32.60100
H  43.71600 41.40100 32.46300
H  39.56000 41.93900 31.41400
H  40.14200 43.38100 32.26600
H  41.23600 41.27600 33.77800
H  39.71900 40.61500 33.17900
H  43.28700 36.78300 29.61000
H  44.44100 36.06100 28.51000
H  42.80400 35.44800 28.57400
H  44.86800 35.42800 26.65900
H  44.71000 34.46500 25.20800
H  43.31700 34.60300 26.42800
H  41.45800 39.94200 21.61400
H  41.88800 42.83500 21.63700
H  44.30900 40.34700 22.02900
H  43.64800 41.67800 21.10300
H  43.28000 39.90800 20.64400
H  39.85400 41.80700 20.81600
H  39.39300 43.06700 21.93300
H  37.79700 41.39500 22.72700
H  39.28100 40.62500 23.45300
H  38.78200 40.26600 21.89600
H  39.51800 47.27900 25.52800
H  40.49000 46.72300 24.23200
H  41.32600 47.42800 25.59100
H  39.37800 44.87200 30.15400
H  42.21000 46.93000 32.82900
H  41.13300 45.95200 33.78100
H  40.57700 47.55500 33.25400

