158

Mg 24.23400 -6.20900 46.80900
C  26.60500 -3.77300 45.88100
C  22.02900 -4.66600 44.58600
C  22.16200 -8.81900 47.14200
C  26.83100 -8.10000 48.21500
N  24.28500 -4.35800 45.40000
C  25.39300 -3.58400 45.17300
C  25.12400 -2.58000 44.07400
C  23.56500 -2.66900 43.91600
C  23.23700 -3.96800 44.72500
C  22.75300 -1.48500 44.42800
C  26.03700 -2.82800 42.83000
C  26.70700 -1.64000 42.31400
H  25.97800 -0.87900 41.19900
N  22.32600 -6.72000 46.07600
C  21.59700 -5.91300 45.21200
C  20.33400 -6.54800 44.93400
C  20.21000 -7.71500 45.78400
C  21.57700 -7.80600 46.42400
C  19.43800 -6.12200 43.75600
C  18.99300 -8.68000 45.86100
O  18.00400 -8.43700 45.19700
C  19.03100 -9.85200 46.75200
N  24.53500 -8.22500 47.51200
C  23.43500 -9.05200 47.60900
C  23.80300 -10.38200 48.36600
C  25.38200 -10.17000 48.64600
C  25.58500 -8.72100 48.18300
C  23.01900 -10.63200 49.64400
C  26.29000 -11.19600 47.81500
C  27.38500 -11.83200 48.54000
N  26.20300 -5.96000 47.15800
C  27.21000 -6.80500 47.70600
C  28.45400 -6.08300 47.71100
C  28.22100 -4.88500 47.10400
C  26.87300 -4.84800 46.71300
C  29.74600 -6.59200 48.28200
C  28.89800 -3.65700 46.65000
O  30.03500 -3.25600 46.83500
C  27.85700 -2.91800 45.81900
C  27.55000 -1.62900 46.46800
O  26.84200 -1.47200 47.50000
O  28.05700 -0.69800 45.67800
C  27.74900 0.68100 45.97000
H  21.34100 -4.21200 43.87000
H  21.55100 -9.71400 47.27600
H  27.66600 -8.64500 48.66100
H  25.38300 -1.72800 44.70200
H  23.34700 -2.74000 42.85000
H  23.35500 -0.57700 44.45200
H  22.35100 -1.63800 45.42900
H  21.91200 -1.55100 43.73800
H  25.40300 -3.21700 42.03300
H  26.83300 -3.54600 43.02500
H  27.71900 -1.84700 41.96600
H  26.75800 -1.02100 43.21000
H  19.05100 -7.00500 43.24800
H  20.09700 -5.65200 43.02700
H  18.64800 -5.46100 44.11000
H  18.07700 -10.37900 46.77400
H  19.27700 -9.48500 47.74800
H  19.77300 -10.57800 46.41900
H  23.63400 -11.17400 47.63600
H  25.59500 -10.08000 49.71100
H  22.20600 -11.33000 49.44300
H  22.79500 -9.63500 50.02400
H  23.64400 -11.12700 50.38700
H  26.77000 -10.85600 46.89700
H  25.63300 -12.01200 47.51400
H  27.44900 -11.51700 49.58200
H  28.33700 -11.86500 48.01000
H  27.20100 -12.90400 48.61500
H  29.82500 -6.35200 49.34200
H  30.54200 -6.25200 47.62000
H  29.74700 -7.65700 48.05300
H  28.09100 -2.68700 44.77900
H  26.70400 0.80100 46.25700
H  27.75000 1.32500 45.09100
H  28.44600 1.01100 46.74100
Mg 30.46200 57.64900 40.05000
C  27.70100 55.79000 39.01200
C  32.50300 55.01800 39.31200
C  33.07400 59.78300 40.25700
C  28.37200 60.42600 40.56400
N  30.13800 55.71500 39.09900
C  28.92800 55.06100 38.89700
C  29.10500 53.63300 38.51600
C  30.52200 53.33500 39.12500
C  31.12300 54.75700 39.17500
C  30.39900 52.74200 40.53300
C  29.09500 53.42000 36.96400
C  27.98800 52.56700 36.29000
H  27.05300 53.22500 35.28700
N  32.51300 57.46500 39.81500
C  33.16200 56.27700 39.63500
C  34.52800 56.45700 39.58000
C  34.79600 57.85100 39.80700
C  33.42000 58.44700 40.02700
C  35.43500 55.40900 39.20200
C  36.17100 58.54200 39.83800
O  37.26500 58.02300 39.59000
C  36.23800 60.04200 40.29700
N  30.66500 59.83900 40.38200
C  31.90300 60.42600 40.36500
C  31.75100 61.95000 40.67700
C  30.24700 62.11200 40.83400
C  29.69800 60.74700 40.59500
C  32.63400 62.55300 41.84700
C  29.69600 63.30100 39.94500
C  29.03500 64.44900 40.67100
N  28.40800 58.04400 39.96700
C  27.70400 59.18900 40.28600
C  26.26000 58.78500 40.21800
C  26.25300 57.52600 39.65000
C  27.55600 57.13700 39.44800
C  25.00200 59.62800 40.70800
C  25.36700 56.39500 39.34800
O  24.12800 56.34400 39.32000
C  26.26600 55.17400 38.88500
C  25.86600 54.04200 39.82700
O  26.54300 53.59100 40.65600
O  24.70900 53.44800 39.36600
C  24.43800 52.08800 39.84200
H  33.14900 54.13800 39.30100
H  33.85300 60.53400 40.40800
H  27.67300 61.19800 40.89200
H  28.35100 53.09100 39.08600
H  31.09200 52.66800 38.47800
H  31.05900 51.87400 40.51700
H  29.39500 52.34800 40.69000
H  30.62200 53.32600 41.42500
H  30.03400 52.98600 36.62200
H  29.22100 54.39800 36.49900
H  27.35600 52.11000 37.05200
H  28.51000 51.76400 35.76900
H  35.09200 54.91300 38.29400
H  35.36000 54.62700 39.95800
H  36.49400 55.65600 39.12800
H  35.86400 60.20500 41.30800
H  35.66100 60.69900 39.64600
H  37.31200 60.23000 40.28600
H  32.04300 62.50700 39.78700
H  29.90600 62.36700 41.83800
H  33.48400 63.02400 41.35300
H  33.00700 61.74500 42.47700
H  32.10700 63.29200 42.45100
H  28.84000 62.97900 39.35300
H  30.40800 63.71800 39.23200
H  27.94500 64.44600 40.69200
H  29.35900 65.39800 40.24400
H  29.34100 64.51600 41.71500
H  24.39800 59.78600 39.81400
H  25.28100 60.48700 41.31900
H  24.42900 58.96100 41.35200
H  26.23200 54.85000 37.84400
H  23.36800 51.98900 40.02300
H  24.86200 51.90700 40.82900
H  24.75000 51.30400 39.15300

