158

Mg 47.05500 25.12900 28.53100
C  48.07500 27.41600 31.05200
C  46.19200 22.88900 30.94000
C  46.50700 22.95000 26.09700
C  48.56600 27.39100 26.20900
N  47.12900 25.12400 30.81900
C  47.49800 26.15800 31.62200
C  47.28200 25.74500 33.08700
C  47.09700 24.21800 32.98300
C  46.70500 24.05100 31.47100
C  48.27700 23.28700 33.28900
C  46.14300 26.55700 33.81400
C  46.60200 27.02500 35.22300
H  45.54700 27.41500 36.24100
N  46.41000 23.11400 28.55500
C  46.04100 22.40200 29.62400
C  45.52600 21.11600 29.16300
C  45.68700 21.07300 27.70800
C  46.24100 22.42100 27.36300
C  45.03000 20.06300 30.07500
C  45.39600 19.94800 26.76400
O  45.46900 20.09400 25.60400
C  44.99500 18.53800 27.16800
N  47.32300 25.20600 26.46100
C  46.91700 24.13700 25.62200
C  47.03500 24.55100 24.16100
C  47.95600 25.84200 24.21400
C  47.97300 26.21000 25.70500
C  47.59200 23.37200 23.29500
C  47.47600 27.07200 23.38400
C  47.66400 26.99300 21.81000
N  48.14700 27.00700 28.55800
C  48.68800 27.78000 27.55100
C  49.26000 28.97000 28.12600
C  49.01400 28.87900 29.44200
C  48.38100 27.64500 29.69700
C  49.95700 30.02400 27.34400
C  49.20700 29.59600 30.73500
O  49.74800 30.66400 30.97300
C  48.55900 28.63700 31.78100
C  49.51000 28.21500 32.81100
O  50.35500 27.32200 32.65000
O  49.37900 28.93700 33.96600
C  50.15900 28.42700 35.02800
H  46.07100 22.07100 31.65300
H  46.10800 22.33000 25.29100
H  49.02600 28.09200 25.50900
H  48.19800 25.90600 33.65600
H  46.27900 23.85000 33.60100
H  48.09100 22.76300 34.22600
H  49.18300 23.84600 33.52100
H  48.58000 22.57600 32.52100
H  45.24500 25.99400 34.06900
H  45.79700 27.35200 33.15300
H  47.17000 27.93200 35.01500
H  47.22900 26.25600 35.67400
H  45.78700 19.28000 30.11300
H  44.10900 19.76300 29.57600
H  44.76200 20.27700 31.11000
H  45.65900 17.99300 27.83900
H  44.84000 17.86500 26.32500
H  44.00800 18.77100 27.56900
H  46.03200 24.79500 23.81100
H  48.96300 25.57500 23.89400
H  47.96600 22.57300 23.93500
H  48.36000 23.62900 22.56500
H  46.76200 22.96600 22.71700
H  47.95200 28.00400 23.69100
H  46.40600 27.18700 23.56300
H  48.22700 27.78300 21.31200
H  46.64800 26.83800 21.44700
H  48.27500 26.13100 21.54400
H  50.35800 29.75900 26.36600
H  50.81100 30.23800 27.98700
H  49.37600 30.94700 27.35400
H  47.68200 29.08300 32.25100
H  51.16300 28.84100 34.93700
H  50.34800 27.35300 35.04900
H  49.67500 28.67500 35.97300
Mg 48.73600 45.42600 43.78400
C  45.57100 45.83600 42.59100
C  48.79600 42.26700 42.19700
C  51.97700 45.18100 44.70100
C  48.76000 48.84400 44.83500
N  47.40600 44.31400 42.33300
C  46.12800 44.64600 42.13300
C  45.51800 43.64200 41.09700
C  46.47100 42.37300 41.18700
C  47.63900 43.03500 41.99100
C  45.84300 41.15200 41.99800
C  45.47500 44.32600 39.68700
C  44.04500 44.39800 39.02800
H  43.70300 43.52700 37.83000
N  50.21500 43.93000 43.38400
C  50.02700 42.67700 42.80100
C  51.25100 41.95600 42.92400
C  52.14700 42.70500 43.78600
C  51.47900 43.97600 44.02700
C  51.33800 40.56300 42.37600
C  53.53000 42.23700 44.19100
O  53.89000 41.06500 43.89100
C  54.42600 42.94300 45.02200
N  50.22700 46.91400 44.55500
C  51.46700 46.51000 44.89000
C  52.30300 47.67600 45.48600
C  51.23400 48.77600 45.69300
C  49.95800 48.17800 45.03000
C  53.12800 47.30600 46.73600
C  51.60800 50.15200 45.19000
C  52.00500 51.23600 46.20100
N  47.42500 47.00000 43.95500
C  47.52600 48.32200 44.37400
C  46.33600 49.02400 44.03100
C  45.46300 48.02800 43.51600
C  46.24200 46.89300 43.32600
C  46.23600 50.56800 44.13700
C  44.14100 47.78600 42.86500
O  43.20300 48.45300 42.61000
C  44.13400 46.34700 42.32500
C  43.14900 45.56500 43.08200
O  43.33000 44.66700 43.83200
O  41.90600 46.06900 42.69900
C  40.79300 45.43400 43.40800
H  48.77800 41.28700 41.71700
H  52.99900 45.07600 45.07000
H  48.77700 49.84000 45.28300
H  44.58900 43.30800 41.55900
H  46.74900 42.15000 40.15700
H  45.96400 41.36700 43.05900
H  46.40600 40.22500 41.88700
H  44.77900 41.05100 41.78300
H  46.19900 43.80400 39.06200
H  45.82000 45.35200 39.81800
H  43.86600 45.46200 38.87100
H  43.25500 43.98200 39.65300
H  52.40100 40.38100 42.21400
H  50.83500 40.53400 41.41000
H  50.83900 39.88600 43.06900
H  53.98200 43.44400 45.88200
H  54.80000 43.68600 44.31800
H  55.33600 42.37200 45.20800
H  52.94100 47.88400 44.62700
H  51.09300 48.84700 46.77200
H  52.96300 46.26900 47.02900
H  52.92400 47.95100 47.59100
H  54.18000 47.39200 46.46300
H  50.78800 50.50300 44.56300
H  52.53500 49.95500 44.65100
H  51.39100 52.13200 46.11200
H  53.03200 51.57600 46.06800
H  52.03000 50.91800 47.24300
H  46.24500 51.01500 45.13100
H  45.29100 50.82900 43.66100
H  47.09100 50.86000 43.52600
H  43.92400 46.37100 41.25600
H  40.47400 44.54900 42.85700
H  39.98700 46.16600 43.37000
H  41.03000 45.16400 44.43700

