158

Mg 8.50500 3.55800 27.03700
C  9.83000 1.69100 29.85700
C  6.72600 5.39600 29.07800
C  7.10800 4.80100 24.28600
C  9.90100 0.90700 24.90000
N  8.32400 3.45500 29.23900
C  8.98000 2.75300 30.23200
C  8.63300 3.33000 31.64100
C  7.60200 4.44900 31.26800
C  7.46600 4.40200 29.76400
C  6.26100 4.42300 31.98700
C  9.86100 3.92500 32.38700
C  9.54800 4.40800 33.77000
H  10.65700 5.09500 34.60700
N  7.07400 4.94300 26.70200
C  6.55400 5.67000 27.68700
C  5.81400 6.70500 27.06000
C  5.91200 6.57300 25.67600
C  6.73800 5.39100 25.50300
C  4.94400 7.76800 27.84500
C  5.40500 7.45700 24.57000
O  5.71800 7.27700 23.38700
C  4.41300 8.55800 24.92600
N  8.43900 2.88600 24.91100
C  7.79700 3.65900 23.98500
C  8.11900 3.28000 22.55800
C  9.08900 2.08600 22.76000
C  9.23100 1.95900 24.21900
C  6.90600 2.97000 21.69300
C  10.37000 2.09500 21.92200
C  10.60700 0.80200 21.18900
N  9.65200 1.74600 27.24300
C  10.16800 0.80600 26.26900
C  10.78900 -0.32300 26.95500
C  10.83300 0.13800 28.34500
C  10.09100 1.27300 28.45200
C  11.61800 -1.41100 26.32800
C  11.33700 -0.21800 29.72600
O  12.04000 -1.14700 30.02700
C  10.70200 0.84200 30.71900
C  9.97800 0.15300 31.81900
O  8.88000 -0.42300 31.76400
O  10.64300 0.39000 33.00500
C  10.01600 -0.04500 34.27200
H  6.21300 6.10900 29.72600
H  6.63400 5.21900 23.39500
H  10.25600 0.12300 24.22800
H  8.10700 2.62800 32.28700
H  7.90600 5.47500 31.47500
H  5.52800 3.87500 31.39500
H  5.91500 5.45400 32.07200
H  6.36500 4.03700 33.00100
H  10.40400 4.62000 31.74600
H  10.45400 3.01400 32.46800
H  9.29000 3.46100 34.24400
H  8.78600 5.18800 33.75000
H  5.54900 8.67200 27.78600
H  4.78700 7.47600 28.88400
H  3.93800 7.81500 27.42700
H  3.61600 8.07400 25.49000
H  4.08800 9.05800 24.01400
H  4.92000 9.29600 25.54700
H  8.63700 4.15600 22.16800
H  8.44800 1.21500 22.62600
H  6.05700 2.64300 22.29300
H  7.20500 2.21300 20.96800
H  6.61200 3.87400 21.15900
H  11.20800 2.28900 22.59200
H  10.32000 2.99800 21.31400
H  9.83200 0.04700 21.31600
H  11.47900 0.27600 21.57700
H  10.88800 1.02800 20.16000
H  11.08400 -1.95700 25.55000
H  11.77200 -2.27000 26.98100
H  12.54600 -1.00800 25.92400
H  11.50900 1.42100 31.16800
H  9.79200 0.87200 34.81700
H  10.76000 -0.44300 34.96200
H  9.13300 -0.68300 34.24600
Mg 40.18300 9.11600 29.15800
C  42.06000 10.49600 31.84600
C  38.32800 7.35400 31.48100
C  38.55000 7.73800 26.64600
C  42.83300 9.82900 27.02500
N  40.10500 9.09500 31.40600
C  40.90200 9.82200 32.31000
C  40.47200 9.59500 33.78300
C  39.34700 8.46100 33.63500
C  39.29900 8.22500 32.07300
C  39.38800 7.19200 34.45200
C  40.14200 10.99100 34.35500
C  39.13300 11.00100 35.53800
H  39.40200 11.89200 36.79000
N  38.55300 7.82600 29.04000
C  37.94100 7.22600 30.09700
C  36.71400 6.46300 29.56600
C  36.69400 6.75300 28.22500
C  37.95900 7.47100 27.88500
C  35.78900 5.63200 30.39900
C  35.64400 6.29000 27.15900
O  35.74000 6.60000 25.97500
C  34.47000 5.53100 27.54100
N  40.53800 8.96900 27.15600
C  39.72700 8.31200 26.27300
C  40.19700 8.42100 24.83200
C  41.67600 8.86400 24.99200
C  41.71100 9.20500 26.46800
C  40.02500 7.08200 24.06900
C  42.26500 9.98800 23.98600
C  41.71800 11.38200 24.24100
N  42.02500 10.09100 29.33500
C  42.99700 10.25000 28.36000
C  44.09000 10.89600 28.98100
C  43.75300 11.07600 30.29600
C  42.52000 10.49600 30.51000
C  45.42600 11.27000 28.41900
C  44.30300 11.52400 31.51600
O  45.31700 12.21400 31.75800
C  43.19000 11.20600 32.58300
C  43.68600 10.39200 33.67400
O  43.84100 9.20100 33.62400
O  43.97500 11.08900 34.80600
C  44.39400 10.40700 36.02600
H  37.67400 6.84800 32.19400
H  37.91600 7.36300 25.83900
H  43.65100 10.08100 26.34800
H  41.31100 9.22200 34.36900
H  38.33100 8.82900 33.77900
H  38.40400 7.05600 34.90100
H  40.16200 7.25700 35.21700
H  39.60400 6.36400 33.77800
H  39.71400 11.62600 33.57900
H  41.11100 11.43500 34.58500
H  38.88600 10.01200 35.92500
H  38.23800 11.42200 35.08000
H  36.16400 5.51600 31.41600
H  35.67100 4.67000 29.89900
H  34.81400 6.11900 30.43800
H  33.93900 5.23700 26.63500
H  33.93500 6.01100 28.36000
H  34.83700 4.58200 27.93200
H  39.69000 9.29100 24.41400
H  42.32700 7.99000 24.96100
H  40.94400 6.82200 23.54300
H  39.25800 7.12400 23.29500
H  39.79500 6.26400 24.75100
H  42.02200 9.80200 22.94000
H  43.35000 9.91900 24.06300
H  40.89800 11.40200 24.95900
H  41.40100 11.80000 23.28500
H  42.60000 11.97400 24.48600
H  45.38300 10.99100 27.36600
H  46.19900 10.75100 28.98500
H  45.45100 12.35300 28.53600
H  42.86000 12.14900 33.01900
H  43.69700 10.75100 36.79000
H  45.41300 10.72900 36.24200
H  44.33200 9.32800 36.17200

