158

Mg -11.50300 37.91800 42.07200
C  -9.41000 35.43600 40.84900
C  -9.19400 40.23800 41.02200
C  -13.84600 40.24600 42.07400
C  -13.84400 35.45400 42.75900
N  -9.50200 37.84300 41.02800
C  -8.87200 36.71400 40.57100
C  -7.63200 37.10200 39.81400
C  -7.34800 38.53400 40.34700
C  -8.75400 38.92300 40.84500
C  -6.28400 38.68700 41.44600
C  -7.77200 36.83100 38.26700
C  -6.66000 36.04000 37.73700
H  -5.67000 36.72200 36.79200
N  -11.49000 40.01700 41.70900
C  -10.42900 40.73500 41.32300
C  -10.80600 42.11100 41.22100
C  -12.25700 42.16300 41.43500
C  -12.62400 40.78900 41.68400
C  -9.89000 43.22600 40.75000
C  -13.09100 43.45900 41.43400
O  -12.70600 44.55700 41.05900
C  -14.61300 43.49000 41.79200
N  -13.57000 37.90700 42.30600
C  -14.30300 38.98700 42.45500
C  -15.60700 38.67600 43.14800
C  -15.68900 37.10800 43.12000
C  -14.25100 36.80400 42.76800
C  -15.99100 39.43400 44.46400
C  -16.71700 36.46700 42.10800
C  -17.97400 35.93800 42.82000
N  -11.56700 35.84000 42.05500
C  -12.55900 34.98200 42.39400
C  -12.13200 33.65700 42.30300
C  -10.88100 33.77300 41.69200
C  -10.57100 35.11300 41.55000
C  -12.86800 32.37700 42.76100
C  -9.80700 33.00500 41.18000
O  -9.61400 31.78900 41.17400
C  -8.64900 34.04800 40.69400
C  -7.47700 33.89300 41.60100
O  -7.13000 34.66200 42.46700
O  -6.69100 32.80800 41.22700
C  -5.42900 32.67400 41.96300
H  -8.42800 40.97900 40.78500
H  -14.54400 41.08500 42.10900
H  -14.69500 34.86600 43.10900
H  -6.88300 36.43900 40.24700
H  -7.00600 39.23400 39.58400
H  -5.56100 37.87900 41.33100
H  -6.80800 38.46500 42.37500
H  -5.74600 39.63400 41.41300
H  -7.63100 37.74300 37.68700
H  -8.77800 36.47500 38.04500
H  -7.04200 35.10800 37.32000
H  -5.94100 35.59900 38.42800
H  -9.69400 43.69600 41.71400
H  -10.37100 43.79200 39.95300
H  -8.92500 42.89100 40.37000
H  -15.21000 42.97400 41.04000
H  -14.85600 44.54800 41.89600
H  -14.85700 43.13500 42.79300
H  -16.50300 39.00900 42.62500
H  -15.86300 36.61200 44.07400
H  -16.76500 40.18400 44.29800
H  -15.10200 39.93500 44.84500
H  -16.34100 38.69600 45.18500
H  -16.18200 35.75900 41.47500
H  -17.00500 37.31400 41.48400
H  -18.58500 36.83100 42.95100
H  -17.64300 35.41600 43.71900
H  -18.52100 35.19100 42.24600
H  -13.84100 32.37800 42.26800
H  -13.04000 32.39300 43.83700
H  -12.34700 31.46400 42.47100
H  -8.30600 33.76000 39.70100
H  -5.51300 32.19400 42.93800
H  -4.88200 33.60300 42.12600
H  -4.76900 32.06400 41.34600
Mg -11.52500 16.05000 41.04300
C  -8.59000 14.11700 41.34000
C  -9.59200 18.70100 39.94400
C  -14.33100 17.71300 40.31600
C  -13.34700 13.19000 41.97300
N  -9.35400 16.34900 40.81400
C  -8.38100 15.38100 40.87400
C  -7.06200 15.96800 40.45600
C  -7.37900 17.42300 40.02400
C  -8.86100 17.50700 40.33500
C  -6.53100 18.55900 40.67100
C  -6.37800 15.02100 39.41400
C  -4.90700 14.54100 39.80400
H  -3.81700 14.71600 38.72300
N  -11.91100 17.98000 40.25800
C  -10.97800 18.95100 39.98700
C  -11.65900 20.16100 39.54400
C  -13.06000 19.83000 39.48600
C  -13.20200 18.49900 40.05300
C  -10.86300 21.50300 39.04600
C  -14.16800 20.73100 38.82500
O  -13.81300 21.84700 38.47000
C  -15.64700 20.36900 38.71100
N  -13.47100 15.51000 41.00500
C  -14.50500 16.43500 40.75600
C  -15.89000 15.78000 40.83700
C  -15.48600 14.33500 41.36300
C  -14.00900 14.33200 41.45700
C  -17.01100 16.43900 41.74900
C  -16.22900 13.12600 40.56400
C  -17.04200 12.32600 41.58400
N  -11.13300 14.02400 41.54800
C  -11.94400 12.99400 41.99400
C  -11.13900 11.88500 42.55300
C  -9.82600 12.30500 42.28000
C  -9.91300 13.56700 41.67400
C  -11.65800 10.58800 43.08600
C  -8.48500 11.89600 42.41800
O  -8.00800 10.90800 42.86000
C  -7.59000 13.15800 41.99300
C  -6.84200 13.63100 43.18100
O  -7.29800 14.42100 44.02100
O  -5.55800 13.14800 43.12200
C  -4.62700 14.01000 43.82300
H  -8.99500 19.54400 39.58800
H  -15.27800 18.23200 40.15500
H  -14.00600 12.36300 42.24400
H  -6.51700 15.99600 41.39900
H  -7.12300 17.44900 38.96500
H  -7.11400 19.26400 41.26400
H  -5.94600 19.00000 39.86400
H  -5.79600 18.05000 41.29500
H  -6.23700 15.53600 38.46400
H  -6.99900 14.14700 39.21400
H  -5.01200 13.48900 40.06800
H  -4.67100 15.12800 40.69300
H  -10.80200 21.42600 37.96000
H  -9.91600 21.54300 39.58300
H  -11.38400 22.41000 39.35200
H  -16.18700 21.00700 38.01200
H  -16.04100 20.42200 39.72600
H  -15.71100 19.37200 38.27500
H  -16.26400 15.69900 39.81700
H  -15.80500 14.35500 42.40500
H  -16.49200 17.06100 42.47800
H  -17.51100 15.56500 42.16500
H  -17.78500 17.03900 41.27100
H  -15.50100 12.47300 40.08400
H  -17.03100 13.48000 39.91700
H  -18.07000 12.63900 41.76800
H  -16.42500 12.40700 42.48000
H  -17.10700 11.30300 41.21300
H  -10.72300 10.06500 43.28800
H  -12.30400 10.05000 42.39300
H  -12.31700 10.62900 43.95400
H  -6.75200 13.06700 41.30200
H  -4.70300 13.85900 44.90000
H  -4.75200 15.06600 43.57900
H  -3.63800 13.63100 43.56800

