158

Mg 53.62700 24.36100 43.86700
C  50.98100 26.52800 43.48100
C  51.72900 21.70600 42.95700
C  56.47500 22.49700 43.34600
C  55.63200 27.15100 44.46200
N  51.63400 24.19000 43.25300
C  50.61600 25.17600 43.27800
C  49.30400 24.52100 42.95900
C  49.54900 22.96900 43.07500
C  51.08000 22.92500 43.10900
C  48.85100 22.29000 44.23000
C  48.60500 25.10900 41.60300
C  49.52900 25.24600 40.37800
H  49.31100 24.28900 39.22700
N  54.00000 22.28700 43.46400
C  53.05400 21.36400 43.22000
C  53.64900 20.07900 43.14100
C  55.06600 20.26500 43.19300
C  55.25100 21.71300 43.34700
C  52.73800 18.82900 42.95900
C  56.03600 19.11900 43.02700
O  55.64700 17.97400 42.73900
C  57.53000 19.44000 43.04700
N  55.76700 24.81600 43.86500
C  56.66900 23.87900 43.52200
C  58.12600 24.55800 43.48300
C  57.82100 26.01800 44.06400
C  56.28600 26.03400 44.11500
C  59.19200 23.77600 44.36700
C  58.38400 27.19800 43.25200
C  59.45500 28.06700 44.06600
N  53.35500 26.42600 44.01100
C  54.19200 27.39600 44.37600
C  53.54100 28.72700 44.56900
C  52.25600 28.42100 44.21800
C  52.18100 27.04800 43.84500
C  54.18000 29.98200 45.09400
C  50.85400 28.85900 44.19400
O  50.42000 29.95400 44.60500
C  50.00300 27.70500 43.60000
C  49.75300 28.25000 42.20000
O  50.60600 28.59800 41.38900
O  48.37300 28.46800 41.98300
C  48.10200 29.34600 40.80800
H  50.98900 20.91400 42.82700
H  57.40100 22.00500 43.03800
H  56.17700 28.05700 44.73600
H  48.58700 24.96200 43.65100
H  49.13600 22.57800 42.14600
H  49.56600 21.78500 44.87900
H  48.27600 21.52600 43.70900
H  48.12500 22.80600 44.85900
H  48.16000 26.08500 41.79700
H  47.90900 24.32500 41.30300
H  50.54300 25.07600 40.73900
H  49.46700 26.23900 39.93300
H  51.75800 18.95600 43.41900
H  52.98900 17.94100 43.53800
H  52.73500 18.40800 41.95300
H  58.04500 18.51200 42.79800
H  57.75900 19.60700 44.09900
H  57.71700 20.16500 42.25500
H  58.40100 24.50200 42.43000
H  58.10500 26.08900 45.11400
H  60.10200 23.63300 43.78500
H  58.82200 22.75900 44.50200
H  59.57500 24.27600 45.25600
H  57.57500 27.84200 42.90500
H  58.97700 26.78300 42.43700
H  60.38400 28.16700 43.50500
H  59.77200 27.63300 45.01400
H  58.98400 29.05000 44.02800
H  55.05500 30.25400 44.50400
H  54.44500 29.77500 46.13100
H  53.42700 30.76900 45.14500
H  49.04800 27.63900 44.12000
H  48.68500 30.26700 40.79100
H  47.10300 29.77400 40.88500
H  48.12400 28.84400 39.84100
Mg 49.87600 45.99100 41.85700
C  46.66800 47.22200 41.12300
C  49.11800 43.05600 40.45700
C  53.05000 45.15900 42.44500
C  50.64800 49.35600 42.75300
N  48.08500 45.26200 40.91200
C  46.88800 45.85800 40.71000
C  45.91700 45.09400 39.82400
C  46.61700 43.69700 39.83500
C  48.03500 43.98500 40.46100
C  45.98100 42.51000 40.61900
C  45.78200 45.58100 38.30800
C  44.46200 45.25800 37.66700
H  44.53700 44.76800 36.21600
N  50.93700 44.24300 41.57900
C  50.42100 43.13400 40.98200
C  51.50100 42.12600 40.86900
C  52.68000 42.75900 41.44200
C  52.25800 44.08400 41.91600
C  51.43200 40.74900 40.22300
C  54.06700 42.15500 41.42900
O  54.29900 41.07400 40.90600
C  55.29800 42.82700 42.01000
N  51.59700 47.05900 42.45300
C  52.76300 46.47500 42.63400
C  53.91100 47.58000 42.70800
C  53.13100 48.90100 42.78800
C  51.70500 48.41400 42.64100
C  54.90100 47.39100 43.95800
C  53.51200 50.11500 41.90700
C  54.53600 51.11400 42.53700
N  48.84800 47.83300 42.15100
C  49.32000 49.05400 42.46900
C  48.28200 49.99100 42.51600
C  47.16600 49.32400 42.01600
C  47.59300 47.96100 41.77400
C  48.43200 51.46900 42.84100
C  45.73600 49.50500 41.62600
O  45.04300 50.51800 41.68600
C  45.41300 48.06900 40.92300
C  44.13700 47.52200 41.54200
O  43.88700 47.35800 42.70500
O  43.31600 47.17600 40.51000
C  41.98800 46.60700 40.73200
H  48.96900 42.14400 39.87600
H  54.09800 44.85500 42.40900
H  50.97100 50.39400 42.85800
H  44.98900 44.88200 40.35500
H  46.74100 43.28800 38.83200
H  45.87600 41.67800 39.92300
H  45.07700 42.92600 41.06300
H  46.54000 42.10200 41.46100
H  46.70500 45.33600 37.78100
H  45.79900 46.67000 38.33900
H  43.73100 46.06600 37.68400
H  44.07800 44.43300 38.26600
H  50.38800 40.52300 40.00500
H  51.61100 39.95500 40.94800
H  52.19700 40.61000 39.46000
H  55.17200 43.17800 43.03500
H  55.77300 43.61700 41.42900
H  56.02800 42.02300 42.10000
H  54.49400 47.67700 41.79200
H  53.18200 49.24500 43.82100
H  54.96600 48.21700 44.66600
H  55.84900 47.11100 43.49800
H  54.36700 46.59100 44.47100
H  52.60400 50.64300 41.61600
H  53.92000 49.61000 41.03200
H  55.40300 50.95500 41.89600
H  54.79300 50.91800 43.57800
H  54.30300 52.17700 42.47800
H  48.91200 51.96300 41.99600
H  48.98400 51.57400 43.77500
H  47.48400 52.00800 42.84200
H  45.19600 48.24200 39.86900
H  41.93300 45.62300 40.26500
H  41.35200 47.35900 40.26600
H  41.75400 46.42200 41.78000

