158

Mg 2.12400 -3.34000 45.62400
C  5.57700 -2.23200 45.28400
C  1.37600 -1.35800 43.00500
C  -0.80100 -4.66900 45.76100
C  3.47700 -6.09100 47.44000
N  3.39800 -2.11800 44.20800
C  4.73300 -1.77000 44.25900
C  5.08500 -0.82600 43.10600
C  3.69300 -0.24800 42.75600
C  2.77200 -1.34500 43.29500
C  3.31100 1.14400 43.34100
C  5.76200 -1.61900 41.95500
C  7.06300 -1.03700 41.36900
H  7.08600 -0.05300 40.19500
N  0.45900 -2.96100 44.66700
C  0.30600 -2.05800 43.60900
C  -1.07700 -1.99500 43.29000
C  -1.72100 -2.78400 44.20000
C  -0.71600 -3.51700 44.97900
C  -1.66900 -1.02400 42.27500
C  -3.25800 -2.85300 44.40200
O  -3.92000 -2.23300 43.60400
C  -3.94300 -3.47500 45.58900
N  1.39000 -5.20800 46.47000
C  0.10700 -5.45600 46.52300
C  -0.20600 -6.67500 47.34800
C  1.21400 -7.27400 47.71800
C  2.09000 -6.17600 47.10000
C  -1.27800 -6.39000 48.44200
C  1.65700 -8.66000 47.26700
C  1.19300 -9.07000 45.81600
N  4.06600 -3.99700 46.30500
C  4.38300 -5.10200 47.06700
C  5.77500 -5.04700 47.44500
C  6.31000 -3.97300 46.73500
C  5.22000 -3.29800 46.06700
C  6.43100 -6.05200 48.44400
C  7.45700 -3.21100 46.43600
O  8.55900 -3.25500 46.93400
C  7.06700 -2.06300 45.46400
C  7.39900 -0.67600 46.08900
O  7.08800 -0.28100 47.15800
O  7.99100 0.18500 45.11800
C  8.20700 1.63300 45.52100
H  1.18500 -0.64900 42.19600
H  -1.86000 -4.92900 45.82100
H  3.84500 -6.85500 48.12800
H  5.65800 0.04700 43.41800
H  3.45000 -0.27000 41.69400
H  4.18400 1.69600 43.69000
H  2.62300 0.97500 44.17000
H  2.81400 1.75500 42.58800
H  5.14000 -1.71500 41.06500
H  6.08800 -2.57800 42.35800
H  7.70100 -1.85000 41.02000
H  7.59800 -0.47600 42.13500
H  -1.95400 -0.04700 42.66600
H  -2.60300 -1.40800 41.86500
H  -0.91800 -0.89700 41.49600
H  -3.89400 -4.54500 45.39100
H  -4.96500 -3.11700 45.71500
H  -3.40400 -3.34900 46.52800
H  -0.65300 -7.36900 46.63600
H  1.33400 -7.28500 48.80100
H  -2.01300 -5.61400 48.23000
H  -0.69000 -6.14400 49.32700
H  -1.69300 -7.38300 48.61400
H  1.01400 -9.40700 47.73100
H  2.72500 -8.86300 47.34700
H  0.49400 -9.89300 45.96300
H  2.07200 -9.40700 45.26800
H  0.68600 -8.24700 45.31200
H  5.65100 -6.44900 49.09400
H  7.18500 -5.47100 48.97600
H  6.83200 -6.73900 47.70000
H  7.54000 -2.06700 44.48200
H  7.24600 2.13900 45.60700
H  8.74900 2.08200 44.68800
H  8.85600 1.75600 46.38900
Mg 39.81200 9.98800 31.03500
C  41.83800 11.52800 33.56100
C  38.03600 8.63300 33.55200
C  38.35500 8.13000 28.74600
C  42.26500 10.95200 28.74500
N  39.93200 10.20400 33.33300
C  40.76200 10.84700 34.16300
C  40.45000 10.63000 35.69400
C  39.31000 9.55300 35.54300
C  39.05500 9.41500 34.04300
C  39.75600 8.21500 36.17100
C  39.91600 11.92600 36.45100
C  40.73500 12.23200 37.72900
H  40.05900 12.82900 38.98200
N  38.28400 8.65800 31.10200
C  37.63000 8.30300 32.26800
C  36.58000 7.40000 31.87300
C  36.67500 7.19600 30.45900
C  37.87600 7.96500 30.01800
C  35.72400 6.70900 32.88100
C  35.83200 6.31100 29.50900
O  36.17100 6.07400 28.36300
C  34.74200 5.47100 30.15900
N  40.40700 9.36600 29.05000
C  39.42700 8.83300 28.26100
C  39.73200 9.00500 26.76700
C  41.08100 9.75100 26.76900
C  41.30700 10.07000 28.24200
C  39.65200 7.66600 25.92100
C  41.31700 10.89000 25.66300
C  40.97300 12.30800 26.07700
N  41.68200 11.09300 31.10300
C  42.55600 11.31600 30.12700
C  43.64000 12.13100 30.60900
C  43.40100 12.21200 31.97800
C  42.18600 11.67300 32.21900
C  44.80400 12.57700 29.81400
C  43.92100 12.66800 33.22800
O  44.90700 13.35400 33.46000
C  42.98100 12.22400 34.25100
C  43.70900 11.27200 35.18100
O  44.41000 10.29400 34.91400
O  43.44400 11.74200 36.48500
C  44.09700 10.83200 37.53200
H  37.50400 8.18900 34.39600
H  37.74900 7.68200 27.95700
H  42.89400 11.48100 28.02600
H  41.34100 10.28000 36.21400
H  38.46100 9.85600 36.15500
H  39.02300 7.85800 36.89500
H  40.67000 8.20700 36.76400
H  39.69700 7.43600 35.41000
H  38.86300 11.90100 36.73100
H  39.96900 12.77200 35.76700
H  41.38300 13.03400 37.37400
H  41.45400 11.47400 38.03800
H  36.06300 5.70300 33.12900
H  34.67800 6.66100 32.57700
H  35.67800 7.19300 33.85700
H  35.28100 4.66000 30.64900
H  34.12000 5.03800 29.37500
H  34.06400 5.88800 30.90300
H  38.92300 9.58300 26.32000
H  41.85000 8.99800 26.59300
H  39.59800 6.72800 26.47300
H  40.51200 7.62500 25.25300
H  38.77300 7.70500 25.27700
H  40.70000 10.67400 24.79000
H  42.33700 10.92000 25.28100
H  40.67700 12.91700 25.22300
H  41.71700 12.82200 26.68500
H  40.12000 12.23200 26.75100
H  45.14000 12.00500 28.94900
H  45.58100 12.57700 30.57800
H  44.62400 13.55200 29.36200
H  42.72700 13.18100 34.70800
H  43.49900 9.92100 37.55900
H  44.19900 11.31500 38.50300
H  45.12200 10.60900 37.23500

