158

Mg 49.76500 35.33800 25.73700
C  47.55500 34.43500 28.20800
C  50.26200 38.41200 27.41100
C  51.75400 36.39400 23.14700
C  49.38500 32.24500 24.36200
N  48.79600 36.42700 27.47900
C  48.08400 35.68300 28.44000
C  48.04200 36.43800 29.78000
C  48.49100 37.88300 29.34400
C  49.22700 37.59600 27.99400
C  47.45000 39.02300 29.07000
C  48.94600 35.80300 31.00000
C  48.35300 35.63200 32.39500
H  47.09600 36.40800 32.86100
N  50.79200 37.15800 25.30000
C  50.99500 38.15900 26.17400
C  52.08100 39.05800 25.67300
C  52.33100 38.63300 24.37400
C  51.62100 37.37900 24.20300
C  52.67400 40.20800 26.46500
C  53.16300 39.32100 23.32000
O  53.26700 38.85400 22.19900
C  54.01400 40.41500 23.75800
N  50.52200 34.43500 24.06800
C  51.15200 35.08100 23.00000
C  51.21900 34.21900 21.70600
C  50.69400 32.84400 22.21400
C  50.19300 33.15100 23.68300
C  50.55200 34.83400 20.48700
C  51.61400 31.56800 22.15800
C  51.70500 30.80300 20.81600
N  48.60500 33.67100 26.07800
C  48.61200 32.44500 25.45700
C  47.59800 31.63200 26.04500
C  47.09400 32.32800 27.12600
C  47.80700 33.59800 27.08200
C  46.99800 30.44200 25.40500
C  46.27100 32.34500 28.25900
O  45.49500 31.50300 28.64500
C  46.59200 33.66500 29.04100
C  47.09300 33.10000 30.33500
O  48.15100 32.57300 30.47100
O  46.09700 33.10200 31.31800
C  46.37500 32.23700 32.48800
H  50.29000 39.32500 28.01000
H  52.50000 36.61500 22.38100
H  49.27300 31.29600 23.83500
H  47.01200 36.52700 30.12500
H  49.27500 38.16700 30.04600
H  47.62100 39.86200 29.74500
H  46.44400 38.60800 29.13100
H  47.53100 39.44000 28.06600
H  49.91200 36.26300 31.21100
H  49.25500 34.78900 30.74600
H  49.08200 35.83400 33.17900
H  48.30500 34.55500 32.55500
H  53.67000 39.97100 26.84000
H  52.13400 40.29000 27.40900
H  52.70900 41.19000 25.99300
H  54.70100 40.68800 22.95700
H  54.62900 40.06600 24.58700
H  53.44700 41.31700 23.98800
H  52.27100 34.13100 21.43500
H  49.84200 32.64500 21.56300
H  49.80600 35.54200 20.84900
H  49.95100 34.15300 19.88400
H  51.27600 35.34500 19.85300
H  51.31900 30.81800 22.89100
H  52.58000 32.00500 22.41200
H  52.74600 31.00500 20.56400
H  51.09000 31.12000 19.97300
H  51.54600 29.74600 21.03000
H  46.69700 29.64000 26.07900
H  47.72700 29.94600 24.76400
H  46.20000 30.79700 24.75200
H  45.70500 34.28500 29.16800
H  45.47600 32.13400 33.09600
H  47.16600 32.70800 33.07300
H  46.62000 31.22100 32.18000
Mg 27.15400 50.41100 26.40600
C  25.33000 51.66400 29.29300
C  29.60500 49.29900 28.53700
C  29.04300 49.80700 23.62400
C  24.83100 52.12300 24.42800
N  27.42500 50.53800 28.67800
C  26.51700 51.01900 29.66900
C  27.04800 50.72300 31.03100
C  28.50100 50.05400 30.74400
C  28.57400 49.99400 29.19700
C  29.76500 50.74900 31.32200
C  26.04400 49.84500 31.82600
C  25.63600 50.26700 33.22200
H  26.70300 50.62000 34.31700
N  28.99900 49.50800 26.07900
C  29.83500 49.12400 27.09600
C  31.02500 48.56600 26.55800
C  30.98100 48.75500 25.10900
C  29.67900 49.38300 24.86200
C  32.16800 48.06900 27.38000
C  31.97400 48.44500 24.02900
O  31.79200 48.55800 22.79300
C  33.33100 47.74200 24.47300
N  27.05600 51.04300 24.35700
C  27.83300 50.48400 23.36100
C  27.44600 51.02100 22.00800
C  26.10000 51.67300 22.29200
C  25.97700 51.57700 23.79700
C  28.44400 51.96800 21.28400
C  24.89100 51.02700 21.50400
C  24.16400 49.90500 22.13800
N  25.47900 51.68900 26.70300
C  24.66700 52.29300 25.79500
C  23.60600 53.05800 26.46200
C  23.80300 52.78200 27.84000
C  24.96400 51.98200 27.94300
C  22.55600 53.94100 25.82100
C  23.31100 53.02900 29.19100
O  22.27100 53.62900 29.52600
C  24.30300 52.34200 30.23000
C  24.92600 53.37500 31.17300
O  25.94100 54.06100 30.95200
O  24.21200 53.41900 32.27700
C  24.74700 54.19900 33.40600
H  30.41300 48.83200 29.10500
H  29.52500 49.66200 22.65500
H  24.12700 52.69600 23.82100
H  27.09600 51.68600 31.54000
H  28.53300 49.02300 31.09700
H  30.38000 51.02300 30.46400
H  30.33900 50.13500 32.01700
H  29.44400 51.63300 31.87200
H  26.46800 48.85200 31.97500
H  25.11600 49.75800 31.26100
H  25.01400 49.46300 33.61500
H  25.15200 51.24100 33.16300
H  31.76600 47.69300 28.32100
H  32.80600 48.88600 27.71600
H  32.75400 47.22900 27.00800
H  33.75800 47.94000 25.45700
H  33.96800 47.78100 23.58900
H  33.23200 46.66000 24.56200
H  27.31600 50.19100 21.31400
H  26.10200 52.75500 22.15400
H  29.48900 51.98800 21.59500
H  28.06100 52.98900 21.30700
H  28.35200 51.69600 20.23300
H  25.27000 50.68500 20.54100
H  24.25000 51.87700 21.27000
H  23.14300 50.14100 22.43900
H  24.63000 49.48800 23.03000
H  24.25800 49.10200 21.40700
H  21.68900 53.84600 26.47600
H  22.30600 53.63200 24.80600
H  23.01000 54.93200 25.81800
H  23.70800 51.56100 30.70300
H  24.63600 55.20500 33.00100
H  25.73600 53.81800 33.65800
H  24.13300 54.16000 34.30600

