158

Mg 6.46200 54.06300 41.50100
C  5.94400 50.53600 41.16400
C  9.71500 53.43800 40.40300
C  6.93300 57.42100 41.12700
C  3.24100 54.45800 42.37600
N  7.66400 52.15600 40.84000
C  7.24500 50.86000 40.70700
C  8.35500 49.99200 40.21700
C  9.58700 50.84300 40.53100
C  8.98300 52.28100 40.57300
C  10.39300 50.66800 41.83000
C  8.34600 49.56000 38.73600
C  7.81500 50.56100 37.73300
H  6.81600 50.10900 36.63000
N  8.08500 55.25400 40.80400
C  9.31300 54.78000 40.45100
C  10.16900 55.94800 40.27600
C  9.45300 57.15100 40.53000
C  8.05700 56.64600 40.74000
C  11.73800 55.88100 40.06100
C  9.92300 58.54400 40.41800
O  11.14300 58.68300 40.21500
C  9.01600 59.66900 40.50000
N  5.26700 55.71900 41.62000
C  5.65800 56.97200 41.54900
C  4.59500 57.95800 41.99800
C  3.41000 56.98000 42.26400
C  3.99800 55.60000 42.10900
C  5.07800 58.91100 43.14300
C  2.05500 57.18600 41.45500
C  2.05800 56.45900 40.04500
N  4.87400 52.75900 41.71500
C  3.57100 53.09000 42.10600
C  2.78100 51.93900 42.31900
C  3.68400 50.86200 41.94000
C  4.93100 51.43700 41.58800
C  1.45800 51.76900 42.92800
C  3.79800 49.40900 41.83600
O  3.00800 48.55600 42.12400
C  5.29000 49.19100 41.43200
C  5.37200 48.40400 40.15900
O  5.12500 48.84300 39.03600
O  5.72800 47.15300 40.51900
C  5.61900 46.15500 39.39400
H  10.79400 53.35300 40.26000
H  6.99600 58.51100 41.08800
H  2.22200 54.67500 42.70400
H  8.33800 49.03400 40.73600
H  10.35300 50.78400 39.75800
H  9.87700 50.00100 42.52000
H  10.53000 51.63800 42.30800
H  11.39000 50.25000 41.68700
H  7.88200 48.57600 38.80300
H  9.41500 49.47300 38.53900
H  8.71100 50.86100 37.18900
H  7.44000 51.46700 38.20900
H  12.00500 56.41000 39.14700
H  12.17000 54.89700 39.87600
H  12.14600 56.21100 41.01600
H  9.49200 60.59200 40.16800
H  8.73300 59.87700 41.53200
H  8.16600 59.46500 39.84900
H  4.37500 58.64000 41.17600
H  3.23800 57.07100 43.33600
H  5.99700 58.53600 43.59300
H  4.19800 59.02000 43.77700
H  5.36400 59.88900 42.75700
H  1.94900 58.25500 41.27000
H  1.12100 56.97900 41.97800
H  2.29600 57.09300 39.19000
H  1.06100 56.08600 39.81400
H  2.66100 55.55200 39.99300
H  1.51800 51.44100 43.96500
H  0.80500 51.04100 42.44700
H  0.84300 52.66600 42.85000
H  5.90100 48.65600 42.15900
H  5.86300 45.16400 39.77800
H  6.29700 46.38200 38.57100
H  4.59200 46.11300 39.03200
Mg -9.85200 39.88400 39.86500
C  -8.90200 36.51700 39.13600
C  -6.57000 40.86400 39.32200
C  -10.78800 43.08200 39.65700
C  -13.17000 38.73600 39.95900
N  -8.08400 38.77800 39.23400
C  -7.83100 37.42800 39.02300
C  -6.40200 37.11700 38.53800
C  -5.65200 38.45100 38.96600
C  -6.83400 39.50100 39.14800
C  -4.69900 38.39100 40.20800
C  -6.27400 36.84400 36.89000
C  -7.39300 37.39300 35.96600
H  -8.08000 36.57100 34.87900
N  -8.82500 41.74400 39.56700
C  -7.48700 41.87100 39.40900
C  -7.17100 43.35000 39.36800
C  -8.35300 43.99000 39.35200
C  -9.38200 42.96600 39.53700
C  -5.74100 43.84000 39.33500
C  -8.56100 45.43900 39.07600
O  -7.61100 46.21100 39.06200
C  -9.96400 46.03300 38.78200
N  -11.71500 40.74100 39.75600
C  -11.83900 42.11500 39.65900
C  -13.27400 42.51300 39.43300
C  -14.05100 41.09900 39.54800
C  -12.95000 40.13900 39.76000
C  -13.94300 43.62100 40.28800
C  -14.95500 40.85400 38.32200
C  -16.42000 40.37600 38.45800
N  -10.87900 38.00200 39.77100
C  -12.21200 37.67700 39.86200
C  -12.42200 36.26300 39.85300
C  -11.14400 35.74500 39.51600
C  -10.23900 36.86600 39.53400
C  -13.61700 35.38600 40.16100
C  -10.40700 34.55100 39.21800
O  -10.73600 33.39000 39.14700
C  -8.91100 35.06800 38.96300
C  -8.02400 34.34900 39.88500
O  -8.23800 34.07500 41.07500
O  -6.89200 33.93200 39.25200
C  -5.88200 33.16200 40.04300
H  -5.49400 41.04700 39.27300
H  -11.22100 44.08300 39.59900
H  -14.20000 38.37900 39.88500
H  -5.96900 36.29600 39.10900
H  -5.08100 38.75800 38.09100
H  -3.69400 38.74600 39.98000
H  -4.70900 37.38700 40.63000
H  -5.13700 38.98900 41.00700
H  -6.39500 35.76600 36.78800
H  -5.27400 36.97800 36.47800
H  -6.95300 38.29200 35.53400
H  -8.23900 37.85100 36.47800
H  -5.40000 44.03300 38.31800
H  -5.06400 43.15900 39.85100
H  -5.53000 44.79900 39.80800
H  -10.58900 46.09100 39.67300
H  -10.59900 45.62500 37.99500
H  -9.74700 47.04500 38.44100
H  -13.10200 42.91600 38.43500
H  -14.68500 41.04400 40.43300
H  -14.72300 43.27700 40.96800
H  -14.43400 44.34100 39.63300
H  -13.23100 44.10900 40.95300
H  -14.46200 39.95700 37.94900
H  -14.70700 41.62200 37.58900
H  -17.08700 40.95600 37.82100
H  -16.84900 40.31300 39.45800
H  -16.56000 39.42100 37.95100
H  -14.16000 36.00000 40.87900
H  -13.29100 34.44700 40.60800
H  -14.15100 35.11200 39.25100
H  -8.71800 34.79800 37.92500
H  -5.49700 32.26600 39.55700
H  -6.35100 32.68300 40.90300
H  -5.03900 33.83200 40.21500

