158

Mg 2.03700 -1.42500 44.14600
C  5.42000 -0.64600 43.60000
C  1.09900 1.41200 42.44900
C  -1.11100 -2.57100 44.18900
C  3.12500 -4.48400 45.59000
N  3.20700 0.10700 42.89100
C  4.57600 0.28500 43.03000
C  4.86600 1.67500 42.41200
C  3.45300 2.33800 42.29700
C  2.47100 1.24900 42.58700
C  3.33600 3.50800 43.26200
C  5.72900 1.70000 41.06700
C  6.52700 2.97700 41.02100
H  6.31600 3.83800 39.76500
N  0.21800 -0.63000 43.55100
C  0.05100 0.57400 42.89400
C  -1.38400 0.79500 42.79900
C  -2.08900 -0.30800 43.32200
C  -1.01000 -1.19400 43.84600
C  -1.98800 1.84900 41.84700
C  -3.61600 -0.51600 43.26000
O  -4.27600 0.36400 42.65900
C  -4.37700 -1.60100 44.01800
N  1.17800 -3.28900 44.68000
C  -0.19100 -3.50800 44.62600
C  -0.58800 -4.98400 44.95400
C  0.79100 -5.63600 45.28200
C  1.79500 -4.41000 45.16600
C  -1.59400 -5.22800 46.11100
C  1.21100 -6.81600 44.35900
C  1.67800 -8.10600 45.09100
N  3.90500 -2.40500 44.56900
C  4.15300 -3.55400 45.21800
C  5.58100 -3.65400 45.53700
C  6.16800 -2.51800 44.88500
C  5.05900 -1.82000 44.32500
C  6.40300 -4.70600 46.38100
C  7.40300 -1.78700 44.58300
O  8.51800 -2.06400 44.89800
C  7.03700 -0.56600 43.68600
C  7.44000 0.78500 44.33300
O  6.95000 1.16500 45.40800
O  8.38300 1.38000 43.57400
C  8.62000 2.72400 44.11100
H  0.81700 2.42400 42.15300
H  -2.12600 -2.95600 44.07400
H  3.65500 -5.34500 46.00100
H  5.47800 2.07700 43.22000
H  3.22300 2.70000 41.29500
H  2.64700 3.31900 44.08500
H  2.94200 4.37400 42.73000
H  4.24700 3.97900 43.63000
H  5.10000 1.55700 40.18800
H  6.34200 0.81200 41.21600
H  7.57600 2.68400 40.99400
H  6.38800 3.55900 41.93200
H  -2.64300 1.53200 41.03500
H  -1.14500 2.45300 41.51100
H  -2.63600 2.37600 42.54600
H  -5.34800 -1.19100 44.29600
H  -3.82500 -1.97300 44.88200
H  -4.67200 -2.36800 43.30200
H  -1.00600 -5.52800 44.10700
H  0.85400 -5.91200 46.33400
H  -2.00800 -4.33800 46.58400
H  -1.08400 -5.61100 46.99500
H  -2.41200 -5.92700 45.93400
H  2.01700 -6.53800 43.68100
H  0.37800 -7.25200 43.80700
H  1.49200 -8.20700 46.16000
H  2.72900 -8.34000 44.91800
H  1.21800 -8.97300 44.61700
H  6.85000 -4.06000 47.13700
H  7.17300 -5.19600 45.78600
H  5.76100 -5.48100 46.80000
H  7.42300 -0.68300 42.67400
H  7.81900 3.39500 43.80100
H  9.50900 3.23100 43.73400
H  8.61400 2.83100 45.19600
Mg -5.56500 26.06800 26.57800
C  -4.41600 27.66900 29.48300
C  -7.40900 24.09100 28.46300
C  -6.52500 24.51100 23.67700
C  -3.27600 27.87100 24.69200
N  -5.71000 25.89100 28.63900
C  -5.11700 26.58400 29.71400
C  -5.74700 26.25000 31.03200
C  -6.34100 24.81200 30.66800
C  -6.53300 24.89600 29.20800
C  -5.58600 23.55700 31.16000
C  -6.83200 27.20600 31.67500
C  -6.88500 27.27200 33.24500
H  -6.08300 26.20400 34.01900
N  -6.78800 24.51400 26.13600
C  -7.59100 23.91400 27.10000
C  -8.36000 22.86600 26.47700
C  -8.11200 22.91000 25.08500
C  -7.10600 24.00700 24.88000
C  -9.22200 21.94800 27.24600
C  -8.64900 21.97100 23.89200
O  -8.36900 22.15500 22.72000
C  -9.60200 20.85500 24.22100
N  -5.06900 26.28100 24.47000
C  -5.56300 25.47600 23.49000
C  -4.99600 25.77300 22.15200
C  -3.89800 26.81000 22.42200
C  -4.12000 27.04200 23.94300
C  -4.25800 24.52300 21.53200
C  -4.26800 28.08600 21.68000
C  -3.84500 28.25500 20.19900
N  -4.16900 27.52500 26.91400
C  -3.36200 28.18600 26.06600
C  -2.59000 29.16100 26.84100
C  -3.01900 29.00900 28.20600
C  -4.03200 28.02500 28.20300
C  -1.49400 29.97600 26.22400
C  -2.78400 29.56800 29.48100
O  -2.08400 30.46400 29.93300
C  -3.82300 28.77600 30.36400
C  -3.01400 28.30300 31.52800
O  -2.04300 27.56100 31.44000
O  -3.29900 29.04000 32.63600
C  -2.30200 28.83000 33.76600
H  -7.80600 23.39100 29.20000
H  -6.81000 23.98400 22.76400
H  -2.40700 28.29200 24.18200
H  -4.87900 26.18300 31.68800
H  -7.37300 24.76400 31.01500
H  -6.11300 23.13900 32.01800
H  -4.61400 23.89700 31.52000
H  -5.49300 22.87800 30.31300
H  -7.82900 27.07700 31.25500
H  -6.47100 28.17700 31.33500
H  -7.92100 27.37400 33.56800
H  -6.29200 28.17400 33.40100
H  -10.26700 21.92300 26.93700
H  -9.18900 22.25700 28.29100
H  -8.86400 20.92900 27.10700
H  -9.27300 20.23400 25.05400
H  -9.72900 20.20500 23.35500
H  -10.54400 21.15300 24.68100
H  -5.81700 26.16800 21.55400
H  -2.88400 26.44500 22.25800
H  -4.37500 23.64300 22.16500
H  -3.18500 24.55000 21.34500
H  -4.87100 24.32400 20.65300
H  -3.86300 28.91300 22.26400
H  -5.34000 28.26900 21.76300
H  -3.55300 27.29400 19.77500
H  -2.97800 28.91300 20.14300
H  -4.64700 28.81300 19.71600
H  -1.90100 30.66100 25.48000
H  -0.80500 29.31200 25.70300
H  -0.99000 30.56600 26.98900
H  -4.54200 29.50600 30.73700
H  -1.29400 28.97400 33.37600
H  -2.43600 27.86900 34.26300
H  -2.49300 29.58100 34.53200

