158

Mg 24.80000 -7.50000 48.10100
C  27.34400 -5.47700 46.64100
C  22.61200 -6.05900 45.89300
C  22.80700 -9.84300 48.97500
C  27.46100 -9.08300 49.99200
N  24.93500 -5.82300 46.46700
C  26.10700 -5.21100 46.02800
C  25.87400 -4.21000 44.95200
C  24.24300 -4.36400 44.79200
C  23.85000 -5.47000 45.78400
C  23.43100 -3.09600 45.07700
C  26.72500 -4.44100 43.72600
C  27.26400 -3.14900 43.11400
H  26.73400 -2.69900 41.75100
N  22.90800 -7.90800 47.52400
C  22.18000 -7.20000 46.57700
C  20.90500 -7.77300 46.46700
C  20.85500 -8.89900 47.37600
C  22.24100 -8.92200 48.00700
C  19.81800 -7.20100 45.63900
C  19.70800 -9.87800 47.46800
O  18.77900 -9.76100 46.70100
C  19.78200 -11.13600 48.40700
N  25.11100 -9.29100 49.24800
C  24.03000 -9.96800 49.62100
C  24.33100 -10.87500 50.84400
C  25.81200 -10.66000 51.22400
C  26.18300 -9.68100 50.10100
C  23.30700 -10.80800 52.08000
C  26.61500 -12.04700 51.18000
C  27.18400 -12.55100 49.80100
N  26.99800 -7.31100 48.32100
C  27.85700 -8.03300 49.15500
C  29.23700 -7.44900 49.01600
C  29.01400 -6.46300 48.00200
C  27.64900 -6.41900 47.65800
C  30.57700 -7.86700 49.63200
C  29.70800 -5.46900 47.31500
O  30.86800 -5.15500 47.40100
C  28.70900 -4.67700 46.45000
C  28.41200 -3.30500 46.99700
O  28.00800 -2.98400 48.10700
O  28.62100 -2.39700 45.95000
C  28.18500 -0.95200 46.25200
H  21.90500 -5.54400 45.23900
H  22.04400 -10.60400 49.15300
H  28.27100 -9.35900 50.67000
H  26.05500 -3.32500 45.56100
H  24.22200 -4.80100 43.79400
H  22.72200 -2.84900 44.28700
H  24.07000 -2.23100 45.25200
H  22.67100 -3.26800 45.83900
H  26.22600 -4.95100 42.90200
H  27.50900 -5.17600 43.90800
H  28.35300 -3.09900 43.10200
H  27.10000 -2.36100 43.85000
H  20.01100 -6.19400 45.26800
H  18.87500 -7.38700 46.15200
H  19.90700 -7.86600 44.78000
H  20.63700 -11.72400 48.07400
H  18.88400 -11.75500 48.40100
H  19.96300 -10.80600 49.43000
H  24.31000 -11.92200 50.54300
H  25.97700 -10.15300 52.17500
H  23.34900 -9.82000 52.53900
H  23.38200 -11.67300 52.73900
H  22.39000 -10.81400 51.49100
H  26.01600 -12.83700 51.63300
H  27.50900 -11.98400 51.79900
H  28.26300 -12.70000 49.83000
H  26.95300 -11.85800 48.99200
H  26.83400 -13.54000 49.50400
H  30.63800 -8.95100 49.73100
H  30.80300 -7.32300 50.54900
H  31.26600 -7.52000 48.86100
H  28.99300 -4.63500 45.39900
H  27.23900 -0.77400 45.74200
H  28.98700 -0.29600 45.91200
H  28.00900 -0.71100 47.30000
Mg -0.62700 43.86900 26.27500
C  1.85500 43.32200 28.58000
C  -2.91400 43.59000 28.75900
C  -3.07100 43.79600 24.01500
C  1.75300 43.42900 23.74400
N  -0.52500 43.40700 28.32700
C  0.59000 43.30500 29.13200
C  0.25800 43.39000 30.63000
C  -1.18500 42.78300 30.51800
C  -1.59500 43.20700 29.11000
C  -1.22800 41.19300 30.75600
C  0.34400 44.85000 31.21500
C  0.41000 44.93100 32.75000
H  0.13600 43.62900 33.63000
N  -2.74100 44.02300 26.40800
C  -3.50800 43.94600 27.58500
C  -4.86100 44.19000 27.28500
C  -4.95700 44.25600 25.84300
C  -3.57100 44.03200 25.30000
C  -5.79200 44.50900 28.40200
C  -6.14900 44.41700 24.99200
O  -6.03200 44.55000 23.77900
C  -7.61200 44.35100 25.53700
N  -0.72800 43.54300 24.24400
C  -1.85500 43.57500 23.52700
C  -1.60700 43.46000 21.98400
C  -0.05800 43.62500 21.92000
C  0.37700 43.49400 23.36800
C  -2.16800 42.04900 21.35600
C  0.52400 44.94000 21.37800
C  0.08600 46.16000 22.24400
N  1.45000 43.42500 26.11700
C  2.27800 43.37600 25.01700
C  3.61000 43.38100 25.47800
C  3.47800 43.30200 26.91100
C  2.13400 43.35500 27.22400
C  4.84500 43.50400 24.64600
C  4.24700 43.23600 28.11600
O  5.44700 43.09800 28.34600
C  3.25900 43.34400 29.24000
C  3.50800 42.27000 30.20500
O  3.77300 41.12200 29.91400
O  3.30800 42.67100 31.46500
C  3.70600 41.71300 32.51000
H  -3.57800 43.51900 29.62300
H  -3.80500 43.87000 23.20900
H  2.47600 43.44700 22.92600
H  0.88400 42.68400 31.17700
H  -1.78500 43.31500 31.25600
H  -1.64200 40.56100 29.97000
H  -1.66100 41.09500 31.75100
H  -0.22300 40.77200 30.75400
H  -0.55700 45.43700 31.03700
H  1.17200 45.38000 30.74300
H  -0.47600 45.47500 33.07800
H  1.32700 45.38100 33.12800
H  -5.27600 45.17000 29.09800
H  -6.13900 43.65900 28.98900
H  -6.71600 45.00000 28.09700
H  -8.29500 44.16900 24.70700
H  -7.80600 45.18100 26.21700
H  -7.81200 43.43300 26.09000
H  -2.18400 44.22800 21.46900
H  0.29200 42.73600 21.39600
H  -3.10300 42.08400 20.79500
H  -2.15700 41.29900 22.14600
H  -1.43500 41.87100 20.56900
H  0.13500 45.05900 20.36700
H  1.59600 44.86500 21.19500
H  0.92300 46.45700 22.87600
H  -0.79900 45.94600 22.84400
H  -0.23400 46.88900 21.49900
H  4.96200 42.64200 23.98900
H  5.69600 43.64100 25.31200
H  4.85600 44.38800 24.00800
H  3.40400 44.32100 29.70100
H  4.79600 41.70000 32.50800
H  3.29300 40.71800 32.34300
H  3.58400 42.10100 33.52100

