158

Mg 54.35600 24.54700 44.66500
C  51.84000 26.91700 43.99400
C  52.13600 22.05100 43.49400
C  56.87600 22.41700 44.53700
C  56.59800 27.18300 45.18100
N  52.27400 24.57800 43.78900
C  51.50900 25.62000 43.62600
C  50.17600 25.15000 42.92800
C  50.11100 23.60000 43.22100
C  51.58000 23.37400 43.56700
C  49.12400 22.97600 44.18400
C  50.28400 25.45100 41.42100
C  48.86500 25.41200 40.73500
H  48.77000 24.38800 39.63700
N  54.48300 22.47600 44.06900
C  53.48000 21.62400 43.71700
C  54.01400 20.27000 43.59900
C  55.35000 20.36700 44.06200
C  55.64200 21.79300 44.22900
C  53.24700 19.10300 43.09100
C  56.28300 19.12900 44.17600
O  55.75800 18.01100 44.01000
C  57.84000 19.15200 44.43000
N  56.44300 24.80300 44.74000
C  57.28300 23.75700 44.77700
C  58.73700 24.08500 45.12200
C  58.63600 25.61900 45.18600
C  57.11800 25.94400 45.01900
C  59.19800 23.37200 46.38800
C  59.58800 26.32200 44.17200
C  60.14400 27.63700 44.75700
N  54.27400 26.62800 44.79100
C  55.22300 27.53800 45.07200
C  54.55400 28.80300 45.34800
C  53.24900 28.60000 44.82300
C  53.09100 27.21500 44.59500
C  55.18300 30.02600 45.81000
C  52.06300 29.27900 44.54000
O  51.73500 30.48900 44.69900
C  51.09000 28.16500 44.00000
C  50.76800 28.60100 42.64100
O  51.51300 28.70400 41.65900
O  49.50700 28.81000 42.51200
C  48.97700 29.39600 41.30400
H  51.40800 21.29700 43.18800
H  57.61800 21.62600 44.41600
H  57.13200 28.09300 45.46200
H  49.30200 25.57900 43.41800
H  50.02700 22.98000 42.32800
H  49.00500 21.92400 43.92700
H  48.16700 23.39000 43.86800
H  49.42700 23.24300 45.19600
H  51.03200 24.79400 40.97800
H  50.74700 26.41700 41.22200
H  48.68600 26.43800 40.41200
H  48.09400 25.19300 41.47400
H  52.19800 19.25900 42.83900
H  53.22700 18.28200 43.80700
H  53.68000 18.68400 42.18300
H  58.40800 19.64900 43.64300
H  58.20900 18.12900 44.50200
H  58.06600 19.52900 45.42700
H  59.32000 23.73800 44.26800
H  59.00400 25.99400 46.14200
H  59.11400 23.99800 47.27600
H  60.21500 22.98200 46.34700
H  58.58200 22.48500 46.53900
H  58.97100 26.43200 43.28000
H  60.47900 25.71700 44.00800
H  59.83000 28.55200 44.25400
H  61.23300 27.64600 44.70700
H  59.84900 27.74400 45.80100
H  54.91100 30.84500 45.14400
H  56.25700 29.85400 45.88200
H  54.72800 30.18300 46.78700
H  50.21800 28.10100 44.65100
H  48.71700 28.61500 40.59000
H  49.61300 30.19100 40.91500
H  48.05900 29.94200 41.52000
Mg -10.74700 38.34600 41.74300
C  -8.93900 35.60500 40.78500
C  -8.33200 40.43700 40.16900
C  -12.91800 40.90800 41.98600
C  -13.39500 36.12700 42.72900
N  -8.93300 38.01800 40.58700
C  -8.43000 36.80400 40.23800
C  -7.15400 36.94100 39.46100
C  -6.79700 38.45200 39.46200
C  -8.10300 39.04600 40.13000
C  -5.53900 38.92100 40.24700
C  -7.30600 36.34400 38.02400
C  -6.23800 35.26000 37.65400
H  -5.18700 35.61700 36.59500
N  -10.55600 40.40300 41.35400
C  -9.57200 41.06900 40.63900
C  -9.88300 42.49800 40.51700
C  -11.09700 42.72300 41.16100
C  -11.55600 41.31500 41.61900
C  -8.89900 43.49200 39.96300
C  -11.81500 44.14700 41.32800
O  -11.39100 45.15300 40.79600
C  -13.02200 44.23900 42.22000
N  -12.91500 38.40900 42.12500
C  -13.51300 39.64500 42.26900
C  -15.02500 39.46000 42.63800
C  -15.09600 37.91900 42.92200
C  -13.72400 37.45100 42.55900
C  -15.70900 40.42500 43.73600
C  -16.28700 37.20700 42.19300
C  -16.18500 36.94700 40.66200
N  -11.04500 36.22600 41.85600
C  -12.19800 35.52200 42.34600
C  -11.71700 34.14400 42.57800
C  -10.37400 34.10500 41.97400
C  -10.07900 35.39900 41.54400
C  -12.48000 33.00600 43.20900
C  -9.19300 33.26600 41.60700
O  -8.96200 32.06800 41.81000
C  -8.28300 34.20300 40.75500
C  -6.89400 34.20900 41.34500
O  -5.91100 33.52700 40.95800
O  -6.77300 35.19700 42.32900
C  -5.40000 35.44900 42.75200
H  -7.65400 41.03900 39.56000
H  -13.69300 41.67700 41.97000
H  -14.08100 35.42000 43.20000
H  -6.25600 36.55200 39.94200
H  -6.65700 38.92200 38.48800
H  -5.68900 39.93800 40.60800
H  -4.63400 38.90100 39.64000
H  -5.47700 38.30000 41.14000
H  -7.21400 37.16000 37.30700
H  -8.34000 36.06500 37.82500
H  -6.87000 34.41600 37.37700
H  -5.71200 34.99100 38.57000
H  -9.03400 44.40300 40.54500
H  -9.02200 43.57600 38.88300
H  -7.96800 42.96300 40.16400
H  -12.96900 43.52200 43.04000
H  -13.91400 44.03300 41.62900
H  -13.07500 45.25500 42.61100
H  -15.63700 39.77700 41.79300
H  -15.14000 37.92300 44.01100
H  -16.35800 39.90500 44.44100
H  -16.37400 41.14100 43.25200
H  -15.02500 40.91400 44.42900
H  -17.18400 37.80500 42.35300
H  -16.50900 36.28900 42.73900
H  -16.44800 37.89000 40.18300
H  -16.86000 36.13400 40.39700
H  -15.19500 36.59300 40.37500
H  -12.12800 32.01500 42.92400
H  -13.55300 32.98600 43.01800
H  -12.32200 33.06300 44.28600
H  -8.38100 33.90400 39.71200
H  -4.84900 34.52000 42.90000
H  -5.36100 35.94200 43.72300
H  -4.92000 36.07600 42.00100

