158

Mg 0.83800 8.75900 26.83100
C  1.43500 11.01700 29.30600
C  0.65600 6.16600 29.17200
C  0.61000 6.47600 24.38700
C  1.14600 11.34100 24.47400
N  0.93300 8.60300 28.93000
C  1.19700 9.70300 29.78100
C  1.04700 9.27200 31.23100
C  1.19900 7.69300 31.14000
C  0.83900 7.48200 29.70200
C  2.61800 7.21200 31.66100
C  -0.34000 9.64300 31.84800
C  -0.55000 9.35400 33.32200
H  0.69800 9.05200 34.13700
N  0.61800 6.65400 26.75100
C  0.50800 5.76700 27.82200
C  0.19000 4.41100 27.33700
C  0.20900 4.46500 25.90500
C  0.51800 5.83100 25.62500
C  -0.02900 3.31500 28.24700
C  -0.17400 3.33100 24.86200
O  -0.25600 3.50100 23.61100
C  -0.55200 1.85900 25.30000
N  0.90400 8.91600 24.74200
C  0.70500 7.82100 23.97800
C  0.73300 8.25200 22.47600
C  0.44900 9.81300 22.56500
C  0.94200 10.06900 24.00400
C  1.99900 7.85100 21.73700
C  -1.10400 10.15900 22.50900
C  -1.52000 11.35100 21.56700
N  1.24500 10.78700 26.77600
C  1.38700 11.70600 25.80300
C  1.70300 12.97100 26.32400
C  1.82300 12.77800 27.68700
C  1.42400 11.43400 27.92100
C  1.90900 14.19000 25.41600
C  2.08700 13.38100 29.04200
O  2.42900 14.53800 29.31600
C  1.76600 12.27400 30.09700
C  2.92900 12.06000 30.97000
O  4.00200 11.46400 30.79600
O  2.61000 12.65200 32.21300
C  3.66900 12.50800 33.17900
H  0.62700 5.36500 29.91300
H  0.39400 5.92000 23.47200
H  1.08700 12.12700 23.71900
H  1.91100 9.72700 31.71500
H  0.49500 7.20000 31.81000
H  3.00800 7.69100 32.55900
H  3.36600 7.26600 30.87100
H  2.47400 6.20900 32.06400
H  -1.05000 8.96200 31.37900
H  -0.63400 10.63900 31.51700
H  -1.07900 8.40100 33.29300
H  -1.10000 10.17600 33.78000
H  -1.06600 3.23700 28.57400
H  0.57500 3.35000 29.15300
H  0.25300 2.42600 27.68200
H  0.33100 1.48600 25.81800
H  -0.71000 1.30700 24.37300
H  -1.44200 1.94200 25.92400
H  -0.14000 7.68400 22.15500
H  0.98800 10.42900 21.84400
H  2.75100 7.45500 22.41900
H  2.38900 8.71500 21.19900
H  1.69000 7.05600 21.05800
H  -1.33600 10.51000 23.51400
H  -1.68600 9.28100 22.23100
H  -2.14400 10.98900 20.75000
H  -0.70000 11.95000 21.17200
H  -2.02300 12.16300 22.09300
H  1.76200 15.12300 25.96000
H  1.12500 14.30700 24.66800
H  2.92200 14.18500 25.01300
H  0.86400 12.41000 30.69400
H  3.58400 13.15000 34.05600
H  4.59800 12.80100 32.68900
H  3.86600 11.48100 33.48600
Mg 35.68200 2.38600 30.45700
C  33.36200 3.30800 32.86100
C  38.13900 2.45900 33.01700
C  37.95900 1.49300 28.19400
C  33.15600 2.65900 27.95300
N  35.66400 2.73200 32.66700
C  34.64000 3.12300 33.40700
C  34.97500 3.03900 34.86900
C  36.51200 3.13300 34.88300
C  36.84100 2.70600 33.45100
C  36.96000 4.65400 35.19100
C  34.40100 1.77500 35.57700
C  34.04900 1.96300 37.12200
H  34.80900 3.01200 37.99300
N  37.73200 1.98500 30.62900
C  38.53200 2.02500 31.72900
C  39.90100 1.51100 31.38400
C  39.77600 1.20400 29.98300
C  38.44800 1.61500 29.55300
C  41.02400 1.32400 32.40300
C  40.84800 0.53400 29.14800
O  40.67800 0.28700 27.95100
C  42.16400 0.20200 29.73100
N  35.56500 2.20300 28.38500
C  36.68800 1.76300 27.65100
C  36.41500 1.55500 26.14700
C  34.83000 1.69100 26.16000
C  34.47900 2.23100 27.51700
C  37.26400 2.49000 25.22500
C  34.10600 0.38800 25.83600
C  34.34200 -0.23700 24.45300
N  33.68600 2.97500 30.37700
C  32.83300 3.01300 29.24900
C  31.51800 3.47800 29.78300
C  31.64400 3.51100 31.19900
C  33.03600 3.28200 31.48600
C  30.31900 3.74700 28.98400
C  30.94400 3.77200 32.40500
O  29.73500 4.06400 32.57500
C  32.06500 3.66900 33.54100
C  32.25500 5.01100 34.23900
O  32.63300 5.98900 33.71000
O  31.87500 4.97900 35.58300
C  32.08700 6.20800 36.33100
H  38.86700 2.61700 33.81600
H  38.76300 1.22800 27.50500
H  32.34600 2.70800 27.22300
H  34.54600 3.94200 35.30300
H  36.99500 2.54600 35.66400
H  37.60700 4.58300 36.06500
H  36.18700 5.39500 35.39300
H  37.46400 5.00600 34.29100
H  34.93100 0.83100 35.45600
H  33.43000 1.50300 35.16500
H  34.15900 1.00800 37.63400
H  32.97300 2.13900 37.09200
H  41.13500 0.26600 32.64000
H  40.85200 1.89700 33.31400
H  41.94000 1.72300 31.96600
H  42.17100 -0.55500 30.51500
H  42.57400 1.18700 29.95300
H  42.79200 -0.23400 28.95400
H  36.65600 0.50300 25.99200
H  34.67600 2.46200 25.40500
H  38.24100 2.03200 25.07200
H  37.34300 3.51400 25.59100
H  36.77000 2.34400 24.26400
H  33.02600 0.53500 25.84500
H  34.39300 -0.34600 26.58900
H  34.99700 0.44100 23.90500
H  33.37400 -0.28600 23.95500
H  34.76900 -1.22700 24.29300
H  30.50200 4.06500 27.95800
H  29.74100 4.45700 29.57600
H  29.73300 2.83700 28.85900
H  31.78200 2.92100 34.28100
H  31.39200 6.93000 35.90100
H  33.07700 6.59200 36.08300
H  32.06100 6.02100 37.40400

