158

Mg 24.02300 -4.70900 45.59300
C  26.02700 -2.23100 44.11200
C  21.43900 -3.53300 43.68000
C  22.52400 -7.68200 46.12100
C  27.05600 -6.11700 46.85800
N  23.74200 -3.05100 44.17800
C  24.67900 -2.20200 43.74300
C  24.13600 -1.17100 42.70400
C  22.58800 -1.39600 42.87100
C  22.59800 -2.75100 43.61000
C  21.87700 -0.27400 43.62100
C  24.62100 -1.58200 41.30800
C  25.43300 -0.50300 40.57700
H  25.40400 -0.61400 39.04700
N  22.09500 -5.37000 45.15500
C  21.20300 -4.74700 44.33200
C  20.02000 -5.53200 44.30200
C  20.28800 -6.80600 45.01400
C  21.71200 -6.66200 45.43400
C  18.76500 -5.08200 43.51000
C  19.35000 -7.89500 45.20600
O  18.31400 -7.93000 44.59100
C  19.55800 -9.04800 46.22900
N  24.76600 -6.73500 46.24200
C  23.88800 -7.76500 46.46200
C  24.46300 -8.92100 47.19000
C  25.99100 -8.33900 47.40700
C  25.97800 -6.98000 46.82100
C  23.66200 -9.46500 48.36900
C  27.08800 -9.34800 46.97000
C  28.10700 -9.65100 48.02800
N  26.10800 -4.29200 45.58100
C  27.17600 -4.90800 46.20700
C  28.35800 -4.02700 46.04100
C  27.91000 -3.01900 45.21400
C  26.52000 -3.21600 44.94500
C  29.72400 -4.30000 46.48500
C  28.41200 -1.88400 44.44100
O  29.56700 -1.47600 44.40800
C  27.16200 -1.26000 43.67000
C  26.87300 0.14000 44.06400
O  26.43400 0.39300 45.13500
O  27.39200 0.96200 43.07500
C  27.49000 2.45200 43.23400
H  20.60400 -3.04700 43.17100
H  22.01500 -8.64300 46.22400
H  27.96100 -6.54300 47.29600
H  24.36800 -0.14600 42.99500
H  22.02900 -1.36100 41.93600
H  21.41600 -0.74100 44.49100
H  21.17700 0.08500 42.86600
H  22.44800 0.59100 43.95800
H  23.74000 -1.69200 40.67500
H  25.26900 -2.45200 41.40700
H  26.46400 -0.56300 40.92600
H  25.04600 0.48300 40.83600
H  17.91600 -5.29100 44.16200
H  18.72300 -5.71800 42.62600
H  18.72900 -4.04900 43.16500
H  18.58600 -9.34100 46.62600
H  20.10200 -8.81800 47.14600
H  20.02000 -9.87600 45.69200
H  24.53300 -9.58500 46.32900
H  26.22900 -8.14800 48.45300
H  23.66100 -10.55500 48.33700
H  22.60400 -9.26600 48.19700
H  24.02200 -9.11800 49.33700
H  27.58600 -8.85100 46.13800
H  26.69600 -10.28500 46.57300
H  27.80900 -9.21900 48.98300
H  29.02200 -9.24800 47.59300
H  28.19300 -10.73700 48.06200
H  30.39400 -3.82300 45.77000
H  29.97700 -5.34400 46.66700
H  29.88000 -3.84000 47.46100
H  27.42500 -1.29000 42.61300
H  28.25500 2.49500 44.00900
H  26.58400 2.85900 43.68400
H  27.79400 3.03400 42.36400
Mg 36.58100 49.21300 25.55000
C  36.49400 47.24900 28.52700
C  35.25800 51.84700 27.41700
C  36.32200 50.98700 22.68700
C  37.45300 46.36700 23.81400
N  35.88100 49.42000 27.64600
C  36.14700 48.55200 28.70000
C  35.96200 49.29000 30.06300
C  35.31500 50.65400 29.69800
C  35.50800 50.64200 28.18600
C  33.84100 50.86300 30.10300
C  37.32500 49.46400 30.92900
C  37.20200 49.65500 32.48200
H  35.81300 49.70000 33.01000
N  35.93400 51.16200 25.09600
C  35.43400 52.10200 25.99300
C  35.33300 53.35200 25.28800
C  35.65300 53.15800 23.90800
C  36.05900 51.73800 23.84000
C  34.87200 54.55000 26.00100
C  35.80200 54.24000 22.72600
O  36.19600 53.89600 21.64100
C  35.64200 55.72000 22.86500
N  36.66900 48.66100 23.52300
C  36.63700 49.64100 22.50900
C  36.99500 49.03300 21.16500
C  37.57600 47.66700 21.67300
C  37.23200 47.54500 23.04700
C  35.77800 49.14600 20.15300
C  39.10900 47.55300 21.31300
C  40.16600 48.34400 22.06100
N  36.86500 47.14300 26.01700
C  37.24700 46.14200 25.17600
C  37.59900 44.99900 26.04000
C  37.31800 45.38500 27.36800
C  36.82300 46.67000 27.31100
C  38.28400 43.77200 25.66800
C  37.29300 44.89900 28.71900
O  37.74500 43.83800 29.25700
C  36.65100 46.07200 29.51400
C  35.25700 45.80000 30.01600
O  34.28700 45.72500 29.31000
O  35.24200 45.83900 31.39500
C  33.94400 45.37600 31.97300
H  34.87100 52.67000 28.02100
H  36.27500 51.48900 21.71800
H  37.87700 45.41000 23.50500
H  35.30800 48.69000 30.69600
H  35.91000 51.48900 30.06700
H  33.81100 51.78600 30.68300
H  33.50800 50.03100 30.72300
H  33.14800 50.98300 29.27000
H  37.90100 50.29900 30.53100
H  37.92900 48.56500 30.80700
H  37.84900 50.47600 32.79000
H  37.66000 48.79100 32.96400
H  35.63400 55.30600 26.19400
H  34.33500 54.37600 26.93300
H  34.11000 55.06600 25.41700
H  35.16800 56.19100 23.72600
H  35.04100 56.00300 22.00100
H  36.66600 56.08600 22.79300
H  37.86300 49.58100 20.79800
H  37.03400 46.81700 21.25800
H  35.67300 48.17800 19.66400
H  36.03900 49.88800 19.39800
H  34.92400 49.46200 20.75200
H  39.04500 47.74000 20.24100
H  39.27500 46.48000 21.40300
H  39.82100 49.13800 22.72400
H  40.93100 48.75600 21.40200
H  40.71700 47.65100 22.69700
H  38.80100 43.97500 24.73100
H  37.58200 42.94200 25.59000
H  39.14000 43.58100 26.31600
H  37.19200 46.47000 30.37200
H  33.85400 45.71800 33.00400
H  34.02000 44.29200 32.05500
H  33.10300 45.74100 31.38300

