158

Mg 17.15700 -1.77900 27.69800
C  16.33600 0.18500 30.42600
C  19.04200 -3.79500 29.84700
C  18.35900 -3.46500 25.07300
C  15.81900 0.68600 25.56400
N  17.66500 -1.77000 29.89400
C  17.07900 -0.94400 30.82500
C  17.57900 -1.34200 32.20400
C  18.56000 -2.52200 31.97300
C  18.39600 -2.72800 30.46000
C  20.07400 -2.17400 32.27000
C  16.42500 -1.65100 33.19200
C  16.42100 -0.77600 34.49000
H  17.78000 -0.48000 35.18700
N  18.34300 -3.46800 27.52700
C  18.97300 -4.23800 28.49000
C  19.50700 -5.47500 27.86000
C  19.37800 -5.28400 26.44400
C  18.62400 -4.05600 26.34700
C  19.85300 -6.67100 28.67700
C  19.88800 -6.16400 25.33100
O  19.60500 -6.01500 24.12600
C  20.71700 -7.32900 25.68200
N  16.97000 -1.51300 25.60000
C  17.71900 -2.25600 24.82500
C  17.66700 -1.64000 23.40900
C  16.52600 -0.51700 23.51400
C  16.37700 -0.44300 24.98900
C  19.11600 -1.04100 22.87400
C  15.16100 -1.00100 22.93200
C  14.21100 -0.05900 22.25000
N  16.16800 0.03100 27.89700
C  15.66000 0.91700 26.97700
C  14.93800 1.98800 27.68100
C  15.24400 1.76800 29.02800
C  16.00500 0.54600 29.12600
C  14.22900 3.10300 27.11300
C  15.05200 2.23000 30.34600
O  14.41100 3.17900 30.75900
C  15.87300 1.29000 31.33800
C  16.90100 2.10600 32.05500
O  17.99500 2.39200 31.68400
O  16.42300 2.62100 33.25500
C  17.24500 3.49700 34.09700
H  19.56800 -4.38500 30.60100
H  18.95400 -3.73800 24.19900
H  15.40000 1.42400 24.87700
H  18.06800 -0.49300 32.68200
H  18.32600 -3.44200 32.50900
H  20.35000 -1.23700 32.75500
H  20.76800 -2.20900 31.43000
H  20.39300 -2.95900 32.95600
H  16.41700 -2.72700 33.36500
H  15.50500 -1.48200 32.63200
H  15.94700 -1.27200 35.33700
H  15.76100 0.08700 34.40100
H  19.39300 -6.71600 29.66500
H  20.93300 -6.53200 28.64700
H  19.72300 -7.66300 28.24400
H  21.54900 -7.07800 26.34100
H  21.05000 -7.77200 24.74400
H  20.10800 -8.11800 26.12500
H  17.35800 -2.44600 22.74300
H  16.78400 0.42100 23.02200
H  19.77000 -1.04900 23.74600
H  19.08200 -0.02400 22.48400
H  19.71900 -1.61700 22.17200
H  14.47400 -1.52000 23.60100
H  15.45000 -1.66000 22.11400
H  13.23200 -0.15700 22.71900
H  14.13200 -0.22400 21.17600
H  14.55400 0.95600 22.44900
H  13.49600 2.65600 26.44300
H  14.82000 3.83800 26.56600
H  13.71200 3.62300 27.91900
H  15.17500 0.76200 31.98800
H  17.74900 2.93800 34.88500
H  16.41900 4.12300 34.43300
H  17.91100 4.05900 33.44100
Mg 26.24900 -0.09300 29.40300
C  28.12900 -0.61500 32.30800
C  23.51500 0.18700 31.31800
C  24.55400 0.06400 26.58300
C  29.20100 -0.88400 27.53300
N  25.85300 -0.47400 31.59700
C  26.84000 -0.35100 32.60400
C  26.23400 -0.23400 33.91400
C  24.70100 -0.04800 33.59000
C  24.63700 -0.08300 32.08300
C  23.68800 -1.04800 34.33400
C  26.96200 0.66400 34.97300
C  26.26500 1.04700 36.26500
H  26.57600 0.23500 37.51400
N  24.24300 0.10700 29.01400
C  23.28300 0.18300 29.93600
C  22.05600 0.45800 29.25800
C  22.24900 0.29300 27.84500
C  23.71000 0.12300 27.68300
C  20.76200 0.75200 30.06300
C  21.27800 0.24900 26.67100
O  21.52900 0.03300 25.49200
C  19.96700 0.56300 27.04600
N  26.82600 -0.35200 27.34400
C  25.89300 -0.18400 26.34100
C  26.52900 -0.16100 24.91200
C  28.05500 -0.18900 25.31300
C  28.07000 -0.49100 26.83000
C  26.11900 -1.30700 23.96600
C  28.93100 0.96500 24.97200
C  30.41700 0.73000 24.80700
N  28.33000 -0.66800 29.79400
C  29.35700 -0.98500 28.92700
C  30.51200 -1.28000 29.66200
C  30.10700 -1.04900 30.97200
C  28.75100 -0.71700 31.04800
C  31.77700 -1.74900 29.14500
C  30.57700 -1.11500 32.35500
O  31.73400 -1.30800 32.77800
C  29.32000 -0.77300 33.25100
C  29.21300 -1.83000 34.26900
O  28.60900 -2.91300 34.04000
O  29.83400 -1.51800 35.48200
C  29.75000 -2.49200 36.53500
H  22.62900 0.35300 31.93400
H  24.02000 0.09400 25.63000
H  30.05600 -0.93500 26.85500
H  26.35200 -1.21500 34.37300
H  24.31000 0.93600 33.84800
H  22.92100 -1.37500 33.63200
H  23.25800 -0.52100 35.18600
H  24.17400 -1.86600 34.86600
H  27.41300 1.58300 34.59900
H  27.87100 0.14400 35.27700
H  25.18100 1.11300 36.16600
H  26.48700 2.10300 36.41900
H  20.25500 1.55800 29.53200
H  21.04300 1.14700 31.03900
H  20.03500 -0.05800 30.12200
H  19.36500 0.53700 26.13800
H  19.87000 1.62000 27.29400
H  19.50400 -0.08100 27.79300
H  26.27800 0.81300 24.49000
H  28.52600 -1.08100 24.90000
H  25.41400 -1.95700 24.48500
H  26.95900 -1.83400 23.51400
H  25.49900 -0.93900 23.14900
H  28.95400 1.77400 25.70200
H  28.65700 1.51200 24.06900
H  30.62800 1.13000 23.81600
H  30.67100 -0.33000 24.76500
H  31.04200 1.15300 25.59300
H  32.26200 -2.17200 30.02400
H  32.42800 -1.09800 28.56100
H  31.43500 -2.53400 28.47000
H  29.60200 0.17300 33.71500
H  29.79200 -3.52400 36.18400
H  28.74900 -2.38400 36.95400
H  30.44500 -2.45700 37.37400

