158

Mg 9.41100 47.96800 27.55300
C  7.11100 47.74800 30.27800
C  11.87300 48.27200 29.67800
C  11.40300 48.48700 24.77300
C  6.56200 48.02400 25.31200
N  9.38500 47.95100 29.77500
C  8.43500 47.84300 30.73000
C  8.96400 48.00500 32.18400
C  10.51300 48.27500 31.93200
C  10.65000 48.08100 30.36500
C  11.08800 49.60300 32.58900
C  8.53600 46.87800 33.15400
C  9.63500 46.28000 34.05000
H  9.07300 45.80500 35.39800
N  11.40300 48.22800 27.28600
C  12.27400 48.23100 28.29900
C  13.59000 48.42300 27.84100
C  13.50700 48.50600 26.43200
C  12.06000 48.34300 26.03800
C  14.88200 48.41900 28.74000
C  14.64300 48.54300 25.42300
O  14.41100 48.50700 24.18600
C  16.09600 48.47300 25.87000
N  9.06100 48.16200 25.38600
C  10.06600 48.34000 24.45900
C  9.55700 48.54300 23.02100
C  8.04500 48.32900 23.22800
C  7.85300 48.16700 24.72200
C  10.00000 49.92100 22.41200
C  7.24800 47.14200 22.52000
C  5.94400 47.45500 21.76800
N  7.29600 47.91200 27.66100
C  6.29600 47.97200 26.69200
C  5.02300 47.84600 27.34800
C  5.28900 47.69700 28.70600
C  6.68000 47.76300 28.85200
C  3.66600 47.71800 26.69200
C  4.68700 47.62600 29.97700
O  3.49300 47.42700 30.27000
C  5.84100 47.70100 31.07300
C  5.70100 46.40600 31.70900
O  5.93900 45.35500 31.19600
O  5.36900 46.50300 33.04600
C  5.24200 45.15600 33.74400
H  12.68800 48.62700 30.31100
H  12.03700 48.81000 23.94500
H  5.77500 47.96800 24.55600
H  8.46800 48.89100 32.58100
H  11.14000 47.48900 32.35400
H  12.10100 49.35200 32.90700
H  10.41900 50.00100 33.35200
H  11.19000 50.30400 31.76100
H  8.16500 46.01400 32.60200
H  7.63400 47.23100 33.65200
H  10.29600 47.11800 34.27100
H  10.17000 45.43400 33.61900
H  14.68700 48.46400 29.81100
H  15.44400 49.32700 28.52200
H  15.57400 47.60800 28.51400
H  16.20500 47.44200 26.20700
H  16.15900 49.28600 26.59300
H  16.84400 48.50200 25.07800
H  9.97400 47.79000 22.35200
H  7.55700 49.29000 23.06700
H  10.80400 50.45600 22.91700
H  9.13700 50.58300 22.32900
H  10.32500 49.66600 21.40400
H  7.01700 46.40100 23.28600
H  7.88600 46.62000 21.80700
H  5.76900 48.52900 21.83500
H  5.12900 46.88500 22.21200
H  5.93600 47.18600 20.71100
H  3.91000 47.54400 25.64400
H  3.14600 48.67200 26.77200
H  3.13900 46.93600 27.24000
H  5.71900 48.58100 31.70400
H  4.89200 45.21100 34.77500
H  6.18400 44.63500 33.57200
H  4.44600 44.56800 33.28700
Mg 0.27900 43.67000 26.30300
C  2.39400 43.09400 29.08700
C  -2.26800 42.35300 28.12800
C  -1.60400 43.67700 23.48000
C  3.14000 44.25200 24.40100
N  0.10100 42.89500 28.37100
C  1.03500 42.90300 29.41100
C  0.29700 42.82100 30.77000
C  -1.03700 42.08800 30.41000
C  -1.11200 42.46500 28.85300
C  -0.98600 40.50300 30.69400
C  0.19200 44.22200 31.30900
C  -0.20100 44.34200 32.75300
H  -0.54900 43.07300 33.60000
N  -1.75000 43.18800 25.89000
C  -2.63800 42.74900 26.83200
C  -3.93800 42.59900 26.14700
C  -3.76500 42.99800 24.78600
C  -2.34000 43.29400 24.67800
C  -5.11500 42.19800 26.97000
C  -4.71600 42.95000 23.65600
O  -4.46000 43.27100 22.52500
C  -6.14100 42.35400 23.82500
N  0.62800 43.81300 24.22000
C  -0.30500 43.96100 23.26100
C  0.27800 44.44100 21.95100
C  1.76200 44.74900 22.30000
C  1.87000 44.30300 23.75100
C  0.01200 43.42300 20.77700
C  2.24800 46.16900 22.01000
C  2.14600 47.16700 23.22900
N  2.37400 43.64600 26.61000
C  3.40700 43.84000 25.71500
C  4.66000 43.67900 26.42600
C  4.29900 43.42300 27.73800
C  2.89800 43.31900 27.78300
C  6.06900 43.77000 25.82800
C  4.84200 43.15400 29.04000
O  5.97300 42.98700 29.36000
C  3.63000 43.10400 29.95300
C  3.72400 41.97000 30.86200
O  3.75800 40.80500 30.55400
O  3.86400 42.44900 32.08500
C  3.88500 41.47600 33.16800
H  -3.10600 41.92000 28.67800
H  -2.09000 43.75400 22.50400
H  3.96200 44.56200 23.75300
H  0.89500 42.21300 31.44900
H  -1.97400 42.47700 30.80900
H  -0.12700 40.23100 31.30700
H  -0.85000 40.07800 29.69900
H  -1.91300 40.10800 31.10800
H  -0.51700 44.75400 30.67500
H  1.19500 44.64200 31.22900
H  -1.07600 44.98900 32.69200
H  0.56100 44.88400 33.31300
H  -5.06900 42.40200 28.04000
H  -5.24200 41.12900 26.80000
H  -5.97800 42.71200 26.54600
H  -6.77200 43.07100 24.35200
H  -5.94400 41.52600 24.50500
H  -6.52600 41.99000 22.87300
H  -0.23300 45.31000 21.53500
H  2.27600 44.09500 21.59600
H  -0.42000 42.49600 21.15300
H  0.86800 43.17400 20.15000
H  -0.66500 43.85100 20.03800
H  1.55600 46.61300 21.29400
H  3.29300 46.17600 21.70000
H  2.58900 46.75300 24.13400
H  1.12300 47.45900 23.46600
H  2.80900 48.02100 23.09000
H  6.70700 43.60100 26.69600
H  5.85600 44.82300 25.64100
H  6.33000 43.26800 24.89600
H  3.68200 44.03600 30.51600
H  3.23500 41.97200 33.88900
H  4.92600 41.46100 33.49100
H  3.54100 40.45700 32.98700

