158

Mg 1.66600 -0.22000 43.49600
C  5.10500 0.33700 43.21600
C  1.07100 2.76000 42.05400
C  -1.50200 -1.01900 43.57500
C  2.47600 -3.57500 44.54300
N  2.95800 1.30600 42.64700
C  4.31200 1.35500 42.68600
C  4.86700 2.65600 41.99900
C  3.51600 3.56700 42.05800
C  2.40800 2.46900 42.20700
C  3.53200 4.60300 43.18000
C  5.43400 2.34400 40.58600
C  6.89800 2.89700 40.14400
H  6.96100 3.80300 38.90400
N  0.03200 0.71400 42.89200
C  -0.03500 1.97500 42.32100
C  -1.44100 2.36600 42.16600
C  -2.25600 1.34900 42.76500
C  -1.23300 0.26800 43.13300
C  -1.93800 3.77500 41.54100
C  -3.78500 1.36600 43.00500
O  -4.45400 2.25400 42.52700
C  -4.52800 0.34800 43.73700
N  0.58500 -2.14600 43.88500
C  -0.76900 -2.08300 44.00600
C  -1.26000 -3.44000 44.42400
C  0.06300 -4.16400 44.92500
C  1.12200 -3.32200 44.29400
C  -2.34200 -3.33800 45.47800
C  0.11100 -5.65700 44.60600
C  0.23300 -6.60000 45.77000
N  3.40900 -1.44500 43.82800
C  3.60200 -2.74800 44.28000
C  5.00000 -2.95900 44.43600
C  5.63900 -1.79600 43.99600
C  4.58200 -0.86400 43.68200
C  5.67000 -4.25200 44.73000
C  7.02100 -1.20100 43.77500
O  8.15000 -1.56000 44.11800
C  6.61300 0.24400 43.28300
C  7.23900 1.21200 44.12600
O  6.70900 1.88000 45.03800
O  8.49000 1.44200 43.65600
C  9.42400 2.24200 44.41000
H  0.96900 3.75600 41.61700
H  -2.53800 -1.36300 43.54600
H  2.84000 -4.51300 44.96900
H  5.63400 3.00200 42.69200
H  3.48300 4.19600 41.16800
H  3.82600 5.56400 42.75700
H  4.27600 4.36400 43.94000
H  2.51800 4.75100 43.55100
H  4.81000 2.85700 39.85400
H  5.32000 1.28600 40.35100
H  7.53400 2.01900 40.03000
H  7.38100 3.40000 40.98200
H  -2.90600 3.72700 41.04100
H  -1.19500 4.19000 40.86000
H  -2.02200 4.39600 42.43200
H  -5.41600 0.73900 44.23400
H  -3.84900 -0.02800 44.50300
H  -4.78400 -0.48500 43.08200
H  -1.66800 -3.96800 43.56200
H  0.19900 -3.93800 45.98300
H  -2.58900 -2.29400 45.67000
H  -2.03100 -3.77600 46.42700
H  -3.18900 -3.89900 45.08300
H  0.98700 -5.78800 43.97100
H  -0.69400 -5.94400 43.92900
H  1.12500 -7.21900 45.66500
H  -0.59800 -7.28800 45.61300
H  0.14600 -6.09200 46.73000
H  5.65500 -4.79400 43.78400
H  5.12700 -4.75600 45.52900
H  6.70800 -4.02000 44.96500
H  7.03200 0.35000 42.28200
H  9.63700 3.25100 44.05900
H  10.41800 1.80200 44.48100
H  9.07400 2.51100 45.40700
Mg -0.80900 44.32100 24.81100
C  1.14500 43.87100 27.56700
C  -3.33200 42.68000 26.42100
C  -2.60200 44.47300 21.96900
C  1.92700 45.53200 23.10500
N  -1.06200 43.52600 26.82400
C  -0.16900 43.51600 27.83400
C  -0.69600 43.04600 29.19800
C  -2.07400 42.46500 28.74500
C  -2.20000 42.92400 27.21600
C  -2.18200 40.95300 28.86800
C  -0.80000 44.23300 30.29900
C  -1.10500 43.84400 31.81000
H  -0.84700 42.37400 32.40500
N  -2.75600 43.70000 24.27200
C  -3.67100 43.05500 25.08400
C  -4.98600 42.91000 24.44600
C  -4.78200 43.48500 23.10700
C  -3.34200 43.93800 23.06900
C  -6.21600 42.55900 25.12400
C  -5.74300 43.48200 21.94400
O  -5.48000 44.04300 20.88200
C  -7.04600 42.86600 22.07900
N  -0.39800 44.89800 22.79700
C  -1.28600 44.86800 21.82400
C  -0.61400 45.26400 20.44100
C  0.67000 45.94500 20.88400
C  0.71400 45.50900 22.39500
C  -0.45100 44.15700 19.35100
C  0.72300 47.44100 20.57300
C  0.32800 48.47300 21.64300
N  1.18800 44.56800 25.17100
C  2.19500 45.04900 24.38100
C  3.43100 45.08700 25.10900
C  3.04600 44.61400 26.39200
C  1.70900 44.27600 26.34800
C  4.71500 45.76900 24.65600
C  3.56800 44.37600 27.76700
O  4.70300 44.38000 28.22400
C  2.25500 43.98000 28.58700
C  2.41900 42.61100 29.13400
O  2.31600 41.55200 28.58900
O  2.67200 42.82600 30.48400
C  2.92200 41.53800 31.12600
H  -4.15100 42.26600 27.01200
H  -3.10900 44.78200 21.05300
H  2.75000 45.99800 22.56000
H  -0.06000 42.23600 29.55500
H  -2.86800 42.96300 29.30000
H  -2.05700 40.41400 27.92900
H  -3.05400 40.68100 29.46300
H  -1.37400 40.52900 29.46400
H  -1.64300 44.79600 29.89900
H  0.11000 44.83200 30.27900
H  -2.11000 44.08600 32.15600
H  -0.31400 44.28800 32.41400
H  -6.88500 41.92700 24.54000
H  -6.67300 43.52600 25.33800
H  -6.01700 42.10300 26.09300
H  -7.67200 43.50200 22.70500
H  -6.87000 41.84300 22.41300
H  -7.43800 42.66200 21.08300
H  -1.22400 46.02300 19.95000
H  1.46500 45.48600 20.29600
H  -0.78100 43.19300 19.73900
H  0.57600 44.04100 19.00500
H  -1.16800 44.49800 18.60400
H  0.05300 47.78800 19.78500
H  1.69200 47.65100 20.12100
H  1.27300 48.87200 22.01200
H  -0.15600 47.93900 22.46100
H  -0.29700 49.33200 21.39700
H  5.52700 45.04300 24.64300
H  5.00200 46.58500 25.32000
H  4.51100 46.08400 23.63200
H  2.13200 44.65900 29.43100
H  3.96600 41.23800 31.03600
H  2.26000 40.69800 30.91700
H  2.76100 41.72900 32.18700

