158

Mg 30.51700 59.66400 40.47800
C  27.73500 57.89000 39.39600
C  32.44500 56.82500 39.72100
C  33.24500 61.49600 40.92000
C  28.44400 62.30600 41.10000
N  30.16500 57.69400 39.51400
C  28.92100 57.20100 39.14300
C  29.01000 55.81600 38.42400
C  30.46800 55.40300 38.91600
C  31.11600 56.72700 39.35100
C  30.48600 54.22100 39.97900
C  28.87900 55.96800 36.90000
C  27.89000 55.06100 36.19200
H  26.87600 55.72800 35.27600
N  32.62500 59.24600 40.19200
C  33.19000 57.98200 40.10700
C  34.57200 58.09200 40.27600
C  34.86800 59.46600 40.60000
C  33.54700 60.15000 40.62200
C  35.57800 56.96100 39.95200
C  36.30700 59.95600 40.75700
O  37.32700 59.21500 40.71900
C  36.60500 61.41900 40.91900
N  30.83600 61.62800 40.64500
C  32.07700 62.12700 40.93800
C  32.05400 63.58500 41.31400
C  30.49700 63.83100 41.43300
C  29.90400 62.47600 41.04100
C  32.99200 64.10800 42.44400
C  30.05500 65.05300 40.53200
C  29.14200 66.11100 41.11000
N  28.49900 60.03900 40.48200
C  27.78300 61.17200 40.74400
C  26.32100 60.92600 40.63800
C  26.27000 59.66700 40.01100
C  27.61800 59.16800 40.00900
C  25.21500 61.96700 40.87400
C  25.36200 58.63100 39.47200
O  24.14200 58.65900 39.40300
C  26.27100 57.46500 39.08000
C  25.77100 56.35900 39.94700
O  26.16000 56.16700 41.10300
O  24.77700 55.67100 39.28400
C  24.25700 54.51500 39.95600
H  32.99400 55.90100 39.52400
H  34.07200 62.03400 41.39000
H  27.82100 63.15700 41.38200
H  28.20600 55.18600 38.80500
H  31.03200 55.00400 38.07200
H  30.79900 53.26300 39.56500
H  29.47100 54.05100 40.33700
H  31.03400 54.59700 40.84300
H  29.84700 55.61300 36.54600
H  28.79200 57.01000 36.59300
H  27.35400 54.47000 36.93400
H  28.46400 54.35400 35.59300
H  36.08900 56.74800 40.89100
H  36.38200 57.18600 39.25100
H  35.00200 56.06000 39.73900
H  37.62100 61.66300 40.60900
H  36.26200 61.81600 41.87500
H  36.02900 61.94200 40.15600
H  32.42100 64.10500 40.42900
H  30.05000 64.01200 42.41100
H  32.27900 64.68400 43.03400
H  33.75900 64.81000 42.11800
H  33.40000 63.32200 43.07900
H  29.64600 64.71100 39.58100
H  30.98600 65.53800 40.23900
H  28.52700 66.54400 40.32200
H  29.70900 66.97200 41.46400
H  28.49600 65.72800 41.90000
H  24.84100 62.44700 39.96900
H  25.61300 62.78100 41.48100
H  24.35800 61.57000 41.41700
H  26.10500 57.34500 38.01000
H  24.99200 54.17800 40.68800
H  24.10700 53.70700 39.24000
H  23.35900 54.82700 40.48800
Mg -8.51200 40.58900 43.03600
C  -7.59400 37.38200 41.82800
C  -5.96700 41.92700 41.19000
C  -9.92100 43.69100 43.36200
C  -11.33600 39.20700 44.30600
N  -6.87500 39.69500 41.66800
C  -6.75800 38.37900 41.31300
C  -5.45500 38.14500 40.44300
C  -4.82700 39.55100 40.53400
C  -5.97200 40.47700 41.10400
C  -3.46900 39.66500 41.28600
C  -5.82500 37.64300 39.02600
C  -5.33400 36.25000 38.65200
H  -4.19600 36.12100 37.60200
N  -7.91100 42.57400 42.44100
C  -6.86100 42.85500 41.69800
C  -6.71800 44.20400 41.57800
C  -7.83400 44.86200 42.21400
C  -8.68000 43.69900 42.74500
C  -5.50200 44.83800 40.90800
C  -8.11600 46.25000 42.30700
O  -7.35800 47.03700 41.76600
C  -9.15500 46.82300 43.22200
N  -10.25700 41.37000 43.77000
C  -10.65100 42.67000 43.87400
C  -12.09100 42.80700 44.35600
C  -12.50900 41.37600 44.69600
C  -11.27600 40.58300 44.21700
C  -12.35500 43.84700 45.39500
C  -13.98800 40.92900 44.33500
C  -15.16400 41.83300 44.84100
N  -9.38800 38.64000 43.03100
C  -10.52100 38.22800 43.66000
C  -10.67400 36.77600 43.56100
C  -9.50900 36.40500 42.86800
C  -8.76000 37.59000 42.53500
C  -11.85100 35.98300 44.16400
C  -8.77000 35.27900 42.33500
O  -8.97200 34.06700 42.52000
C  -7.57500 35.90400 41.51800
C  -6.27300 35.32600 41.93800
O  -5.61800 35.70800 42.88200
O  -6.11200 34.21500 41.20900
C  -5.02300 33.38600 41.56800
H  -5.08300 42.35200 40.70900
H  -10.44100 44.64900 43.42900
H  -12.22200 38.81800 44.81100
H  -4.75500 37.43800 40.88700
H  -4.78700 40.09000 39.58800
H  -2.74700 40.19100 40.66200
H  -3.07300 38.67400 41.50400
H  -3.46700 40.05300 42.30500
H  -5.63900 38.44200 38.30800
H  -6.90500 37.49800 39.04400
H  -6.19200 35.67800 38.30100
H  -4.99400 35.74100 39.55400
H  -5.25600 44.37500 39.95200
H  -4.66800 44.73900 41.60300
H  -5.60700 45.92100 40.83700
H  -8.96200 47.88000 43.40200
H  -9.15100 46.35200 44.20500
H  -10.16400 46.83400 42.81100
H  -12.64200 43.04600 43.44600
H  -12.39800 41.30600 45.77800
H  -11.46800 44.15800 45.94700
H  -13.18700 43.68000 46.08000
H  -12.70800 44.74200 44.88300
H  -14.18800 40.02400 44.90800
H  -14.10200 40.72700 43.27000
H  -15.55000 41.39100 45.76000
H  -15.97400 42.09400 44.16000
H  -14.82100 42.86500 44.91700
H  -12.67500 35.90800 43.45500
H  -12.31400 36.60000 44.93500
H  -11.38100 35.05000 44.47600
H  -7.74000 35.76000 40.45000
H  -4.76600 32.76200 40.71300
H  -5.09900 32.80400 42.48700
H  -4.11200 33.94800 41.77300

