158

Mg 35.32200 2.46400 29.82700
C  33.09900 3.32400 32.46700
C  37.93700 2.29000 32.21400
C  37.47100 2.10900 27.28700
C  32.67400 3.09700 27.60000
N  35.53400 2.87700 32.12200
C  34.46300 3.02500 32.92300
C  34.90800 3.13300 34.41600
C  36.45300 3.03200 34.25900
C  36.69200 2.71000 32.79600
C  37.16700 4.26900 34.87600
C  34.30300 1.95000 35.31400
C  34.17400 2.13800 36.80700
H  34.86800 3.29500 37.53200
N  37.45200 2.20000 29.78700
C  38.29200 2.05900 30.85300
C  39.52900 1.73900 30.32600
C  39.49100 1.79200 28.86800
C  38.10300 2.14400 28.58800
C  40.60600 1.39700 31.23600
C  40.58800 1.71300 27.83700
O  40.41400 2.03200 26.65800
C  41.93100 1.27500 28.23600
N  35.10300 2.65400 27.75900
C  36.14700 2.37700 26.83300
C  35.68800 2.48100 25.37500
C  34.15500 2.50300 25.53500
C  33.92300 2.81300 27.01700
C  36.24600 3.70400 24.42100
C  33.30700 1.34000 24.88400
C  33.10100 0.07500 25.64400
N  33.27100 3.06700 29.96400
C  32.36200 3.28800 28.93400
C  31.15100 3.79300 29.49700
C  31.33700 3.74200 30.90700
C  32.69300 3.33400 31.12500
C  29.87200 4.21500 28.68700
C  30.79200 3.86800 32.21000
O  29.64600 4.20800 32.48700
C  31.88900 3.68300 33.28500
C  31.79400 4.93400 34.10000
O  32.23800 6.05900 33.80300
O  31.21500 4.67000 35.27800
C  30.94400 5.87000 36.10500
H  38.71300 2.18100 32.97500
H  38.17000 1.71900 26.54400
H  31.83700 3.35800 26.94900
H  34.59300 4.08800 34.83600
H  36.81700 2.15200 34.78900
H  38.07100 4.55300 34.33800
H  37.38300 4.05600 35.92300
H  36.60400 5.19900 34.80300
H  34.96200 1.11700 35.06900
H  33.30100 1.66800 34.99100
H  34.64600 1.27800 37.28300
H  33.14500 2.17000 37.16300
H  40.60900 2.14600 32.02800
H  41.61500 1.45000 30.82900
H  40.43800 0.43400 31.71900
H  41.87800 0.26200 28.63300
H  42.30200 2.04200 28.91600
H  42.45900 1.36400 27.28600
H  35.85300 1.52400 24.88100
H  33.88900 3.42700 25.02100
H  36.83000 3.18900 23.65800
H  37.03600 4.24900 24.93900
H  35.47900 4.36800 24.02300
H  33.95400 1.14900 24.02800
H  32.32200 1.70800 24.59600
H  33.37300 -0.85500 25.14600
H  32.09500 0.01700 26.06100
H  33.64300 0.07300 26.58900
H  30.18000 5.10300 28.13500
H  28.90500 4.39700 29.15800
H  29.91000 3.33300 28.04800
H  31.53200 2.84600 33.88600
H  30.39400 5.54500 36.98800
H  30.34000 6.66800 35.67300
H  31.83400 6.41600 36.41700
Mg 1.56800 41.98500 25.33500
C  3.70400 42.17900 28.19400
C  -0.98200 41.01000 27.34600
C  -0.24400 41.27500 22.56200
C  4.42900 42.21500 23.37800
N  1.42300 41.61600 27.46800
C  2.27900 41.97300 28.41500
C  1.59000 41.87700 29.83000
C  0.12900 41.46900 29.52400
C  0.17100 41.32800 28.03800
C  -0.37200 40.17700 30.19600
C  1.74500 43.25700 30.52900
C  1.75500 43.23500 32.01600
H  1.64800 41.98100 32.91900
N  -0.42800 41.34100 25.04200
C  -1.30300 40.86000 25.95600
C  -2.58400 40.41500 25.34700
C  -2.41700 40.63000 23.90200
C  -0.95800 41.05700 23.75300
C  -3.68600 39.78900 26.16800
C  -3.26600 40.39400 22.70500
O  -2.92800 40.50300 21.55000
C  -4.65700 39.99100 22.90300
N  1.93500 41.87200 23.27200
C  1.07500 41.61500 22.30400
C  1.73200 41.51300 20.94600
C  3.12600 42.19200 21.19300
C  3.20900 42.12500 22.74900
C  1.77700 40.12700 20.30300
C  3.29300 43.62400 20.47500
C  2.96400 44.84600 21.38500
N  3.63900 42.35700 25.67200
C  4.65400 42.39900 24.74400
C  5.91700 42.66200 25.45000
C  5.57300 42.54300 26.87000
C  4.21800 42.33000 26.91200
C  7.20400 42.92100 24.83600
C  6.15100 42.45900 28.15900
O  7.32800 42.45200 28.43900
C  4.93300 42.30500 29.09700
C  5.17500 41.14900 29.99100
O  4.86500 39.97500 29.77600
O  5.64200 41.56400 31.20800
C  5.74500 40.61000 32.25400
H  -1.81800 40.69100 27.97100
H  -0.79000 41.08400 21.63500
H  5.27000 42.31600 22.68900
H  2.04300 41.01900 30.32700
H  -0.56600 42.25600 29.81500
H  -1.31200 40.49200 30.65100
H  0.26900 39.61500 30.87600
H  -0.63100 39.51000 29.37400
H  0.86900 43.69400 30.04900
H  2.49500 43.92000 30.09700
H  0.97100 43.92200 32.33300
H  2.69100 43.75200 32.22800
H  -4.66200 40.05700 25.76400
H  -3.59800 40.10800 27.20700
H  -3.56200 38.70600 26.14600
H  -4.57400 39.17700 23.62300
H  -5.10700 39.71500 21.95000
H  -5.24600 40.78000 23.37100
H  1.10900 42.03700 20.22200
H  3.82500 41.44300 20.82100
H  1.49100 39.47500 21.12800
H  2.73500 39.96400 19.80900
H  1.02500 40.09700 19.51400
H  2.80900 43.63300 19.49800
H  4.36700 43.59000 20.29700
H  2.52200 44.59400 22.34900
H  2.34200 45.55500 20.83800
H  3.81800 45.51000 21.52300
H  7.58800 43.93900 24.90300
H  7.12900 42.53900 23.81800
H  7.83400 42.13400 25.25100
H  4.90900 43.14900 29.78600
H  4.77600 40.13900 32.42000
H  5.93200 41.05300 33.23200
H  6.43200 39.79100 32.03800

