158

Mg 43.69400 41.80100 26.48000
C  42.63500 44.08200 28.82800
C  44.87600 39.77000 28.92500
C  44.49300 39.58400 24.09700
C  42.60400 43.98000 23.97900
N  43.81200 41.97100 28.54200
C  43.11000 42.93800 29.36900
C  43.11600 42.56400 30.82800
C  44.13700 41.35600 30.86600
C  44.31200 41.01600 29.34900
C  45.49700 41.77400 31.56000
C  41.74400 42.24400 31.51100
C  41.31800 43.05100 32.78800
H  42.09200 42.98500 34.09200
N  44.52300 39.82300 26.50900
C  44.98700 39.20200 27.61800
C  45.28700 37.86600 27.27300
C  45.01100 37.73000 25.79400
C  44.67200 39.07900 25.40100
C  45.82600 36.83000 28.26300
C  45.11700 36.60500 24.88200
O  44.89200 36.69700 23.63900
C  45.50600 35.34600 25.41800
N  43.54200 41.71000 24.41000
C  43.99100 40.74900 23.63000
C  43.75700 40.99500 22.13500
C  42.88200 42.27300 22.11500
C  43.03800 42.70100 23.59400
C  45.05400 41.10900 21.35200
C  41.38700 42.08400 21.65200
C  40.51200 41.04300 22.39800
N  43.03100 43.74400 26.33600
C  42.56000 44.51300 25.31200
C  42.18700 45.81100 25.77900
C  42.05400 45.63000 27.11500
C  42.66300 44.41000 27.44900
C  41.81400 46.99900 24.99600
C  41.56500 46.23200 28.34100
O  41.04400 47.31400 28.64100
C  41.95200 45.22100 29.49800
C  42.67800 45.91100 30.55800
O  43.92300 45.99200 30.63600
O  41.82800 46.33500 31.55800
C  42.46200 46.87300 32.78100
H  45.36700 39.19400 29.71200
H  44.68100 38.88000 23.28400
H  42.29400 44.63900 23.16600
H  43.39200 43.37700 31.50000
H  43.69200 40.53000 31.42000
H  45.41200 42.84000 31.77500
H  46.33600 41.68600 30.87100
H  45.63000 41.28600 32.52600
H  41.67500 41.23900 31.92700
H  40.89500 42.40600 30.84600
H  40.27300 42.82800 33.00300
H  41.36600 44.11900 32.57800
H  46.72700 36.36100 27.86600
H  45.04700 36.08300 28.41700
H  46.15300 37.30800 29.18600
H  46.57300 35.37000 25.64200
H  45.33900 34.65500 24.59200
H  44.97800 34.96600 26.29300
H  43.35200 40.10800 21.64700
H  43.32000 43.05000 21.48800
H  45.15800 42.10000 20.90900
H  44.92900 40.38000 20.55100
H  45.95600 40.91900 21.93500
H  41.41700 41.63700 20.65800
H  40.85300 43.03100 21.57600
H  41.13600 40.39600 23.01400
H  39.91800 40.42700 21.72200
H  39.83100 41.62400 23.01900
H  40.87900 46.67000 24.54400
H  42.65300 47.27300 24.35600
H  41.48700 47.77500 25.68800
H  41.03400 44.76500 29.86700
H  43.24800 47.58000 32.51600
H  42.85300 46.01000 33.31900
H  41.69800 47.40200 33.35100
Mg -12.43900 38.92800 41.50200
C  -10.71800 35.95900 40.58000
C  -9.71900 40.80400 40.34300
C  -14.23900 41.64300 41.97900
C  -15.14400 36.88700 42.46900
N  -10.46200 38.45000 40.60500
C  -9.93400 37.15000 40.31100
C  -8.67700 37.19400 39.49200
C  -8.27100 38.65700 39.66900
C  -9.56300 39.41000 40.17400
C  -7.01300 38.80000 40.61700
C  -8.82500 36.71900 38.08800
C  -7.90600 35.60000 37.55500
H  -7.01900 36.04900 36.41100
N  -12.02800 41.03600 41.26100
C  -10.87800 41.58900 40.80000
C  -11.06400 43.03300 40.64600
C  -12.34700 43.37400 41.11700
C  -12.91500 41.96800 41.52000
C  -10.06500 43.96500 39.89800
C  -13.04100 44.68900 41.04800
O  -12.48400 45.71700 40.64100
C  -14.37800 44.79100 41.60000
N  -14.42600 39.19800 42.04000
C  -14.84000 40.41800 42.38200
C  -16.18600 40.42500 43.13000
C  -16.51200 38.91800 43.09700
C  -15.28000 38.27300 42.52300
C  -16.24900 41.17900 44.52800
C  -17.79800 38.39100 42.32700
C  -18.72600 37.61400 43.23400
N  -12.83200 36.92000 41.75900
C  -13.98300 36.25100 42.04900
C  -13.78900 34.81500 41.98100
C  -12.53800 34.69900 41.38000
C  -11.93300 36.01200 41.30000
C  -14.78200 33.78400 42.38800
C  -11.58800 33.67700 40.81800
O  -11.59800 32.46900 40.65900
C  -10.31100 34.50900 40.50700
C  -9.35700 34.02800 41.56600
O  -9.63900 33.48800 42.63900
O  -8.12400 34.27500 41.15400
C  -7.11600 34.35900 42.24400
H  -8.83000 41.37100 40.05800
H  -14.96900 42.40100 42.27100
H  -15.91800 36.29500 42.96300
H  -7.97100 36.52800 39.98800
H  -7.98600 39.11900 38.72400
H  -6.67200 37.81000 40.91800
H  -7.34400 39.28900 41.53300
H  -6.28300 39.43100 40.11100
H  -8.58800 37.58100 37.46400
H  -9.84800 36.41200 37.86900
H  -8.63900 34.85500 37.24700
H  -7.21900 35.18200 38.29100
H  -10.30800 44.29300 38.88700
H  -9.08400 43.52500 39.71900
H  -9.87000 44.80100 40.56900
H  -14.72100 45.82500 41.64100
H  -14.23300 44.39900 42.60700
H  -15.12400 44.13500 41.15200
H  -16.85300 40.89300 42.40600
H  -16.52800 38.58300 44.13400
H  -15.53600 40.64700 45.15800
H  -17.22500 41.21600 45.01100
H  -15.82900 42.17500 44.38100
H  -17.50600 37.76500 41.48400
H  -18.16200 39.32800 41.90400
H  -19.06700 36.83600 42.55100
H  -19.59500 38.19900 43.53300
H  -18.22400 37.20900 44.11300
H  -15.80100 34.06800 42.12700
H  -14.77500 33.64200 43.46900
H  -14.54800 32.81300 41.95300
H  -9.96200 34.15500 39.53700
H  -7.14500 33.43100 42.81500
H  -7.32200 35.11400 43.00200
H  -6.09000 34.52700 41.91500

