158

Mg 35.48500 2.11300 30.41700
C  33.37300 3.38100 32.99400
C  38.12400 2.11800 32.62500
C  37.33600 1.21500 27.76700
C  32.74500 2.66500 28.05500
N  35.65300 2.59200 32.50000
C  34.69500 3.10700 33.35400
C  35.19700 3.43400 34.76600
C  36.73000 3.44600 34.45100
C  36.85600 2.65000 33.08100
C  37.38000 4.87000 34.51600
C  34.74300 2.40600 35.88000
C  34.43200 2.99900 37.35000
H  35.20800 4.21200 37.82900
N  37.45400 1.49300 30.31500
C  38.41600 1.53700 31.29700
C  39.65000 0.97900 30.80500
C  39.45400 0.73800 29.43600
C  38.03500 1.13600 29.08600
C  40.90500 0.95200 31.67400
C  40.43000 0.14600 28.35400
O  40.08300 0.04200 27.15500
C  41.82100 -0.22000 28.67400
N  35.06200 1.83200 28.28900
C  36.06300 1.59300 27.46300
C  35.65300 1.73400 26.02800
C  34.12500 2.15200 26.05000
C  33.94200 2.22700 27.56700
C  36.54800 2.61200 25.15500
C  33.20100 1.18000 25.27300
C  32.04400 1.95800 24.54900
N  33.46300 2.75100 30.50000
C  32.46400 2.86000 29.45000
C  31.25100 3.26400 30.09600
C  31.52200 3.43900 31.47300
C  32.87400 3.15800 31.65600
C  29.90500 3.46300 29.37900
C  30.96700 3.79400 32.78500
O  29.88900 4.11700 33.13900
C  32.13600 3.74000 33.82900
C  32.30200 5.08900 34.49700
O  32.77500 6.07200 33.97500
O  31.58500 5.09400 35.63800
C  31.36600 6.31900 36.42500
H  38.90300 2.14400 33.39000
H  37.86500 0.89900 26.86600
H  31.86400 2.71800 27.41200
H  34.84900 4.44000 34.99800
H  37.32800 2.99900 35.24500
H  37.71400 5.10900 33.50700
H  38.17900 4.82800 35.25700
H  36.68100 5.59700 34.92800
H  35.55300 1.68700 36.00200
H  33.81800 2.01200 35.46000
H  34.45700 2.18300 38.07200
H  33.41500 3.38900 37.31700
H  41.81700 0.98400 31.07800
H  40.85400 0.02000 32.23700
H  40.94100 1.85700 32.28000
H  42.49300 0.62100 28.50200
H  42.06400 -1.10800 28.09000
H  41.89600 -0.58800 29.69800
H  35.87500 0.72600 25.67700
H  33.84500 3.17900 25.81700
H  35.91800 3.08700 24.40300
H  37.32100 2.00200 24.68800
H  37.04700 3.33400 25.80200
H  32.81000 0.33400 25.83800
H  33.78800 0.76400 24.45400
H  32.23600 3.02400 24.42800
H  31.14800 1.78700 25.14500
H  31.96000 1.59400 23.52500
H  29.04500 3.74100 29.98800
H  29.68100 2.49500 28.93000
H  30.09400 4.14700 28.55100
H  31.98100 2.98400 34.59900
H  30.32300 6.63400 36.38700
H  31.90200 7.17400 36.01200
H  31.74500 5.99700 37.39500
Mg -1.08600 34.77200 26.46800
C  -2.66200 32.87800 29.06000
C  0.15300 36.82400 29.01000
C  0.23900 36.69900 24.12200
C  -2.67200 32.93500 24.13200
N  -1.38300 34.84800 28.79800
C  -1.87600 33.89100 29.58000
C  -1.53000 34.20700 31.06800
C  -0.75100 35.52100 31.06300
C  -0.64900 35.80400 29.52200
C  -1.50800 36.72900 31.90300
C  -0.87400 33.02300 31.98000
C  -1.45800 32.88600 33.40000
H  -0.51500 32.97900 34.56700
N  0.04500 36.43300 26.52900
C  0.54400 37.10200 27.67700
C  1.53000 38.04200 27.29500
C  1.53100 38.11600 25.86900
C  0.63600 37.00200 25.43300
C  2.30700 38.95700 28.31000
C  2.29200 38.99900 24.93900
O  2.21200 38.82100 23.71700
C  3.05000 40.16900 25.48700
N  -1.24900 34.86700 24.37100
C  -0.54900 35.68500 23.61100
C  -0.67500 35.39900 22.11700
C  -1.33300 33.95000 22.18400
C  -1.75900 33.87500 23.64400
C  -1.57200 36.42100 21.28900
C  -0.65500 32.66400 21.58900
C  0.66100 32.36000 22.30700
N  -2.41800 33.28300 26.52700
C  -3.02300 32.67600 25.49600
C  -3.80400 31.58400 25.93200
C  -3.68900 31.68700 27.32600
C  -2.85400 32.71300 27.64800
C  -4.70300 30.68700 25.19900
C  -4.02300 30.98500 28.53600
O  -4.67000 29.97000 28.64000
C  -3.39100 31.74700 29.75000
C  -4.52600 32.30200 30.52600
O  -5.31500 33.15500 30.21300
O  -4.58900 31.64100 31.77300
C  -5.66300 32.08700 32.63900
H  0.42100 37.56900 29.76200
H  0.58500 37.29100 23.27200
H  -3.11700 32.23900 23.41800
H  -2.48300 34.44800 31.53800
H  0.21000 35.44200 31.57200
H  -2.47900 36.86200 31.42600
H  -0.93600 37.65400 31.97800
H  -1.75400 36.32100 32.88300
H  0.20000 33.20200 32.01500
H  -1.13200 32.02300 31.63100
H  -1.89900 31.89100 33.46300
H  -2.26300 33.61000 33.52700
H  3.34400 38.65100 28.16900
H  2.13600 38.71600 29.35900
H  2.09400 39.99200 28.04100
H  2.37800 40.80300 26.06500
H  3.50600 40.73400 24.67400
H  3.89900 39.90800 26.11800
H  0.35400 35.46100 21.76300
H  -2.31300 33.89600 21.71000
H  -1.51500 37.42000 21.72200
H  -2.63500 36.18200 21.26000
H  -1.32800 36.54600 20.23400
H  -0.49000 32.69800 20.51200
H  -1.27000 31.77900 21.75400
H  1.29100 31.86900 21.56500
H  0.43200 31.66900 23.11900
H  1.30000 33.19900 22.58500
H  -4.75400 30.99200 24.15400
H  -5.70700 30.77900 25.61300
H  -4.37600 29.65100 25.28700
H  -2.76300 31.09000 30.35100
H  -5.24600 32.88500 33.25400
H  -5.84600 31.17100 33.20100
H  -6.59700 32.40800 32.17700

