158

Mg 2.30600 -0.65400 44.35100
C  5.86400 -0.24900 43.64500
C  1.87200 2.21800 42.40600
C  -0.98900 -1.29100 44.35000
C  2.97200 -3.58600 46.05700
N  3.72900 0.94800 43.32000
C  5.10100 0.72900 42.97300
C  5.65100 1.85600 42.07600
C  4.41500 2.85500 42.04200
C  3.23500 2.02000 42.63600
C  4.59200 4.12200 42.81800
C  5.92900 1.29700 40.68300
C  7.29900 1.73000 40.08500
H  7.20600 2.68600 38.92500
N  0.69500 0.33800 43.57200
C  0.75400 1.50800 42.86000
C  -0.63100 2.00600 42.53800
C  -1.52500 0.88900 42.88700
C  -0.62500 -0.09900 43.56900
C  -0.93200 3.30800 41.84600
C  -2.95700 0.89300 42.51600
O  -3.47300 1.86400 42.00800
C  -3.75900 -0.32800 42.81500
N  1.14700 -2.27500 45.02500
C  -0.21200 -2.31600 44.99100
C  -0.82200 -3.53100 45.71400
C  0.49800 -4.12500 46.35600
C  1.66500 -3.28800 45.77900
C  -1.96700 -3.21500 46.70900
C  0.59600 -5.71600 46.03400
C  1.24400 -6.59500 47.24900
N  4.00100 -1.76200 44.79000
C  4.15600 -2.90100 45.57300
C  5.52600 -3.22000 45.73700
C  6.18200 -2.21400 45.04600
C  5.26300 -1.31000 44.42700
C  6.11100 -4.39100 46.50200
C  7.43200 -1.68600 44.74000
O  8.53200 -2.16500 45.05700
C  7.32700 -0.37100 43.75900
C  7.88600 0.75500 44.46800
O  7.60100 1.06800 45.64100
O  8.82000 1.49400 43.71100
C  9.22100 2.76800 44.31200
H  1.67600 3.18800 41.94500
H  -2.07400 -1.41200 44.39200
H  3.15000 -4.47600 46.66500
H  6.51800 2.25200 42.60500
H  4.17800 3.15700 41.02200
H  4.11000 3.99700 43.78700
H  4.19400 5.01000 42.32700
H  5.61300 4.47700 42.96100
H  5.18800 1.77400 40.04100
H  5.87300 0.21400 40.79100
H  7.85600 0.87600 39.70100
H  7.91700 2.09500 40.90600
H  -1.87700 3.64300 42.27300
H  -0.91700 3.19300 40.76200
H  -0.19000 4.08500 42.03000
H  -4.70100 -0.34900 42.26700
H  -3.79400 -0.49400 43.89100
H  -3.07000 -1.10200 42.47700
H  -1.22400 -4.26400 45.01500
H  0.47400 -4.07200 47.44500
H  -1.72200 -3.65600 47.67500
H  -2.78100 -3.85100 46.36100
H  -2.30800 -2.18300 46.79500
H  0.90500 -5.98800 45.02500
H  -0.44600 -6.01700 45.92400
H  2.05700 -7.24900 46.93300
H  0.46000 -7.27200 47.58700
H  1.43100 -5.93700 48.09800
H  5.46300 -5.26400 46.42100
H  6.46000 -4.22200 47.52100
H  6.97200 -4.78700 45.96400
H  7.88900 -0.53700 42.84000
H  10.11200 2.59500 44.91500
H  8.44300 3.13200 44.98400
H  9.44600 3.55300 43.59000
Mg 17.29200 -2.58500 28.29600
C  16.48700 -0.25000 30.64700
C  19.09300 -4.32000 30.56900
C  18.57800 -4.43700 25.73100
C  15.88600 -0.45400 25.82900
N  17.73400 -2.24600 30.35700
C  17.22200 -1.34400 31.19700
C  17.68700 -1.55400 32.65800
C  18.68700 -2.72100 32.49700
C  18.49400 -3.10300 31.05000
C  20.27400 -2.43000 32.75600
C  16.43800 -1.90500 33.54200
C  16.28400 -1.20400 34.88200
H  17.53800 -0.64100 35.53400
N  18.48400 -4.25400 28.18900
C  19.13300 -4.83500 29.26900
C  19.83300 -6.04000 28.90200
C  19.70800 -6.06600 27.48700
C  18.93700 -4.87800 27.03800
C  20.61200 -7.05700 29.86500
C  20.29100 -7.00500 26.55900
O  20.20300 -6.85000 25.36000
C  21.00700 -8.20700 27.09500
N  17.35800 -2.39300 26.14600
C  17.96400 -3.29000 25.32000
C  17.76900 -3.02800 23.85200
C  16.79100 -1.81800 23.88600
C  16.65900 -1.54900 25.39200
C  19.04800 -2.63200 23.14800
C  15.49900 -2.04400 23.15000
C  15.02100 -0.82300 22.35100
N  16.33300 -0.70200 28.20600
C  15.77000 0.04400 27.15700
C  15.00700 1.12700 27.69000
C  15.27200 1.05000 29.10300
C  16.05000 -0.04900 29.31900
C  14.15600 2.09100 26.90500
C  15.01400 1.71000 30.40200
O  14.36400 2.67800 30.64700
C  15.83400 0.87500 31.48400
C  16.70000 1.71800 32.38200
O  17.91900 1.82700 32.37300
O  15.88900 2.42300 33.26500
C  16.51500 3.50800 34.02700
H  19.58000 -4.72500 31.45900
H  18.80700 -5.17400 24.95900
H  15.51800 0.20700 25.04100
H  18.23800 -0.63600 32.86300
H  18.39800 -3.52600 33.17200
H  20.76200 -2.01900 31.87200
H  20.79200 -3.30900 33.13800
H  20.34100 -1.64600 33.51100
H  16.36100 -2.98900 33.62700
H  15.59100 -1.69900 32.88800
H  15.72800 -1.83900 35.57200
H  15.57800 -0.38000 34.77500
H  21.66500 -6.78400 29.93300
H  20.50400 -8.12400 29.66700
H  20.19800 -6.83400 30.84800
H  21.62500 -8.56200 26.27000
H  20.35600 -8.95700 27.54300
H  21.74100 -7.95500 27.86000
H  17.49900 -3.94400 23.32700
H  17.30300 -0.98000 23.41400
H  19.62600 -2.04900 23.86600
H  18.98000 -2.01400 22.25200
H  19.62500 -3.54900 23.03500
H  14.76300 -2.38400 23.87800
H  15.68800 -2.78800 22.37600
H  14.08800 -0.41900 22.74400
H  14.95800 -1.14000 21.31100
H  15.77000 -0.03400 22.28200
H  13.98100 3.09200 27.29900
H  13.24000 1.59600 26.58200
H  14.76200 2.22800 26.00900
H  15.12100 0.37000 32.13500
H  17.53800 3.30900 34.34700
H  16.03000 3.54400 35.00200
H  16.40600 4.31700 33.30400

