158

Mg -1.56700 17.96700 26.39400
C  -2.33400 15.76500 29.12800
C  -2.23800 20.64300 28.49800
C  -1.46200 20.02400 23.67300
C  -1.68500 15.22900 24.26100
N  -2.12500 18.19800 28.59900
C  -2.21000 17.13300 29.47800
C  -2.37900 17.72000 30.92700
C  -2.61300 19.22100 30.68900
C  -2.34200 19.38500 29.18700
C  -4.14600 19.61800 30.98300
C  -1.32100 17.35900 32.01500
C  -1.44000 18.11100 33.33200
H  -0.99900 17.34000 34.60600
N  -1.68400 19.98600 26.10700
C  -1.99100 20.91500 27.10800
C  -2.01900 22.26300 26.51100
C  -1.79500 22.09300 25.08500
C  -1.58300 20.66700 24.90700
C  -2.39500 23.53100 27.25700
C  -1.82000 23.19700 23.93300
O  -1.62200 22.87800 22.75700
C  -2.14000 24.57700 24.25900
N  -1.56200 17.64800 24.29100
C  -1.34200 18.65500 23.37300
C  -1.29200 18.15600 21.92100
C  -1.18100 16.62400 22.18200
C  -1.50200 16.43400 23.65300
C  -2.56400 18.48400 21.06100
C  0.20000 16.05200 21.79100
C  1.51200 16.76000 22.25000
N  -1.97100 15.91800 26.56100
C  -1.92000 14.91200 25.60700
C  -2.28000 13.60500 26.23300
C  -2.47300 13.90000 27.61300
C  -2.27500 15.32600 27.74800
C  -2.33900 12.33200 25.48200
C  -2.69700 13.26900 28.83600
O  -2.81500 12.06300 29.12800
C  -2.51200 14.50200 29.98400
C  -1.25300 14.17800 30.73900
O  -0.19500 14.22600 30.33800
O  -1.66300 13.55400 31.88300
C  -0.67500 12.87800 32.68200
H  -2.45800 21.54200 29.07700
H  -1.32600 20.62600 22.77200
H  -1.70200 14.32100 23.65300
H  -3.26800 17.16800 31.23200
H  -1.94000 19.80200 31.31800
H  -4.75300 18.72600 31.13900
H  -4.56200 20.13600 30.11900
H  -4.18400 20.33000 31.80800
H  -0.37100 17.58400 31.53000
H  -1.40800 16.30100 32.26400
H  -2.50500 18.31100 33.44800
H  -0.90300 19.04300 33.15500
H  -3.35400 23.91300 26.90700
H  -1.64800 24.30600 27.08500
H  -2.48800 23.33900 28.32600
H  -3.19500 24.63100 24.52900
H  -1.87600 25.15500 23.37300
H  -1.47900 24.93400 25.04900
H  -0.38000 18.47300 21.41500
H  -2.01700 16.17100 21.64900
H  -3.29800 17.68300 20.97300
H  -2.27600 18.74400 20.04200
H  -3.05500 19.37100 21.46100
H  0.18300 16.03400 20.70100
H  0.20900 14.99900 22.07400
H  1.53800 17.71200 22.78000
H  2.15900 16.92700 21.38900
H  2.03200 15.99800 22.83100
H  -2.80100 12.54800 24.51800
H  -2.98200 11.69200 26.08700
H  -1.33400 11.91000 25.49700
H  -3.39700 14.46400 30.61900
H  0.13200 12.53300 32.03500
H  -1.15500 11.96900 33.04300
H  -0.29600 13.51200 33.48400
Mg 0.90900 43.59300 26.00700
C  2.99100 43.94900 28.87100
C  -1.55600 42.72000 28.21200
C  -0.94000 42.96500 23.31800
C  3.73500 44.24700 24.02000
N  0.81400 43.28700 28.27200
C  1.66700 43.69900 29.21900
C  1.03200 43.78800 30.68100
C  -0.39400 43.21000 30.46200
C  -0.37000 43.05200 28.88000
C  -0.85700 41.96800 31.24400
C  1.00400 45.26900 31.34700
C  0.97000 45.33500 32.83500
H  0.71600 43.96000 33.52800
N  -0.99200 42.93500 25.77000
C  -1.86900 42.68300 26.74900
C  -3.14100 42.48000 26.22200
C  -2.94700 42.46400 24.80200
C  -1.59900 42.75800 24.55800
C  -4.37200 42.20900 27.00300
C  -4.02000 41.93800 23.83300
O  -3.73400 41.85900 22.59700
C  -5.42400 41.65100 24.18800
N  1.46700 43.36900 24.03700
C  0.40600 43.10900 23.15100
C  0.96900 43.19200 21.69900
C  2.36100 43.89100 21.94000
C  2.54700 43.82200 23.40300
C  1.15800 41.86900 21.04700
C  2.56900 45.31700 21.32900
C  2.51600 46.60200 22.21400
N  2.94500 44.14400 26.33000
C  3.96500 44.31100 25.39100
C  5.27400 44.45800 26.09300
C  4.93200 44.29000 27.43800
C  3.50700 44.13900 27.57400
C  6.58700 44.65300 25.34600
C  5.37900 44.09800 28.78100
O  6.53500 44.13800 29.12700
C  4.22300 43.98400 29.77200
C  4.31300 42.76800 30.52900
O  4.17600 41.64000 30.12500
O  4.58700 43.05800 31.82100
C  4.60600 42.04800 32.85200
H  -2.41100 42.56400 28.87400
H  -1.54100 42.98700 22.40600
H  4.52900 44.44400 23.29600
H  1.64800 43.15900 31.32300
H  -1.02900 44.03700 30.78000
H  -1.68000 42.36100 31.84100
H  -0.07000 41.53500 31.86300
H  -1.20700 41.08300 30.71400
H  0.19500 45.77700 30.82100
H  1.85200 45.80500 30.92100
H  0.20300 46.04600 33.14400
H  1.95800 45.72300 33.08200
H  -5.23900 42.84100 26.81000
H  -4.08500 42.51200 28.01000
H  -4.57900 41.14100 26.92900
H  -5.44700 40.81700 24.89000
H  -5.85100 41.34600 23.23300
H  -5.90200 42.57800 24.50300
H  0.33800 43.80200 21.05200
H  3.16400 43.28700 21.51800
H  2.05500 41.55100 20.51600
H  0.32500 41.76300 20.35200
H  0.84000 41.01000 21.63900
H  1.74600 45.53400 20.64800
H  3.49700 45.28500 20.75800
H  1.96900 46.43700 23.14200
H  1.91900 47.43300 21.83800
H  3.52500 46.94600 22.44400
H  7.41700 44.20100 25.88900
H  6.77900 45.69900 25.10600
H  6.62700 44.16400 24.37300
H  4.24000 44.92600 30.32100
H  4.58300 42.48200 33.85200
H  5.50900 41.43900 32.85200
H  3.73000 41.43800 32.63200

