158

Mg 30.14700 59.12400 40.28200
C  27.38500 57.06100 39.14200
C  32.14400 56.83300 38.72100
C  32.48600 61.31900 40.68600
C  27.65500 61.50700 41.30700
N  29.80900 57.12800 39.18600
C  28.64400 56.47700 38.88700
C  28.91300 55.33000 37.94300
C  30.47700 55.10000 38.10000
C  30.84900 56.45500 38.71100
C  30.81000 53.82100 38.88500
C  28.60700 55.74600 36.44600
C  27.69100 54.70600 35.75000
H  26.73300 55.32800 34.68000
N  32.02200 59.06100 39.85000
C  32.69700 58.03100 39.23100
C  34.08500 58.30500 39.30200
C  34.24200 59.55500 39.92400
C  32.91000 60.10400 40.13000
C  35.14700 57.33000 38.80000
C  35.60800 60.12100 40.44300
O  36.67700 59.58500 40.23800
C  35.65900 61.30200 41.37700
N  29.96500 61.17500 40.77700
C  31.18400 61.87600 40.86700
C  30.84800 63.28400 41.24700
C  29.34900 63.28100 41.67100
C  28.99500 61.93000 41.19600
C  31.75200 63.91700 42.24800
C  28.45700 64.35700 41.08400
C  27.42900 64.95100 42.08000
N  27.94500 59.18300 40.39200
C  27.15700 60.29800 40.73900
C  25.75200 59.84900 40.61400
C  25.75500 58.61600 39.96500
C  27.15900 58.26300 39.82200
C  24.56800 60.65600 40.96900
C  25.01400 57.46700 39.40000
O  23.82300 57.27400 39.47600
C  26.07300 56.42500 38.81100
C  25.83700 54.97700 39.35900
O  26.41300 54.52400 40.32500
O  24.89200 54.27000 38.59000
C  24.24100 53.18600 39.27200
H  32.84600 56.19700 38.17700
H  33.31700 61.99500 40.89800
H  27.01400 62.28600 41.72500
H  28.33000 54.45900 38.24200
H  30.93100 54.94500 37.12200
H  29.88400 53.44000 39.31500
H  31.37200 54.12500 39.76800
H  31.49800 53.09800 38.44500
H  29.49900 55.91300 35.84200
H  28.15300 56.72900 36.32000
H  27.11100 54.07800 36.42600
H  28.23800 53.93800 35.20200
H  35.14700 57.15000 37.72500
H  35.09700 56.31100 39.18400
H  36.15400 57.63200 39.08800
H  35.01900 61.02100 42.21400
H  35.47500 62.23800 40.85100
H  36.68900 61.45900 41.69900
H  30.83000 63.79300 40.28400
H  29.24800 63.35800 42.75400
H  32.54400 63.24700 42.58100
H  31.28400 64.35600 43.12900
H  32.30100 64.74600 41.80300
H  27.91700 63.93800 40.23500
H  28.88300 65.31100 40.77300
H  26.45000 64.65900 41.69800
H  27.43800 66.03800 41.99900
H  27.54000 64.54200 43.08400
H  23.77300 60.01200 41.34600
H  24.28400 61.18800 40.06100
H  24.89100 61.50800 41.56700
H  25.97300 56.45800 37.72600
H  24.82000 52.68400 40.04700
H  23.92300 52.39100 38.59600
H  23.35300 53.50100 39.82100
Mg 16.58500 51.60200 25.94500
C  18.78400 50.61700 28.63300
C  14.55300 52.92800 28.29300
C  14.61700 52.44200 23.47500
C  19.02200 50.44400 23.71100
N  16.74100 51.85600 28.11300
C  17.62100 51.22100 29.03800
C  17.26600 51.54000 30.53500
C  15.83600 52.15400 30.39800
C  15.66200 52.30400 28.84700
C  14.75700 51.28900 31.13400
C  18.30100 52.49500 31.16100
C  18.59500 52.26500 32.66200
H  17.62300 51.40000 33.53600
N  14.76800 52.47600 25.93000
C  14.08500 53.01700 26.97200
C  12.82200 53.49000 26.50600
C  12.79500 53.21400 25.11400
C  14.12300 52.70300 24.75000
C  11.82400 54.17000 27.46600
C  11.63500 53.49400 24.15300
O  11.67200 53.44300 22.91700
C  10.40400 53.99500 24.79400
N  16.83300 51.50100 23.76900
C  15.81500 51.92100 22.99800
C  16.06500 51.41400 21.56800
C  17.60900 50.91300 21.62200
C  17.86700 50.98700 23.10000
C  14.99700 50.35100 21.04300
C  18.54700 51.88900 20.81200
C  19.95100 51.41500 20.43500
N  18.55100 50.76100 26.06900
C  19.34400 50.32600 25.06000
C  20.44000 49.54400 25.61400
C  20.30500 49.58300 26.98600
C  19.10600 50.35200 27.26500
C  21.53500 48.88900 24.74500
C  20.86700 49.13200 28.23100
O  21.83700 48.45300 28.63000
C  19.87800 49.76100 29.34600
C  19.49300 48.69400 30.32800
O  18.66500 47.83300 30.11300
O  20.17500 48.86200 31.50400
C  19.77900 47.92800 32.54500
H  13.78200 53.14800 29.03400
H  13.98400 52.68500 22.61900
H  19.76100 50.15800 22.96000
H  17.38400 50.56700 31.01200
H  15.94700 53.14200 30.84600
H  14.05400 52.02000 31.53300
H  15.23200 50.58400 31.81600
H  14.31900 50.71000 30.32100
H  17.99900 53.53600 31.05100
H  19.25600 52.43300 30.63800
H  18.76200 53.23200 33.13500
H  19.46800 51.62000 32.76500
H  11.32100 55.06400 27.09700
H  12.45300 54.59200 28.25000
H  11.02100 53.53500 27.84000
H  10.07000 53.38800 25.63600
H  9.68300 54.11600 23.98600
H  10.53000 55.01400 25.15800
H  15.97900 52.27700 20.90700
H  17.76100 49.95500 21.12400
H  15.37000 49.35500 20.80600
H  14.48500 50.82500 20.20500
H  14.22700 50.16000 21.79100
H  18.59500 52.75900 21.46700
H  18.07100 52.10900 19.85700
H  20.84000 51.86400 20.87800
H  20.19500 51.43500 19.37200
H  19.86400 50.34500 20.62000
H  22.48600 49.04000 25.25600
H  21.60400 49.41400 23.79200
H  21.21600 47.84700 24.69800
H  20.44000 50.37900 30.04600
H  19.92900 48.61100 33.38100
H  20.44000 47.07100 32.67100
H  18.72000 47.67400 32.48900

