158

Mg 42.97000 41.21500 25.90300
C  41.87200 43.53500 28.41500
C  43.93200 39.18200 28.35300
C  43.97200 39.27000 23.50300
C  42.16600 43.75300 23.57900
N  42.74800 41.32500 28.11500
C  42.19600 42.29800 28.90400
C  42.40000 41.94400 30.38200
C  43.08800 40.54500 30.33600
C  43.32600 40.37100 28.84700
C  44.36700 40.30800 31.25200
C  41.12500 42.05000 31.24700
C  40.96600 41.20900 32.53500
H  40.74000 41.91100 33.86900
N  43.84300 39.43900 25.99000
C  44.26300 38.76800 27.08100
C  44.81500 37.53000 26.70500
C  44.88300 37.55400 25.22900
C  44.23900 38.83900 24.87100
C  45.31200 36.52200 27.62600
C  45.36900 36.47200 24.29500
O  45.20200 36.53200 23.07200
C  46.11400 35.21600 24.73600
N  43.09900 41.51000 23.83900
C  43.52800 40.51900 23.00400
C  43.14100 40.66500 21.53800
C  42.60900 42.10200 21.58900
C  42.63700 42.52100 23.10000
C  44.28600 40.46400 20.46100
C  41.21900 42.35800 20.86400
C  41.16100 43.29700 19.65700
N  42.12800 43.26600 25.93000
C  41.89300 44.14200 24.88800
C  41.48500 45.43200 25.42800
C  41.41100 45.22100 26.81800
C  41.83600 43.89800 27.08500
C  41.17200 46.63700 24.58600
C  41.11100 45.81700 28.07000
O  40.71200 46.96200 28.25700
C  41.31800 44.76600 29.23100
C  42.37900 45.45700 30.01800
O  43.48600 45.78000 29.58800
O  41.90500 45.78500 31.32800
C  42.82100 46.54300 32.18200
H  44.13100 38.43400 29.12200
H  44.11200 38.59600 22.65500
H  42.01500 44.53600 22.83300
H  43.15300 42.63300 30.76400
H  42.38500 39.76100 30.61800
H  45.20700 40.12800 30.58100
H  44.32800 39.40900 31.86700
H  44.61700 41.22900 31.77900
H  40.17700 41.91600 30.72600
H  41.19700 43.09000 31.56600
H  41.73600 40.45400 32.69400
H  40.10000 40.59300 32.29000
H  46.20700 36.91900 28.10400
H  45.32600 35.52400 27.18900
H  44.54100 36.58400 28.39400
H  46.43700 34.55500 23.93200
H  45.44000 34.64600 25.37500
H  46.96100 35.56800 25.32600
H  42.35400 39.94800 21.30500
H  43.28800 42.76400 21.05100
H  45.28500 40.66700 20.84700
H  44.31100 41.13400 19.60200
H  44.20500 39.46900 20.02300
H  40.61300 42.86900 21.61100
H  40.72800 41.44000 20.54000
H  42.19400 43.42100 19.33200
H  40.76200 44.27000 19.94600
H  40.58800 42.82300 18.86000
H  41.10900 47.52400 25.21600
H  40.20300 46.44900 24.12300
H  41.93900 46.85300 23.84300
H  40.41700 44.57600 29.81400
H  42.73000 46.05800 33.15400
H  42.26900 47.48100 32.23600
H  43.86000 46.61200 31.86100
Mg -12.96400 16.62300 41.99000
C  -9.60000 15.23700 41.65700
C  -11.57500 19.64400 41.18700
C  -15.99200 17.72300 42.06700
C  -14.08900 13.31800 42.50800
N  -10.79200 17.35400 41.67800
C  -9.62300 16.65100 41.50700
C  -8.45300 17.54800 41.12500
C  -9.02200 18.97000 41.37500
C  -10.52800 18.70500 41.36900
C  -8.55800 19.59300 42.73700
C  -7.98700 17.27000 39.70700
C  -6.45500 16.96100 39.46700
H  -5.76000 17.59000 38.26800
N  -13.71400 18.42500 41.64100
C  -13.02800 19.58200 41.27300
C  -13.96000 20.65000 41.12300
C  -15.21900 20.09100 41.34600
C  -15.05500 18.67700 41.70100
C  -13.47000 22.03300 40.71400
C  -16.52800 20.88000 41.40100
O  -16.41900 22.06800 41.00700
C  -17.90400 20.40800 41.72000
N  -14.78600 15.59100 41.91100
C  -15.92900 16.34100 42.19400
C  -17.11000 15.47800 42.58200
C  -16.51000 14.06700 42.47600
C  -15.04000 14.30400 42.32700
C  -17.68500 15.74100 44.00500
C  -16.98100 13.24800 41.26800
C  -17.89400 12.06900 41.69600
N  -12.08500 14.63500 42.03500
C  -12.64800 13.38900 42.32900
C  -11.62700 12.40500 42.27700
C  -10.49200 13.11300 42.06700
C  -10.75400 14.45500 41.91900
C  -11.83200 10.89000 42.40800
C  -9.00900 12.95500 41.77200
O  -8.30500 11.97900 41.80000
C  -8.37100 14.29900 41.54200
C  -7.35800 14.47100 42.61200
O  -7.42800 13.95400 43.74700
O  -6.23100 15.09900 42.17700
C  -4.99100 15.18700 42.94000
H  -11.24600 20.67800 41.06400
H  -16.98200 18.15600 42.22500
H  -14.55800 12.40000 42.86700
H  -7.67600 17.33400 41.85900
H  -8.69200 19.60400 40.55200
H  -9.21900 20.45000 42.86500
H  -7.59600 20.08500 42.59100
H  -8.57100 18.90600 43.58300
H  -8.16900 18.08600 39.00800
H  -8.61100 16.45500 39.34000
H  -6.37900 15.87700 39.38200
H  -5.87700 17.24700 40.34600
H  -13.40700 22.22800 39.64400
H  -12.50200 22.23400 41.17500
H  -14.09600 22.77800 41.20500
H  -18.17900 19.56400 41.08700
H  -18.55900 21.25800 41.53000
H  -17.92800 20.24900 42.79800
H  -17.78600 15.72900 41.76400
H  -16.75700 13.44000 43.33300
H  -18.53200 15.08100 44.19400
H  -18.00900 16.78200 43.98100
H  -17.04200 15.64400 44.87900
H  -16.27000 12.86600 40.53700
H  -17.61800 13.82400 40.59700
H  -18.95400 12.28500 41.56300
H  -17.70800 11.71200 42.70900
H  -17.65200 11.32200 40.94000
H  -12.38000 10.62900 43.31200
H  -10.82900 10.50600 42.59700
H  -12.29800 10.45200 41.52500
H  -7.90200 14.37700 40.56100
H  -4.87000 14.41000 43.69600
H  -4.99400 16.18900 43.36900
H  -4.05900 15.18700 42.37400

