158

Mg 16.53900 51.39000 24.89700
C  18.05200 50.42000 27.88600
C  13.76600 52.37300 26.70800
C  14.99700 51.96100 21.98900
C  19.45500 50.40300 23.22500
N  16.03400 51.44100 27.02000
C  16.84900 51.04100 28.04600
C  16.19500 51.37800 29.42100
C  14.79000 51.92100 29.02800
C  14.86300 51.93200 27.50900
C  13.52300 51.13900 29.50900
C  17.16900 52.34800 30.27200
C  17.52500 51.87400 31.65400
H  16.39300 51.21700 32.51000
N  14.68100 52.19000 24.42500
C  13.61400 52.45700 25.31200
C  12.48900 52.88200 24.56300
C  12.83000 52.72200 23.15800
C  14.25400 52.31600 23.15500
C  11.20900 53.39500 25.19100
C  12.06100 53.02800 21.97000
O  12.45800 52.91500 20.78900
C  10.82200 53.79100 22.18200
N  17.10000 51.02700 22.90400
C  16.22800 51.41700 21.86500
C  16.90100 51.15800 20.51500
C  18.34700 50.80900 20.91300
C  18.36600 50.88000 22.45900
C  16.15300 49.98200 19.74100
C  19.47500 51.62500 20.22400
C  20.03200 50.98900 18.88600
N  18.33300 50.43800 25.35000
C  19.42700 50.11400 24.57300
C  20.49700 49.51000 25.42300
C  19.98500 49.66000 26.71700
C  18.71200 50.23200 26.64400
C  21.66900 48.77400 24.92700
C  20.35200 49.49700 28.11100
O  21.33500 49.05500 28.65600
C  19.09400 49.92000 28.93800
C  18.63000 48.71800 29.64800
O  17.92400 47.80500 29.13400
O  19.10200 48.83500 30.93600
C  18.87700 47.68200 31.76300
H  12.99800 52.83300 27.33400
H  14.51300 52.07400 21.01600
H  20.31400 50.06300 22.64200
H  16.19800 50.38000 29.85900
H  14.68600 52.94900 29.37300
H  12.95800 50.70100 28.68600
H  12.78700 51.74800 30.03300
H  13.82900 50.37300 30.22100
H  16.66300 53.30200 30.42300
H  18.13800 52.52400 29.80600
H  17.87700 52.76700 32.17100
H  18.35400 51.17400 31.55300
H  11.17300 53.10200 26.24000
H  10.27100 52.96800 24.83800
H  11.18500 54.47700 25.31200
H  9.94700 53.32600 22.63600
H  10.44500 54.03000 21.18700
H  11.12600 54.69900 22.70100
H  16.88300 52.03200 19.86500
H  18.55200 49.79500 20.57000
H  15.23300 49.59900 20.18200
H  16.80500 49.12900 19.55600
H  16.03600 50.41100 18.74600
H  20.14700 52.07900 20.95200
H  19.06100 52.56700 19.86400
H  19.63800 51.50200 18.00900
H  19.81200 49.92400 18.81200
H  21.11500 51.11000 18.86400
H  21.46900 47.78400 25.33900
H  22.53900 49.36600 25.21000
H  21.62000 48.65200 23.84500
H  19.42100 50.67200 29.65600
H  19.62800 47.69400 32.55300
H  18.89400 46.74500 31.20600
H  17.87600 47.79900 32.17900
Mg -10.16300 40.12400 42.01300
C  -8.90400 36.84200 41.36100
C  -7.15700 41.29500 40.49800
C  -11.48400 43.10300 41.54700
C  -13.30300 38.57300 42.50300
N  -8.19500 39.19000 41.22900
C  -8.05200 37.87800 40.96700
C  -6.62100 37.60400 40.30800
C  -5.98800 38.97200 40.39900
C  -7.20400 39.91700 40.69500
C  -4.86500 39.27900 41.43700
C  -6.67400 37.05200 38.83100
C  -5.92600 35.73700 38.48500
H  -4.84100 35.76200 37.42200
N  -9.45500 42.00600 41.15900
C  -8.18500 42.27400 40.65900
C  -8.15700 43.65000 40.27900
C  -9.43500 44.25500 40.48500
C  -10.17500 43.14400 41.05800
C  -6.94000 44.35700 39.67700
C  -9.92500 45.69700 40.30100
O  -9.03500 46.45700 39.96700
C  -11.32800 46.15500 40.36600
N  -12.07200 40.67900 42.07900
C  -12.35600 42.01300 41.93000
C  -13.84700 42.26900 42.12600
C  -14.44300 40.89400 42.51400
C  -13.24600 39.99100 42.36100
C  -14.13700 43.39300 43.17800
C  -15.64800 40.39800 41.63600
C  -16.99000 40.18400 42.26100
N  -10.94700 38.09100 42.22200
C  -12.22000 37.63000 42.38300
C  -12.25100 36.27200 42.51700
C  -10.96700 35.84400 42.16800
C  -10.19600 37.00300 41.95300
C  -13.47600 35.44600 42.90500
C  -10.01400 34.78800 41.92100
O  -10.23200 33.56700 42.04400
C  -8.69800 35.36300 41.30000
C  -7.54700 34.93100 42.12300
O  -6.96500 35.53400 43.05600
O  -6.96000 33.86000 41.48900
C  -5.56500 33.46400 41.90100
H  -6.17700 41.51700 40.06900
H  -11.98000 44.06400 41.39700
H  -14.28700 38.14300 42.69900
H  -6.05900 36.86300 40.87600
H  -5.42000 39.19500 39.49500
H  -4.67900 38.41700 42.07800
H  -5.21900 40.06500 42.10300
H  -3.92000 39.67500 41.06500
H  -6.32800 37.77300 38.08900
H  -7.73500 36.90100 38.62900
H  -6.71900 35.05500 38.18000
H  -5.45800 35.29000 39.36300
H  -5.94600 43.93000 39.81200
H  -6.83400 45.38000 40.04000
H  -6.97600 44.39300 38.58800
H  -11.92200 45.51600 39.71300
H  -11.40200 47.16900 39.97200
H  -11.65000 46.19800 41.40700
H  -14.33000 42.66600 41.23300
H  -14.66800 40.85000 43.57900
H  -15.09500 43.15400 43.64000
H  -14.33700 44.21600 42.49200
H  -13.39700 43.47800 43.97400
H  -15.48600 39.43400 41.15300
H  -15.89100 41.12200 40.85900
H  -16.94400 40.62700 43.25500
H  -17.26900 39.13000 42.25600
H  -17.81500 40.61100 41.69100
H  -13.21300 34.48800 43.35300
H  -14.17200 35.22400 42.09500
H  -14.03800 36.00900 43.65000
H  -8.55000 35.05400 40.26500
H  -4.96200 33.53900 40.99600
H  -5.51000 32.48100 42.36900
H  -5.18200 34.12100 42.68100

