158

Mg 16.95500 -0.88900 28.66200
C  15.70500 0.86000 31.48800
C  19.04600 -2.54300 30.80700
C  18.57800 -2.04700 26.01000
C  14.86100 0.98200 26.73300
N  17.31400 -0.88600 30.89900
C  16.66600 -0.13200 31.83700
C  17.05300 -0.53700 33.27600
C  18.40100 -1.35300 32.96800
C  18.19800 -1.70500 31.47600
C  19.81000 -0.68500 33.29600
C  15.87600 -1.22800 34.06200
C  15.69600 -0.93800 35.58000
H  16.94600 -0.49000 36.32000
N  18.53800 -2.24500 28.45000
C  19.20900 -2.89600 29.45100
C  20.13600 -3.90400 28.87000
C  19.87200 -3.83000 27.43400
C  19.01300 -2.62600 27.25000
C  20.88300 -4.93800 29.70400
C  20.36000 -4.77000 26.36000
O  20.17700 -4.67500 25.15400
C  21.13500 -6.01600 26.69400
N  16.78900 -0.51300 26.68400
C  17.58800 -1.12100 25.71100
C  17.18400 -0.76200 24.33800
C  15.99900 0.26200 24.63000
C  15.76200 0.21900 26.09000
C  18.33300 -0.18900 23.51700
C  14.68800 0.01300 23.74100
C  13.65700 -1.02400 24.18600
N  15.61900 0.68500 28.97700
C  14.75100 1.25000 28.07600
C  13.76800 2.12000 28.71800
C  14.12300 1.93400 30.08700
C  15.23700 1.09600 30.20600
C  12.60700 2.79000 28.11400
C  13.75500 2.37300 31.35100
O  12.90300 3.15700 31.74900
C  14.81600 1.73100 32.32400
C  15.65000 2.76100 33.04900
O  16.36700 3.62900 32.49400
O  15.59700 2.62800 34.46200
C  16.52300 3.52400 35.23900
H  19.57600 -3.17300 31.52600
H  18.95300 -2.46600 25.07400
H  14.11900 1.46100 26.09000
H  17.28100 0.44500 33.69100
H  18.45600 -2.31100 33.48400
H  19.64900 0.09300 34.04300
H  20.10500 -0.27700 32.32900
H  20.57800 -1.35400 33.68300
H  16.13900 -2.28600 34.06700
H  15.02600 -1.01900 33.41300
H  15.42400 -1.88400 36.05000
H  14.79700 -0.36100 35.79600
H  21.87800 -5.09200 29.28700
H  20.30200 -5.86000 29.67100
H  21.05300 -4.59500 30.72500
H  21.47500 -6.52900 25.79500
H  20.41100 -6.63200 27.22700
H  22.03300 -5.64600 27.18800
H  16.87900 -1.70200 23.87900
H  16.28100 1.28800 24.39400
H  17.92800 -0.09500 22.50900
H  19.16000 -0.89500 23.58700
H  18.53200 0.77700 23.98200
H  14.82800 -0.23200 22.68800
H  14.20500 0.98600 23.64900
H  12.75500 -0.55900 24.58300
H  14.01400 -1.60200 25.03900
H  13.55800 -1.72200 23.35500
H  11.96900 3.22500 28.88300
H  12.15900 2.06600 27.43400
H  12.90000 3.60500 27.45200
H  14.18300 1.13700 32.98300
H  16.71400 3.16700 36.25100
H  16.23200 4.57500 35.25600
H  17.49400 3.39000 34.76100
Mg 47.32000 25.67100 28.92700
C  47.83100 27.82600 31.57100
C  46.19400 23.25900 30.98500
C  47.02300 23.57000 26.21300
C  48.80400 28.06900 26.76700
N  46.98700 25.59000 31.02300
C  47.21900 26.58700 31.89900
C  46.71000 26.14600 33.31100
C  46.29300 24.62000 33.16900
C  46.53900 24.48200 31.63500
C  47.11000 23.63700 34.06500
C  45.62500 26.98900 34.00700
C  45.95200 27.61300 35.32900
H  46.23700 26.72100 36.53900
N  46.74300 23.70200 28.66600
C  46.24800 22.91500 29.66900
C  45.78200 21.63000 29.07100
C  45.96700 21.73300 27.67000
C  46.60700 23.04400 27.43200
C  45.18200 20.49800 29.93700
C  45.64300 20.80100 26.59000
O  45.99900 20.93600 25.40000
C  44.90400 19.52600 26.91600
N  47.83400 25.83100 26.70400
C  47.62800 24.78000 25.86300
C  48.09000 25.13500 24.40900
C  48.68000 26.59400 24.58400
C  48.37500 26.88300 26.08100
C  49.15000 24.08800 23.79300
C  47.86500 27.64400 23.69600
C  48.75600 28.36600 22.69500
N  48.15100 27.51100 29.10000
C  48.74900 28.35400 28.15100
C  49.21600 29.60300 28.77100
C  48.87300 29.39700 30.08500
C  48.26000 28.16400 30.27300
C  49.82800 30.84700 28.04300
C  48.95300 30.06500 31.35300
O  49.52500 31.12900 31.69000
C  48.27800 29.02600 32.38000
C  49.29300 28.83300 33.46800
O  50.33800 28.23900 33.28200
O  48.99700 29.36700 34.65800
C  49.83400 28.95900 35.79500
H  45.85200 22.53400 31.72700
H  46.89600 22.98900 25.29700
H  49.17100 28.90800 26.17200
H  47.62200 26.25500 33.89800
H  45.22800 24.48400 33.36100
H  47.70900 23.08200 33.34300
H  46.49700 22.88700 34.56400
H  47.81100 24.19300 34.68700
H  44.74700 26.38500 34.23600
H  45.42000 27.84500 33.36400
H  45.07000 28.19800 35.58800
H  46.88000 28.16700 35.19000
H  45.59700 19.49500 29.83600
H  44.10600 20.45200 29.77300
H  45.27800 20.66900 31.01000
H  45.63500 18.92000 27.45200
H  44.56900 19.13100 25.95800
H  44.11600 19.79000 27.62100
H  47.34000 25.08500 23.62000
H  49.75900 26.52600 24.44600
H  50.06100 24.59300 23.47300
H  48.62500 23.56500 22.99400
H  49.48500 23.39500 24.56500
H  47.47900 28.42700 24.34900
H  47.04700 27.09200 23.23500
H  48.67800 29.44800 22.80500
H  48.73500 27.96600 21.68200
H  49.80100 28.24500 22.98200
H  49.66600 30.93100 26.96900
H  50.89000 30.77700 28.27600
H  49.39300 31.68500 28.58900
H  47.38600 29.49200 32.79900
H  49.71200 27.88400 35.92500
H  49.42100 29.51000 36.64000
H  50.85900 29.23100 35.54500

