158

Mg 54.05900 25.06600 45.78200
C  51.44100 27.02300 44.56800
C  52.37000 22.23200 44.42000
C  56.87300 23.20500 45.76900
C  55.84300 27.96400 46.26000
N  52.15800 24.72200 44.66500
C  51.22800 25.65100 44.28100
C  50.10200 24.95900 43.50400
C  50.24200 23.47600 43.92500
C  51.70600 23.44300 44.31700
C  49.32000 23.03400 45.04900
C  50.25600 25.11200 41.93300
C  49.07000 25.23700 40.96900
H  49.20700 25.89900 39.62000
N  54.51900 22.91500 45.38100
C  53.69800 21.94800 44.73900
C  54.29500 20.66000 44.84800
C  55.65000 20.90300 45.21500
C  55.76700 22.36500 45.43700
C  53.53100 19.33400 44.52200
C  56.69000 19.84500 45.31600
O  56.43200 18.67900 45.02600
C  58.15800 20.11300 45.74000
N  56.12900 25.49700 45.85600
C  57.07600 24.57000 45.94100
C  58.41800 25.16200 46.38700
C  58.11500 26.71000 46.56700
C  56.61100 26.76600 46.26000
C  58.98500 24.38000 47.63700
C  59.07400 27.53300 45.70100
C  58.89200 27.47200 44.13900
N  53.66300 27.08900 45.72900
C  54.49800 28.17500 46.01000
C  53.69200 29.42600 46.00000
C  52.47400 29.03300 45.41200
C  52.55600 27.63000 45.21400
C  54.06900 30.81200 46.43600
C  51.14300 29.42900 44.88500
O  50.62300 30.52700 44.86800
C  50.47300 28.13300 44.28200
C  50.34500 28.42700 42.88500
O  51.31300 28.63300 42.16800
O  49.09800 28.82000 42.61600
C  48.79500 29.15300 41.14000
H  51.89900 21.36000 43.96100
H  57.83100 22.77300 46.06500
H  56.39100 28.89400 46.42600
H  49.12400 25.33100 43.81000
H  50.06800 22.77800 43.10600
H  48.53300 23.77500 45.18200
H  49.84900 23.08400 46.00100
H  49.04200 21.99800 44.85400
H  50.96600 24.33200 41.66000
H  50.90700 25.97500 41.79300
H  48.33400 25.89300 41.43400
H  48.63500 24.25200 40.80200
H  53.55300 19.04600 43.47100
H  52.50300 19.52100 44.83000
H  53.89400 18.56900 45.20900
H  58.70400 19.17500 45.84800
H  58.16000 20.70800 46.65300
H  58.48900 20.67000 44.86400
H  59.08400 24.98000 45.54300
H  58.32200 27.03900 47.58600
H  58.35300 23.59700 48.05700
H  59.24400 25.16400 48.34900
H  59.91300 23.90100 47.32600
H  60.09100 27.21700 45.93000
H  58.91700 28.59100 45.91100
H  57.89700 27.86100 43.91900
H  59.10900 26.46700 43.77800
H  59.49600 28.25300 43.67900
H  55.01700 30.75500 46.97100
H  53.38900 31.16400 47.21200
H  53.90500 31.58300 45.68400
H  49.49700 27.88400 44.69900
H  48.41900 30.17600 41.16200
H  48.07600 28.40100 40.81500
H  49.59700 28.97800 40.42300
Mg 47.91500 16.53900 28.66000
C  45.89100 16.48800 31.38700
C  50.24400 18.46200 30.34200
C  49.82700 16.74800 25.84100
C  45.40600 14.75400 26.83700
N  47.94500 17.48200 30.57400
C  47.06700 17.21800 31.56900
C  47.54500 17.89300 32.91800
C  48.83800 18.71400 32.46200
C  49.05100 18.12500 31.06600
C  48.84600 20.30000 32.52900
C  47.77700 16.88000 34.07800
C  47.27500 17.21700 35.45800
H  47.26000 18.71500 35.75200
N  49.82800 17.44900 28.15700
C  50.57200 18.16300 29.01900
C  51.83000 18.50400 28.43100
C  51.80600 17.90200 27.06000
C  50.49700 17.34100 26.97100
C  52.95600 19.16700 29.18900
C  52.82200 17.99900 25.83400
O  52.47800 17.54600 24.72200
C  54.08700 18.83800 25.96000
N  47.67600 15.84400 26.66900
C  48.61200 16.04400 25.69900
C  48.17100 15.33400 24.38500
C  46.92600 14.56700 24.81100
C  46.59300 15.04700 26.18700
C  47.75200 16.35300 23.23700
C  47.11500 12.96000 24.80800
C  46.22600 12.15300 23.93100
N  45.93300 15.83700 28.94300
C  45.03900 15.15400 28.13200
C  43.84900 14.85700 28.97700
C  44.17000 15.35800 30.28500
C  45.40100 15.93500 30.18700
C  42.56100 14.25200 28.49000
C  43.64500 15.51300 31.63700
O  42.56400 15.17700 32.10000
C  44.82000 16.23600 32.51000
C  44.29200 17.40700 33.24400
O  44.20100 18.49400 32.71200
O  43.80700 17.03700 34.44800
C  43.15300 18.14200 35.23800
H  50.98800 19.12900 30.78200
H  50.37000 16.60600 24.90400
H  44.71500 14.16600 26.22900
H  46.85600 18.62300 33.34300
H  49.67200 18.36500 33.07000
H  48.13300 20.72000 33.23800
H  48.71000 20.75400 31.54700
H  49.81100 20.58300 32.95100
H  48.80100 16.50800 34.07000
H  47.18200 15.99100 33.86700
H  47.97000 16.71700 36.13200
H  46.30900 16.71300 35.51000
H  53.87200 18.62100 28.96500
H  53.00000 18.98100 30.26200
H  53.07200 20.21000 28.89500
H  54.85400 18.44900 26.63100
H  53.88800 19.79900 26.43400
H  54.48200 18.78000 24.94600
H  48.96900 14.69600 24.00400
H  46.03300 14.76100 24.21700
H  48.24000 17.31400 23.39700
H  46.69300 16.61000 23.26300
H  48.02000 15.98000 22.24800
H  47.02400 12.70800 25.86400
H  48.15900 12.73400 24.59100
H  46.81100 11.25500 23.73200
H  45.89600 12.58900 22.98900
H  45.35800 11.84000 24.51100
H  42.47100 13.21700 28.81800
H  42.59000 14.30500 27.40200
H  41.76100 14.95000 28.73600
H  45.19500 15.53300 33.25400
H  42.13000 17.81500 35.41900
H  43.05200 19.04900 34.64100
H  43.71300 18.22100 36.17100

