158

Mg 1.22300 -2.62400 44.74300
C  4.56600 -2.20700 44.08300
C  0.68800 0.02700 42.57600
C  -1.95300 -3.50900 44.57400
C  1.99200 -5.67100 46.23400
N  2.54100 -1.28100 43.40100
C  3.82400 -1.25800 43.37800
C  4.38000 0.01900 42.66800
C  3.06600 0.82400 42.38700
C  1.99100 -0.17500 42.83400
C  2.90900 2.17000 43.21400
C  5.23600 -0.25500 41.43000
C  6.36900 0.74200 41.28400
H  6.56200 1.34600 39.87600
N  -0.42200 -1.75300 43.81800
C  -0.46900 -0.74800 42.96200
C  -1.86700 -0.40200 42.59300
C  -2.66300 -1.36200 43.25700
C  -1.69900 -2.26900 43.92800
C  -2.14600 0.73400 41.59300
C  -4.19300 -1.38700 43.33600
O  -4.85700 -0.52400 42.72600
C  -4.98400 -2.45300 43.99100
N  0.16100 -4.39700 45.25900
C  -1.12800 -4.45700 45.22700
C  -1.68500 -5.72000 45.89100
C  -0.41600 -6.49900 46.33100
C  0.68000 -5.42500 45.97700
C  -2.52100 -5.42600 47.09900
C  -0.28700 -7.86300 45.54500
C  -0.30000 -7.92000 43.97100
N  2.90800 -3.68900 45.26700
C  3.05100 -4.93300 45.92400
C  4.43300 -5.20100 46.14500
C  5.09700 -4.04800 45.46900
C  4.12600 -3.31000 44.84300
C  4.92600 -6.42700 46.81400
C  6.40100 -3.51900 45.14500
O  7.52200 -3.94700 45.47000
C  6.13600 -2.29300 44.21600
C  6.73900 -1.01600 44.81900
O  6.62700 -0.73600 45.98100
O  7.44400 -0.23100 43.87300
C  7.81200 1.13300 44.32200
H  0.51800 0.85600 41.88600
H  -3.00100 -3.81100 44.51700
H  2.22000 -6.64200 46.67700
H  4.97600 0.56400 43.39900
H  2.90500 1.08000 41.34000
H  3.78600 2.29700 43.84900
H  2.01200 2.16100 43.83300
H  2.82000 2.98800 42.49900
H  4.52600 -0.27900 40.60300
H  5.64600 -1.26300 41.48600
H  7.26700 0.17700 41.53100
H  6.24000 1.54000 42.01500
H  -3.10800 0.50200 41.13600
H  -1.43400 0.86400 40.77800
H  -2.23400 1.67600 42.13400
H  -4.85500 -2.34000 45.06800
H  -4.77700 -3.47100 43.66100
H  -6.04700 -2.29500 43.81000
H  -2.33600 -6.24700 45.19200
H  -0.47700 -6.75900 47.38800
H  -1.92300 -5.32900 48.00500
H  -3.27000 -6.21300 47.18800
H  -3.21100 -4.60200 46.91700
H  -0.98300 -8.64900 45.83600
H  0.64500 -8.33700 45.85500
H  0.71400 -8.04200 43.59000
H  -0.67300 -6.95800 43.61700
H  -0.90400 -8.69500 43.49800
H  5.98000 -6.24900 47.02700
H  4.86100 -7.26000 46.11400
H  4.34000 -6.68000 47.69800
H  6.47200 -2.47300 43.19500
H  8.53000 1.09700 45.14100
H  6.83000 1.55800 44.52800
H  8.29800 1.65000 43.49400
Mg -0.24800 7.42500 26.74800
C  0.53900 9.57000 29.51300
C  -0.27400 4.88600 28.94300
C  -0.66000 5.49500 24.14600
C  0.58800 10.17700 24.58800
N  0.11800 7.20500 28.99700
C  0.32100 8.21900 29.90000
C  0.40900 7.77500 31.32900
C  0.49900 6.24800 31.10200
C  0.03700 6.05500 29.64600
C  1.87600 5.60500 31.21600
C  -0.87200 8.26300 32.06700
C  -0.75000 8.94500 33.44100
H  -0.23900 8.04700 34.66600
N  -0.56400 5.55700 26.59900
C  -0.56000 4.57500 27.59500
C  -0.93000 3.34300 27.06800
C  -1.12700 3.51200 25.69300
C  -0.83600 4.90000 25.40000
C  -1.14200 2.11500 27.92000
C  -1.49000 2.45000 24.70000
O  -1.90000 2.72300 23.55100
C  -1.26200 0.95400 25.02700
N  0.01900 7.80900 24.63200
C  -0.34500 6.78500 23.82700
C  -0.15000 7.16100 22.40400
C  -0.07200 8.73700 22.43100
C  0.30500 8.99800 23.95100
C  1.13400 6.49500 21.73300
C  -1.43700 9.42300 22.11100
C  -1.47900 10.75600 21.48300
N  0.36000 9.45800 26.91300
C  0.63000 10.37800 25.93000
C  0.99300 11.61700 26.57900
C  1.05200 11.32000 27.97900
C  0.59500 9.98100 28.13500
C  1.38300 12.81200 25.85600
C  1.35300 11.87200 29.32200
O  1.84200 12.87000 29.71900
C  0.95000 10.73300 30.36900
C  1.99000 10.59200 31.42400
O  3.09400 9.99900 31.30500
O  1.58300 11.17600 32.63300
C  2.41100 11.00000 33.83600
H  -0.25500 3.98300 29.55700
H  -0.73200 4.84900 23.26800
H  0.65900 11.06400 23.95500
H  1.31600 8.16800 31.78800
H  -0.23700 5.64600 31.63400
H  2.59000 6.09000 31.88200
H  2.35200 5.37100 30.26400
H  1.72100 4.59300 31.58800
H  -1.49900 7.40000 32.29300
H  -1.41900 8.94600 31.41600
H  -1.71100 9.26000 33.84700
H  -0.05600 9.77800 33.33100
H  -2.07600 1.55800 27.84600
H  -0.95000 2.27200 28.98200
H  -0.38100 1.35000 27.77000
H  -1.93800 0.46200 25.72500
H  -0.21700 0.71200 25.21800
H  -1.49200 0.40300 24.11500
H  -0.99300 6.83400 21.79500
H  0.72800 9.12000 21.79700
H  1.73500 7.22300 21.18800
H  0.72000 5.75200 21.05200
H  1.76100 6.12300 22.54400
H  -1.98400 9.54500 23.04500
H  -2.01200 8.73500 21.49100
H  -0.53600 11.09700 21.05600
H  -1.81900 11.49300 22.21000
H  -2.28800 10.73000 20.75400
H  2.16500 13.38500 26.35400
H  0.45500 13.38400 25.85500
H  1.62000 12.62800 24.80800
H  0.09200 11.25900 30.78800
H  2.67400 11.88700 34.41200
H  3.32900 10.52300 33.49500
H  1.72200 10.42500 34.45500

