158

Mg 54.55900 24.82400 44.51600
C  52.24000 27.25200 43.52600
C  52.49600 22.39300 43.28600
C  57.15100 22.66900 44.49400
C  56.85400 27.44500 45.03300
N  52.57300 24.87500 43.56400
C  51.86200 25.94800 43.14300
C  50.57500 25.48500 42.27300
C  50.43600 24.11200 42.92800
C  51.93900 23.73600 43.27400
C  49.62900 23.91000 44.25100
C  51.00100 25.50400 40.76700
C  49.97200 26.21000 39.78500
H  49.75800 25.47800 38.48800
N  54.75400 22.73900 44.02300
C  53.77600 21.93300 43.59200
C  54.32300 20.60900 43.43300
C  55.64400 20.64700 43.93000
C  55.96600 22.02700 44.16400
C  53.40400 19.46400 42.88600
C  56.52900 19.42600 44.10600
O  56.18800 18.29100 43.83000
C  57.95800 19.53100 44.52800
N  56.79900 25.05800 44.42600
C  57.58200 23.99200 44.60100
C  58.98800 24.44000 44.97300
C  58.95500 26.01900 44.89700
C  57.46300 26.20200 44.88100
C  59.55700 23.94300 46.32200
C  59.78800 26.79100 43.87900
C  60.91800 27.64500 44.42600
N  54.51900 26.95500 44.60300
C  55.50800 27.89000 44.91700
C  54.87700 29.25300 44.85000
C  53.59000 29.02400 44.29100
C  53.47300 27.66200 44.13600
C  55.54300 30.54300 45.15100
C  52.43000 29.67100 43.80600
O  52.18600 30.85100 43.74700
C  51.49800 28.57600 43.39400
C  50.99000 28.81400 42.04300
O  51.61200 29.07500 40.98700
O  49.64100 28.77000 42.11100
C  48.87600 29.50800 41.12100
H  51.82500 21.61000 42.92700
H  57.98000 21.95800 44.46100
H  57.53100 28.29800 45.12300
H  49.73700 26.16800 42.41100
H  50.13300 23.36800 42.19100
H  49.08100 24.84700 44.35300
H  50.31700 23.67900 45.06400
H  48.93000 23.08700 44.10000
H  51.44900 24.57400 40.41500
H  51.83800 26.18500 40.61400
H  50.41400 27.17200 39.53000
H  49.02700 26.32400 40.31700
H  53.92600 18.51000 42.82000
H  53.00800 19.70100 41.89900
H  52.52800 19.21100 43.48300
H  58.49500 18.59700 44.69500
H  58.07800 20.10300 45.44700
H  58.51900 20.11800 43.80000
H  59.74900 24.07700 44.28200
H  59.29600 26.38900 45.86400
H  58.78700 23.97100 47.09300
H  60.38100 24.55300 46.69000
H  59.84400 22.91400 46.10500
H  59.08900 27.35900 43.26400
H  60.22900 26.01000 43.25900
H  61.95400 27.34900 44.26000
H  60.81300 27.83600 45.49400
H  60.79800 28.63600 43.98800
H  54.94400 31.35200 44.73400
H  56.50600 30.49200 44.64200
H  55.76900 30.66700 46.21100
H  50.64600 28.56700 44.07300
H  48.89700 29.01800 40.14800
H  49.19700 30.53600 40.95400
H  47.84800 29.45800 41.48100
Mg 35.38200 48.60100 25.57000
C  36.08500 46.93500 28.52100
C  34.00500 51.19000 27.35000
C  34.57100 50.28400 22.61700
C  36.58400 45.92300 23.67400
N  34.98400 48.97300 27.70900
C  35.43700 48.15600 28.75100
C  35.16000 48.87900 30.12900
C  34.27700 50.19000 29.77000
C  34.41100 50.13100 28.20900
C  32.75600 50.17100 30.14500
C  36.44900 49.19000 30.92400
C  36.54200 49.18400 32.43500
H  35.22500 49.15900 33.27600
N  34.43500 50.45400 25.07200
C  33.99800 51.41900 25.97900
C  33.58600 52.65400 25.27300
C  33.73600 52.34400 23.86600
C  34.27900 50.95300 23.82600
C  33.01700 53.81300 26.07000
C  33.38600 53.26800 22.69900
O  33.59000 52.99000 21.53100
C  32.86900 54.66000 22.87100
N  35.45200 48.06600 23.50000
C  35.11400 48.97400 22.47900
C  35.37900 48.33800 21.07200
C  36.20100 47.06000 21.37700
C  36.05600 47.00000 22.95200
C  34.06700 48.12400 20.28800
C  37.68700 47.27800 20.96800
C  38.59400 48.09900 21.88800
N  36.17200 46.75400 25.95200
C  36.62900 45.75600 25.11400
C  37.24800 44.68400 25.99400
C  36.94800 45.07700 27.32200
C  36.33400 46.34500 27.26100
C  37.91400 43.48300 25.37000
C  37.16400 44.67200 28.65700
O  37.73600 43.74800 29.10100
C  36.56300 45.93100 29.53700
C  35.51000 45.30700 30.38500
O  34.37700 44.99400 30.03800
O  36.03200 45.15500 31.68000
C  35.12000 44.78900 32.80400
H  33.53600 51.91300 28.02000
H  34.44700 50.84100 21.68600
H  36.98000 45.05000 23.15200
H  34.53600 48.21200 30.72400
H  34.78600 51.11300 30.04700
H  32.17900 50.14800 29.22100
H  32.52600 51.00200 30.81200
H  32.66700 49.26600 30.74700
H  36.76200 50.16300 30.54500
H  37.24200 48.59000 30.47600
H  37.10200 50.02900 32.83600
H  37.12300 48.27200 32.57900
H  32.74600 54.71000 25.51300
H  33.78200 54.01300 26.82100
H  32.09400 53.55000 26.58700
H  31.79600 54.53800 23.02000
H  32.83200 55.02900 21.84600
H  33.44000 55.28500 23.55900
H  35.93500 49.03700 20.44700
H  35.75900 46.18500 20.90000
H  33.79200 47.07100 20.24500
H  34.24500 48.45800 19.26600
H  33.28800 48.62200 20.86600
H  37.79100 47.74200 19.98700
H  37.93900 46.22700 20.82200
H  38.15800 49.09200 21.99600
H  39.50500 48.21500 21.30100
H  38.97300 47.63100 22.79700
H  38.48800 42.98100 26.14800
H  38.45100 43.77200 24.46700
H  37.00100 42.93800 25.13300
H  37.33300 46.43800 30.11800
H  35.22900 45.51600 33.60900
H  35.57000 43.84400 33.10800
H  34.08700 44.61300 32.50200

