158

Mg 16.82900 -1.22100 28.54200
C  15.82600 0.53400 31.30900
C  18.96200 -2.96600 30.57200
C  18.18300 -2.59600 25.77100
C  14.95600 0.86500 26.48200
N  17.32000 -1.14000 30.72700
C  16.82400 -0.43000 31.65000
C  17.31500 -0.81500 33.04700
C  18.63900 -1.60000 32.75100
C  18.36400 -1.88900 31.30600
C  20.06200 -1.10100 33.13600
C  16.28900 -1.39800 34.02000
C  16.31800 -0.77300 35.44600
H  17.61600 -0.22100 35.93000
N  18.28600 -2.68500 28.28700
C  19.06300 -3.34800 29.21900
C  19.99500 -4.25700 28.47000
C  19.68400 -4.21500 27.10800
C  18.69100 -3.14000 26.97800
C  21.06300 -5.13800 29.22900
C  20.26800 -5.07600 25.90400
O  19.89600 -5.07800 24.72700
C  21.39800 -6.02400 26.13800
N  16.55600 -0.98400 26.37900
C  17.25100 -1.61000 25.48100
C  16.86200 -1.18400 24.06800
C  15.69600 -0.25700 24.27800
C  15.75000 -0.04200 25.80200
C  18.09500 -0.60600 23.16800
C  14.26700 -0.70600 23.85000
C  14.02300 -0.66800 22.34200
N  15.67300 0.37500 28.74100
C  14.93200 1.09500 27.85000
C  14.07200 2.10400 28.55200
C  14.38600 1.83600 29.90300
C  15.37400 0.81100 29.98500
C  13.12400 3.17300 27.93000
C  14.07700 2.20100 31.29700
O  13.20800 2.98900 31.70700
C  14.98600 1.44000 32.20000
C  15.88200 2.41200 32.82100
O  16.93200 2.76400 32.39300
O  15.25800 2.90000 33.94600
C  16.11800 3.80500 34.75600
H  19.69000 -3.56400 31.12500
H  18.55500 -3.05900 24.85500
H  14.48300 1.62200 25.85300
H  17.72600 0.09500 33.48700
H  18.44900 -2.52100 33.30200
H  20.57500 -0.78800 32.22600
H  20.61700 -1.88400 33.65400
H  19.93300 -0.24100 33.79300
H  16.33500 -2.48300 34.11100
H  15.30800 -1.29700 33.55500
H  16.02400 -1.50600 36.19700
H  15.58800 0.03200 35.36800
H  21.21600 -4.86700 30.27400
H  21.99300 -4.81300 28.76400
H  20.86600 -6.20800 29.17200
H  22.34200 -5.50900 26.31700
H  21.51600 -6.59100 25.21400
H  21.11700 -6.71200 26.93500
H  16.46200 -2.11700 23.67100
H  15.96600 0.68700 23.80600
H  18.59100 -1.44900 22.68700
H  18.85900 -0.22700 23.84800
H  17.61200 0.09800 22.49000
H  13.54900 0.00600 24.25600
H  14.07600 -1.76000 24.05100
H  13.37100 0.13800 22.00500
H  13.67900 -1.64700 22.00700
H  14.95700 -0.45300 21.82500
H  13.61600 3.56600 27.04000
H  12.96600 4.06800 28.53200
H  12.20400 2.66800 27.63500
H  14.39400 0.92200 32.95500
H  16.02100 3.52000 35.80300
H  15.81200 4.83400 34.57100
H  17.16600 3.67600 34.48600
Mg 25.43400 1.22600 30.09900
C  27.73200 1.04400 32.76800
C  22.96100 1.45600 32.33800
C  23.47900 1.32400 27.47300
C  28.24100 0.59300 27.87800
N  25.41000 1.16100 32.32300
C  26.43300 1.23900 33.20600
C  25.88300 1.49500 34.64600
C  24.35200 1.29800 34.50500
C  24.20100 1.29300 32.96500
C  23.67200 0.06000 35.17800
C  26.29800 2.86200 35.09900
C  27.10500 2.95100 36.40800
H  26.45000 3.74800 37.55400
N  23.44900 1.44100 29.91900
C  22.53900 1.45400 30.92800
C  21.20300 1.60700 30.38100
C  21.35400 1.60800 28.98200
C  22.84000 1.48000 28.71300
C  19.94300 1.77800 31.20700
C  20.27600 1.65200 27.85700
O  20.52600 1.74800 26.68900
C  18.80100 1.59500 28.20200
N  25.83100 0.79400 27.93800
C  24.77900 1.02600 27.06300
C  25.25300 1.14600 25.61900
C  26.81500 1.04300 25.80200
C  26.97400 0.81200 27.30900
C  24.61200 0.09900 24.59900
C  27.63300 2.26900 25.28300
C  29.07000 2.09500 24.61600
N  27.48400 0.87700 30.21200
C  28.48400 0.51900 29.23400
C  29.71200 0.34500 29.87700
C  29.41700 0.58100 31.24000
C  28.07600 0.87700 31.39700
C  31.12900 0.16200 29.28600
C  30.04500 0.66500 32.60800
O  31.16700 0.46200 32.92200
C  29.02000 1.13000 33.60900
C  28.93200 0.12100 34.68800
O  28.33900 -0.95000 34.64300
O  29.55100 0.54800 35.84200
C  29.34800 -0.18400 37.09900
H  22.06400 1.53600 32.95500
H  22.91700 1.45300 26.54500
H  29.11800 0.58000 27.22800
H  26.33400 0.72700 35.27500
H  23.82800 2.24400 34.64000
H  22.86700 0.45600 35.79700
H  24.38500 -0.52800 35.75500
H  23.11000 -0.63000 34.54700
H  25.38500 3.44800 35.20800
H  26.92500 3.24400 34.29400
H  27.93500 3.59300 36.11300
H  27.54300 2.00000 36.71000
H  19.32500 2.61400 30.88000
H  20.16700 1.84000 32.27100
H  19.42700 0.82000 31.25700
H  18.34000 2.51600 28.55800
H  18.61700 0.77600 28.89700
H  18.22700 1.23000 27.35000
H  25.00800 2.12900 25.21800
H  27.26700 0.20600 25.26900
H  23.98200 -0.61800 25.12500
H  25.40000 -0.50300 24.14700
H  23.98100 0.57600 23.84900
H  27.78700 2.98800 26.08800
H  26.99500 2.78700 24.56600
H  29.47800 1.10200 24.80000
H  29.75300 2.77700 25.12200
H  28.94300 2.32000 23.55700
H  31.33600 0.95900 28.57300
H  31.17100 -0.71100 28.63500
H  31.76000 0.14400 30.17400
H  29.13800 2.14100 33.99900
H  30.34900 -0.20200 37.52900
H  28.98000 -1.20000 36.95300
H  28.77600 0.37100 37.84200

