158

Mg 3.06200 -2.23000 44.04100
C  6.24000 -0.71300 43.72300
C  1.82800 0.21100 41.86500
C  0.30700 -3.92700 43.76400
C  4.78900 -5.02300 45.38000
N  4.01700 -0.54000 42.84300
C  5.24300 -0.02100 43.03100
C  5.41900 1.36100 42.40800
C  3.93300 1.67600 42.07300
C  3.19000 0.33900 42.32300
C  3.29500 2.81600 42.97200
C  6.42600 1.40300 41.18500
C  6.49500 0.16400 40.16000
H  5.88700 0.51700 38.77900
N  1.20100 -1.87800 43.12800
C  0.89600 -0.80400 42.32200
C  -0.45700 -0.99300 41.81000
C  -0.92600 -2.23000 42.26400
C  0.14400 -2.71200 43.18300
C  -1.07900 0.00900 40.86700
C  -2.31100 -2.81000 41.95000
O  -3.07400 -2.26300 41.22700
C  -2.77500 -4.24200 42.48300
N  2.56700 -4.12500 44.66900
C  1.32200 -4.62900 44.48900
C  1.12500 -6.04100 45.19400
C  2.60300 -6.41300 45.52000
C  3.36200 -5.11200 45.16400
C  0.15000 -5.99300 46.40900
C  3.23800 -7.66500 44.89700
C  3.83100 -8.66100 45.89200
N  5.13100 -2.72300 44.61900
C  5.65900 -3.96300 45.05100
C  7.02100 -3.85700 45.27300
C  7.31300 -2.57000 44.86100
C  6.15100 -1.91400 44.35800
C  7.92200 -4.95100 45.83000
C  8.37000 -1.64100 44.61200
O  9.55200 -1.61900 44.90500
C  7.77400 -0.37000 43.86500
C  8.09600 0.96600 44.54100
O  8.81500 1.88000 44.04100
O  7.70300 0.95000 45.84000
C  8.03800 2.09300 46.65300
H  1.45000 0.98900 41.19900
H  -0.55800 -4.59300 43.80100
H  5.28300 -5.89600 45.81300
H  5.73600 2.21200 43.01100
H  3.79700 1.93300 41.02300
H  2.65600 2.24600 43.64700
H  2.81300 3.60400 42.39400
H  3.97000 3.33200 43.65500
H  7.38200 1.80300 41.52300
H  6.06400 2.24700 40.59600
H  5.82100 -0.56900 40.60400
H  7.47200 -0.30200 40.03600
H  -1.75500 0.68300 41.39400
H  -1.50700 -0.48200 39.99300
H  -0.28100 0.57800 40.39000
H  -2.02000 -4.89800 42.04900
H  -3.74100 -4.54700 42.08100
H  -2.87700 -4.31800 43.56500
H  0.78900 -6.78900 44.47500
H  2.71000 -6.39300 46.60400
H  -0.63600 -6.74200 46.31000
H  -0.30300 -5.01700 46.58300
H  0.63900 -6.13700 47.37200
H  4.11200 -7.41700 44.29600
H  2.59300 -8.19800 44.19800
H  3.17700 -9.52100 46.03200
H  4.03500 -8.28300 46.89400
H  4.82100 -9.04700 45.64900
H  7.71600 -5.82600 45.21400
H  7.64100 -5.26400 46.83600
H  8.95900 -4.65500 45.99000
H  8.26400 -0.20500 42.90600
H  7.62100 1.84900 47.63000
H  7.51200 2.97100 46.27900
H  9.10700 2.29600 46.70700
Mg 41.05100 40.89900 26.87500
C  40.40400 43.39700 29.11400
C  42.16500 38.79900 29.33700
C  41.83100 38.74500 24.44200
C  40.71200 43.35700 24.18700
N  41.26700 41.04900 29.00800
C  40.80900 42.15400 29.74900
C  41.05000 41.90600 31.26900
C  41.58900 40.46200 31.28100
C  41.74500 40.06700 29.82300
C  42.90200 40.30200 31.98800
C  39.74800 42.10200 32.21100
C  39.99100 42.01700 33.78000
H  39.18400 42.93500 34.65600
N  41.81300 38.98700 26.93100
C  42.22500 38.29000 28.03300
C  42.59200 36.94600 27.60500
C  42.56000 36.98800 26.16400
C  42.00600 38.28800 25.77000
C  43.01200 35.83000 28.49000
C  43.00600 35.81800 25.22100
O  43.04800 35.98400 23.96600
C  43.27400 34.45100 25.75600
N  40.97300 40.95600 24.60600
C  41.39300 39.91100 23.89000
C  41.39500 40.04000 22.36600
C  40.88200 41.58200 22.33800
C  40.83700 42.01800 23.78100
C  42.70700 39.64300 21.62000
C  39.45200 41.76400 21.65700
C  38.31300 41.37300 22.55700
N  40.67700 42.99500 26.61700
C  40.58800 43.85400 25.52900
C  40.31600 45.15100 26.06000
C  40.18900 45.03500 27.43500
C  40.40700 43.71700 27.70100
C  40.24200 46.43000 25.23800
C  39.94400 45.70200 28.66800
O  39.67300 46.85200 29.00900
C  40.13600 44.69000 29.83500
C  41.38600 45.18600 30.52700
O  42.47900 45.23600 29.98900
O  41.16700 45.47900 31.89800
C  42.29000 45.89400 32.72900
H  42.35400 38.13200 30.18000
H  41.97000 37.95100 23.70500
H  40.63800 44.11300 23.40100
H  41.76500 42.69600 31.50000
H  40.80700 39.88200 31.77100
H  42.70200 39.66500 32.85000
H  43.22000 41.29500 32.30400
H  43.69700 39.87800 31.37500
H  39.06500 41.32000 31.88000
H  39.21900 42.98100 31.84300
H  41.06900 42.00100 33.94400
H  39.66200 40.99000 33.93800
H  42.30800 35.00200 28.57700
H  43.09000 36.21900 29.50500
H  43.97000 35.34800 28.29400
H  42.60200 34.09300 26.53500
H  44.16900 34.57600 26.36500
H  43.33300 33.74800 24.92500
H  40.62600 39.43800 21.88300
H  41.61200 42.11200 21.72600
H  43.51900 39.24500 22.22800
H  43.07900 40.54200 21.13000
H  42.49200 38.91300 20.83900
H  39.57400 41.11400 20.79000
H  39.31700 42.81700 21.41100
H  38.60900 41.04400 23.55300
H  37.73400 40.61700 22.02700
H  37.72300 42.28700 22.62100
H  39.93000 46.25200 24.20900
H  41.24800 46.85000 25.23600
H  39.55400 47.03100 25.83300
H  39.19100 44.84400 30.35700
H  42.27200 45.39300 33.69700
H  42.21700 46.97800 32.82000
H  43.22000 45.49800 32.32100

