158

Mg 17.27100 -1.89500 27.69100
C  16.18400 0.22600 30.29000
C  19.19200 -3.58600 29.95300
C  18.71400 -3.51900 25.05300
C  15.47100 0.15700 25.42900
N  17.68600 -1.64000 29.87600
C  17.03600 -0.79000 30.75500
C  17.36300 -1.05100 32.22100
C  18.45400 -2.22400 32.16000
C  18.44100 -2.54100 30.60000
C  19.94200 -1.97000 32.72600
C  16.22100 -1.39600 33.15500
C  16.20100 -0.57100 34.43500
H  17.53900 -0.44800 35.15700
N  18.77700 -3.35600 27.58600
C  19.41000 -3.93600 28.61900
C  20.24600 -5.04800 28.14000
C  20.12400 -4.97300 26.67100
C  19.24800 -3.88900 26.35000
C  21.19900 -5.90700 29.03500
C  20.90600 -5.85400 25.65000
O  20.74800 -5.62900 24.44600
C  21.93700 -6.92200 26.05700
N  17.29100 -1.59800 25.58500
C  17.88000 -2.41200 24.71000
C  17.46900 -2.13600 23.24400
C  16.18800 -1.18000 23.42400
C  16.29900 -0.87400 24.95600
C  18.70500 -1.55700 22.47600
C  14.81100 -1.84200 22.99800
C  13.94600 -2.55500 24.02100
N  16.02000 -0.17400 27.74400
C  15.34000 0.53500 26.74200
C  14.50100 1.52500 27.32600
C  14.85900 1.54400 28.71500
C  15.78400 0.40900 28.89000
C  13.39500 2.29200 26.70100
C  14.68400 2.13400 30.06700
O  13.96900 3.11700 30.28500
C  15.53700 1.35500 31.09000
C  16.38200 2.26100 31.89600
O  17.61900 2.31900 31.91000
O  15.58600 2.82100 32.86800
C  16.29400 3.49600 33.93500
H  19.72500 -4.28500 30.60100
H  19.06400 -4.14900 24.23200
H  14.75200 0.75000 24.86000
H  17.83400 -0.12400 32.54900
H  18.21700 -3.15700 32.66900
H  20.70000 -2.00100 31.94300
H  20.29500 -2.67500 33.47900
H  20.04300 -0.96200 33.12600
H  16.26100 -2.44500 33.44900
H  15.34300 -1.11500 32.57200
H  15.53600 -0.99900 35.18500
H  15.92300 0.42900 34.10200
H  20.84800 -6.93200 28.91000
H  21.21700 -5.73500 30.11100
H  22.23100 -5.82700 28.69300
H  22.22500 -7.63400 25.28400
H  21.48100 -7.49300 26.86700
H  22.80300 -6.41900 26.48600
H  17.25100 -3.13300 22.86100
H  16.35400 -0.19100 22.99700
H  18.31000 -0.73700 21.87700
H  19.17900 -2.25300 21.78500
H  19.44700 -1.20400 23.19200
H  14.79600 -2.49200 22.12300
H  14.35300 -1.00200 22.47600
H  14.43200 -2.77300 24.97100
H  13.58900 -3.50000 23.61300
H  13.06900 -1.96800 24.29500
H  13.73900 3.25900 26.33300
H  12.52300 2.31600 27.35400
H  12.97200 1.67200 25.91100
H  14.74000 0.95500 31.71700
H  17.08100 4.12300 33.51800
H  16.71400 2.83700 34.69500
H  15.67300 4.21300 34.47200
Mg 16.94700 51.54600 26.25500
C  18.77700 50.41100 28.87100
C  14.42700 52.52400 28.56900
C  15.02300 52.66500 23.62600
C  19.12200 50.22300 23.95600
N  16.63900 51.41500 28.50400
C  17.56400 50.97900 29.35000
C  17.27400 51.25400 30.84800
C  15.70800 51.67900 30.68500
C  15.52200 51.88900 29.16000
C  14.71700 50.63700 31.26900
C  18.17800 52.35500 31.54100
C  18.68900 52.06400 32.92200
H  17.75000 51.46900 33.98600
N  15.00900 52.46100 26.16600
C  14.13900 52.77300 27.18100
C  13.01100 53.50200 26.62900
C  13.23400 53.58000 25.23500
C  14.42400 52.83600 24.96800
C  11.94200 54.17300 27.47000
C  12.35800 54.30900 24.17800
O  12.70800 54.50200 23.01200
C  11.16400 55.10700 24.76300
N  17.02100 51.50200 24.08700
C  16.22500 52.11300 23.25700
C  16.59800 51.90300 21.82700
C  18.06700 51.39500 21.97800
C  18.07400 50.96700 23.39500
C  15.73100 51.01100 20.97700
C  19.13600 52.51700 21.81300
C  20.34800 52.06500 20.95700
N  18.53800 50.58800 26.32200
C  19.38600 50.04900 25.32500
C  20.47100 49.36400 25.95400
C  20.19700 49.52900 27.29000
C  19.06900 50.26600 27.47800
C  21.54400 48.70900 25.21600
C  20.76500 49.09500 28.53500
O  21.71600 48.36200 28.84300
C  19.96700 49.95700 29.63300
C  19.71400 48.94000 30.69600
O  18.79700 48.13900 30.68900
O  20.68200 48.94200 31.66800
C  20.53300 48.09100 32.83600
H  13.74900 52.93800 29.31800
H  14.58700 53.25300 22.81600
H  19.83700 49.76000 23.27200
H  17.33500 50.28000 31.33300
H  15.54300 52.64300 31.16600
H  14.18700 51.17300 32.05700
H  15.27800 49.84300 31.76300
H  14.04400 50.17400 30.54700
H  17.59100 53.27300 31.58500
H  19.12100 52.41600 30.99900
H  18.97800 53.08400 33.17400
H  19.67100 51.59400 32.87100
H  10.91800 53.91500 27.19900
H  12.17300 55.23800 27.45900
H  11.99200 53.94500 28.53500
H  11.31400 55.75400 25.62800
H  10.39900 54.34800 24.92300
H  10.75600 55.81800 24.04500
H  16.46200 52.86400 21.33100
H  18.33700 50.56900 21.32000
H  14.78100 50.71700 21.42500
H  16.29600 50.18000 20.55500
H  15.43100 51.71600 20.20200
H  19.61800 52.81900 22.74300
H  18.64000 53.38400 21.37600
H  20.72000 52.80300 20.24700
H  20.07500 51.26100 20.27300
H  21.28700 51.79000 21.43900
H  21.17200 48.24500 24.30300
H  22.11300 47.98100 25.79400
H  22.16600 49.58600 25.03900
H  20.56100 50.78200 30.02500
H  20.16000 48.81900 33.55800
H  21.56100 47.90600 33.14800
H  19.73200 47.35400 32.77400

