158

Mg 9.23700 3.96200 27.86100
C  10.71000 2.24100 30.66100
C  7.26000 5.58800 30.00200
C  8.08100 5.25800 25.17700
C  10.93200 1.39100 25.83400
N  8.94400 3.65000 30.06500
C  9.78000 3.15300 31.05800
C  9.46400 3.67900 32.42700
C  8.23500 4.65300 32.19000
C  8.08000 4.62200 30.60500
C  6.91200 4.37600 32.96600
C  10.68800 4.31400 33.18600
C  10.31600 5.16600 34.45400
H  11.27600 5.03600 35.58900
N  7.86200 5.39900 27.58200
C  7.09400 5.91100 28.56800
C  6.29900 6.92600 27.99600
C  6.57000 6.99600 26.58600
C  7.52200 5.90900 26.37200
C  5.33800 7.83100 28.78400
C  6.13400 8.04200 25.55500
O  6.50900 8.10400 24.36100
C  5.26600 9.09400 25.96000
N  9.44900 3.42400 25.83400
C  8.93800 4.24800 24.84500
C  9.35800 3.78900 23.41700
C  9.90100 2.38900 23.67700
C  10.16200 2.40600 25.19100
C  8.28800 3.74400 22.26100
C  10.91300 1.81300 22.73200
C  10.31900 0.77600 21.83500
N  10.42400 2.12200 28.14300
C  11.07200 1.27600 27.22400
C  11.96800 0.34000 27.93500
C  11.86000 0.71700 29.25600
C  10.99300 1.78300 29.32200
C  12.79800 -0.76300 27.31800
C  12.24600 0.37500 30.64100
O  12.97300 -0.51100 31.03200
C  11.56700 1.44200 31.59000
C  10.75800 0.62000 32.54900
O  9.81300 -0.13000 32.29400
O  11.15900 0.88100 33.86400
C  10.37500 0.41700 35.00500
H  6.75000 6.31200 30.64000
H  7.63100 5.88700 24.40600
H  11.53400 0.73200 25.20600
H  9.19300 2.78900 32.99400
H  8.63600 5.65400 32.34700
H  6.00900 4.44400 32.35900
H  6.74400 5.25900 33.58200
H  6.94700 3.42700 33.50200
H  11.24100 4.96200 32.50600
H  11.34200 3.49100 33.47300
H  9.25200 5.11900 34.68400
H  10.51200 6.21300 34.22100
H  5.65200 8.86300 28.62600
H  5.39300 7.71400 29.86600
H  4.32800 7.57500 28.46300
H  4.26900 8.70300 26.16300
H  5.08900 9.75600 25.11200
H  5.57400 9.65100 26.84400
H  10.17600 4.44100 23.11200
H  9.03900 1.72200 23.66600
H  8.60300 4.51500 21.55800
H  7.33700 3.93500 22.76000
H  8.14100 2.79300 21.74800
H  11.71200 1.25800 23.22300
H  11.39000 2.58300 22.12700
H  10.63700 1.16300 20.86700
H  9.24300 0.61800 21.91500
H  10.84000 -0.16300 22.01700
H  12.88300 -1.62300 27.98200
H  13.80300 -0.46300 27.02100
H  12.23900 -1.16200 26.47100
H  12.28400 2.04900 32.14100
H  9.32300 0.64000 34.82700
H  10.49700 1.11300 35.83500
H  10.65700 -0.56900 35.37400
Mg 4.83600 54.68400 40.34300
C  4.34600 51.19100 40.58600
C  8.18200 54.01600 39.53600
C  5.14700 57.81200 39.36100
C  1.36500 55.15100 40.92100
N  6.10500 52.74800 39.85900
C  5.68800 51.45500 40.12100
C  6.85000 50.44500 39.89400
C  8.06500 51.38300 39.98600
C  7.46400 52.82200 39.74900
C  8.72500 51.33000 41.35500
C  6.67300 49.55600 38.57000
C  6.02000 50.24700 37.40100
H  6.92600 51.11000 36.51700
N  6.43000 55.80300 39.59200
C  7.76100 55.38200 39.41800
C  8.64900 56.47900 39.04900
C  7.71700 57.66500 39.04100
C  6.34400 57.10000 39.24500
C  10.14500 56.39800 38.70400
C  8.14900 59.06300 38.83900
O  9.34500 59.31300 38.82300
C  7.23900 60.14200 38.83200
N  3.46200 56.21000 40.12000
C  3.86700 57.43900 39.74600
C  2.78600 58.51300 39.97200
C  1.52800 57.67100 40.45600
C  2.17900 56.22400 40.47200
C  3.15300 59.67400 40.95800
C  0.32400 57.76900 39.50600
C  -1.12000 58.05400 40.02300
N  3.15200 53.45600 40.58400
C  1.83800 53.81000 40.90500
C  1.10800 52.67600 41.40400
C  2.07700 51.66000 41.33000
C  3.25000 52.18200 40.71200
C  -0.33600 52.50000 41.86700
C  2.40500 50.24400 41.64700
O  1.81800 49.35900 42.21000
C  3.77900 49.88300 41.06900
C  3.70300 48.81800 40.02600
O  3.33700 49.00700 38.92900
O  4.15500 47.61100 40.53800
C  4.09500 46.51600 39.55900
H  9.27000 53.95100 39.47000
H  5.11000 58.86200 39.06500
H  0.34000 55.34500 41.24400
H  6.83700 49.72300 40.71000
H  8.77200 51.15300 39.18900
H  9.81000 51.37900 41.25900
H  8.52100 50.37300 41.83500
H  8.40900 52.16600 41.97800
H  6.17400 48.62400 38.83400
H  7.70100 49.30700 38.30400
H  5.29200 50.91400 37.86300
H  5.56800 49.43300 36.83400
H  10.31100 55.54100 38.05200
H  10.74900 56.19500 39.58900
H  10.52500 57.23400 38.11700
H  7.78300 61.07000 38.65100
H  6.70100 60.15300 39.77900
H  6.60900 60.04000 37.94800
H  2.77100 59.02600 39.01100
H  1.25400 57.91100 41.48400
H  2.57300 59.72600 41.87900
H  3.00700 60.60500 40.41100
H  4.17400 59.46700 41.28000
H  0.20700 56.95100 38.79500
H  0.62800 58.70900 39.04500
H  -1.00300 59.09200 40.33400
H  -1.42400 57.43100 40.86400
H  -1.93000 58.02400 39.29400
H  -0.73500 51.49900 41.70900
H  -1.02200 53.19600 41.38500
H  -0.33600 52.89400 42.88400
H  4.31600 49.45300 41.91500
H  3.01700 46.35600 39.52100
H  4.54700 45.63200 40.01100
H  4.41300 46.68900 38.53100

