158

Mg 47.64100 25.61500 27.72500
C  48.99800 27.61500 30.16700
C  46.64200 23.27200 30.07300
C  46.48700 23.69300 25.20500
C  49.02700 27.86400 25.22400
N  47.89500 25.43800 29.88300
C  48.28800 26.45600 30.71700
C  47.90100 26.20000 32.15400
C  47.40100 24.71000 32.07000
C  47.33100 24.42400 30.58100
C  48.30300 23.78300 32.93600
C  46.88000 27.20900 32.71400
C  47.15500 27.39700 34.27200
H  45.97600 28.01800 35.11000
N  46.68700 23.71700 27.65600
C  46.36100 22.97800 28.77600
C  45.81700 21.69400 28.30900
C  45.59500 21.84500 26.87000
C  46.27300 23.12100 26.46200
C  45.52400 20.56900 29.22900
C  44.80400 20.90700 25.98100
O  44.71200 21.08300 24.74500
C  44.12200 19.73300 26.55800
N  47.77500 25.78900 25.51200
C  47.23900 24.75600 24.76100
C  47.67100 24.89500 23.34800
C  48.43100 26.22700 23.32100
C  48.38200 26.68100 24.72600
C  48.57400 23.74300 22.86500
C  47.74500 27.33000 22.32500
C  48.27300 27.53700 20.85200
N  48.74500 27.38800 27.65300
C  49.25700 28.19200 26.62600
C  50.09800 29.21800 27.12400
C  49.92600 29.05300 28.51000
C  49.13000 27.94400 28.78000
C  50.86600 30.25700 26.44300
C  50.22400 29.66200 29.73900
O  50.93300 30.61700 29.93400
C  49.60600 28.82700 30.87200
C  50.49200 28.53300 31.96200
O  51.60900 27.95500 31.92200
O  49.91200 29.02700 33.09900
C  50.62600 28.91100 34.31400
H  46.34600 22.54700 30.83500
H  46.16000 23.03800 24.39400
H  49.58000 28.46100 24.49600
H  48.86200 26.19600 32.66800
H  46.41200 24.71200 32.52800
H  48.99000 23.01400 32.58200
H  47.59700 23.23500 33.56000
H  48.93900 24.35600 33.61000
H  45.84200 26.88300 32.64400
H  47.02600 28.15900 32.20000
H  48.02000 28.06000 34.30600
H  47.44900 26.47300 34.76900
H  44.48900 20.61300 29.56600
H  46.24200 20.65000 30.04600
H  45.73300 19.62300 28.73000
H  44.82800 18.90400 26.49400
H  43.32800 19.48600 25.85300
H  43.67500 20.13500 27.46700
H  46.78500 25.02100 22.72600
H  49.43900 26.16800 22.91200
H  48.67500 22.96200 23.61800
H  49.61600 24.05500 22.79100
H  48.19500 23.35600 21.91900
H  47.74300 28.30200 22.81700
H  46.71900 27.06400 22.06900
H  47.43700 27.19100 20.24300
H  49.17700 26.93100 20.80100
H  48.59200 28.57100 20.71600
H  51.40100 31.00500 27.02800
H  50.26000 30.66600 25.63400
H  51.63700 29.71200 25.89700
H  48.79800 29.50800 31.13800
H  50.45200 27.95500 34.80700
H  50.24100 29.64600 35.02100
H  51.64400 29.28800 34.22100
Mg 27.15300 50.47800 26.66200
C  24.94000 51.62700 29.23700
C  29.49600 49.87200 29.06700
C  29.19200 49.82600 24.22400
C  25.09700 52.19700 24.39300
N  27.13500 50.79500 28.97800
C  26.14100 51.09400 29.76200
C  26.58400 50.84600 31.19900
C  28.13900 50.64500 31.12400
C  28.34700 50.43800 29.65000
C  28.96400 51.77000 31.80400
C  25.86900 49.68200 31.85800
C  25.49900 49.73700 33.36200
H  26.34000 50.48100 34.40700
N  28.95600 49.76100 26.67000
C  29.80300 49.52000 27.70800
C  31.00000 48.90100 27.25900
C  30.90700 48.85500 25.86300
C  29.64300 49.52700 25.48400
C  32.08400 48.28200 28.22500
C  31.92500 48.32800 24.87900
O  31.75000 48.34800 23.64600
C  33.36700 47.99600 25.41500
N  27.14700 50.98300 24.56700
C  28.03700 50.43800 23.73900
C  27.76800 50.82100 22.25500
C  26.40900 51.48200 22.37300
C  26.14900 51.56000 23.85200
C  28.85400 51.69100 21.55400
C  25.29500 50.62600 21.80900
C  24.87200 49.33100 22.53600
N  25.42700 51.67300 26.67100
C  24.73300 52.34100 25.71300
C  23.55400 53.09500 26.25300
C  23.64900 52.81200 27.68100
C  24.78500 51.94000 27.86400
C  22.38400 53.63300 25.47200
C  22.82900 52.91800 28.87900
O  21.79400 53.53300 29.05200
C  23.66900 52.19900 29.95100
C  23.97700 53.04400 31.11700
O  24.55800 54.11100 31.10200
O  23.45000 52.55700 32.27700
C  23.43400 53.37900 33.46500
H  30.32500 49.63100 29.73700
H  29.84600 49.56000 23.39000
H  24.54400 52.80300 23.67200
H  26.39800 51.72800 31.81000
H  28.45800 49.68500 31.53000
H  29.84600 51.81100 31.16500
H  29.36700 51.60000 32.80200
H  28.53900 52.77400 31.79800
H  26.58900 48.88100 31.69200
H  24.96200 49.59500 31.26100
H  25.40200 48.71300 33.72200
H  24.51700 50.20500 33.43500
H  32.25100 47.20500 28.19600
H  31.94000 48.55300 29.27200
H  33.06100 48.68600 27.96000
H  33.80400 48.84000 25.94900
H  33.85700 47.71500 24.48200
H  33.26100 47.11700 26.05000
H  27.72600 49.95500 21.59400
H  26.50100 52.49400 21.97800
H  28.49500 52.63500 21.14300
H  29.12400 51.01300 20.74400
H  29.71800 51.91300 22.18100
H  25.60200 50.33900 20.80300
H  24.46200 51.32900 21.78700
H  25.45600 49.08800 23.42300
H  24.97500 48.49500 21.84400
H  23.80200 49.39500 22.73500
H  21.51400 53.92700 26.06000
H  22.07300 53.06000 24.59900
H  22.53100 54.58600 24.96500
H  23.04400 51.40200 30.35500
H  22.39100 53.45200 33.77200
H  23.70300 54.39600 33.18100
H  24.10200 53.05100 34.26200

