158

Mg 49.81300 44.63400 42.80400
C  46.61300 44.78300 41.84100
C  49.76500 41.07600 42.22600
C  53.23300 44.52700 43.21700
C  49.96800 48.11300 43.13300
N  48.32900 43.03900 42.24000
C  47.00000 43.43900 41.89000
C  46.17900 42.17100 41.35900
C  47.11000 40.99500 41.90400
C  48.47700 41.70200 42.12400
C  46.72200 40.09700 43.08100
C  46.13600 42.21300 39.76600
C  44.68900 42.31800 39.25500
H  44.28200 43.41000 38.28900
N  51.28700 43.06000 42.75300
C  51.06300 41.65800 42.52500
C  52.28200 40.94200 42.55700
C  53.32000 41.85400 42.86300
C  52.67100 43.23400 42.94700
C  52.43400 39.51300 42.12100
C  54.81700 41.44300 43.01200
O  55.21000 40.27900 42.94600
C  55.84800 42.58100 43.01900
N  51.34200 46.08400 43.45200
C  52.66000 45.80200 43.34000
C  53.51900 47.04100 43.59900
C  52.42000 48.17800 43.68100
C  51.18800 47.40400 43.43500
C  54.41100 47.12300 44.83300
C  52.78300 49.42100 42.73300
C  52.45500 50.84800 43.14300
N  48.57300 46.15500 42.64900
C  48.77200 47.49900 42.73200
C  47.44100 48.08200 42.44600
C  46.55500 47.08900 42.19100
C  47.32700 45.91700 42.24600
C  47.19100 49.58200 42.46600
C  45.21000 46.76300 41.82300
O  44.18000 47.44400 41.70100
C  45.17500 45.26000 41.56200
C  44.16100 44.80000 42.57000
O  44.19200 44.72700 43.82700
O  42.94400 44.64300 41.84000
C  41.69800 44.49800 42.59400
H  49.77900 39.99200 42.09600
H  54.31500 44.53700 43.36800
H  49.99600 49.20500 43.10400
H  45.22000 42.27400 41.86600
H  47.20600 40.29700 41.07300
H  47.23900 40.31800 44.01400
H  46.85200 39.05800 42.77900
H  45.67700 40.31800 43.30000
H  46.65300 41.34400 39.36000
H  46.59800 43.07800 39.29000
H  43.88300 42.10600 39.95700
H  44.76700 41.51000 38.52700
H  51.53600 39.27700 41.55000
H  52.48900 38.81700 42.95800
H  53.29700 39.29100 41.49200
H  55.66600 43.35800 42.27700
H  56.76800 42.14200 42.63400
H  55.87700 43.06900 43.99400
H  54.04300 47.19000 42.65600
H  52.32000 48.56600 44.69500
H  54.05000 47.87700 45.53200
H  55.34900 47.55000 44.47900
H  54.52900 46.11800 45.23900
H  52.34700 49.28200 41.74400
H  53.85500 49.37900 42.53900
H  53.35400 51.46000 43.21000
H  51.85500 50.85500 44.05300
H  51.82900 51.24000 42.34100
H  46.29900 49.85300 43.03200
H  47.14300 49.94800 41.44000
H  48.05700 50.07600 42.90800
H  44.76500 45.09500 40.56500
H  40.97800 44.42500 41.77900
H  41.51200 45.30200 43.30700
H  41.75500 43.54700 43.12300
Mg 0.68300 43.44100 26.02500
C  2.98900 43.22400 28.66300
C  -1.79400 42.66800 28.24200
C  -1.42400 43.35400 23.36000
C  3.32600 43.88000 23.85400
N  0.63300 43.02600 28.20400
C  1.68000 43.07400 29.04600
C  1.13200 43.02100 30.46400
C  -0.28700 42.45500 30.35200
C  -0.55100 42.79200 28.86800
C  -0.52000 41.01000 30.62300
C  1.14600 44.45900 31.11100
C  1.45500 44.50500 32.66700
H  1.23100 43.20100 33.50800
N  -1.33900 42.98400 25.81600
C  -2.18900 42.68100 26.84300
C  -3.58400 42.54700 26.25600
C  -3.47800 42.87300 24.88300
C  -2.04900 43.10300 24.62700
C  -4.81200 42.14600 27.11200
C  -4.56900 42.90000 23.84700
O  -4.42500 43.25600 22.65900
C  -5.92600 42.48500 24.21500
N  0.86400 43.83600 23.93800
C  -0.07100 43.58600 23.05000
C  0.44900 43.59700 21.54800
C  1.88300 44.15900 21.83700
C  2.06700 43.87000 23.27100
C  0.37800 42.20200 20.87600
C  2.05000 45.63800 21.30400
C  1.82200 46.80100 22.28900
N  2.77500 43.52100 26.14600
C  3.71800 43.74000 25.20800
C  5.05400 43.71000 25.76500
C  4.81900 43.48600 27.15200
C  3.44800 43.35800 27.34900
C  6.28300 43.93300 25.01900
C  5.51200 43.32700 28.42600
O  6.68800 43.40500 28.69700
C  4.34500 43.17100 29.47500
C  4.64800 42.04200 30.29900
O  4.25900 40.87300 30.09200
O  5.39800 42.42900 31.44500
C  5.61200 41.36800 32.37000
H  -2.63200 42.52700 28.92800
H  -2.08000 43.32900 22.48700
H  4.07800 44.15600 23.11200
H  1.72100 42.35000 31.09000
H  -1.05800 43.00100 30.89600
H  0.34900 40.47500 31.00600
H  -0.91300 40.55600 29.71300
H  -1.31200 40.88500 31.36000
H  0.15600 44.90700 31.01800
H  1.79300 45.17100 30.59900
H  0.82000 45.29400 33.07200
H  2.51700 44.70000 32.81400
H  -5.62900 42.86500 27.04100
H  -4.49500 41.95000 28.13600
H  -5.19800 41.18900 26.76100
H  -6.07600 41.45600 24.54300
H  -6.52700 42.71400 23.33600
H  -6.10200 43.18100 25.03500
H  -0.21800 44.24100 20.97500
H  2.53100 43.53900 21.21800
H  1.38100 41.77600 20.82700
H  0.07900 42.17000 19.82800
H  -0.29300 41.49500 21.36300
H  1.44300 45.63500 20.39900
H  3.09400 45.72000 21.00200
H  2.59400 47.56700 22.21800
H  1.80900 46.37400 23.29200
H  0.85500 47.26900 22.10700
H  6.81900 44.77500 25.45800
H  6.15300 44.31800 24.00800
H  6.84800 43.00100 25.02800
H  4.41500 44.08400 30.06500
H  6.01200 40.39600 32.08000
H  4.64300 41.13000 32.80900
H  6.31300 41.79400 33.08700

