158

Mg 9.35700 3.23900 27.23000
C  10.52800 1.69000 30.16000
C  7.33800 5.17300 29.28500
C  7.57000 4.04400 24.51300
C  10.82000 0.57300 25.46700
N  9.06000 3.43500 29.49700
C  9.62900 2.64500 30.48100
C  9.27700 3.14900 31.85600
C  8.07000 4.09600 31.57300
C  8.21400 4.31000 30.04500
C  6.69400 3.57100 31.92200
C  10.56000 3.81800 32.46900
C  10.37300 4.80100 33.66500
H  10.86500 4.15600 34.97700
N  7.84900 4.55000 26.96200
C  7.20000 5.33500 27.91000
C  6.24700 6.22600 27.28500
C  6.35200 5.96400 25.89800
C  7.29400 4.81000 25.69500
C  5.32400 7.13700 28.02100
C  5.66200 6.67000 24.74400
O  5.96600 6.36300 23.57900
C  4.51500 7.54400 24.97300
N  9.11200 2.42300 25.26900
C  8.32800 2.96100 24.28500
C  8.44700 2.20200 23.02600
C  9.73500 1.31400 23.28700
C  9.98300 1.46900 24.73300
C  7.28800 1.35200 22.50000
C  11.01100 1.67600 22.53200
C  11.67700 0.49500 21.89500
N  10.56700 1.59600 27.69300
C  11.07600 0.57700 26.86000
C  11.98100 -0.28700 27.60500
C  11.79800 0.14000 28.92500
C  10.92600 1.23000 28.88800
C  12.89100 -1.20800 27.06300
C  12.22000 -0.12600 30.25500
O  12.93100 -0.99900 30.71500
C  11.33400 0.82900 31.13900
C  10.44600 -0.03400 32.01300
O  9.37400 -0.55600 31.66500
O  11.06700 -0.14700 33.22700
C  10.28900 -0.72800 34.28700
H  6.66400 5.67200 29.98400
H  6.98300 4.24200 23.61400
H  11.25700 -0.29500 24.96900
H  9.12200 2.29400 32.51300
H  8.06700 5.01000 32.16700
H  6.80700 2.56400 32.32600
H  6.09100 3.44800 31.02200
H  6.19600 4.21800 32.64400
H  11.06400 4.31900 31.64300
H  11.09500 2.92400 32.79000
H  9.34200 5.14200 33.76100
H  10.98100 5.69100 33.50500
H  5.73500 8.14100 27.91300
H  5.33500 6.85500 29.07300
H  4.27800 7.05800 27.72700
H  3.70600 7.14000 25.58100
H  4.07700 7.55400 23.97500
H  4.85600 8.56500 25.14100
H  8.58900 2.90900 22.20800
H  9.44800 0.26400 23.24200
H  6.78900 0.95500 23.38400
H  7.83600 0.57300 21.97000
H  6.68900 1.98800 21.84800
H  11.75100 2.09300 23.21500
H  10.83400 2.32700 21.67600
H  11.93800 0.72700 20.86300
H  10.95700 -0.32100 21.84700
H  12.50600 0.11900 22.49500
H  12.28100 -1.96200 26.56600
H  13.61700 -1.59200 27.77900
H  13.34500 -0.54400 26.32700
H  12.09400 1.36000 31.71200
H  9.29400 -0.31100 34.44300
H  10.76800 -0.37600 35.20100
H  10.21600 -1.81500 34.31500
Mg -1.96300 33.63600 27.20900
C  -3.43100 31.86900 29.91800
C  -0.50400 35.63100 29.50700
C  -1.02700 35.56100 24.65900
C  -3.86100 31.68800 25.08900
N  -2.20000 33.83800 29.48800
C  -2.57800 32.82800 30.35400
C  -2.12300 33.06700 31.81200
C  -1.12700 34.33000 31.58900
C  -1.28500 34.62600 30.10200
C  -1.32100 35.55700 32.45400
C  -1.46400 31.77600 32.44200
C  -2.11000 31.21900 33.82000
H  -1.19500 31.06800 34.99900
N  -0.94500 35.41100 27.13500
C  -0.37000 35.99200 28.18400
C  0.56000 36.97100 27.62900
C  0.37600 37.04700 26.22500
C  -0.60500 36.03900 25.97500
C  1.47000 37.81400 28.53000
C  1.13200 37.92300 25.15900
O  0.87800 37.82000 23.92300
C  2.15300 38.88800 25.57700
N  -2.43200 33.62500 25.18100
C  -1.91200 34.57700 24.29500
C  -2.27600 34.17300 22.79800
C  -2.89000 32.74700 22.97400
C  -3.04000 32.63500 24.49000
C  -3.17100 35.16900 22.06700
C  -2.12000 31.55400 22.30000
C  -0.97400 31.01800 23.24000
N  -3.30800 32.02700 27.33100
C  -4.06500 31.42300 26.43800
C  -4.88400 30.38500 27.06200
C  -4.62700 30.44600 28.41800
C  -3.68500 31.49400 28.58700
C  -5.84100 29.58500 26.34000
C  -4.97400 29.91500 29.68800
O  -5.65900 28.98400 29.98000
C  -4.21600 30.83200 30.69000
C  -5.18000 31.43300 31.69500
O  -5.97700 32.36900 31.53200
O  -5.04500 30.78500 32.92600
C  -5.96600 31.17700 33.98300
H  0.18800 36.15700 30.16800
H  -0.62300 36.08700 23.79100
H  -4.46700 31.10200 24.39500
H  -2.95000 33.46400 32.40000
H  -0.11300 33.97600 31.77900
H  -1.83500 36.33800 31.89300
H  -0.33100 35.89900 32.75600
H  -1.86600 35.38200 33.38100
H  -0.41300 31.92900 32.69000
H  -1.55100 30.92000 31.77300
H  -2.44000 30.23000 33.50100
H  -3.04100 31.70700 34.10700
H  1.03800 38.81100 28.62100
H  2.44600 37.81000 28.04400
H  1.75100 37.46900 29.52500
H  2.42800 39.52400 24.73600
H  3.14400 38.47900 25.77200
H  1.79600 39.56900 26.35100
H  -1.37700 34.00200 22.20600
H  -3.89800 32.83600 22.57100
H  -3.05600 36.21000 22.37200
H  -4.23200 34.96000 22.20500
H  -2.83200 35.19900 21.03200
H  -1.68400 31.80500 21.33300
H  -2.85700 30.75900 22.19200
H  -1.33200 30.10300 23.71200
H  -0.66900 31.75900 23.97900
H  -0.11700 30.73200 22.63000
H  -5.29700 28.64800 26.21700
H  -6.13600 29.92300 25.34700
H  -6.72000 29.47000 26.97400
H  -3.55200 30.21500 31.29500
H  -6.72600 31.82700 33.55100
H  -5.43400 31.75200 34.74100
H  -6.32400 30.36000 34.61000

