158

Mg 26.01800 0.95600 28.55400
C  27.80100 0.35700 31.52000
C  23.16500 1.26700 30.40800
C  24.28900 0.81400 25.78300
C  28.91400 0.20500 26.67800
N  25.57900 0.77500 30.83400
C  26.45000 0.68300 31.83900
C  25.83200 0.88400 33.22600
C  24.34000 1.24300 32.81000
C  24.30700 1.07200 31.23100
C  23.27100 0.35500 33.46300
C  26.52700 1.97400 34.10000
C  27.09100 1.50300 35.51300
H  26.76900 2.38400 36.73100
N  24.01500 0.96200 28.14500
C  23.00500 1.21600 29.01200
C  21.72400 1.31500 28.31400
C  22.03000 1.15300 26.92100
C  23.50800 0.98600 26.91500
C  20.39300 1.45100 28.96500
C  21.16700 1.06700 25.68000
O  21.59100 0.93800 24.54300
C  19.62800 0.99400 25.98400
N  26.54100 0.59000 26.50200
C  25.62200 0.61800 25.55500
C  26.16500 0.57000 24.14500
C  27.73500 0.70500 24.41500
C  27.77500 0.41900 25.96300
C  25.62500 -0.58400 23.27900
C  28.25100 2.16200 24.03000
C  28.15000 3.42100 24.91000
N  27.98500 0.55200 28.94200
C  29.03300 0.22200 28.07100
C  30.16800 -0.07900 28.90600
C  29.81100 0.00600 30.20100
C  28.42300 0.35500 30.21400
C  31.61100 -0.51100 28.35800
C  30.23500 -0.15200 31.59000
O  31.28200 -0.53000 32.08300
C  28.94300 0.16800 32.42500
C  28.69700 -0.95700 33.30500
O  27.90900 -1.88900 33.05100
O  29.32700 -0.74400 34.43700
C  29.02000 -1.66300 35.52000
H  22.25900 1.53900 30.95300
H  23.81900 0.84200 24.79800
H  29.82700 -0.01500 26.12200
H  25.79800 -0.09900 33.69500
H  24.19700 2.31600 32.93900
H  23.53100 -0.70100 33.38800
H  22.31900 0.52300 32.96000
H  23.11000 0.62400 34.50700
H  25.78100 2.73000 34.34500
H  27.30100 2.47100 33.51500
H  28.17300 1.63300 35.46700
H  26.75300 0.48800 35.72400
H  20.47000 1.65200 30.03400
H  19.84300 0.52800 28.78000
H  19.73000 2.21700 28.56200
H  19.37300 0.33200 26.81100
H  19.23700 0.37800 25.17400
H  19.27200 2.00600 26.17500
H  25.80100 1.51200 23.73600
H  28.27400 -0.05300 23.84700
H  24.92100 -1.17200 23.87000
H  26.48700 -1.14000 22.91000
H  25.25900 -0.00700 22.43000
H  27.95900 2.53300 23.04700
H  29.32700 2.09600 23.87200
H  28.06900 3.21300 25.97700
H  27.28700 4.02200 24.62400
H  29.02100 4.07600 24.90900
H  32.07700 0.30400 27.80400
H  31.54700 -1.30600 27.61500
H  32.23800 -0.85300 29.18100
H  29.28700 1.04300 32.97800
H  27.94200 -1.60700 35.66800
H  29.60100 -1.41900 36.41000
H  29.09600 -2.72300 35.27400
Mg 47.47000 25.13100 28.60300
C  47.96400 27.41500 31.22200
C  46.22600 22.88000 30.87900
C  47.32200 22.95500 26.13200
C  48.76200 27.50200 26.45900
N  47.13300 25.16300 30.76800
C  47.37000 26.24100 31.60100
C  46.83600 25.98100 33.08400
C  46.71900 24.38100 33.01600
C  46.72000 24.06700 31.47700
C  47.60500 23.41200 33.82200
C  45.57200 26.81400 33.42900
C  44.90300 26.40000 34.70100
H  45.12600 27.16400 36.02300
N  46.95000 23.20000 28.58800
C  46.31700 22.46600 29.58300
C  46.02200 21.13300 29.06400
C  46.37000 21.10800 27.66500
C  46.91400 22.44100 27.38800
C  45.33700 20.08100 29.94600
C  46.31100 19.87200 26.69800
O  46.81100 19.90100 25.56500
C  45.60800 18.65400 27.12400
N  48.02800 25.17000 26.57000
C  47.82700 24.17500 25.72500
C  48.01700 24.57000 24.22300
C  48.32800 26.04300 24.33600
C  48.40800 26.23900 25.86600
C  49.09600 23.65100 23.54800
C  47.30900 27.00900 23.73400
C  45.78100 27.04900 24.07700
N  48.17600 27.06100 28.76600
C  48.70500 27.87200 27.78200
C  49.13500 29.18600 28.31800
C  48.81100 29.00600 29.71300
C  48.29000 27.70700 29.88500
C  49.77900 30.34100 27.73800
C  48.75300 29.72700 30.96700
O  49.16000 30.86000 31.25000
C  48.19700 28.72900 31.95400
C  49.03800 28.63700 33.12500
O  50.02200 27.94300 33.33900
O  48.49400 29.49100 34.09800
C  49.15400 29.53800 35.42100
H  45.86800 22.14400 31.60200
H  47.13700 22.27000 25.30200
H  49.10000 28.32200 25.82200
H  47.62600 26.31000 33.75900
H  45.74700 24.08000 33.40700
H  46.84500 22.88400 34.39700
H  48.36700 23.94700 34.38900
H  47.95500 22.68500 33.08900
H  44.85800 26.81000 32.60500
H  45.84600 27.82600 33.72700
H  45.08600 25.35200 34.93500
H  43.83600 26.51400 34.51300
H  44.44800 19.69600 29.44500
H  45.05700 20.37900 30.95600
H  45.94500 19.25300 30.31100
H  46.18900 18.11200 27.87000
H  45.64300 18.01600 26.24100
H  44.55800 18.84300 27.34400
H  47.12900 24.42600 23.60700
H  49.31300 26.32700 23.96600
H  50.08500 24.11000 23.52200
H  48.94300 23.56600 22.47200
H  49.03800 22.71000 24.09500
H  47.39500 26.72600 22.68500
H  47.79800 27.98100 23.68800
H  45.53400 26.40800 24.92300
H  45.12400 26.74100 23.26300
H  45.50900 28.05100 24.41100
H  49.40800 30.56400 26.73800
H  50.86300 30.37400 27.84600
H  49.41300 31.15000 28.37000
H  47.23800 29.20500 32.16000
H  50.22200 29.35400 35.29900
H  48.70200 28.80600 36.09000
H  48.98800 30.53500 35.82900

