158

Mg 54.08400 24.52700 44.10200
C  51.05800 26.10600 43.40700
C  52.86400 21.56100 42.78100
C  57.30300 23.20100 43.99600
C  55.37300 27.60400 44.99000
N  52.30900 24.01100 43.05500
C  51.16600 24.76800 42.90700
C  50.08200 23.97200 42.08200
C  50.56500 22.51100 42.35300
C  51.99000 22.69900 42.80200
C  49.79800 21.69900 43.49500
C  49.86400 24.50900 40.62600
C  48.43900 24.55700 40.06400
H  48.03900 23.71900 38.79800
N  54.97300 22.62600 43.50800
C  54.24800 21.52800 43.15800
C  55.11900 20.42000 43.08200
C  56.41200 20.85000 43.46300
C  56.27700 22.30100 43.67100
C  54.66700 19.08900 42.58200
C  57.59400 19.90700 43.49300
O  57.40900 18.66900 43.23800
C  58.98700 20.38400 43.82200
N  56.09000 25.30100 44.40600
C  57.25400 24.59200 44.29300
C  58.43000 25.33700 44.72500
C  57.81800 26.79500 44.94100
C  56.31400 26.54400 44.81600
C  59.05000 24.81400 46.00400
C  58.43600 27.77300 43.94200
C  59.41100 28.74700 44.53900
N  53.40500 26.40300 44.30500
C  54.01200 27.52000 44.76000
C  53.06600 28.58200 44.90700
C  51.86200 28.03900 44.45000
C  52.13500 26.70500 44.01300
C  53.29200 29.87200 45.57100
C  50.42700 28.29800 44.23400
O  49.62300 29.23600 44.45900
C  49.91000 27.10500 43.53400
C  49.55600 27.60800 42.13900
O  50.32800 28.04800 41.29700
O  48.14800 27.80300 42.07200
C  47.77900 28.54600 40.81700
H  52.46400 20.60800 42.43100
H  58.27000 22.78800 44.29200
H  55.75900 28.56100 45.34800
H  49.19200 24.13300 42.69100
H  50.56800 21.98200 41.40000
H  48.96100 22.27400 43.89200
H  50.35200 21.35700 44.36900
H  49.51700 20.75500 43.02900
H  50.34000 23.82800 39.92100
H  50.31600 25.49100 40.48600
H  48.18400 25.59800 39.86400
H  47.65200 24.26400 40.75800
H  53.68500 19.05100 42.10900
H  54.65000 18.41300 43.43600
H  55.38400 18.71200 41.85300
H  59.29600 21.21500 43.18700
H  59.59400 19.48500 43.71700
H  58.95200 20.70200 44.86400
H  59.23300 25.38400 43.99000
H  57.95600 27.15600 45.96000
H  59.87200 25.43200 46.36400
H  59.53200 23.87200 45.74300
H  58.35900 24.67700 46.83600
H  57.61500 28.23800 43.39700
H  58.97400 27.38600 43.07600
H  60.41100 28.32000 44.61100
H  59.05300 28.92900 45.55200
H  59.34900 29.73900 44.09200
H  53.22500 29.55900 46.61300
H  52.37400 30.44000 45.41700
H  54.24500 30.30400 45.26800
H  49.14700 26.58300 44.11300
H  46.71100 28.39100 40.66300
H  48.29000 28.16100 39.93500
H  47.98700 29.59900 41.00600
Mg 47.23500 24.96700 29.00100
C  47.88100 27.24900 31.50900
C  46.56900 22.58300 31.55500
C  46.93200 22.43600 26.68400
C  48.11000 27.12800 26.62600
N  47.31900 24.89900 31.25300
C  47.43100 26.06900 31.99800
C  47.12300 25.79500 33.50000
C  46.88600 24.23500 33.53600
C  46.87000 23.85500 32.02700
C  48.00600 23.55800 34.28400
C  45.95400 26.59300 34.09300
C  46.25600 27.25500 35.52300
H  45.16100 27.19000 36.56700
N  46.63700 22.86100 29.12100
C  46.52600 22.08600 30.20800
C  46.20100 20.75400 29.88500
C  46.29500 20.63100 28.51000
C  46.67300 21.97200 28.02800
C  45.61000 19.71600 30.85800
C  46.04200 19.40500 27.59600
O  46.07400 19.47700 26.35400
C  45.83000 18.03500 28.28600
N  47.64500 24.74000 27.00300
C  47.23200 23.70400 26.23500
C  47.46800 23.94200 24.76600
C  47.50700 25.50400 24.76000
C  47.66500 25.86800 26.19100
C  48.83700 23.36900 24.29900
C  46.33300 26.18300 24.11900
C  45.35600 26.92000 25.05000
N  48.05000 26.77400 29.05400
C  48.30400 27.59800 27.97500
C  48.76700 28.82500 28.43700
C  48.52900 28.77800 29.85600
C  48.12300 27.51700 30.15500
C  49.16200 29.99200 27.60800
C  48.65900 29.56700 31.13700
O  49.11200 30.70200 31.38300
C  48.11200 28.61500 32.20500
C  49.00000 28.60000 33.35400
O  49.92600 27.84200 33.47900
O  48.62200 29.60000 34.22500
C  49.43300 29.71200 35.43200
H  46.22000 21.94100 32.36600
H  46.84800 21.66500 25.91400
H  48.14200 27.77300 25.74500
H  47.93600 26.05900 34.17700
H  45.96500 23.78100 33.90200
H  48.62700 22.95500 33.62200
H  47.52500 22.84400 34.95300
H  48.70200 24.19800 34.82700
H  45.20100 25.83300 34.30300
H  45.67300 27.42500 33.44700
H  46.25700 28.33000 35.34200
H  47.24500 27.05400 35.93400
H  44.63900 19.41400 30.46500
H  45.65200 19.90300 31.93100
H  46.28600 18.86400 30.78700
H  46.61800 17.75600 28.98500
H  45.84700 17.32200 27.46100
H  44.80600 18.10000 28.65500
H  46.64300 23.54500 24.17600
H  48.43300 25.89800 24.33900
H  49.31700 22.79800 25.09400
H  49.57200 24.13000 24.03500
H  48.68500 22.65700 23.48900
H  45.84300 25.44400 23.48600
H  46.79800 26.91200 23.45600
H  45.53700 27.98900 24.94400
H  45.22300 26.53300 26.06100
H  44.33300 26.90900 24.67700
H  48.39200 30.22600 26.87400
H  50.14900 29.81900 27.17900
H  49.33100 30.80600 28.31300
H  47.12200 29.03400 32.38800
H  49.23100 28.92900 36.16300
H  49.28100 30.62700 36.00500
H  50.51100 29.59800 35.31300

