158

Mg 39.95400 8.20500 29.25200
C  41.74800 9.85300 31.86300
C  37.48400 7.35300 31.52600
C  38.38200 6.80700 26.71300
C  42.75300 8.84400 27.17000
N  39.78600 8.52900 31.51800
C  40.59000 9.23800 32.33400
C  39.92700 9.34300 33.73200
C  38.67300 8.36000 33.63900
C  38.59500 8.13100 32.07500
C  38.89900 7.08200 34.49200
C  39.69300 10.76800 34.30800
C  38.68400 10.83600 35.48300
H  39.07200 11.64600 36.73600
N  38.15600 7.22800 29.16400
C  37.30300 6.97100 30.18400
C  36.17300 6.29900 29.56700
C  36.37400 6.16300 28.16800
C  37.66600 6.77900 27.93900
C  34.88200 6.06600 30.28600
C  35.53700 5.43900 27.16600
O  35.89200 5.33200 25.99000
C  34.38300 4.57600 27.62900
N  40.50400 7.82200 27.23300
C  39.60800 7.27000 26.38200
C  40.12700 7.33200 24.87200
C  41.60300 7.96600 25.15400
C  41.69600 8.17700 26.63100
C  40.31500 5.94100 24.28600
C  41.66800 9.34900 24.32900
C  40.55300 10.39600 24.69500
N  41.85000 9.03400 29.49100
C  42.78200 9.25600 28.49500
C  43.89200 10.00200 29.11100
C  43.48100 10.35600 30.39800
C  42.22900 9.71000 30.58000
C  45.19800 10.28100 28.41600
C  43.84900 11.11300 31.58600
O  44.86300 11.72500 31.85000
C  42.70500 10.82400 32.62900
C  43.44200 10.23300 33.79700
O  44.19600 9.30000 33.78700
O  43.26200 11.19700 34.77300
C  44.06600 10.93800 36.01300
H  36.70700 7.12000 32.25800
H  37.93300 6.47800 25.77300
H  43.49900 9.16200 26.43900
H  40.77200 8.91600 34.27200
H  37.76000 8.87500 33.93600
H  39.68300 7.28500 35.22200
H  39.26500 6.25300 33.88600
H  37.92700 6.95500 34.96700
H  39.28100 11.39700 33.51900
H  40.63700 11.14300 34.70500
H  38.44700 9.81900 35.79400
H  37.71000 11.15400 35.10900
H  34.72300 6.57400 31.23700
H  34.76300 5.00200 30.48900
H  34.05000 6.36500 29.64900
H  34.77700 4.01700 28.47900
H  34.16300 3.95500 26.76100
H  33.52900 5.18800 27.91800
H  39.55200 7.89000 24.13300
H  42.43200 7.36800 24.77700
H  39.92000 5.21500 24.99600
H  41.39000 5.77900 24.20500
H  39.74400 5.80400 23.36700
H  41.78500 9.08600 23.27800
H  42.60500 9.78900 24.66900
H  39.85200 10.04900 25.45500
H  39.95900 10.63000 23.81200
H  41.13200 11.27700 24.97300
H  46.03200 10.14100 29.10400
H  45.10900 11.25900 27.94400
H  45.25700 9.51600 27.64200
H  42.13700 11.73800 32.80000
H  43.59000 11.36100 36.89700
H  45.08500 11.32400 35.96500
H  44.11100 9.87000 36.22200
Mg -10.25500 17.72200 42.94200
C  -6.81000 16.70100 42.63000
C  -9.10400 20.96400 41.99300
C  -13.37000 18.55200 42.13300
C  -11.04200 14.40600 43.34900
N  -8.22900 18.71100 42.25200
C  -6.95500 18.10200 42.39500
C  -5.80100 19.10200 42.15600
C  -6.53600 20.42600 42.18200
C  -8.00500 20.01500 42.20700
C  -6.18300 21.36800 43.36300
C  -5.02400 18.96600 40.81700
C  -5.74700 18.57300 39.52200
H  -4.95800 18.64900 38.20200
N  -11.13300 19.49900 42.22400
C  -10.51200 20.71000 41.95100
C  -11.48500 21.63100 41.56000
C  -12.77500 20.97600 41.55500
C  -12.51200 19.62400 41.94200
C  -11.15300 23.00700 41.01900
C  -14.13700 21.61700 40.99200
O  -14.15100 22.78100 40.61200
C  -15.37700 20.86600 40.85400
N  -11.91500 16.62100 42.70000
C  -13.09900 17.22900 42.50000
C  -14.27900 16.22500 42.68900
C  -13.54400 14.87900 42.95100
C  -12.05500 15.31100 42.97000
C  -15.41400 16.61600 43.73400
C  -13.78200 13.83200 41.81800
C  -13.80000 12.31000 42.19800
N  -9.20000 15.89800 43.08500
C  -9.66100 14.58000 43.15000
C  -8.60800 13.61700 43.14400
C  -7.46000 14.39300 42.97100
C  -7.85500 15.78300 42.87300
C  -8.83000 12.15200 43.42200
C  -5.96300 14.33200 42.89100
O  -5.12300 13.47900 42.89200
C  -5.51800 15.84300 42.50000
C  -4.46000 16.23800 43.48800
O  -3.26200 16.28000 43.35600
O  -5.04900 16.82400 44.59300
C  -4.06000 17.34500 45.62300
H  -8.80600 21.99800 41.80800
H  -14.43300 18.76100 41.99200
H  -11.40500 13.41300 43.62200
H  -5.06600 19.02600 42.95800
H  -6.37700 21.07100 41.31800
H  -5.35300 20.98500 43.95800
H  -7.01600 21.51500 44.05000
H  -5.83100 22.32600 42.97900
H  -4.38400 18.08800 40.91000
H  -4.39600 19.83900 40.64200
H  -6.67100 19.13500 39.38500
H  -6.07300 17.54300 39.66900
H  -11.76000 23.47000 40.24100
H  -10.19000 23.00700 40.50700
H  -10.99900 23.69500 41.85000
H  -15.84700 20.59800 41.80100
H  -15.16200 19.98600 40.24700
H  -16.11200 21.49400 40.35200
H  -14.97800 16.18700 41.85400
H  -13.71500 14.47200 43.94800
H  -16.35400 16.99500 43.33200
H  -14.89200 17.26500 44.43700
H  -15.61600 15.65800 44.21200
H  -12.95100 13.87700 41.11500
H  -14.59400 14.06400 41.12900
H  -14.85600 12.08200 42.04700
H  -13.48700 12.25100 43.24100
H  -13.14200 11.73400 41.54700
H  -8.85200 11.53000 42.52800
H  -9.70500 11.94400 44.03900
H  -7.95300 11.82300 43.97900
H  -5.21300 15.77700 41.45500
H  -3.30600 16.60200 45.88000
H  -4.58000 17.49700 46.56900
H  -3.59400 18.28000 45.31100

