158

Mg 47.97900 24.85800 27.77500
C  49.24100 27.12900 30.31300
C  47.20000 22.75600 30.35300
C  47.40900 22.64000 25.49200
C  49.15600 27.22500 25.46300
N  48.23700 24.94400 30.14000
C  48.63600 25.96700 30.92300
C  48.42700 25.62700 32.37500
C  47.79600 24.16300 32.31000
C  47.81600 23.89600 30.85200
C  48.42400 23.07000 33.13100
C  47.39800 26.68100 32.88700
C  46.78000 26.30600 34.25700
H  46.82400 27.32700 35.39900
N  47.31200 22.96900 27.89500
C  46.95800 22.24900 29.03200
C  46.37000 20.97100 28.59500
C  46.57600 20.87300 27.21500
C  47.15700 22.16600 26.78100
C  45.93800 19.95500 29.59300
C  46.46000 19.56900 26.32100
O  46.60800 19.60500 25.12200
C  45.93300 18.32100 26.86000
N  48.43700 24.81400 25.82900
C  47.96900 23.79200 25.02600
C  48.10500 24.11300 23.58900
C  48.56900 25.60700 23.57800
C  48.72400 25.93000 25.05700
C  49.12600 23.13300 22.83900
C  47.67300 26.56100 22.70100
C  48.45400 27.72300 22.04700
N  48.97600 26.83500 27.84500
C  49.37200 27.64700 26.77800
C  50.19800 28.70800 27.24400
C  50.05800 28.62000 28.59900
C  49.34700 27.40300 28.98300
C  50.97300 29.74800 26.44700
C  50.37500 29.26900 29.86600
O  50.99700 30.29000 30.05900
C  49.73100 28.35900 31.01200
C  50.80100 28.01200 31.93500
O  51.82500 27.42500 31.64100
O  50.51700 28.51000 33.21600
C  51.38200 28.00000 34.31700
H  46.80100 22.05800 31.09100
H  47.15000 21.91900 24.71400
H  49.29800 28.06100 24.77400
H  49.29600 25.72500 33.02600
H  46.74400 24.22200 32.58800
H  49.03500 23.45800 33.94700
H  49.14100 22.50300 32.53800
H  47.62500 22.42900 33.50300
H  46.51500 26.76000 32.25400
H  47.77200 27.70400 32.92500
H  47.30000 25.40500 34.58300
H  45.72100 26.14600 34.05000
H  44.89000 19.83500 29.31800
H  45.97300 20.34000 30.61200
H  46.42200 18.98000 29.52700
H  45.68900 17.52600 26.15500
H  44.95300 18.57300 27.26500
H  46.64500 18.00700 27.62300
H  47.13300 24.12200 23.09600
H  49.61200 25.64600 23.26200
H  49.53800 22.37200 23.50200
H  49.88700 23.80100 22.43500
H  48.71300 22.57600 21.99800
H  46.91100 26.92300 23.39200
H  47.10300 26.08900 21.90100
H  48.13000 27.83400 21.01300
H  49.54400 27.71200 22.01600
H  48.03200 28.63900 22.46000
H  50.17300 30.26600 25.91700
H  51.70100 29.34800 25.74200
H  51.52100 30.36800 27.15600
H  49.03800 29.03100 31.51700
H  50.68000 28.05000 35.14900
H  52.27400 28.57400 34.56900
H  51.65200 26.95300 34.18600
Mg 49.07600 35.39300 27.52000
C  47.00700 33.67000 29.65700
C  49.33300 37.99500 29.83800
C  50.52100 37.36500 25.07800
C  48.36900 32.97300 25.13700
N  48.12900 35.81200 29.40300
C  47.47300 34.90700 30.17100
C  47.51000 35.25300 31.70800
C  47.82700 36.81500 31.60200
C  48.47800 36.92200 30.14500
C  46.60300 37.78900 31.84800
C  48.69000 34.40000 32.34800
C  48.55000 34.00700 33.85100
H  47.63500 34.80700 34.69600
N  49.88700 37.34700 27.46500
C  49.87200 38.18900 28.56500
C  50.62600 39.37200 28.22000
C  50.96900 39.31600 26.86300
C  50.46300 37.96800 26.37000
C  50.94100 40.42100 29.26800
C  51.77000 40.28200 25.95600
O  52.07000 40.04000 24.76700
C  52.36000 41.53200 26.57800
N  49.41600 35.13500 25.46300
C  50.08800 36.09700 24.64500
C  50.40100 35.55300 23.33400
C  49.95400 34.00300 23.37100
C  49.16700 34.00000 24.73500
C  49.78300 36.40700 22.17800
C  51.09100 32.92500 23.46100
C  50.95100 31.78200 22.39700
N  48.01100 33.60400 27.40600
C  47.78700 32.73200 26.36600
C  47.07900 31.49400 26.79600
C  46.64400 31.91800 28.04500
C  47.27100 33.12500 28.38300
C  46.62500 30.28100 26.15300
C  45.83800 31.50400 29.21800
O  45.21500 30.45300 29.50400
C  46.05200 32.59300 30.35500
C  46.51500 31.90100 31.55900
O  47.57000 31.27500 31.56700
O  45.69300 32.09200 32.60200
C  46.02200 31.21600 33.72900
H  49.42000 38.63900 30.71500
H  50.94500 37.99400 24.29300
H  48.31000 32.15800 24.41200
H  46.51300 35.06800 32.10900
H  48.55300 37.01100 32.39100
H  46.27000 38.19000 30.89100
H  46.85800 38.68300 32.41700
H  45.70200 37.34000 32.26800
H  49.54900 35.04500 32.16200
H  48.92500 33.53100 31.73400
H  49.56500 34.06900 34.24400
H  48.22500 32.96600 33.84400
H  50.16000 40.45800 30.02800
H  51.08400 41.43800 28.90300
H  51.85900 40.09500 29.75700
H  52.92500 41.37800 27.49700
H  51.57500 42.27100 26.73600
H  52.96900 42.00200 25.80600
H  51.48800 35.58500 23.40000
H  49.23600 33.71500 22.60300
H  49.10500 35.80100 21.57800
H  50.63900 36.64100 21.54400
H  49.36200 37.33100 22.57400
H  51.14900 32.41800 24.42400
H  52.06600 33.39700 23.33800
H  50.33300 32.22200 21.61500
H  50.59700 30.84200 22.82200
H  51.95700 31.54800 22.04900
H  45.66500 30.37100 25.64600
H  46.59300 29.43800 26.84300
H  47.40600 30.05300 25.42700
H  45.15100 33.12900 30.65400
H  45.66200 31.66600 34.65400
H  47.08100 30.98200 33.83800
H  45.53800 30.24500 33.62300

