158

Mg -0.33700 7.00700 26.97500
C  0.57100 9.08600 29.52700
C  -0.61200 4.35200 29.41200
C  -1.04400 4.92400 24.50000
C  0.52800 9.46000 24.63000
N  -0.09900 6.78700 29.30500
C  0.21900 7.85100 30.13500
C  0.11100 7.42700 31.60400
C  0.11300 5.86800 31.48500
C  -0.24400 5.59300 29.98500
C  1.51700 5.23400 31.77600
C  -1.18700 7.95900 32.32200
C  -1.31300 8.19800 33.84800
H  -0.06900 7.88000 34.73700
N  -0.85100 5.00000 26.96300
C  -0.95000 4.08900 28.04800
C  -1.24100 2.76700 27.51000
C  -1.29800 2.87500 26.05800
C  -1.03400 4.32800 25.80900
C  -1.30400 1.57600 28.37900
C  -1.52500 1.82400 25.04300
O  -1.49300 2.00100 23.81500
C  -1.62500 0.45000 25.50800
N  -0.14000 7.17000 24.77600
C  -0.55100 6.13100 23.99500
C  -0.54100 6.53600 22.50200
C  -0.12000 8.04800 22.55100
C  0.04100 8.28600 24.03300
C  0.20200 5.69900 21.50800
C  -0.99500 9.03900 21.84100
C  -2.03600 9.76100 22.63200
N  0.42300 8.85100 27.04500
C  0.67900 9.79800 26.03400
C  1.11700 11.02200 26.57400
C  1.05500 10.85500 27.91700
C  0.71200 9.47200 28.13300
C  1.52300 12.36300 25.78800
C  1.26700 11.46500 29.20900
O  1.71000 12.61100 29.45600
C  0.99900 10.33700 30.26700
C  2.20500 10.21900 31.09200
O  3.22900 9.72200 30.70600
O  1.93500 10.75900 32.35600
C  3.15000 10.86400 33.18800
H  -0.63000 3.62900 30.22900
H  -1.17800 4.26000 23.64400
H  0.74200 10.24800 23.90400
H  1.01700 7.82600 32.05900
H  -0.67300 5.43800 32.10600
H  1.95200 4.91100 30.83000
H  1.39800 4.31900 32.35700
H  2.02800 5.98000 32.38400
H  -2.01600 7.31600 32.02700
H  -1.52300 8.90100 31.88900
H  -2.11500 7.66900 34.36200
H  -1.57500 9.24900 33.96400
H  -1.38000 1.84700 29.43200
H  -0.48800 0.91800 28.08200
H  -2.23100 1.06400 28.12000
H  -2.47000 0.35800 26.19000
H  -0.66500 0.11400 25.89900
H  -1.76700 -0.19300 24.63900
H  -1.60000 6.41300 22.27200
H  0.93900 8.13700 22.30900
H  0.81900 5.01400 22.09000
H  0.88500 6.31600 20.92400
H  -0.46200 5.05000 20.93700
H  -1.49300 8.38100 21.12800
H  -0.41900 9.81600 21.33800
H  -2.93900 10.03800 22.08900
H  -1.54200 10.72300 22.77100
H  -2.25000 9.27800 23.58500
H  2.20200 12.22500 24.94600
H  2.07100 13.15300 26.30200
H  0.62600 12.84400 25.39800
H  0.17300 10.64500 30.90900
H  3.09300 11.61400 33.97700
H  4.07400 11.05900 32.64400
H  3.42100 9.91400 33.65000
Mg -0.74900 34.11000 26.52700
C  -2.58200 32.50500 29.06500
C  0.75600 36.13600 28.93200
C  0.29500 36.12600 24.06800
C  -2.75500 32.35300 24.23500
N  -0.95100 34.33000 28.80100
C  -1.69800 33.48400 29.55900
C  -1.45500 33.87500 31.02200
C  -0.44100 35.15500 30.95600
C  -0.16200 35.24100 29.49100
C  -1.04400 36.41500 31.52900
C  -0.90300 32.62300 31.74500
C  -1.74700 32.14500 33.00900
H  -1.02300 32.03800 34.38900
N  0.41800 35.79600 26.44700
C  1.07500 36.46000 27.57000
C  2.05900 37.42600 27.06900
C  1.86300 37.48200 25.64900
C  0.82600 36.45800 25.35300
C  3.00700 38.08400 28.02800
C  2.50700 38.38700 24.56100
O  2.25700 38.34200 23.37100
C  3.54700 39.21100 25.05500
N  -1.19300 34.19500 24.46000
C  -0.62600 35.14000 23.65300
C  -0.94500 35.00500 22.18800
C  -1.70700 33.62300 22.19900
C  -1.85300 33.30400 23.71300
C  -1.72700 36.15500 21.57900
C  -1.04800 32.45200 21.47900
C  0.06500 31.62800 22.21100
N  -2.23500 32.57300 26.57500
C  -2.90400 31.95900 25.54600
C  -3.84900 31.00000 26.13600
C  -3.79300 31.19600 27.49900
C  -2.77800 32.15900 27.67000
C  -4.70900 30.07400 25.39000
C  -4.27400 30.83800 28.79900
O  -5.21900 30.13000 29.07800
C  -3.55000 31.72100 29.90100
C  -4.59300 32.54700 30.61500
O  -5.04100 33.61000 30.23100
O  -4.94500 31.80700 31.77100
C  -5.86700 32.53900 32.63800
H  1.33100 36.64500 29.70800
H  0.71500 36.74100 23.27000
H  -3.36100 31.80200 23.51300
H  -2.42500 34.30500 31.27000
H  0.49500 34.95700 31.47800
H  -1.63600 36.96500 30.79900
H  -0.25200 37.06200 31.90600
H  -1.57300 36.08400 32.42300
H  0.01700 32.91700 32.25200
H  -0.77100 31.81400 31.02600
H  -2.02200 31.12300 32.74700
H  -2.73300 32.60900 33.02800
H  3.34300 37.38700 28.79600
H  2.50100 38.89600 28.55100
H  3.95100 38.41200 27.59300
H  3.30500 39.93600 25.83100
H  3.90100 39.65400 24.12400
H  4.32600 38.51500 25.37000
H  0.02300 35.00100 21.68700
H  -2.70600 33.67700 21.76600
H  -1.50300 37.04400 22.17000
H  -2.79800 35.97500 21.48700
H  -1.39100 36.45200 20.58600
H  -0.62700 32.91100 20.58400
H  -1.91600 31.84700 21.21500
H  0.29200 32.05000 23.19000
H  0.87900 31.68800 21.48900
H  -0.26900 30.60900 22.40700
H  -5.34500 29.46200 26.03000
H  -4.11800 29.30200 24.89600
H  -5.31800 30.64900 24.69300
H  -3.02700 30.96600 30.48800
H  -6.52200 33.23300 32.11100
H  -5.29100 33.04000 33.41500
H  -6.50000 31.84000 33.18400

