158

Mg -9.11500 18.43400 42.37000
C  -5.61800 18.14600 42.48400
C  -8.81400 21.75000 41.60200
C  -12.36100 18.58800 41.89800
C  -9.23500 14.86600 42.12200
N  -7.45700 19.78200 42.08500
C  -6.07400 19.47400 42.16900
C  -5.22100 20.71300 42.03700
C  -6.30200 21.86200 42.02600
C  -7.64000 21.08500 41.89600
C  -6.13900 22.84700 43.23100
C  -4.11900 20.75700 40.95100
C  -4.49300 20.13400 39.62200
H  -4.56400 21.01300 38.37000
N  -10.47800 19.96000 41.90100
C  -10.08700 21.23500 41.66800
C  -11.26800 22.00400 41.33900
C  -12.39600 21.20100 41.56800
C  -11.78300 19.88700 41.85000
C  -11.23000 23.42100 40.89900
C  -13.82700 21.53700 41.42100
O  -14.13800 22.60300 40.91200
C  -14.84100 20.54400 41.80000
N  -10.62000 16.95800 42.09200
C  -11.91800 17.27800 42.07700
C  -12.83100 16.05200 42.11800
C  -11.81500 14.87700 42.10700
C  -10.43900 15.58600 42.02400
C  -13.72800 15.96500 43.35700
C  -12.00700 14.02500 40.84900
C  -12.99100 12.85600 41.00000
N  -7.74800 16.82400 42.47400
C  -7.99000 15.48300 42.29900
C  -6.75900 14.77300 42.33600
C  -5.78700 15.82600 42.53300
C  -6.46400 17.02400 42.55900
C  -6.56400 13.24100 42.12500
C  -4.32300 16.07700 42.58500
O  -3.43500 15.24800 42.62700
C  -4.13000 17.66300 42.55300
C  -3.25900 18.23100 43.66800
O  -2.26500 18.93400 43.57200
O  -3.84900 17.75900 44.88300
C  -3.38100 18.18400 46.23900
H  -8.67600 22.81900 41.42500
H  -13.40800 18.55700 41.58700
H  -9.04000 13.79300 42.18300
H  -4.79000 20.74900 43.03800
H  -6.27300 22.49300 41.13800
H  -5.13800 22.85200 43.66200
H  -6.71100 22.53000 44.10300
H  -6.36200 23.87200 42.93700
H  -3.21100 20.25600 41.28400
H  -3.77700 21.77800 40.78100
H  -5.38500 19.52100 39.75500
H  -3.73600 19.37600 39.42200
H  -10.90200 24.07700 41.70400
H  -12.10500 23.81000 40.37800
H  -10.43300 23.45000 40.15500
H  -14.48200 20.15500 42.75300
H  -14.90300 19.74000 41.06600
H  -15.80900 21.00400 42.00300
H  -13.44300 16.13600 41.22000
H  -11.79500 14.33400 43.05100
H  -13.32700 16.58200 44.16100
H  -13.85900 14.92900 43.66900
H  -14.73300 16.34400 43.16800
H  -10.99500 13.73500 40.56600
H  -12.39200 14.75200 40.13400
H  -13.79800 13.06400 40.29700
H  -13.48500 12.62600 41.94400
H  -12.47400 11.95000 40.68500
H  -6.78900 12.90600 41.11300
H  -7.10900 12.67500 42.88100
H  -5.48200 13.18000 42.24600
H  -3.63000 17.87800 41.60800
H  -2.50300 18.82600 46.17200
H  -3.21000 17.28400 46.83000
H  -4.26600 18.72200 46.57900
Mg -5.23300 24.32000 26.52200
C  -2.99300 25.99700 28.79700
C  -6.14500 22.26200 29.14600
C  -6.92000 22.54900 24.31500
C  -3.85200 26.30200 23.89000
N  -4.70900 24.21400 28.72600
C  -3.78800 25.00600 29.42600
C  -3.97000 24.71600 30.95000
C  -4.63100 23.31200 30.98300
C  -5.20200 23.24300 29.53500
C  -3.79700 22.13400 31.30000
C  -4.63800 25.97800 31.59800
C  -5.95000 25.72600 32.32700
H  -5.91600 25.09900 33.74100
N  -6.44700 22.72900 26.70800
C  -6.73400 21.98800 27.86000
C  -7.64400 20.91500 27.46600
C  -7.88500 20.97700 26.05900
C  -7.09500 22.14900 25.65500
C  -8.16100 19.91800 28.48500
C  -8.84800 20.13200 25.26000
O  -9.06400 20.34300 24.06500
C  -9.58400 18.93100 25.82500
N  -5.23500 24.39200 24.42400
C  -6.16500 23.58000 23.78200
C  -6.26800 24.00000 22.31300
C  -5.29000 25.13300 22.10600
C  -4.75700 25.32900 23.53600
C  -6.27200 22.87500 21.12800
C  -5.84000 26.39400 21.43800
C  -5.74100 26.55800 19.94100
N  -3.80000 25.85700 26.33000
C  -3.40600 26.57400 25.21200
C  -2.42100 27.63000 25.59600
C  -2.22200 27.43000 27.00100
C  -3.07000 26.31000 27.37300
C  -1.73900 28.60800 24.67000
C  -1.46200 27.80500 28.14000
O  -0.57300 28.66800 28.28600
C  -1.97300 26.99700 29.34100
C  -0.85700 26.31700 30.07900
O  0.03200 25.65700 29.55400
O  -0.88000 26.63300 31.40600
C  0.21600 26.19600 32.24600
H  -6.41000 21.58800 29.96400
H  -7.34900 21.86700 23.57800
H  -3.43600 26.84600 23.04000
H  -2.96400 24.71700 31.37100
H  -5.43600 23.35400 31.71700
H  -4.31900 21.53800 32.04900
H  -2.80800 22.39600 31.67900
H  -3.68000 21.46200 30.45000
H  -4.82200 26.83700 30.95300
H  -3.93500 26.47400 32.26800
H  -6.58000 25.21700 31.59700
H  -6.39000 26.71400 32.46200
H  -9.19600 20.12600 28.75500
H  -7.51400 19.98000 29.36100
H  -8.02500 18.90500 28.10400
H  -8.84700 18.13200 25.91300
H  -10.27000 18.62200 25.03600
H  -10.11900 19.09000 26.76100
H  -7.27600 24.41500 22.34400
H  -4.47700 24.73300 21.50000
H  -7.26000 22.71800 20.69400
H  -6.05600 21.90700 21.57900
H  -5.61300 23.11500 20.29400
H  -5.19200 27.17500 21.83600
H  -6.89000 26.50300 21.71000
H  -4.83900 27.11200 19.68100
H  -6.70500 26.89700 19.56200
H  -5.61400 25.58100 19.47500
H  -1.68700 28.26200 23.63800
H  -0.69200 28.66100 24.97000
H  -2.16600 29.59200 24.86300
H  -2.45400 27.64600 30.07300
H  1.11900 25.82800 31.75800
H  -0.22200 25.42400 32.87900
H  0.51400 27.01400 32.90200

