158

Mg 30.13100 59.88400 39.95000
C  27.19700 58.23500 38.50300
C  31.98700 57.20600 38.93300
C  33.00800 61.78700 40.33600
C  28.28200 62.85400 39.93300
N  29.63300 57.97700 38.75200
C  28.40400 57.51500 38.35500
C  28.61000 56.23300 37.66800
C  30.00700 55.70300 38.13700
C  30.64500 57.07200 38.63400
C  30.15800 54.56800 39.05500
C  28.51300 56.36800 36.09500
C  27.44100 55.60400 35.33200
H  26.59700 56.44700 34.35700
N  32.17800 59.46000 39.86500
C  32.74600 58.33500 39.37300
C  34.20500 58.40100 39.45100
C  34.48800 59.64400 40.10900
C  33.15400 60.38600 40.13200
C  35.20400 57.38100 38.90100
C  35.89000 60.08300 40.57000
O  36.90100 59.49700 40.36100
C  36.04500 61.37900 41.36400
N  30.52400 61.97500 40.29000
C  31.80500 62.50200 40.28600
C  31.79200 64.04000 40.40700
C  30.24300 64.28700 40.65300
C  29.67100 62.99200 40.29300
C  32.67800 64.67800 41.48100
C  29.77000 65.46100 39.73800
C  29.09400 66.66100 40.41200
N  28.11800 60.47000 39.47700
C  27.51700 61.66700 39.62300
C  26.02800 61.47200 39.34900
C  25.93100 60.10900 39.01700
C  27.21400 59.59800 39.04500
C  24.97100 62.53700 39.38100
C  24.92400 59.08200 38.64500
O  23.71300 59.14800 38.64500
C  25.72300 57.85000 38.25200
C  25.31300 56.77200 39.17600
O  25.77000 56.50400 40.26300
O  24.20300 56.16100 38.54500
C  23.65800 55.00500 39.23400
H  32.64300 56.36200 38.71100
H  33.75100 62.58600 40.37900
H  27.72000 63.78600 40.01300
H  27.76100 55.66500 38.04800
H  30.64400 55.41500 37.30100
H  30.65100 53.72100 38.57800
H  29.12000 54.31700 39.27300
H  30.70800 54.65700 39.99200
H  29.45000 55.96600 35.71000
H  28.39100 57.40500 35.78400
H  26.78100 55.30700 36.14700
H  27.89300 54.76300 34.80600
H  35.70400 57.93800 38.10900
H  34.67300 56.57200 38.39800
H  35.90500 56.85500 39.54900
H  37.09600 61.51500 41.61700
H  35.35400 61.46600 42.20300
H  35.89500 62.21300 40.67900
H  32.20900 64.40800 39.47000
H  30.01000 64.45400 41.70500
H  33.51900 65.28700 41.14700
H  33.04900 63.92500 42.17700
H  32.09400 65.42600 42.01700
H  29.08200 65.07100 38.98800
H  30.63800 65.84200 39.20000
H  29.91900 67.36800 40.32800
H  28.89500 66.62100 41.48300
H  28.18100 66.92100 39.87700
H  24.20300 62.32700 38.63600
H  25.31000 63.55400 39.18600
H  24.38700 62.56000 40.30100
H  25.37900 57.61700 37.24400
H  22.82500 54.61900 38.64600
H  23.13200 55.19100 40.17100
H  24.36500 54.19900 39.43300
Mg -10.25500 17.72200 42.94200
C  -6.81000 16.70100 42.63000
C  -9.10400 20.96400 41.99300
C  -13.37000 18.55200 42.13300
C  -11.04200 14.40600 43.34900
N  -8.22900 18.71100 42.25200
C  -6.95500 18.10200 42.39500
C  -5.80100 19.10200 42.15600
C  -6.53600 20.42600 42.18200
C  -8.00500 20.01500 42.20700
C  -6.18300 21.36800 43.36300
C  -5.02400 18.96600 40.81700
C  -5.74700 18.57300 39.52200
H  -4.95800 18.64900 38.20200
N  -11.13300 19.49900 42.22400
C  -10.51200 20.71000 41.95100
C  -11.48500 21.63100 41.56000
C  -12.77500 20.97600 41.55500
C  -12.51200 19.62400 41.94200
C  -11.15300 23.00700 41.01900
C  -14.13700 21.61700 40.99200
O  -14.15100 22.78100 40.61200
C  -15.37700 20.86600 40.85400
N  -11.91500 16.62100 42.70000
C  -13.09900 17.22900 42.50000
C  -14.27900 16.22500 42.68900
C  -13.54400 14.87900 42.95100
C  -12.05500 15.31100 42.97000
C  -15.41400 16.61600 43.73400
C  -13.78200 13.83200 41.81800
C  -13.80000 12.31000 42.19800
N  -9.20000 15.89800 43.08500
C  -9.66100 14.58000 43.15000
C  -8.60800 13.61700 43.14400
C  -7.46000 14.39300 42.97100
C  -7.85500 15.78300 42.87300
C  -8.83000 12.15200 43.42200
C  -5.96300 14.33200 42.89100
O  -5.12300 13.47900 42.89200
C  -5.51800 15.84300 42.50000
C  -4.46000 16.23800 43.48800
O  -3.26200 16.28000 43.35600
O  -5.04900 16.82400 44.59300
C  -4.06000 17.34500 45.62300
H  -8.80600 21.99800 41.80800
H  -14.43300 18.76100 41.99200
H  -11.40500 13.41300 43.62200
H  -5.06600 19.02600 42.95800
H  -6.37700 21.07100 41.31800
H  -5.35300 20.98500 43.95800
H  -7.01600 21.51500 44.05000
H  -5.83100 22.32600 42.97900
H  -4.38400 18.08800 40.91000
H  -4.39600 19.83900 40.64200
H  -6.67100 19.13500 39.38500
H  -6.07300 17.54300 39.66900
H  -11.76000 23.47000 40.24100
H  -10.19000 23.00700 40.50700
H  -10.99900 23.69500 41.85000
H  -15.84700 20.59800 41.80100
H  -15.16200 19.98600 40.24700
H  -16.11200 21.49400 40.35200
H  -14.97800 16.18700 41.85400
H  -13.71500 14.47200 43.94800
H  -16.35400 16.99500 43.33200
H  -14.89200 17.26500 44.43700
H  -15.61600 15.65800 44.21200
H  -12.95100 13.87700 41.11500
H  -14.59400 14.06400 41.12900
H  -14.85600 12.08200 42.04700
H  -13.48700 12.25100 43.24100
H  -13.14200 11.73400 41.54700
H  -8.85200 11.53000 42.52800
H  -9.70500 11.94400 44.03900
H  -7.95300 11.82300 43.97900
H  -5.21300 15.77700 41.45500
H  -3.30600 16.60200 45.88000
H  -4.58000 17.49700 46.56900
H  -3.59400 18.28000 45.31100

