158

Mg 7.60100 2.88000 27.27900
C  9.09600 1.61000 30.33500
C  5.61400 4.94300 29.21200
C  6.46100 4.20400 24.45000
C  9.47200 0.50400 25.47000
N  7.36600 3.16400 29.50700
C  8.10300 2.61700 30.52600
C  7.69100 3.23400 31.84800
C  6.53600 4.18600 31.47400
C  6.40900 4.09400 29.94200
C  5.24000 3.81200 32.22400
C  8.78300 4.01600 32.60700
C  8.41200 4.43900 33.97900
H  9.28200 4.06800 35.21500
N  6.26600 4.47300 26.87400
C  5.55800 5.23400 27.78800
C  4.87300 6.27600 27.07700
C  5.08000 6.07900 25.71100
C  5.93100 4.87400 25.65600
C  4.06900 7.28700 27.73800
C  4.50500 6.81900 24.50700
O  4.59900 6.46300 23.34000
C  3.61800 7.95200 24.70200
N  7.79300 2.30500 25.30600
C  7.28200 3.06700 24.32400
C  7.74900 2.65500 22.93900
C  8.78400 1.53300 23.24700
C  8.71900 1.43000 24.81100
C  6.60500 2.21000 22.09100
C  10.22700 1.88700 22.65900
C  11.10000 2.89600 23.35100
N  8.90000 1.26400 27.81000
C  9.64900 0.41400 26.91100
C  10.47900 -0.49400 27.74900
C  10.31700 0.00500 29.06300
C  9.31000 1.03600 29.08200
C  11.54000 -1.53100 27.32600
C  10.69300 -0.27600 30.41200
O  11.38200 -1.19300 30.84300
C  10.02100 0.82900 31.31400
C  9.15200 0.16300 32.35300
O  8.12900 -0.45700 32.15400
O  9.74200 0.42900 33.56700
C  8.91400 0.13900 34.77400
H  5.12500 5.63500 29.90100
H  6.18000 4.54900 23.45300
H  10.14700 -0.11300 24.87200
H  7.54500 2.34600 32.46300
H  6.70700 5.21700 31.78200
H  5.41500 2.92300 32.83100
H  4.53900 3.50600 31.44800
H  4.81100 4.63600 32.79400
H  8.89600 4.96600 32.08500
H  9.74500 3.50400 32.65000
H  7.56400 3.82000 34.27100
H  8.03500 5.46100 34.03700
H  4.04400 7.06200 28.80400
H  3.08400 7.07100 27.32400
H  4.36600 8.27900 27.39700
H  3.92800 8.73700 25.39200
H  2.63900 7.55200 24.96500
H  3.45100 8.53600 23.79800
H  8.25400 3.50100 22.47200
H  8.52700 0.52200 22.93300
H  6.39300 2.94500 21.31400
H  5.67300 2.18800 22.65500
H  6.72500 1.27700 21.53900
H  10.04800 2.25300 21.64800
H  10.76200 0.93700 22.64000
H  10.99700 2.81900 24.43400
H  10.77800 3.87000 22.98100
H  12.15400 2.79100 23.09700
H  12.39800 -1.22700 27.92600
H  11.63900 -1.65000 26.24700
H  11.21000 -2.53500 27.59100
H  10.69300 1.60700 31.67700
H  8.06900 0.82700 34.77900
H  9.53600 0.06700 35.66700
H  8.52300 -0.87800 34.80300
Mg 1.18200 42.62500 25.49800
C  2.09700 42.56500 29.06200
C  -1.61300 40.85200 26.46900
C  0.77100 41.77500 22.26900
C  4.27700 43.85200 24.82900
N  0.31300 41.96100 27.57900
C  0.80000 42.02600 28.82800
C  -0.19200 41.51700 29.90600
C  -1.22600 40.83200 28.94700
C  -0.77200 41.14000 27.55800
C  -1.34900 39.23600 29.13000
C  -0.76900 42.71900 30.74300
C  -0.85300 42.51700 32.25800
H  -1.42500 41.19400 32.83500
N  -0.35000 41.72500 24.45200
C  -1.45300 41.05000 25.03100
C  -2.32800 40.59700 23.97600
C  -1.65700 40.89300 22.70000
C  -0.31700 41.49800 23.06000
C  -3.68900 39.95400 24.31100
C  -2.05300 40.63300 21.26300
O  -1.35700 40.85300 20.27900
C  -3.48700 40.17300 20.98700
N  2.36500 42.69000 23.83200
C  1.98800 42.30300 22.61100
C  3.13500 42.50700 21.63300
C  4.04800 43.56200 22.33400
C  3.49900 43.46900 23.72800
C  3.82100 41.11300 21.27600
C  3.92400 45.05000 21.87200
C  2.50200 45.58400 21.77800
N  2.81100 43.26000 26.65400
C  4.06800 43.74600 26.22200
C  4.88800 44.00800 27.34200
C  4.15000 43.54200 28.45100
C  2.92000 43.08200 28.01200
C  6.28600 44.60700 27.30400
C  4.15700 43.36000 29.94500
O  5.02500 43.67400 30.76700
C  2.82400 42.70400 30.31500
C  3.03800 41.52400 31.08500
O  3.74800 40.57300 30.72800
O  2.28600 41.56800 32.22000
C  2.21700 40.38200 33.04700
H  -2.51200 40.36700 26.85500
H  0.75400 41.53000 21.20500
H  5.26800 44.16100 24.48900
H  0.26100 40.77700 30.56500
H  -2.21100 41.28500 29.06200
H  -2.39300 39.05700 29.38900
H  -0.72000 38.85100 29.93200
H  -1.14700 38.70400 28.20000
H  -1.74600 43.01200 30.35700
H  -0.15700 43.61000 30.60300
H  -1.53700 43.25900 32.67100
H  0.14800 42.74100 32.62600
H  -3.80800 39.35800 25.21600
H  -3.80600 39.22600 23.50900
H  -4.52100 40.65700 24.27100
H  -4.27400 40.60700 21.60400
H  -3.60600 39.09300 21.07400
H  -3.74200 40.39100 19.94900
H  2.79200 42.95200 20.69900
H  5.07400 43.19600 22.28800
H  3.15000 40.27200 21.44700
H  4.68800 41.01400 21.92900
H  4.11400 41.05800 20.22700
H  4.20100 44.91100 20.82700
H  4.78900 45.56500 22.28900
H  2.40700 45.78900 20.71100
H  2.42800 46.48600 22.38600
H  1.67400 44.96500 22.12200
H  6.33800 45.64800 26.98300
H  7.01300 44.01700 26.74600
H  6.69400 44.59200 28.31500
H  2.30700 43.38000 30.99600
H  2.10600 39.43000 32.52900
H  1.43800 40.47000 33.80500
H  3.14800 40.25700 33.60000

