158

Mg 17.12900 -1.59200 27.79700
C  15.98700 0.21300 30.53500
C  18.61900 -3.82600 30.11100
C  18.43200 -3.40700 25.25600
C  15.48800 0.50100 25.60900
N  17.35100 -1.76400 30.09500
C  16.76400 -0.88900 30.93200
C  17.06600 -1.26900 32.43100
C  18.02400 -2.48400 32.28400
C  18.03700 -2.73600 30.74300
C  19.52000 -2.43400 32.73600
C  15.88300 -1.51000 33.37000
C  16.09600 -1.59100 34.96400
H  17.25700 -0.71600 35.48300
N  18.45700 -3.24800 27.73300
C  18.91300 -4.06600 28.74700
C  19.60200 -5.23300 28.26100
C  19.58300 -5.12600 26.84200
C  18.78700 -3.89700 26.52300
C  20.31300 -6.25400 29.19100
C  20.11500 -6.02900 25.75100
O  20.18300 -5.68900 24.58200
C  20.77700 -7.34300 26.15700
N  16.96800 -1.56400 25.76600
C  17.66800 -2.27400 24.92900
C  17.32100 -1.92700 23.44500
C  16.46100 -0.63600 23.64300
C  16.26400 -0.55600 25.11300
C  18.58500 -1.63700 22.66000
C  15.15600 -0.52500 22.68300
C  13.97200 -1.44000 23.00000
N  15.87200 -0.04700 28.03500
C  15.21300 0.69600 27.03000
C  14.58800 1.83300 27.59500
C  14.82400 1.60100 29.01400
C  15.61700 0.51300 29.21100
C  13.74000 2.85000 26.89700
C  14.35800 2.14900 30.30700
O  13.54700 3.00400 30.58100
C  15.32100 1.34300 31.32400
C  16.40400 2.29700 31.78500
O  17.54500 2.33800 31.35600
O  16.03800 2.96900 32.93300
C  17.08800 3.64500 33.66200
H  18.95900 -4.50200 30.89700
H  18.68800 -3.97900 24.36200
H  15.03800 1.12200 24.83200
H  17.59900 -0.46400 32.93700
H  17.67900 -3.39100 32.77900
H  20.16900 -2.87600 31.98100
H  19.55600 -2.97000 33.68400
H  19.84200 -1.39700 32.83200
H  15.44700 -2.41000 32.93800
H  15.09900 -0.79200 33.13000
H  16.16700 -2.66900 35.11000
H  15.14200 -1.28100 35.39000
H  19.85600 -7.23700 29.06600
H  20.19400 -6.08100 30.26100
H  21.38400 -6.22700 28.99100
H  21.14100 -7.80000 25.23600
H  20.08500 -7.97500 26.71200
H  21.64500 -7.21800 26.80400
H  16.76900 -2.68100 22.88400
H  17.03100 0.27400 23.45500
H  18.34000 -1.43300 21.61700
H  19.19700 -2.53800 22.70800
H  19.22700 -0.88400 23.11700
H  15.58900 -0.68600 21.69500
H  14.76700 0.48200 22.83000
H  14.26600 -2.13900 23.78400
H  13.59900 -1.97900 22.12900
H  13.14000 -0.86200 23.40000
H  13.97200 3.82700 27.32100
H  12.70600 2.50500 26.91100
H  13.97900 2.84000 25.83400
H  14.80400 1.07200 32.24500
H  18.12300 3.59900 33.32500
H  17.12100 3.22400 34.66700
H  16.71100 4.66300 33.77000
Mg 40.47800 9.23400 29.31600
C  42.25800 10.65000 31.83200
C  38.05600 8.13800 31.56000
C  38.66200 8.04300 26.70100
C  43.06500 10.28400 27.01300
N  40.21800 9.44200 31.44600
C  41.10300 10.02000 32.28500
C  40.54100 10.03100 33.69200
C  39.43200 9.01700 33.52900
C  39.16400 8.86100 32.06400
C  39.48600 7.66300 34.34900
C  40.06200 11.41900 34.25800
C  40.75400 11.79100 35.61100
H  39.94500 12.27200 36.81200
N  38.66000 8.11100 29.17100
C  37.79800 7.85300 30.19300
C  36.57500 7.24000 29.62000
C  36.76200 7.18900 28.21800
C  38.08200 7.79900 27.95500
C  35.45400 6.68400 30.47200
C  35.95500 6.45400 27.24300
O  36.16700 6.45000 26.02600
C  34.79500 5.62100 27.62900
N  40.88200 9.21200 27.20300
C  39.94100 8.64900 26.35100
C  40.35100 8.81600 24.86500
C  41.77000 9.45700 24.95500
C  41.93200 9.68200 26.49200
C  40.14500 7.59300 23.96800
C  41.91200 10.70400 23.97700
C  41.45200 12.10100 24.57500
N  42.25000 10.15700 29.37100
C  43.23500 10.51700 28.41100
C  44.30900 11.23800 29.00100
C  44.02500 11.33000 30.38800
C  42.73800 10.67400 30.52700
C  45.55100 11.63000 28.24900
C  44.45600 11.77100 31.61900
O  45.51600 12.32500 31.99500
C  43.33100 11.34200 32.70800
C  43.95500 10.42700 33.60700
O  44.16300 9.21700 33.45800
O  44.13000 11.06700 34.78000
C  44.78100 10.28900 35.86600
H  37.22900 7.91300 32.23700
H  38.11700 7.68900 25.82300
H  43.76400 10.75300 26.31800
H  41.25500 9.56400 34.37100
H  38.54500 9.57900 33.82000
H  40.33700 7.67900 35.03000
H  39.68900 6.80600 33.70700
H  38.63400 7.52200 35.01500
H  38.99500 11.41800 34.47800
H  40.28200 12.10300 33.43800
H  41.40700 12.65200 35.46700
H  41.33800 10.90700 35.86700
H  35.29200 5.62000 30.30000
H  34.56200 7.18900 30.10200
H  35.78300 6.94500 31.47800
H  35.05700 4.76500 28.25100
H  34.35200 5.11600 26.77000
H  34.03500 6.17900 28.17600
H  39.64000 9.58200 24.55200
H  42.53200 8.72400 24.69000
H  39.10200 7.51900 23.66100
H  40.48600 6.72400 24.53100
H  40.66100 7.66500 23.01100
H  41.23300 10.47000 23.15800
H  42.96400 10.70000 23.69400
H  41.10000 11.92900 25.59200
H  40.59300 12.54400 24.07000
H  42.31500 12.76600 24.59800
H  46.08700 12.07000 29.09000
H  45.45800 12.42800 27.51300
H  46.04700 10.73900 27.86300
H  42.86500 12.22600 33.14400
H  45.13700 9.30500 35.56100
H  44.06400 10.01000 36.63900
H  45.49600 10.96000 36.34200

