158

Mg 44.09600 4.01900 47.61700
C  41.64000 6.65900 47.12800
C  41.40700 1.80900 47.37300
C  46.27800 1.47200 47.41100
C  46.56500 6.32100 46.96000
N  41.75400 4.29000 47.29000
C  41.03800 5.46400 47.09600
C  39.55300 5.13100 46.89700
C  39.54000 3.56900 47.15200
C  41.02800 3.14700 47.28300
C  38.70300 3.11900 48.34900
C  39.09700 5.57400 45.49800
C  37.82100 6.44000 45.36200
H  37.88200 7.75200 44.43900
N  43.92300 1.87500 47.50800
C  42.72600 1.26800 47.41800
C  42.99600 -0.14600 47.45900
C  44.43400 -0.35600 47.54200
C  44.95500 0.99100 47.53500
C  41.97000 -1.28700 47.41900
C  45.13200 -1.71200 47.77200
O  44.48000 -2.74700 47.89400
C  46.62300 -1.75900 47.84300
N  46.07200 3.96100 47.23100
C  46.78600 2.79600 47.30900
C  48.32500 3.09300 47.24100
C  48.38700 4.63900 46.99300
C  46.90000 4.97500 46.98400
C  49.19600 2.54100 48.49700
C  49.18400 5.11600 45.78100
C  50.35500 4.31100 45.27600
N  44.17200 6.13500 47.25200
C  45.27500 6.86800 47.07300
C  44.87000 8.32700 47.01900
C  43.44300 8.25500 47.10900
C  43.04600 6.93600 47.12300
C  45.73700 9.55800 46.87600
C  42.23500 9.02700 47.07500
O  42.12700 10.24200 46.87000
C  41.01400 8.02200 47.02100
C  40.06500 8.27300 48.13900
O  39.98000 7.58800 49.18200
O  39.21600 9.23500 47.82500
C  38.09200 9.50500 48.73400
H  40.63600 1.06100 47.18100
H  47.07200 0.72600 47.34100
H  47.37900 7.04800 46.90900
H  38.80000 5.54200 47.57000
H  39.18700 3.05700 46.25700
H  37.68700 3.48400 48.19800
H  39.09400 3.56400 49.26400
H  38.57300 2.05400 48.53900
H  38.95700 4.63900 44.95700
H  39.87200 6.08900 44.93000
H  37.52700 6.79900 46.34900
H  37.01400 5.84400 44.93700
H  40.96900 -0.85600 47.45000
H  42.00000 -1.91900 48.30600
H  42.02000 -1.89000 46.51200
H  47.03500 -1.24800 46.97300
H  46.88400 -2.81800 47.82300
H  47.05700 -1.35200 48.75600
H  48.71400 2.56500 46.37000
H  48.71500 5.08900 47.93000
H  49.83900 1.73300 48.14900
H  48.65300 1.97200 49.25100
H  49.62900 3.44700 48.92200
H  49.44500 6.12700 46.09600
H  48.55400 5.14900 44.89200
H  51.24400 4.93600 45.35900
H  50.18000 4.00900 44.24300
H  50.43000 3.35800 45.80000
H  46.19500 9.95500 47.78200
H  45.13000 10.35700 46.45000
H  46.53200 9.37600 46.15300
H  40.41400 8.22600 46.13400
H  38.37600 9.34000 49.77400
H  37.31600 8.79200 48.45900
H  37.74700 10.53500 48.64900
Mg -11.42600 38.25700 41.18200
C  -9.43800 35.62500 40.36500
C  -9.05800 40.44300 39.60100
C  -13.52500 40.86900 41.48900
C  -13.99100 35.99300 42.12100
N  -9.42400 38.06300 40.15000
C  -8.81700 36.83100 40.03100
C  -7.50500 37.00400 39.27500
C  -7.34400 38.58200 39.15700
C  -8.67000 39.06500 39.74700
C  -6.13300 39.22600 39.99900
C  -7.54700 36.28800 37.91300
C  -6.50600 35.11400 37.70600
H  -5.53000 35.27300 36.52700
N  -11.22700 40.43100 40.82900
C  -10.21400 41.05700 40.10500
C  -10.46500 42.50000 40.18500
C  -11.80800 42.66800 40.70200
C  -12.22500 41.31400 41.10500
C  -9.56600 43.62800 39.68000
C  -12.62400 43.94800 40.74200
O  -12.14600 45.01400 40.30600
C  -14.09400 44.13300 41.21700
N  -13.54000 38.35400 41.63400
C  -14.13200 39.58900 41.70900
C  -15.55600 39.39600 42.16800
C  -15.73500 37.84800 42.52100
C  -14.37400 37.35800 42.06400
C  -15.85100 40.35800 43.37600
C  -16.89700 37.12900 41.81400
C  -17.67100 35.96600 42.57900
N  -11.73900 36.19700 41.27400
C  -12.78400 35.45200 41.71000
C  -12.37600 34.03600 41.55100
C  -11.09000 34.02300 41.05400
C  -10.70800 35.33000 40.97000
C  -13.29800 32.92400 41.92100
C  -9.97400 33.18900 40.60300
O  -9.88000 31.97200 40.57100
C  -8.85100 34.22000 40.12200
C  -7.54300 33.85800 40.83300
O  -6.57100 33.33900 40.36600
O  -7.60200 34.34300 42.09500
C  -6.57500 33.96600 43.05700
H  -8.31700 41.12200 39.17500
H  -14.29000 41.64800 41.50700
H  -14.84400 35.32300 42.24800
H  -6.69900 36.54200 39.84500
H  -7.20800 38.88900 38.12000
H  -6.47200 40.00800 40.67800
H  -5.50400 39.63500 39.20800
H  -5.52700 38.55200 40.60400
H  -7.34000 36.95500 37.07600
H  -8.53200 35.83300 37.81000
H  -7.10600 34.20800 37.62200
H  -5.75900 35.04800 38.49600
H  -9.34300 44.31900 40.49300
H  -9.99500 44.20000 38.85800
H  -8.56300 43.25100 39.48100
H  -14.15900 43.75500 42.23700
H  -14.70900 43.43800 40.64500
H  -14.29400 45.20400 41.17600
H  -16.29100 39.57100 41.38200
H  -15.83300 37.64600 43.58800
H  -16.25300 39.82400 44.23600
H  -16.50300 41.18600 43.09600
H  -14.85000 40.69900 43.64200
H  -16.71600 36.81800 40.78500
H  -17.67400 37.88900 41.73000
H  -17.61000 35.16900 41.83800
H  -18.69700 36.31300 42.70600
H  -17.28900 35.78700 43.58400
H  -13.01000 31.91800 41.61400
H  -14.24700 33.02200 41.39400
H  -13.46100 32.97100 42.99800
H  -8.71800 34.07400 39.05000
H  -6.79000 34.26100 44.08400
H  -5.58200 34.32800 42.79000
H  -6.46300 32.88900 43.17500

