158

Mg 16.45100 -1.84900 27.85600
C  15.28700 0.50900 30.28000
C  18.46000 -3.22900 30.19300
C  17.76300 -3.58100 25.30700
C  14.26900 -0.18200 25.49500
N  16.97400 -1.31000 30.00700
C  16.20800 -0.45500 30.80500
C  16.52400 -0.63100 32.34100
C  17.52900 -1.85000 32.25900
C  17.58100 -2.26600 30.75500
C  18.93100 -1.52800 32.88600
C  15.39900 -0.98400 33.33000
C  15.46600 -0.46700 34.80900
H  16.85000 -0.02200 35.46500
N  17.88500 -3.33400 27.76800
C  18.64500 -3.72500 28.86700
C  19.52900 -4.80400 28.40300
C  19.28700 -4.89300 26.93700
C  18.30900 -3.88600 26.60300
C  20.42100 -5.53000 29.28100
C  19.99000 -5.77000 25.89500
O  19.83200 -5.61100 24.72400
C  21.18400 -6.68000 26.43500
N  15.96600 -1.95600 25.77300
C  16.66900 -2.70900 24.85300
C  16.43100 -2.33600 23.42600
C  15.14400 -1.55600 23.56600
C  15.15000 -1.12100 25.05000
C  17.47900 -1.44100 22.82800
C  13.76400 -2.31400 23.17100
C  12.88200 -3.06900 24.15800
N  14.83000 -0.37600 27.84500
C  14.14000 0.22300 26.80400
C  13.33300 1.34400 27.37900
C  13.72700 1.38900 28.71800
C  14.68900 0.41600 28.95700
C  12.29600 2.26400 26.61400
C  13.50900 2.13200 29.89800
O  12.89200 3.15200 30.11600
C  14.46700 1.58300 30.98900
C  15.25200 2.73200 31.50800
O  16.13400 3.36900 30.94700
O  14.91500 2.97900 32.80000
C  15.79700 3.87700 33.55500
H  19.09700 -3.79900 30.87200
H  18.14300 -4.16900 24.46900
H  13.53700 0.15200 24.75600
H  17.10600 0.25100 32.60900
H  17.22200 -2.74600 32.79900
H  19.66600 -1.85800 32.15200
H  19.15800 -2.21000 33.70500
H  19.00000 -0.48700 33.20100
H  15.25800 -2.05400 33.48700
H  14.50500 -0.63900 32.81200
H  14.95700 -1.10500 35.53200
H  14.84500 0.42800 34.80100
H  20.51100 -6.59600 29.07100
H  20.28600 -5.43100 30.35800
H  21.39200 -5.07300 29.09000
H  21.84900 -6.01700 26.98900
H  21.70200 -7.08400 25.56500
H  20.88800 -7.54200 27.03300
H  16.26700 -3.25400 22.86100
H  15.33200 -0.60700 23.06400
H  18.37400 -1.98100 22.52000
H  17.86000 -0.88100 23.68200
H  17.19600 -0.69500 22.08600
H  14.09600 -3.02500 22.41400
H  13.18600 -1.56600 22.63000
H  13.03700 -2.78700 25.20000
H  13.09100 -4.12400 23.98100
H  11.82100 -2.92300 23.95700
H  11.42900 2.34000 27.26900
H  12.03000 1.92700 25.61200
H  12.72600 3.25200 26.44900
H  13.80100 1.18100 31.75200
H  15.91600 4.83400 33.04700
H  16.73500 3.35700 33.75100
H  15.31200 4.10500 34.50400
Mg 47.08400 17.28800 28.30400
C  45.11100 17.27100 31.17800
C  49.45700 19.11600 30.09800
C  48.49600 18.25100 25.49200
C  44.41200 16.04100 26.40100
N  47.12400 18.31300 30.50700
C  46.33900 17.90000 31.47100
C  46.93600 18.36500 32.84100
C  48.15600 19.25200 32.37900
C  48.29900 18.92700 30.89700
C  48.15900 20.73000 32.58000
C  47.22600 17.20000 33.82800
C  46.89100 17.28900 35.38000
H  46.50200 18.74800 35.83600
N  48.75500 18.33600 27.84100
C  49.61500 19.00800 28.69200
C  50.73500 19.57200 28.00100
C  50.41700 19.39200 26.61300
C  49.18000 18.58100 26.58200
C  52.00000 20.11300 28.68900
C  51.20200 19.99100 25.40500
O  50.85700 19.82300 24.23600
C  52.33400 20.86500 25.69200
N  46.50200 17.26500 26.23300
C  47.22300 17.71400 25.27000
C  46.67700 17.45500 23.87400
C  45.49400 16.48800 24.14500
C  45.44400 16.59900 25.64000
C  46.13600 18.73500 23.23600
C  45.51200 15.03900 23.59700
C  44.55300 14.73200 22.40900
N  45.20900 16.60200 28.68600
C  44.20200 16.07500 27.81200
C  43.07100 15.63200 28.59000
C  43.45500 16.07400 29.95000
C  44.68800 16.69700 29.90400
C  41.82000 14.99500 28.03600
C  42.92100 16.18000 31.31800
O  41.81300 15.99900 31.74700
C  44.02700 16.83100 32.20900
C  43.39500 17.93700 32.93200
O  43.02000 18.95900 32.38000
O  42.97200 17.51900 34.10700
C  42.33100 18.44600 35.07300
H  50.28200 19.64900 30.57500
H  49.01300 18.42100 24.54500
H  43.45700 15.74400 25.96200
H  46.12500 18.89100 33.34600
H  49.02000 18.84600 32.90400
H  48.06900 21.24900 31.62600
H  49.16100 20.88300 32.98100
H  47.26700 21.08900 33.09300
H  48.30900 17.07400 33.82200
H  46.84700 16.29000 33.36300
H  47.81300 17.07500 35.92100
H  46.11600 16.56300 35.62500
H  52.83600 19.55300 28.27100
H  52.00400 19.97700 29.77100
H  52.00000 21.19800 28.58600
H  52.05400 21.85300 26.05800
H  52.81800 20.91000 24.71600
H  53.18500 20.48300 26.25500
H  47.54100 17.10400 23.30900
H  44.54400 16.96900 23.91100
H  46.83300 19.50300 23.56900
H  45.10800 18.98800 23.49400
H  46.15500 18.67700 22.14700
H  45.18900 14.40800 24.42500
H  46.53400 14.87600 23.25500
H  43.77700 15.46900 22.20200
H  44.00600 13.89100 22.83500
H  45.15300 14.39000 21.56600
H  41.00200 14.76000 28.71600
H  42.08900 13.97200 27.77100
H  41.39400 15.66400 27.28900
H  44.41300 16.09100 32.90900
H  41.26800 18.34200 34.85600
H  42.41600 19.52400 34.93500
H  42.65800 18.26500 36.09700

