158

Mg 17.30600 -1.43900 27.90900
C  16.40700 0.57000 30.55800
C  19.14500 -3.41900 30.20900
C  18.65700 -3.09700 25.36500
C  16.07800 0.92100 25.80900
N  17.80300 -1.35200 30.10800
C  17.26100 -0.47900 31.01000
C  17.63800 -0.80100 32.40800
C  18.65900 -1.96400 32.20600
C  18.52400 -2.27700 30.74000
C  20.09900 -1.60500 32.57700
C  16.58000 -1.05300 33.53500
C  16.80200 -0.37800 34.90200
H  18.12600 0.02200 35.38000
N  18.48100 -3.09200 27.82900
C  19.18800 -3.74500 28.81300
C  19.81800 -4.88700 28.28400
C  19.59300 -4.86500 26.91200
C  18.90000 -3.59700 26.65200
C  20.71100 -5.82100 29.09800
C  20.00200 -5.95900 25.85100
O  19.77900 -5.86200 24.66300
C  20.69500 -7.27100 26.37700
N  17.23000 -1.19900 25.82400
C  17.96500 -1.97200 25.00800
C  17.98200 -1.28500 23.58700
C  16.84900 -0.19800 23.61000
C  16.70300 -0.12200 25.13400
C  19.38000 -0.85000 23.07000
C  15.47600 -0.52800 22.91300
C  15.41000 -0.19300 21.38200
N  16.43800 0.34400 28.09700
C  15.94000 1.16800 27.18100
C  15.38100 2.42700 27.76300
C  15.55000 2.16700 29.11500
C  16.16500 0.90600 29.30500
C  14.61500 3.58000 27.10700
C  15.21900 2.72300 30.42000
O  14.55500 3.71000 30.73300
C  15.78300 1.70300 31.39000
C  16.77500 2.52100 32.23100
O  17.73500 3.07500 31.78400
O  16.33400 2.70100 33.56900
C  17.07200 3.65500 34.41600
H  19.74800 -4.02500 30.88900
H  19.13200 -3.63600 24.54200
H  15.67200 1.63600 25.09000
H  18.18300 0.10900 32.65700
H  18.42900 -2.87700 32.75600
H  20.56000 -2.41300 33.14500
H  20.13400 -0.70200 33.18600
H  20.76800 -1.47300 31.72600
H  16.33400 -2.10900 33.64500
H  15.67700 -0.60500 33.12000
H  16.32500 -1.03800 35.62700
H  16.34000 0.60700 34.96500
H  20.11600 -6.52300 29.68100
H  21.15000 -5.19300 29.87300
H  21.54400 -6.40900 28.71000
H  21.70600 -7.01400 26.69400
H  20.78100 -8.08100 25.65200
H  20.03400 -7.65500 27.15400
H  17.61800 -2.00400 22.85300
H  17.16300 0.77400 23.22900
H  19.38700 0.20200 22.78500
H  19.78300 -1.44200 22.24800
H  20.11200 -0.95000 23.87200
H  14.57700 -0.16400 23.40900
H  15.52000 -1.60800 23.05100
H  16.39400 0.15900 21.07100
H  14.58600 0.49200 21.18500
H  15.23100 -1.08500 20.78100
H  13.60100 3.27800 26.84800
H  15.06700 3.84400 26.15100
H  14.64600 4.47300 27.73200
H  15.03300 1.39900 32.12000
H  16.90200 4.67200 34.06100
H  18.12400 3.37700 34.35100
H  16.80900 3.51300 35.46400
Mg 35.67600 1.54600 29.59500
C  33.37600 2.15800 32.09100
C  38.17400 1.75900 31.90000
C  37.84400 0.71900 27.15600
C  33.19700 2.13900 27.21200
N  35.76400 1.83900 31.73300
C  34.70100 1.91800 32.54200
C  35.11200 2.02300 34.04400
C  36.68600 2.14100 33.96800
C  36.89900 1.88400 32.47200
C  37.37300 3.44300 34.62300
C  34.68000 0.76100 34.88400
C  34.64000 0.86700 36.39200
H  35.38600 2.04200 37.10100
N  37.76200 1.24000 29.52900
C  38.56700 1.44500 30.58600
C  39.93800 1.05800 30.31400
C  39.83600 0.66100 28.88800
C  38.43700 0.85800 28.45200
C  41.14500 1.06600 31.17900
C  40.90800 0.20100 27.96200
O  40.75100 -0.10100 26.76800
C  42.38700 0.20000 28.36600
N  35.58400 1.60200 27.51700
C  36.54600 1.08300 26.75300
C  36.15900 1.20100 25.24600
C  34.73800 1.60100 25.29100
C  34.48800 1.85400 26.74800
C  37.05900 2.19000 24.51100
C  33.78400 0.61000 24.65000
C  33.51900 -0.65500 25.53000
N  33.71100 2.18500 29.57200
C  32.83800 2.33100 28.53300
C  31.46800 2.72400 29.09900
C  31.71900 2.70800 30.51700
C  33.01800 2.31200 30.71800
C  30.21400 2.96500 28.17600
C  31.03200 2.85200 31.76400
O  29.86800 3.03500 32.03200
C  32.11100 2.47500 32.84000
C  32.22000 3.70400 33.62600
O  32.68400 4.75600 33.19300
O  31.65400 3.53800 34.88600
C  31.62900 4.64700 35.87100
H  38.94700 1.77000 32.67100
H  38.56100 0.49600 26.36300
H  32.43300 2.41900 26.48400
H  34.66200 2.90500 34.50000
H  37.07000 1.27700 34.51100
H  38.04000 3.21700 35.45500
H  36.60700 4.20700 34.75800
H  38.00900 3.85100 33.83800
H  35.31300 -0.10800 34.70400
H  33.67500 0.44600 34.60200
H  34.92200 -0.07300 36.86500
H  33.60900 0.97100 36.73100
H  41.63500 2.04000 31.20700
H  41.96100 0.38100 30.94800
H  40.66800 0.90900 32.14600
H  42.54300 1.15300 28.87100
H  42.99600 0.17500 27.46200
H  42.69400 -0.61900 29.01700
H  36.29900 0.19600 24.84900
H  34.54400 2.56700 24.82600
H  36.40100 2.88900 23.99500
H  37.65000 1.58400 23.82400
H  37.79500 2.67600 25.15000
H  34.20500 0.22000 23.72300
H  32.89300 1.21200 24.46900
H  32.48100 -0.71500 25.85500
H  34.28300 -0.68100 26.30700
H  33.59500 -1.45200 24.79100
H  29.33100 2.36900 28.40900
H  30.48500 2.91500 27.12200
H  29.77800 3.92900 28.43700
H  31.79200 1.65000 33.47600
H  30.81200 4.38500 36.54300
H  31.54400 5.60600 35.35900
H  32.55600 4.70500 36.44300

