158

Mg 30.46200 57.64900 40.05000
C  27.70100 55.79000 39.01200
C  32.50300 55.01800 39.31200
C  33.07400 59.78300 40.25700
C  28.37200 60.42600 40.56400
N  30.13800 55.71500 39.09900
C  28.92800 55.06100 38.89700
C  29.10500 53.63300 38.51600
C  30.52200 53.33500 39.12500
C  31.12300 54.75700 39.17500
C  30.39900 52.74200 40.53300
C  29.09500 53.42000 36.96400
C  27.98800 52.56700 36.29000
H  27.05300 53.22500 35.28700
N  32.51300 57.46500 39.81500
C  33.16200 56.27700 39.63500
C  34.52800 56.45700 39.58000
C  34.79600 57.85100 39.80700
C  33.42000 58.44700 40.02700
C  35.43500 55.40900 39.20200
C  36.17100 58.54200 39.83800
O  37.26500 58.02300 39.59000
C  36.23800 60.04200 40.29700
N  30.66500 59.83900 40.38200
C  31.90300 60.42600 40.36500
C  31.75100 61.95000 40.67700
C  30.24700 62.11200 40.83400
C  29.69800 60.74700 40.59500
C  32.63400 62.55300 41.84700
C  29.69600 63.30100 39.94500
C  29.03500 64.44900 40.67100
N  28.40800 58.04400 39.96700
C  27.70400 59.18900 40.28600
C  26.26000 58.78500 40.21800
C  26.25300 57.52600 39.65000
C  27.55600 57.13700 39.44800
C  25.00200 59.62800 40.70800
C  25.36700 56.39500 39.34800
O  24.12800 56.34400 39.32000
C  26.26600 55.17400 38.88500
C  25.86600 54.04200 39.82700
O  26.54300 53.59100 40.65600
O  24.70900 53.44800 39.36600
C  24.43800 52.08800 39.84200
H  33.14900 54.13800 39.30100
H  33.85300 60.53400 40.40800
H  27.67300 61.19800 40.89200
H  28.35100 53.09100 39.08600
H  31.09200 52.66800 38.47800
H  31.05900 51.87400 40.51700
H  29.39500 52.34800 40.69000
H  30.62200 53.32600 41.42500
H  30.03400 52.98600 36.62200
H  29.22100 54.39800 36.49900
H  27.35600 52.11000 37.05200
H  28.51000 51.76400 35.76900
H  35.09200 54.91300 38.29400
H  35.36000 54.62700 39.95800
H  36.49400 55.65600 39.12800
H  35.86400 60.20500 41.30800
H  35.66100 60.69900 39.64600
H  37.31200 60.23000 40.28600
H  32.04300 62.50700 39.78700
H  29.90600 62.36700 41.83800
H  33.48400 63.02400 41.35300
H  33.00700 61.74500 42.47700
H  32.10700 63.29200 42.45100
H  28.84000 62.97900 39.35300
H  30.40800 63.71800 39.23200
H  27.94500 64.44600 40.69200
H  29.35900 65.39800 40.24400
H  29.34100 64.51600 41.71500
H  24.39800 59.78600 39.81400
H  25.28100 60.48700 41.31900
H  24.42900 58.96100 41.35200
H  26.23200 54.85000 37.84400
H  23.36800 51.98900 40.02300
H  24.86200 51.90700 40.82900
H  24.75000 51.30400 39.15300
Mg -11.58700 38.02400 42.85700
C  -8.99600 35.58000 42.17000
C  -9.29600 40.43400 41.89300
C  -14.18100 40.10200 42.68400
C  -13.72900 35.28800 43.70300
N  -9.40600 37.93900 41.99900
C  -8.50600 36.91800 41.88800
C  -7.05100 37.37100 41.47100
C  -7.20100 38.93600 41.77300
C  -8.72400 39.10500 41.90900
C  -6.54000 39.57900 42.99400
C  -6.72300 36.93700 39.99600
C  -5.63500 35.88400 39.74300
H  -6.07300 34.82600 38.81000
N  -11.69200 40.04500 42.37000
C  -10.64200 40.84900 42.01200
C  -11.06900 42.22500 42.04000
C  -12.50800 42.20300 42.26600
C  -12.89400 40.75400 42.49900
C  -10.26600 43.42300 41.88000
C  -13.46200 43.35300 42.20700
O  -13.17300 44.50300 41.87600
C  -14.81400 43.17500 42.68700
N  -13.67700 37.69500 43.08200
C  -14.51800 38.77700 43.07700
C  -15.87700 38.34800 43.58500
C  -15.75900 36.82100 43.72300
C  -14.28300 36.57500 43.57800
C  -16.16400 39.11200 44.95000
C  -16.71900 36.12900 42.72600
C  -16.07000 35.81400 41.36500
N  -11.42300 35.85600 43.02600
C  -12.34600 34.87600 43.47400
C  -11.69000 33.58700 43.50600
C  -10.42900 33.81600 43.02100
C  -10.29000 35.22700 42.69400
C  -12.18800 32.26600 43.99300
C  -9.20500 33.21700 42.78600
O  -8.76300 32.07200 43.04200
C  -8.17800 34.33200 42.25000
C  -7.15300 34.32500 43.27600
O  -7.05900 34.90300 44.34200
O  -6.18500 33.49300 42.79600
C  -4.95500 33.36300 43.60000
H  -8.58000 41.23900 41.71400
H  -15.07200 40.73200 42.64100
H  -14.44600 34.55400 44.07700
H  -6.30300 36.88800 42.09900
H  -7.02300 39.52700 40.87500
H  -6.01400 38.79200 43.53400
H  -7.26900 39.94200 43.71900
H  -5.74000 40.23500 42.65200
H  -6.31200 37.88400 39.64700
H  -7.59700 36.78600 39.36300
H  -5.38300 35.37600 40.67400
H  -4.71700 36.34400 39.37700
H  -9.95800 43.66400 40.86200
H  -9.34300 43.14800 42.39100
H  -10.63300 44.26000 42.47300
H  -15.39800 42.72400 41.88400
H  -15.22100 44.14200 42.98300
H  -14.83100 42.44600 43.49600
H  -16.58700 38.61700 42.80300
H  -16.14300 36.47100 44.68100
H  -15.95700 38.41500 45.76200
H  -17.14500 39.58200 45.00900
H  -15.53400 39.99300 45.07400
H  -17.61000 36.74700 42.61800
H  -17.17100 35.25900 43.20300
H  -16.79900 36.03200 40.58400
H  -15.79000 34.76400 41.44100
H  -15.19500 36.44300 41.20500
H  -12.45200 32.31500 45.04900
H  -11.47300 31.45700 43.84700
H  -13.03500 31.94500 43.38700
H  -7.67400 34.09900 41.31200
H  -4.37700 34.25700 43.36500
H  -4.43700 32.42100 43.42000
H  -5.19900 33.42300 44.66100

