158

Mg 6.16900 54.76800 40.15800
C  5.66800 51.32700 39.83500
C  9.48200 54.19200 39.12600
C  6.52400 58.12200 39.76000
C  2.69900 55.25600 40.55100
N  7.43200 52.92200 39.57800
C  6.98200 51.67800 39.48800
C  8.15900 50.76600 39.02500
C  9.47900 51.64000 39.09400
C  8.80900 52.99300 39.40600
C  10.42900 51.34000 40.28300
C  8.02100 49.94200 37.71800
C  7.22600 50.51500 36.51800
H  6.88200 52.05500 36.52700
N  7.80500 56.01600 39.55000
C  9.11000 55.59500 39.20900
C  9.81600 56.80900 38.92800
C  9.03500 57.92600 39.25100
C  7.72600 57.38700 39.53200
C  11.27000 56.74900 38.50900
C  9.47500 59.44900 39.20600
O  10.66800 59.66900 39.01200
C  8.58400 60.59000 39.40500
N  4.80800 56.33600 39.84600
C  5.25700 57.65600 39.98100
C  4.17000 58.61100 40.29100
C  2.98800 57.73700 40.57600
C  3.51000 56.35200 40.35200
C  4.45700 59.58400 41.42100
C  1.76000 58.06500 39.74200
C  1.70500 57.79100 38.21300
N  4.47200 53.54700 40.36700
C  3.14900 53.88200 40.62400
C  2.34100 52.62800 40.88900
C  3.29500 51.60400 40.55200
C  4.58100 52.22800 40.23400
C  0.87100 52.57400 41.17200
C  3.47700 50.13200 40.42700
O  2.57600 49.28100 40.62900
C  5.01600 49.88800 39.98800
C  5.02500 48.93300 38.89400
O  4.35400 49.02400 37.88000
O  5.74200 47.84200 39.10600
C  5.57800 46.61400 38.35400
H  10.51400 54.18800 38.76900
H  6.67500 59.20100 39.82700
H  1.65900 55.35500 40.87000
H  8.20300 49.99500 39.79400
H  10.07800 51.68800 38.18500
H  11.20200 52.07300 40.51700
H  10.83300 50.33200 40.19200
H  9.95400 51.22900 41.25800
H  7.63700 48.94100 37.91800
H  9.03200 49.80500 37.33500
H  6.36900 49.85500 36.37800
H  7.90700 50.36200 35.68100
H  11.56100 57.58500 37.87300
H  11.53200 55.79700 38.04600
H  11.84000 56.88400 39.42900
H  7.77500 60.60600 38.67500
H  9.03400 61.56200 39.60500
H  8.30400 60.29000 40.41500
H  3.87000 59.24000 39.45300
H  2.61400 57.80400 41.59800
H  5.52100 59.78400 41.54600
H  3.93200 59.27800 42.32600
H  4.00500 60.53300 41.13000
H  1.41300 59.08200 39.92700
H  0.97700 57.51800 40.26700
H  1.39900 58.66000 37.63100
H  1.01200 56.98400 37.97800
H  2.65100 57.35000 37.90000
H  0.30600 53.19800 40.48000
H  0.68500 53.00800 42.15400
H  0.65200 51.51000 41.08100
H  5.60300 49.41600 40.77700
H  5.44300 46.95200 37.32700
H  4.67100 46.09300 38.66200
H  6.40800 45.91200 38.43300
Mg 16.70300 52.17000 25.78900
C  18.30600 50.70000 28.42400
C  14.36600 53.49400 27.86700
C  14.98600 53.51500 23.07100
C  19.18900 51.04700 23.47200
N  16.48900 52.25700 27.90900
C  17.23600 51.51000 28.83900
C  16.73300 51.82400 30.29300
C  15.35800 52.46100 30.07100
C  15.37500 52.74500 28.53200
C  14.15200 51.47200 30.46200
C  17.75200 52.74600 31.01200
C  18.31700 52.15200 32.31500
H  17.83300 52.87700 33.55300
N  14.93200 53.29000 25.49300
C  14.15400 53.69600 26.47400
C  13.01300 54.44600 25.89800
C  13.06100 54.41300 24.55700
C  14.30600 53.67400 24.26800
C  11.97100 55.08600 26.83900
C  12.15900 54.97300 23.49400
O  12.37100 54.85200 22.31600
C  10.84000 55.63400 23.90800
N  16.95900 52.11300 23.54900
C  16.14400 52.83400 22.68400
C  16.70900 52.73000 21.23100
C  18.15800 52.20700 21.45800
C  18.14500 51.79400 22.92800
C  15.82100 51.92100 20.26300
C  19.40600 53.09300 21.03400
C  20.59800 52.30400 20.62900
N  18.41700 51.05400 25.89300
C  19.29100 50.66100 24.90900
C  20.28900 49.78000 25.59100
C  19.93600 49.80200 26.96600
C  18.80300 50.59800 27.07800
C  21.38100 49.14100 24.90100
C  20.41700 49.39700 28.20600
O  21.45900 48.87800 28.59300
C  19.41900 50.02000 29.28200
C  19.03100 48.96400 30.25700
O  18.05200 48.25000 30.10300
O  19.84000 49.00200 31.34400
C  19.40500 48.25000 32.49900
H  13.56700 53.79500 28.54800
H  14.49200 53.96100 22.20500
H  19.96100 50.71100 22.77600
H  16.64600 50.89900 30.86400
H  15.21100 53.35100 30.68300
H  13.53300 52.18000 31.01300
H  14.44800 50.60800 31.05800
H  13.65200 51.23300 29.52400
H  17.29000 53.72100 31.16400
H  18.63400 52.95400 30.40600
H  19.40700 52.13600 32.27600
H  18.00600 51.16200 32.65000
H  11.94800 56.14300 26.57200
H  12.18500 55.08900 27.90700
H  10.98400 54.62500 26.79400
H  10.18600 54.99600 24.50300
H  10.33300 55.95100 22.99700
H  10.97000 56.51700 24.53400
H  16.68900 53.77900 20.93600
H  18.40600 51.29100 20.92200
H  16.45600 51.05500 20.08100
H  15.62200 52.38200 19.29500
H  14.84200 51.69600 20.68600
H  19.69400 53.59800 21.95600
H  19.19800 53.87900 20.30800
H  21.25900 52.34600 21.49400
H  21.05400 52.82400 19.78600
H  20.35100 51.30500 20.26900
H  21.16600 49.16600 23.83200
H  21.38900 48.07700 25.13600
H  22.34400 49.57400 25.17100
H  20.02100 50.75000 29.82300
H  18.56500 48.79400 32.93200
H  20.17200 48.09700 33.25700
H  19.01900 47.24000 32.35700

