158

Mg 30.82400 58.14700 40.92400
C  28.10800 56.45400 39.25100
C  32.88600 55.79700 39.51200
C  33.43600 60.13400 41.54200
C  28.56700 60.81700 41.42700
N  30.50700 56.38500 39.62200
C  29.36800 55.86500 39.07100
C  29.61000 54.55400 38.31600
C  31.10100 54.22600 38.74300
C  31.54900 55.57400 39.31200
C  31.40100 52.97400 39.71800
C  29.28100 54.72900 36.83800
C  28.40700 53.58700 36.20900
H  27.76600 53.93000 34.82900
N  32.85200 57.96700 40.61500
C  33.52500 56.93000 40.05500
C  34.98000 57.14400 40.11400
C  35.12200 58.38000 40.77100
C  33.76800 58.89100 41.02000
C  36.04300 56.26500 39.54700
C  36.42700 59.12400 41.15100
O  37.48800 58.76000 40.64200
C  36.48300 60.42700 42.10600
N  30.99300 60.25000 41.26300
C  32.16100 60.76800 41.71800
C  32.06400 62.26300 42.03700
C  30.50300 62.39300 42.29700
C  29.97400 61.06000 41.64000
C  32.96700 62.83100 43.17100
C  29.87300 63.68700 41.72800
C  28.86700 64.40400 42.65700
N  28.75700 58.55600 40.55400
C  27.97200 59.61700 40.96400
C  26.65300 59.44000 40.43900
C  26.61900 58.21300 39.80300
C  27.92700 57.67400 39.91600
C  25.48700 60.39200 40.63700
C  25.87000 57.29900 39.03600
O  24.71500 57.26900 38.69000
C  26.77300 55.97200 38.77900
C  26.34100 54.78600 39.65200
O  26.10000 54.88000 40.84400
O  26.29000 53.65300 38.94700
C  26.21800 52.33500 39.67300
H  33.58400 55.02800 39.17300
H  34.19400 60.88300 41.78200
H  27.87200 61.62700 41.65700
H  28.98400 53.81700 38.81900
H  31.80400 54.12300 37.91700
H  30.61900 52.21500 39.70600
H  31.51300 53.44300 40.69600
H  32.35900 52.55200 39.41500
H  30.27200 54.76100 36.38500
H  28.88300 55.73800 36.73300
H  27.62100 53.25500 36.88700
H  29.09800 52.75000 36.10500
H  36.73200 55.97700 40.34100
H  36.57800 56.79700 38.76000
H  35.68400 55.32700 39.12200
H  36.14900 61.33400 41.60200
H  37.52800 60.64300 42.32700
H  35.97800 60.29300 43.06300
H  32.38300 62.71300 41.09700
H  30.38000 62.30800 43.37700
H  33.76800 63.40400 42.70200
H  33.28800 61.97000 43.75800
H  32.38300 63.51300 43.78900
H  29.31000 63.34600 40.86000
H  30.58300 64.42400 41.35400
H  28.66100 63.74000 43.49700
H  27.93500 64.50900 42.10300
H  29.25300 65.40800 42.83600
H  25.65400 61.38700 40.22400
H  25.42800 60.48200 41.72200
H  24.58800 59.92800 40.23200
H  26.68600 55.61700 37.75200
H  25.66000 51.58000 39.11900
H  25.98400 52.42800 40.73400
H  27.14500 51.76100 39.66600
Mg 10.00500 48.33400 26.56500
C  7.89300 47.77700 29.30400
C  12.39000 49.40300 28.80200
C  12.12900 48.30700 23.97900
C  7.29800 47.77600 24.32700
N  10.04400 48.64200 28.79300
C  9.08600 48.30800 29.69100
C  9.42900 48.73000 31.11300
C  10.84000 49.40100 30.89300
C  11.13800 49.24000 29.39700
C  10.96700 50.97500 31.28300
C  9.31900 47.62800 32.16700
C  9.80200 48.06300 33.52200
H  9.17100 47.46200 34.81200
N  11.93300 48.80300 26.42200
C  12.78400 49.11400 27.46500
C  14.10300 49.25500 26.97100
C  14.07300 49.10100 25.56700
C  12.63300 48.74100 25.25600
C  15.36000 49.63800 27.84800
C  15.08500 49.44700 24.57100
O  14.87900 49.41500 23.35400
C  16.41800 49.84500 24.98500
N  9.77900 48.17000 24.40600
C  10.80600 48.09700 23.61100
C  10.34500 47.72500 22.17300
C  8.95300 47.16600 22.35500
C  8.63400 47.79000 23.70200
C  10.47000 48.90800 21.14600
C  8.77400 45.60700 22.42100
C  8.14100 44.86800 21.23100
N  7.98700 48.11600 26.71000
C  7.01200 47.79000 25.74400
C  5.73200 47.36300 26.41200
C  6.08100 47.38200 27.75600
C  7.42800 47.78900 27.89300
C  4.43900 47.05200 25.68400
C  5.46700 47.04500 29.04400
O  4.33100 46.69400 29.36700
C  6.65100 47.40300 30.05000
C  6.80500 46.15800 30.85200
O  7.60400 45.22600 30.64600
O  5.88500 46.27200 31.78800
C  5.97600 45.21300 32.80900
H  13.17800 49.81800 29.43400
H  12.82800 48.25200 23.14100
H  6.54100 47.33200 23.67800
H  8.71300 49.47900 31.45200
H  11.57200 48.81800 31.45100
H  11.66800 51.00400 32.11700
H  10.11500 51.51000 31.70300
H  11.34800 51.69800 30.56200
H  9.80000 46.73100 31.77700
H  8.25100 47.42100 32.22800
H  9.87700 49.15100 33.50200
H  10.84600 47.75100 33.49600
H  15.91500 48.71300 28.00300
H  15.05400 50.01500 28.82400
H  15.98100 50.45200 27.47200
H  16.30600 50.82900 25.43900
H  17.07300 49.83400 24.11400
H  16.72200 48.97300 25.56400
H  11.01800 46.89600 21.95200
H  8.25800 47.61000 21.64200
H  11.10600 49.75200 21.41600
H  9.45400 49.21800 20.90100
H  10.84900 48.51800 20.20200
H  8.18900 45.27400 23.27800
H  9.77300 45.17100 22.44700
H  7.95200 45.56800 20.41700
H  7.12200 44.55700 21.46000
H  8.67200 43.98800 20.86900
H  4.61100 46.40200 24.82700
H  4.06400 47.95600 25.20500
H  3.73300 46.58200 26.36900
H  6.28500 48.25300 30.62500
H  5.85000 45.85500 33.68000
H  6.91700 44.66600 32.85400
H  5.04700 44.64600 32.75300

