158

Mg 36.32900 49.47500 24.95700
C  36.18800 47.57600 27.98900
C  34.98300 52.10800 26.64000
C  36.12700 51.25100 22.12800
C  37.38200 46.63900 23.31300
N  35.79800 49.73900 27.04800
C  35.94500 48.89900 28.10200
C  35.59300 49.60800 29.38500
C  34.95800 50.93900 28.91400
C  35.34300 50.96600 27.46000
C  33.36200 51.04300 29.27700
C  36.80200 49.77300 30.39400
C  36.62400 49.64900 31.89300
H  35.18600 49.72100 32.40000
N  35.47800 51.40600 24.42500
C  35.06500 52.38200 25.28900
C  34.79400 53.61600 24.58200
C  35.18600 53.37200 23.23300
C  35.58100 51.95800 23.20700
C  34.04200 54.78500 25.15500
C  35.11900 54.41100 22.00800
O  35.41500 54.04700 20.88300
C  34.63100 55.85700 22.15900
N  36.69000 48.97200 22.98400
C  36.54800 49.90600 21.99900
C  36.79800 49.22300 20.61800
C  37.41200 47.79600 21.01400
C  37.17500 47.76100 22.54400
C  35.54900 49.22500 19.72300
C  38.95700 47.61300 20.69900
C  39.97300 48.61000 21.45500
N  36.80100 47.51000 25.48400
C  37.18100 46.46600 24.67200
C  37.27700 45.27700 25.50800
C  36.82500 45.66600 26.76000
C  36.49300 46.97400 26.72000
C  37.73100 43.85300 24.98200
C  36.63900 45.22900 28.13700
O  36.83400 44.12500 28.59700
C  36.29100 46.48900 29.00600
C  35.01400 46.14900 29.67600
O  33.86700 46.26100 29.20000
O  35.33400 45.49400 30.85000
C  34.21600 45.04700 31.71400
H  34.60400 52.96300 27.20500
H  36.13000 51.82000 21.19600
H  37.60900 45.69600 22.81100
H  34.93300 49.03200 30.03300
H  35.47000 51.78200 29.37800
H  32.76100 51.10500 28.36900
H  33.20300 51.96100 29.84300
H  33.05900 50.16900 29.85300
H  37.35800 50.70400 30.28600
H  37.55200 49.03600 30.10700
H  37.22900 50.50200 32.20400
H  37.16400 48.82900 32.36700
H  32.96400 54.76400 24.99800
H  34.37500 55.77600 24.84700
H  34.16300 54.84300 26.23700
H  34.57700 56.43600 21.23700
H  35.29400 56.40000 22.83200
H  33.71400 55.78700 22.74500
H  37.56200 49.77200 20.06700
H  36.94300 46.97900 20.46500
H  35.62400 49.79200 18.79500
H  34.68800 49.68100 20.21100
H  35.27100 48.23200 19.37000
H  39.11900 47.84600 19.64700
H  39.10700 46.55300 20.90200
H  40.06200 48.42600 22.52600
H  39.62700 49.63800 21.34500
H  40.96000 48.56500 20.99400
H  38.53500 43.97200 24.25600
H  36.84700 43.39500 24.53800
H  38.11600 43.36600 25.87700
H  37.05500 46.72000 29.74800
H  33.39100 45.75600 31.78800
H  34.67100 44.93000 32.69700
H  33.93300 44.09700 31.26200
Mg 4.65300 54.20000 41.41700
C  3.57600 50.88600 41.13500
C  7.33500 53.23100 39.29700
C  5.57500 57.43200 41.12400
C  1.66400 55.00900 42.88400
N  5.30700 52.26600 40.23800
C  4.72000 51.10000 40.37300
C  5.47000 50.07800 39.55000
C  6.78100 50.74000 39.25800
C  6.48000 52.23600 39.58900
C  7.98600 50.06700 40.00800
C  4.64800 49.86800 38.13800
C  4.71700 48.42900 37.62800
H  5.38400 48.23200 36.31000
N  6.20900 55.18700 40.41700
C  7.25000 54.59000 39.65800
C  8.17400 55.56100 39.30800
C  7.78000 56.83800 39.80700
C  6.48800 56.58600 40.46500
C  9.38400 55.19900 38.50300
C  8.50100 58.20000 39.70500
O  9.57400 58.19300 39.14500
C  7.96700 59.39200 40.34300
N  3.75200 55.99500 41.85300
C  4.32100 57.17700 41.69900
C  3.45900 58.29700 42.41700
C  2.20500 57.50600 42.96800
C  2.55700 56.07900 42.49700
C  4.12900 59.23500 43.43200
C  0.75700 57.95700 42.55900
C  0.37700 57.35500 41.21600
N  2.97900 53.18800 42.01400
C  1.82000 53.60400 42.64500
C  1.00700 52.52900 43.01200
C  1.66600 51.37300 42.51100
C  2.80700 51.87500 41.84400
C  -0.28800 52.63600 43.70000
C  1.64900 49.90700 42.34700
O  0.81500 49.08200 42.69900
C  2.90200 49.51400 41.47900
C  2.53900 48.66100 40.40300
O  1.75500 48.94400 39.52700
O  3.05700 47.43300 40.61200
C  2.48600 46.29500 39.94000
H  8.24400 52.98300 38.74500
H  5.80800 58.49200 41.23900
H  0.75400 55.21500 43.45100
H  5.64300 49.12200 40.04400
H  7.15900 50.63200 38.24100
H  8.56700 50.82000 40.53900
H  8.70800 49.59100 39.34400
H  7.61500 49.41300 40.79700
H  5.02000 50.59200 37.41300
H  3.63200 50.24500 38.26000
H  3.66200 48.15800 37.59500
H  5.28000 47.79000 38.30800
H  9.94400 54.38600 38.96300
H  10.05900 55.98900 38.17300
H  9.03700 54.80300 37.54800
H  7.03100 59.72400 39.89300
H  8.65800 60.22000 40.18500
H  7.97200 59.21700 41.41900
H  3.04200 58.91700 41.62300
H  2.32900 57.48800 44.05100
H  5.10600 58.83400 43.70300
H  3.46200 59.43400 44.27100
H  4.41000 60.12700 42.87200
H  0.72700 59.03100 42.37500
H  0.07100 57.71600 43.37000
H  -0.28600 58.06400 40.72100
H  -0.34000 56.53600 41.27300
H  1.05100 57.10700 40.39600
H  -0.10200 52.24200 44.69900
H  -1.04900 52.15000 43.08900
H  -0.53500 53.67300 43.92500
H  3.56300 48.93600 42.12400
H  2.79400 46.24700 38.89500
H  1.41600 46.39700 40.11800
H  2.74200 45.31800 40.34900

