158

Mg 0.80800 7.43000 24.93000
C  1.33000 9.16400 27.87100
C  1.06300 4.47900 26.77900
C  0.63200 5.69500 21.99500
C  1.06200 10.47700 23.09700
N  1.06500 6.93500 27.07700
C  1.25100 7.80200 28.10600
C  1.27400 7.08000 29.51000
C  1.23300 5.59300 29.05600
C  1.02700 5.68400 27.46100
C  2.43800 4.75100 29.43800
C  0.05700 7.37900 30.48900
C  0.42800 7.52600 31.98700
H  1.61000 6.78000 32.55600
N  0.68000 5.37400 24.47200
C  0.88500 4.36700 25.33800
C  0.91200 3.06400 24.63700
C  0.76600 3.36700 23.23500
C  0.68100 4.90200 23.16300
C  1.04500 1.76800 25.29000
C  0.62500 2.51400 22.01300
O  0.45000 2.93500 20.83200
C  0.45000 1.00900 22.18700
N  0.90700 7.96200 22.88800
C  0.65500 7.10500 21.88500
C  0.48600 7.83700 20.50000
C  0.59200 9.33100 20.87300
C  0.90400 9.28500 22.36800
C  1.36800 7.34900 19.31200
C  -0.49500 10.28000 20.33500
C  -1.95400 10.36300 20.94600
N  1.09100 9.42400 25.32100
C  1.17400 10.53100 24.55300
C  1.18900 11.72500 25.44600
C  1.30100 11.24100 26.72200
C  1.17900 9.85400 26.62000
C  1.22000 13.13700 25.03500
C  1.49500 11.62300 28.10800
O  1.63500 12.70100 28.66700
C  1.49200 10.27900 28.88700
C  2.66900 10.26300 29.84100
O  3.75900 9.72500 29.60600
O  2.27100 10.89400 31.01300
C  3.26500 11.04600 32.12100
H  1.13100 3.58500 27.40200
H  0.49000 5.23100 21.01600
H  0.97600 11.47600 22.66300
H  2.26200 7.31300 29.90700
H  0.30000 5.11000 29.34600
H  2.10800 3.94500 30.09300
H  3.11100 5.37500 30.02600
H  3.03500 4.31500 28.63600
H  -0.80800 6.71800 30.42900
H  -0.25600 8.37900 30.18700
H  -0.35100 7.00400 32.54300
H  0.44600 8.59500 32.19700
H  0.49100 0.95400 24.82200
H  0.58700 1.73200 26.27900
H  2.08900 1.46200 25.23000
H  1.33200 0.67700 22.73600
H  0.45900 0.65800 21.15500
H  -0.48800 0.70000 22.64900
H  -0.55900 7.71100 20.21700
H  1.51200 9.72400 20.44000
H  1.86100 6.40400 19.54000
H  2.08800 8.14600 19.12400
H  0.70200 7.15000 18.47300
H  -0.55500 9.95300 19.29700
H  -0.07400 11.28500 20.33900
H  -2.00000 9.53800 21.65700
H  -2.73000 10.23000 20.19200
H  -2.15800 11.33000 21.40600
H  2.19700 13.55100 25.28300
H  0.40100 13.56600 25.61200
H  1.01300 13.32300 23.98100
H  0.60000 10.23600 29.51200
H  4.18700 11.43200 31.68600
H  3.45800 10.03900 32.49000
H  2.84300 11.60800 32.95400
Mg -11.29000 16.19200 42.08100
C  -7.85900 16.00700 41.98800
C  -11.22600 19.43100 41.01600
C  -14.67500 16.21700 41.99200
C  -11.41800 12.64600 42.89800
N  -9.69600 17.45400 41.35400
C  -8.31000 17.19600 41.39900
C  -7.54700 18.36800 40.70700
C  -8.67000 19.49000 40.70100
C  -9.94900 18.78200 41.07100
C  -8.33300 20.57800 41.72000
C  -7.02600 18.05800 39.28500
C  -5.50200 17.86800 39.15100
H  -4.87600 18.52500 37.87100
N  -12.78200 17.69200 41.54100
C  -12.50900 18.94600 41.23200
C  -13.72700 19.69600 41.02100
C  -14.81600 18.75500 41.24700
C  -14.12900 17.48600 41.67000
C  -13.80400 21.14500 40.55800
C  -16.23700 19.08200 40.99200
O  -16.61600 20.12200 40.56100
C  -17.35600 18.01100 41.29800
N  -12.80500 14.60000 42.34900
C  -14.14600 14.96600 42.27100
C  -15.02900 13.70900 42.53400
C  -13.99500 12.52100 42.68600
C  -12.65200 13.28500 42.64000
C  -15.98400 13.93500 43.73600
C  -14.02800 11.54000 41.40400
C  -14.33500 10.13400 41.82500
N  -9.89500 14.61900 42.52600
C  -10.09400 13.28200 42.80100
C  -8.76600 12.69800 43.04400
C  -7.85100 13.75300 42.77300
C  -8.62300 14.85400 42.42900
C  -8.50100 11.31900 43.32100
C  -6.47200 14.14400 42.61300
O  -5.45400 13.49800 42.89300
C  -6.38600 15.64700 42.15200
C  -5.68600 16.36700 43.26200
O  -5.98600 16.30700 44.46100
O  -4.48900 16.92100 42.79500
C  -3.49700 17.30900 43.80900
H  -11.10700 20.43300 40.60000
H  -15.75800 16.19100 42.13400
H  -11.55100 11.60100 43.18800
H  -6.64100 18.72000 41.20100
H  -8.72300 19.95400 39.71600
H  -9.16500 20.80500 42.38700
H  -8.05200 21.46100 41.14600
H  -7.48500 20.27900 42.33700
H  -7.25300 18.77400 38.49500
H  -7.49600 17.20800 38.79100
H  -5.26200 16.81600 39.29900
H  -5.06700 18.42400 39.98200
H  -14.40500 21.82200 41.16500
H  -14.22500 21.24900 39.55800
H  -12.87200 21.68800 40.71800
H  -18.36300 18.37300 41.09000
H  -17.21500 17.72000 42.33900
H  -17.29100 17.18900 40.58600
H  -15.76800 13.48400 41.76500
H  -13.95100 12.05200 43.66800
H  -16.99400 13.79900 43.34900
H  -15.82100 14.97000 44.03900
H  -15.68200 13.23400 44.51400
H  -13.08900 11.48900 40.85400
H  -14.76200 11.90200 40.68400
H  -14.30100 9.98400 42.90500
H  -13.55600 9.48400 41.42600
H  -15.33500 9.89100 41.46500
H  -7.74000 11.04200 42.59200
H  -9.39700 10.70700 43.42500
H  -8.07700 11.33200 44.32500
H  -5.82400 15.71000 41.22000
H  -3.23700 18.36600 43.75000
H  -2.52500 16.84500 43.64200
H  -3.85900 17.02400 44.79800

