158

Mg -0.15100 6.74300 26.06100
C  1.00800 9.08500 28.53600
C  -0.36100 4.31700 28.56100
C  -1.41900 4.65100 23.82800
C  0.70900 8.97500 23.52500
N  0.12800 6.80400 28.31100
C  0.68000 7.82700 29.12200
C  0.84200 7.39500 30.60600
C  0.73100 5.80600 30.44000
C  0.18300 5.55700 28.98000
C  2.10500 5.06400 30.73800
C  -0.18900 8.28700 31.52600
C  -0.60300 7.53000 32.83800
H  0.34600 7.61700 34.02500
N  -0.98200 4.77700 26.24300
C  -0.89600 3.96200 27.27600
C  -1.70200 2.81100 27.02800
C  -2.06600 2.83800 25.70400
C  -1.47300 4.09400 25.19000
C  -1.95400 1.73300 28.05900
C  -3.04900 1.91100 25.04500
O  -3.40500 2.08300 23.87100
C  -3.55400 0.66700 25.62400
N  -0.15500 6.71900 23.96000
C  -0.86900 5.79700 23.28000
C  -1.04300 6.16700 21.81600
C  -0.27700 7.54500 21.72300
C  0.15000 7.77500 23.14700
C  -0.48700 5.00400 20.90800
C  -1.16600 8.81100 21.18800
C  -0.45400 9.67500 20.14200
N  0.72700 8.57600 26.01400
C  0.91000 9.40700 24.91000
C  1.27100 10.73700 25.40000
C  1.44800 10.62800 26.76100
C  1.01600 9.30400 27.12000
C  1.54500 11.98400 24.47900
C  1.83600 11.31200 28.00200
O  2.28400 12.43600 28.17600
C  1.49600 10.31400 29.19900
C  2.78700 10.13500 29.87300
O  3.69200 9.39400 29.51800
O  2.81300 10.99000 30.97000
C  4.13000 11.23100 31.48500
H  -0.41700 3.53000 29.31600
H  -1.99400 4.04700 23.12400
H  0.90000 9.74000 22.77000
H  1.88100 7.67400 30.77800
H  -0.03300 5.42600 31.11800
H  2.10100 4.62400 31.73500
H  2.95400 5.74500 30.67800
H  2.29800 4.26000 30.02800
H  -1.00800 8.65600 30.90800
H  0.41500 9.14100 31.83300
H  -0.81500 6.46700 32.72300
H  -1.58100 7.94400 33.08600
H  -1.09200 1.59600 28.71100
H  -2.04600 0.75500 27.58700
H  -2.80200 1.93300 28.71300
H  -4.24400 0.21300 24.91300
H  -4.05800 0.79000 26.58300
H  -2.78400 -0.10300 25.67600
H  -2.08700 6.22300 21.50600
H  0.65000 7.42000 21.16400
H  -0.27700 4.10000 21.48000
H  0.45000 5.37000 20.48900
H  -1.12200 4.79800 20.04600
H  -1.46100 9.41300 22.04800
H  -2.02600 8.33500 20.71600
H  -0.98000 9.65600 19.18800
H  0.59700 9.39900 20.05800
H  -0.33500 10.67800 20.55200
H  0.72200 12.46000 23.94600
H  2.20900 11.62800 23.69100
H  2.10800 12.68900 25.09100
H  0.82100 10.86900 29.85100
H  4.92300 10.60900 31.07000
H  4.13000 11.06800 32.56200
H  4.31500 12.26800 31.20400
Mg 25.85700 0.37000 28.75300
C  27.76800 0.06600 31.66200
C  23.07500 0.47100 30.70100
C  24.07200 0.64000 25.88700
C  28.66700 -0.54400 26.80200
N  25.50900 0.45700 30.94500
C  26.41100 0.36000 31.94600
C  25.80200 0.46500 33.36700
C  24.29700 0.65100 33.06700
C  24.25300 0.54700 31.51400
C  23.48900 -0.50600 33.72600
C  26.42900 1.53000 34.20000
C  26.91700 1.13200 35.58400
H  26.65500 2.06900 36.82000
N  23.85000 0.53500 28.33600
C  22.83900 0.51100 29.27200
C  21.53900 0.55500 28.56300
C  21.83500 0.77300 27.16700
C  23.25600 0.75900 27.04900
C  20.13200 0.52100 29.25900
C  20.80300 1.07500 25.96500
O  21.14600 1.29800 24.79100
C  19.36800 1.25700 26.33300
N  26.37100 0.04600 26.60900
C  25.45300 0.34000 25.68100
C  26.00700 0.33100 24.23900
C  27.56400 -0.03500 24.58900
C  27.54500 -0.23500 26.07700
C  25.47100 -0.68000 23.18300
C  28.48500 1.10900 24.26600
C  29.88200 0.68700 23.69000
N  27.86200 0.00500 29.12800
C  28.93500 -0.45400 28.25000
C  30.05300 -0.84000 29.06700
C  29.67600 -0.59900 30.40400
C  28.31200 -0.05800 30.37000
C  31.35500 -1.52900 28.70300
C  30.15500 -0.67400 31.76100
O  31.19800 -1.07800 32.29200
C  28.97100 -0.24200 32.63400
C  28.65400 -1.33400 33.58800
O  28.17000 -2.40500 33.33600
O  28.96100 -0.96700 34.86000
C  28.83500 -2.08600 35.79700
H  22.15700 0.49200 31.29100
H  23.56600 0.84700 24.94200
H  29.52900 -0.76900 26.17000
H  26.12200 -0.48500 33.79400
H  23.95500 1.64600 33.35300
H  23.80800 -1.47300 33.33700
H  22.42900 -0.44200 33.47700
H  23.59800 -0.50200 34.81000
H  25.70300 2.31500 34.41500
H  27.20500 2.08400 33.67100
H  28.00400 1.14800 35.50300
H  26.55600 0.12800 35.80800
H  19.63600 1.48300 29.38600
H  20.19600 0.19500 30.29700
H  19.44300 -0.14200 28.73500
H  18.79900 0.33200 26.42200
H  19.10700 1.55700 25.31800
H  19.25400 2.06200 27.06000
H  25.95200 1.37100 23.91600
H  27.79200 -0.94000 24.02500
H  26.25500 -1.19500 22.62800
H  24.79700 -0.13600 22.52100
H  24.82100 -1.43100 23.63200
H  28.75100 1.73100 25.12000
H  28.03500 1.83600 23.59000
H  30.02600 0.70900 22.61000
H  30.10600 -0.32700 24.02200
H  30.52700 1.45300 24.12100
H  31.08600 -2.18300 27.87300
H  31.77100 -2.08700 29.54100
H  32.12800 -0.79100 28.48300
H  29.32400 0.62200 33.19800
H  29.38500 -2.96700 35.46600
H  27.79200 -2.37300 35.93700
H  29.35200 -1.80200 36.71300

