158

Mg -2.13800 18.18900 27.39400
C  -2.58100 15.81900 30.09400
C  -2.99400 20.63300 29.63800
C  -2.06600 20.16400 24.83100
C  -2.22100 15.46100 25.17900
N  -2.68600 18.24600 29.66600
C  -2.73200 17.20000 30.57700
C  -2.98600 17.64800 32.06900
C  -3.32200 19.15500 31.79800
C  -2.98600 19.40800 30.27400
C  -4.78300 19.53100 32.22800
C  -1.75200 17.37400 32.94500
C  -1.56200 18.28100 34.18800
H  -1.12700 17.65300 35.51900
N  -2.39100 20.08700 27.29900
C  -2.66600 21.01700 28.34400
C  -2.71600 22.39100 27.80300
C  -2.41500 22.20600 26.39100
C  -2.28700 20.81200 26.11600
C  -2.91900 23.62800 28.64400
C  -2.26200 23.30400 25.38400
O  -1.91900 23.09800 24.20300
C  -2.35000 24.69700 25.88200
N  -2.36700 17.91700 25.24000
C  -2.00500 18.90900 24.39400
C  -1.95700 18.38700 22.84900
C  -1.62900 16.85900 23.19200
C  -2.10100 16.72600 24.59800
C  -3.30100 18.55100 22.07400
C  -0.10600 16.43300 23.01700
C  0.96400 16.89100 24.12600
N  -2.27300 16.07400 27.52500
C  -2.32000 15.15500 26.56400
C  -2.43600 13.86000 27.17000
C  -2.36000 14.10100 28.58000
C  -2.40900 15.44000 28.70500
C  -2.64300 12.58600 26.46400
C  -2.45800 13.38800 29.86200
O  -2.36200 12.23500 30.16800
C  -2.64800 14.48300 30.90100
C  -1.52600 14.29300 31.82600
O  -0.35800 14.64700 31.60400
O  -2.03500 13.79800 33.00800
C  -1.04100 13.45200 33.91100
H  -3.27200 21.43400 30.32700
H  -1.74700 20.80100 24.00400
H  -2.13700 14.63400 24.47000
H  -3.89200 17.15200 32.41700
H  -2.69300 19.90300 32.28100
H  -5.20500 18.68400 32.76800
H  -5.27600 19.77500 31.28700
H  -4.57500 20.40400 32.84700
H  -0.76400 17.41500 32.48800
H  -1.88000 16.36800 33.34400
H  -2.52200 18.77200 34.34700
H  -0.80200 19.01800 33.92700
H  -3.99600 23.77900 28.57400
H  -2.30700 24.49800 28.40300
H  -2.83600 23.42400 29.71100
H  -2.20700 25.41300 25.07300
H  -1.55200 25.05600 26.53100
H  -3.34400 24.75600 26.32600
H  -1.08000 18.78100 22.33300
H  -2.23500 16.08900 22.71400
H  -3.92900 19.25200 22.62400
H  -3.86200 17.62600 21.94000
H  -3.16800 19.08400 21.13300
H  0.12500 16.62600 21.96900
H  -0.05900 15.34400 22.99900
H  1.77100 16.17800 24.29600
H  0.43900 17.16000 25.04300
H  1.41700 17.81000 23.75400
H  -3.53700 12.02600 26.73900
H  -1.72300 12.01900 26.60600
H  -2.70800 12.67100 25.37900
H  -3.60800 14.46100 31.41700
H  -0.55500 12.58900 33.45500
H  -1.61200 13.23100 34.81300
H  -0.41900 14.33200 34.07700
Mg 41.50000 8.71700 29.45500
C  43.29700 10.04900 32.20100
C  39.16200 7.59600 31.67000
C  39.79200 7.54200 26.83200
C  44.13100 9.76300 27.28000
N  41.38700 8.65800 31.69900
C  42.16200 9.31900 32.60200
C  41.61500 9.13200 34.00200
C  40.41800 8.17300 33.79500
C  40.31200 8.09200 32.32400
C  40.56600 6.81300 34.53300
C  41.34000 10.53000 34.73600
C  41.42500 10.43400 36.28800
H  41.37300 11.72300 37.25200
N  39.70200 7.68200 29.31800
C  38.80700 7.38800 30.34200
C  37.52800 6.91500 29.72900
C  37.66100 7.09800 28.29900
C  39.11000 7.41700 28.11100
C  36.37900 6.34200 30.56400
C  36.58600 7.02200 27.21900
O  36.82400 7.35100 26.02600
C  35.19000 6.65600 27.67000
N  42.04500 8.49000 27.30800
C  41.07600 8.03100 26.47200
C  41.57800 8.17200 25.07700
C  42.98700 8.79600 25.16700
C  43.06700 9.01700 26.68400
C  41.53300 6.87200 24.24300
C  43.15800 10.16700 24.29100
C  42.57200 11.48100 24.92600
N  43.39800 9.62100 29.65200
C  44.31400 10.04100 28.69300
C  45.28800 10.91500 29.33200
C  44.94800 10.93600 30.67800
C  43.80400 10.13600 30.82300
C  46.42100 11.52000 28.50400
C  45.39800 11.34700 32.01300
O  46.40600 11.98200 32.34700
C  44.27500 10.79300 33.00200
C  45.00900 9.86300 33.99600
O  45.64400 8.82000 33.77300
O  45.01400 10.59500 35.20800
C  45.54600 9.84500 36.40700
H  38.27500 7.45700 32.29100
H  39.24700 7.13100 25.98000
H  44.81700 10.16600 26.53200
H  42.35500 8.62900 34.62500
H  39.47000 8.63400 34.07200
H  39.61600 6.67600 35.04800
H  41.43600 6.81600 35.18900
H  40.62600 6.02200 33.78600
H  40.35000 10.85600 34.41600
H  41.93300 11.39500 34.44100
H  42.32800 9.90400 36.59100
H  40.59500 9.82600 36.64800
H  36.36500 6.36200 31.65400
H  36.21400 5.35600 30.13000
H  35.60600 7.03100 30.22400
H  34.53100 6.48000 26.82000
H  34.73900 7.53700 28.12700
H  35.03200 5.78700 28.30800
H  40.88100 8.90200 24.66400
H  43.67300 8.00200 24.87100
H  40.52500 6.81800 23.83100
H  41.80200 5.94000 24.74000
H  42.23100 6.76100 23.41300
H  42.59000 10.09000 23.36400
H  44.19600 10.39400 24.04700
H  41.97600 11.36100 25.83100
H  41.81000 11.85900 24.24500
H  43.36300 12.21100 25.09500
H  47.03400 10.77600 27.99600
H  46.90600 12.30800 29.08000
H  45.78300 11.95800 27.73700
H  43.86500 11.56500 33.65200
H  46.10600 8.97800 36.05700
H  44.67300 9.47500 36.94500
H  46.23900 10.39200 37.04500

