158

Mg 16.80500 51.93600 26.57900
C  18.66700 50.19700 29.19900
C  14.33000 52.52000 28.81800
C  15.08600 53.15700 24.09400
C  19.32000 50.69200 24.34000
N  16.59600 51.53000 28.73400
C  17.43300 50.82000 29.61400
C  17.04300 51.09500 31.04800
C  15.59800 51.59100 30.90900
C  15.45600 51.86500 29.38000
C  14.42600 50.62200 31.23900
C  18.01100 52.14400 31.69400
C  18.50600 51.91300 33.15000
H  17.62700 51.03600 34.05100
N  15.06000 52.90900 26.54400
C  14.11700 52.95200 27.51300
C  12.91700 53.53800 27.04100
C  13.16800 53.87000 25.68400
C  14.51200 53.32800 25.37400
C  11.72200 53.83700 27.87600
C  12.24300 54.52000 24.66100
O  12.49700 54.49600 23.49300
C  11.06500 55.29800 25.15700
N  17.14100 51.81900 24.48900
C  16.19700 52.38800 23.74400
C  16.54400 52.19400 22.21300
C  17.96000 51.46200 22.31700
C  18.17600 51.23800 23.77700
C  15.66400 51.32000 21.27000
C  19.16700 52.06300 21.64600
C  19.55800 53.54900 22.03800
N  18.62800 50.70900 26.73500
C  19.49100 50.30700 25.71700
C  20.62700 49.64500 26.29800
C  20.31500 49.53700 27.67900
C  19.11400 50.15100 27.91200
C  21.76600 49.09400 25.53000
C  20.76900 48.98500 28.91600
O  21.80600 48.39800 29.20300
C  19.73500 49.47800 30.00000
C  19.38100 48.38700 30.86700
O  18.80200 47.37200 30.59800
O  19.80600 48.69200 32.12200
C  19.60600 47.61200 33.13100
H  13.48100 52.49100 29.50500
H  14.50300 53.25900 23.17700
H  20.16800 50.29200 23.78000
H  17.12000 50.15200 31.59000
H  15.44400 52.56500 31.37500
H  13.64400 51.09000 31.83700
H  14.94100 49.85700 31.82000
H  14.06000 50.14300 30.33100
H  17.57500 53.13600 31.81600
H  18.95100 52.21000 31.14700
H  18.70400 52.90800 33.54900
H  19.46300 51.39400 33.09600
H  11.51400 54.90700 27.86200
H  11.78000 53.50300 28.91200
H  10.88500 53.28300 27.45100
H  10.56600 55.83500 24.35000
H  11.53800 56.02300 25.81900
H  10.37000 54.52600 25.48600
H  16.65700 53.14000 21.68200
H  17.84700 50.41100 22.05300
H  14.69300 51.07000 21.69600
H  16.13200 50.41800 20.87500
H  15.48500 51.96100 20.40700
H  18.82500 52.04500 20.61100
H  20.14700 51.58600 21.67400
H  19.24000 53.78200 23.05500
H  19.11700 54.32200 21.40800
H  20.63900 53.68800 22.05600
H  21.87700 49.31900 24.46900
H  21.67800 48.01200 25.61900
H  22.66600 49.21900 26.13200
H  20.33700 50.14900 30.61300
H  20.09800 46.65000 32.98800
H  18.56300 47.35400 33.31100
H  20.06500 48.07100 34.00800
Mg -5.93500 24.86000 25.90300
C  -4.45900 26.01400 28.94100
C  -7.88300 22.85800 27.86500
C  -7.06300 23.54800 23.13700
C  -3.35300 26.58200 24.13900
N  -6.02800 24.34700 28.24000
C  -5.49700 25.09400 29.23700
C  -6.07600 24.77400 30.55800
C  -6.94000 23.46300 30.21600
C  -6.99000 23.59500 28.66200
C  -6.28500 22.09700 30.53800
C  -6.93900 25.98200 31.15900
C  -6.52200 26.36200 32.56800
H  -5.86200 25.31700 33.49800
N  -7.36500 23.41300 25.51200
C  -8.04700 22.67000 26.44400
C  -8.83500 21.76800 25.75600
C  -8.74100 21.97100 24.36600
C  -7.72200 23.06700 24.25800
C  -9.67100 20.67200 26.46300
C  -9.38200 21.33600 23.25600
O  -9.14200 21.70300 22.10300
C  -10.38400 20.22200 23.46200
N  -5.32600 25.08800 23.94500
C  -5.94900 24.40100 22.94900
C  -5.44500 24.83000 21.55600
C  -4.30100 25.79800 21.88500
C  -4.32300 25.83300 23.42400
C  -4.87800 23.62900 20.77300
C  -4.51400 27.24100 21.27900
C  -3.47800 27.58100 20.20200
N  -4.40100 26.10500 26.34500
C  -3.40000 26.70400 25.54300
C  -2.50800 27.45100 26.35700
C  -2.92600 27.26400 27.68800
C  -4.05000 26.43200 27.62600
C  -1.34200 28.35000 25.86700
C  -2.72600 27.60900 29.11200
O  -1.88200 28.33900 29.67300
C  -3.72600 26.78600 29.97400
C  -2.85700 25.98900 30.90300
O  -2.34700 24.90100 30.61400
O  -2.62500 26.66600 32.04100
C  -1.52600 26.32800 32.93500
H  -8.44600 22.09800 28.41100
H  -7.37600 23.12800 22.17900
H  -2.64000 27.10900 23.50100
H  -5.32900 24.49200 31.30000
H  -7.96800 23.44900 30.57600
H  -7.05700 21.55000 31.08000
H  -5.48600 22.30200 31.25000
H  -6.03900 21.54400 29.63100
H  -7.99700 25.72900 31.22100
H  -6.91800 26.83800 30.48500
H  -7.25200 26.81400 33.23800
H  -5.73500 27.07000 32.30700
H  -10.73500 20.89200 26.37100
H  -9.38700 20.58900 27.51200
H  -9.41900 19.71000 26.01900
H  -10.71200 20.06900 22.43400
H  -11.24800 20.63100 23.98600
H  -10.03900 19.27300 23.87300
H  -6.18600 25.36600 20.96300
H  -3.35000 25.30800 21.67500
H  -5.21000 23.71500 19.73800
H  -5.30600 22.72200 21.19900
H  -3.79300 23.52500 20.78300
H  -4.48900 28.06400 21.99300
H  -5.44100 27.36300 20.72000
H  -2.72500 26.79600 20.13400
H  -2.99900 28.54300 20.37900
H  -4.00100 27.61800 19.24600
H  -1.68200 29.34800 25.59300
H  -0.85400 27.98100 24.96400
H  -0.80500 28.39300 26.81500
H  -4.23300 27.56300 30.54700
H  -0.73000 27.04800 32.74700
H  -1.15100 25.32900 32.71200
H  -1.85000 26.37800 33.97400

