158

Mg 8.59000 3.06900 27.59600
C  9.84100 1.57800 30.52600
C  6.64400 5.01700 29.66100
C  7.18400 4.34300 24.92200
C  10.15400 0.58000 25.79200
N  8.13900 3.04200 29.87400
C  8.90900 2.42700 30.86400
C  8.58600 2.90000 32.29900
C  7.33000 3.94600 31.98400
C  7.41000 4.03500 30.40300
C  5.92500 3.66300 32.57200
C  9.85700 3.55700 32.92200
C  9.62000 4.31600 34.24000
H  10.49100 4.07700 35.45300
N  7.21100 4.54100 27.35300
C  6.52100 5.25800 28.30600
C  5.70200 6.27200 27.68500
C  5.91100 6.15000 26.28100
C  6.79900 4.96800 26.10900
C  4.83400 7.20800 28.38200
C  5.27500 6.91900 25.21100
O  5.46400 6.68400 24.03800
C  4.21400 7.85200 25.44800
N  8.67800 2.55000 25.70900
C  8.02400 3.23000 24.71800
C  8.28300 2.54600 23.24400
C  9.27700 1.41500 23.62600
C  9.40100 1.54700 25.15300
C  6.99100 1.97900 22.58700
C  10.55200 1.49900 22.78300
C  10.94500 0.13500 22.18200
N  9.80200 1.38700 27.98800
C  10.36900 0.47100 27.14600
C  11.21300 -0.49100 27.84500
C  11.02500 -0.09600 29.21500
C  10.19500 1.06800 29.21100
C  12.10000 -1.64600 27.28000
C  11.30800 -0.47400 30.56600
O  12.07300 -1.34900 30.96900
C  10.54900 0.54700 31.44000
C  9.73500 -0.18100 32.37900
O  8.87000 -1.03600 32.07700
O  10.14200 0.20000 33.64400
C  9.44500 -0.60100 34.73400
H  6.06100 5.66800 30.31600
H  6.76300 4.72300 23.98900
H  10.74600 -0.01200 25.09100
H  8.25800 2.08600 32.94700
H  7.56100 4.92200 32.41100
H  5.74800 4.43800 33.31800
H  5.96400 2.73900 33.14900
H  5.15700 3.70100 31.80000
H  10.26900 4.31100 32.25200
H  10.61500 2.81000 33.15600
H  8.57700 4.34500 34.55600
H  9.79900 5.35600 33.96700
H  4.79000 7.03500 29.45800
H  3.78700 7.06700 28.11300
H  5.11500 8.18700 27.99400
H  4.58300 8.70500 26.01700
H  3.42300 7.32200 25.97800
H  3.66000 8.18500 24.57100
H  8.71500 3.29300 22.57800
H  8.72700 0.49700 23.41600
H  6.24800 1.88100 23.37800
H  7.06200 0.98300 22.14900
H  6.55100 2.65300 21.85300
H  11.39300 1.64700 23.46000
H  10.45100 2.29300 22.04300
H  11.69800 -0.32400 22.82200
H  11.43100 0.43300 21.25300
H  10.06600 -0.49200 22.03300
H  11.81900 -1.86000 26.24900
H  11.99100 -2.60000 27.79600
H  13.14000 -1.33300 27.36800
H  11.33600 0.98900 32.05200
H  9.99600 -1.53900 34.79800
H  8.40100 -0.82400 34.51400
H  9.38500 -0.08400 35.69200
Mg 35.98500 49.08100 24.38900
C  35.97800 47.47800 27.56300
C  34.33700 51.70600 26.14400
C  35.38900 50.46700 21.40600
C  37.06500 46.07600 23.08300
N  35.19300 49.55200 26.61400
C  35.48800 48.79400 27.69500
C  35.10700 49.59600 28.96900
C  34.40500 50.88100 28.52400
C  34.63400 50.72100 27.04800
C  32.91000 51.03500 28.84900
C  36.36700 49.83200 29.92700
C  36.05800 49.86200 31.41500
H  34.52900 49.80100 31.87500
N  35.19300 50.88500 23.83600
C  34.56300 51.82100 24.73500
C  34.13200 52.95200 23.89900
C  34.37300 52.66500 22.55400
C  35.01000 51.27900 22.49600
C  33.44400 54.25100 24.42900
C  34.06900 53.49700 21.29200
O  34.27700 52.97300 20.13400
C  33.83200 54.92000 21.32800
N  36.30400 48.48200 22.56200
C  35.98000 49.19700 21.43700
C  36.42500 48.45200 20.18100
C  37.21400 47.21600 20.72100
C  36.85800 47.19200 22.22100
C  35.34200 48.18100 19.06000
C  38.69900 46.99500 20.31500
C  39.70900 47.93000 21.06100
N  36.54100 47.13000 25.11300
C  36.99100 45.99700 24.50400
C  37.19200 44.93800 25.37300
C  36.87500 45.48100 26.61200
C  36.38800 46.76600 26.39600
C  37.65600 43.50900 25.03500
C  36.85300 45.16400 28.00200
O  37.12000 44.09400 28.58300
C  36.40200 46.45500 28.70400
C  35.27600 46.16000 29.59900
O  34.09200 46.01900 29.24900
O  35.72700 46.02500 30.94300
C  34.92900 45.13400 31.72300
H  33.71800 52.53100 26.50400
H  35.11300 50.60300 20.35800
H  37.59800 45.18100 22.75700
H  34.45400 48.95900 29.56500
H  34.99800 51.71700 28.89400
H  32.28800 51.01300 27.95400
H  32.72900 51.98100 29.36000
H  32.68900 50.25700 29.57900
H  36.85300 50.74700 29.58900
H  37.05500 49.06000 29.58000
H  36.51900 50.76200 31.82200
H  36.44900 49.01200 31.97300
H  34.22700 55.00800 24.47900
H  33.12700 54.17700 25.47000
H  32.49700 54.54500 23.97700
H  32.97000 55.16400 21.95000
H  33.75600 55.21400 20.28100
H  34.75800 55.34800 21.71200
H  37.20100 49.06000 19.71400
H  36.68000 46.32800 20.38100
H  34.54800 48.92700 19.11000
H  34.81800 47.25500 19.29600
H  35.86300 48.21800 18.10400
H  38.84000 47.16800 19.24800
H  39.09300 45.98000 20.36800
H  39.03800 48.69100 21.45800
H  40.48700 48.39700 20.45800
H  40.07200 47.34600 21.90700
H  37.62100 43.22400 23.98300
H  36.94700 42.80900 25.47700
H  38.64600 43.34800 25.46200
H  37.30900 46.61400 29.28600
H  34.92300 44.13100 31.29600
H  33.89300 45.47100 31.75900
H  35.24200 45.14500 32.76700

