158

Mg 24.45200 2.95100 29.38500
C  26.90000 2.74900 32.02900
C  22.01900 3.18100 31.62300
C  22.40500 2.82000 26.78000
C  27.19300 2.36800 27.05700
N  24.50500 2.93200 31.59300
C  25.55300 2.97700 32.41900
C  25.09500 3.06600 33.92000
C  23.52300 3.25200 33.77700
C  23.29700 3.12300 32.20400
C  22.72600 2.30600 34.61500
C  25.78500 4.25200 34.67800
C  26.19400 3.92500 36.12000
H  25.26500 4.71000 37.08700
N  22.52300 2.85800 29.21100
C  21.65300 3.00600 30.26500
C  20.26400 3.02700 29.82400
C  20.38500 2.83400 28.41600
C  21.82700 2.81300 28.08800
C  18.97300 3.22700 30.67700
C  19.27800 2.82800 27.43400
O  19.39700 2.82700 26.21200
C  17.94900 2.53700 28.02500
N  24.75500 2.67400 27.07800
C  23.72600 2.87900 26.25000
C  24.25300 3.15900 24.83400
C  25.82500 3.05200 25.02800
C  25.94800 2.72900 26.46700
C  23.72800 2.25800 23.64900
C  26.67700 4.23800 24.67400
C  26.60000 5.52200 25.68400
N  26.55500 2.63500 29.48500
C  27.47700 2.23500 28.46700
C  28.78600 2.03700 29.07800
C  28.58300 2.20500 30.47000
C  27.29500 2.60100 30.69800
C  30.06900 1.55400 28.45600
C  29.24500 2.19900 31.72400
O  30.39900 1.99900 32.08400
C  28.10800 2.52700 32.80600
C  28.02500 1.36300 33.83000
O  27.39100 0.30500 33.83100
O  28.72800 1.80300 34.99600
C  28.89600 0.79200 36.10100
H  21.19200 3.49700 32.26300
H  21.59300 2.97400 26.06600
H  28.11800 2.44500 26.48100
H  25.29300 2.06500 34.30400
H  23.21300 4.25800 34.05700
H  22.61500 1.37900 34.05100
H  21.81400 2.78200 34.97600
H  23.16700 1.97600 35.55600
H  25.14200 5.13100 34.63500
H  26.67400 4.53800 34.11500
H  27.19900 4.26500 36.37200
H  26.01200 2.86800 36.31000
H  18.32500 4.02800 30.32100
H  19.19200 3.53900 31.69800
H  18.41200 2.29200 30.65800
H  17.93400 1.63000 28.63000
H  17.31200 2.32500 27.16600
H  17.38300 3.39200 28.39500
H  24.12100 4.17400 24.45900
H  26.18700 2.18700 24.47200
H  24.33300 1.35300 23.58900
H  23.73900 2.87400 22.75000
H  22.71300 1.92200 23.86400
H  26.47400 4.48900 23.63200
H  27.71300 3.90100 24.69000
H  26.33900 5.19700 26.69100
H  25.88000 6.15400 25.16300
H  27.56300 6.01800 25.80800
H  30.81600 1.74300 29.22700
H  30.36800 2.19200 27.62400
H  30.11500 0.49900 28.18600
H  28.39900 3.47100 33.26600
H  29.25800 -0.16400 35.72200
H  28.04400 0.47600 36.70300
H  29.53800 1.23500 36.86200
Mg 44.61200 4.75900 46.65900
C  42.84300 7.88300 46.75600
C  41.68700 3.28800 45.69300
C  46.32900 2.12200 45.64500
C  47.55400 6.61400 47.09800
N  42.50300 5.52200 46.27400
C  41.97600 6.76300 46.45500
C  40.47900 6.83800 46.12600
C  40.15300 5.31500 45.94100
C  41.55300 4.62600 46.02000
C  39.18700 4.77800 47.05900
C  40.28400 7.68100 44.78100
C  41.42500 7.47500 43.70200
H  40.88500 7.41300 42.23400
N  44.09700 2.94400 45.80500
C  42.80600 2.45400 45.54000
C  42.88600 1.06100 45.13000
C  44.24100 0.76900 45.09600
C  44.94900 1.94400 45.56000
C  41.70900 0.26100 44.73500
C  44.80900 -0.57700 44.69200
O  44.05300 -1.38700 44.24100
C  46.28000 -0.82100 44.55200
N  46.60100 4.51300 46.29400
C  47.03800 3.25900 46.07900
C  48.59600 3.08800 46.16100
C  49.06000 4.42900 46.65700
C  47.69000 5.29000 46.65200
C  49.13000 1.88500 46.97000
C  50.35200 5.02700 45.93600
C  51.70200 4.83600 46.68900
N  45.10100 6.82100 47.17200
C  46.35500 7.38200 47.22300
C  46.19200 8.82900 47.40100
C  44.81400 9.04500 47.35100
C  44.21700 7.76600 47.04500
C  47.31900 9.81600 47.59800
C  43.86200 10.07800 47.24400
O  43.92700 11.28800 47.33200
C  42.58100 9.37300 47.00800
C  41.86200 9.58900 48.30300
O  41.95500 8.87600 49.29200
O  41.02700 10.59900 48.18700
C  40.34700 10.89400 49.38500
H  40.76500 2.89000 45.26500
H  46.99400 1.26300 45.53300
H  48.52300 7.04100 47.36200
H  39.97500 7.32200 46.96200
H  39.72700 5.05100 44.97300
H  39.73600 4.33000 47.88700
H  38.48200 4.03300 46.69300
H  38.56900 5.59300 47.43600
H  40.54300 8.68800 45.10600
H  39.30800 7.59800 44.30400
H  42.04400 6.58600 43.82400
H  42.15800 8.28200 43.69200
H  41.70600 0.11500 43.65500
H  40.78500 0.73100 45.07300
H  41.64800 -0.68100 45.27900
H  46.28300 -1.78600 44.04600
H  46.86500 -0.84200 45.47200
H  46.62000 -0.02000 43.89500
H  49.00600 2.98100 45.15700
H  49.44300 4.32600 47.67300
H  48.31500 1.36500 47.47300
H  49.89500 2.06400 47.72500
H  49.65800 1.09600 46.43500
H  50.24000 6.10000 45.78100
H  50.48400 4.69600 44.90600
H  52.41200 4.51600 45.92600
H  51.66900 4.14700 47.53300
H  52.12000 5.81700 46.91700
H  46.79900 10.75800 47.42300
H  48.07000 9.61400 46.83300
H  47.70500 9.96000 48.60700
H  41.99800 9.83700 46.21300
H  39.49700 11.53600 49.15200
H  40.80300 11.51900 50.15300
H  39.92000 10.02400 49.88500

