158

Mg 8.70300 3.22200 28.29300
C  10.28000 1.86200 31.16700
C  6.60000 4.91700 30.29600
C  7.44300 4.45400 25.48000
C  10.35600 0.74800 26.48400
N  8.43600 3.30900 30.47200
C  9.21900 2.77000 31.43900
C  8.74800 3.21200 32.81500
C  7.44000 3.98900 32.58800
C  7.44700 4.07800 31.02200
C  6.21600 3.35000 33.19200
C  9.90600 4.08900 33.50500
C  9.46000 4.90400 34.71800
H  10.18800 4.61800 35.97400
N  7.34800 4.68700 27.90900
C  6.59000 5.28100 28.85300
C  5.62900 6.15200 28.18900
C  5.99900 6.19700 26.82500
C  6.99900 5.10900 26.65900
C  4.59500 6.93400 28.92600
C  5.48200 7.02100 25.68900
O  5.85200 6.98000 24.53800
C  4.44000 8.05900 26.05700
N  8.97100 2.80700 26.23000
C  8.32600 3.39500 25.23500
C  8.51400 2.61100 23.92600
C  9.73800 1.65700 24.28300
C  9.74700 1.76400 25.79000
C  7.25500 1.84600 23.45500
C  11.04600 2.15000 23.53100
C  11.88400 3.14100 24.35300
N  10.07800 1.65900 28.69800
C  10.63500 0.69900 27.85800
C  11.57400 -0.08600 28.56500
C  11.50000 0.35300 29.85400
C  10.54900 1.40800 29.87600
C  12.36200 -1.22700 27.93700
C  11.94800 0.11900 31.18800
O  12.78100 -0.64300 31.66700
C  11.13500 1.13600 32.04500
C  10.46000 0.32700 33.10500
O  9.63000 -0.52400 32.83000
O  10.95700 0.55400 34.37300
C  10.12600 0.07000 35.48600
H  5.83900 5.38400 30.92500
H  7.07200 4.99500 24.60700
H  10.87300 0.05800 25.81400
H  8.51400 2.34500 33.43200
H  7.48500 4.97800 33.04500
H  6.36400 2.27400 33.28300
H  5.49000 3.44700 32.38500
H  5.87000 3.91900 34.05400
H  10.26800 4.72400 32.69600
H  10.75100 3.44600 33.75000
H  8.40200 4.74100 34.92500
H  9.65800 5.94100 34.44600
H  4.71000 8.01300 29.02900
H  4.35700 6.38600 29.83700
H  3.77000 6.76700 28.23300
H  3.49100 7.52400 26.05700
H  4.45900 8.88100 25.34100
H  4.87400 8.47500 26.96600
H  8.83500 3.31500 23.15800
H  9.48000 0.63700 23.99700
H  6.44900 2.02400 24.16700
H  7.33600 0.77600 23.26300
H  6.91500 2.31600 22.53300
H  10.93400 2.55600 22.52600
H  11.67200 1.25800 23.52000
H  11.59200 3.49600 25.34200
H  12.05700 4.10600 23.87700
H  12.91600 2.81100 24.47300
H  12.38000 -1.13900 26.85100
H  11.91300 -2.17500 28.23100
H  13.38100 -1.01700 28.26300
H  11.94300 1.77300 32.40400
H  9.05600 0.19600 35.32000
H  10.33300 0.53800 36.44800
H  10.25500 -1.01100 35.52700
Mg 30.34700 57.85100 40.08600
C  27.77900 55.69800 38.69000
C  32.60300 55.58900 38.91300
C  32.62800 60.14000 40.45300
C  27.78900 60.31600 40.41100
N  30.18300 55.84000 38.96700
C  29.08900 55.19500 38.48300
C  29.51600 53.82100 38.01100
C  31.02800 53.75200 38.24400
C  31.32200 55.17800 38.68200
C  31.39100 52.64800 39.21600
C  29.03700 53.56100 36.50200
C  29.58800 54.60900 35.49500
H  28.75700 55.41600 34.39000
N  32.37600 57.83200 39.91400
C  33.16900 56.85200 39.38700
C  34.52000 57.23700 39.39500
C  34.57100 58.55900 39.89600
C  33.17400 58.91900 40.07800
C  35.63500 56.20700 39.08000
C  35.86400 59.36400 40.16900
O  36.88000 58.89800 39.80100
C  35.90900 60.72500 40.82900
N  30.22000 59.96000 40.19400
C  31.36100 60.65000 40.56400
C  31.06900 62.18400 40.68900
C  29.49900 62.21500 40.86600
C  29.13500 60.75900 40.45500
C  31.84400 62.96400 41.72900
C  28.79600 63.27200 39.98900
C  28.32200 64.53500 40.68600
N  28.24300 57.93100 39.81100
C  27.31100 58.99100 40.07100
C  25.92600 58.51300 39.81300
C  26.12800 57.27700 39.28500
C  27.49600 56.98900 39.20900
C  24.61900 59.20500 40.12500
C  25.38900 56.11900 38.81400
O  24.20400 56.03100 38.68200
C  26.39500 54.97100 38.57800
C  26.20800 53.87300 39.55700
O  27.05000 53.23100 40.17400
O  24.90700 53.55400 39.60100
C  24.59100 52.43000 40.52000
H  33.41000 54.88000 38.71600
H  33.37400 60.93100 40.55800
H  26.92600 60.97300 40.53500
H  29.02200 53.04800 38.60000
H  31.51300 53.50000 37.30100
H  31.50200 52.97100 40.25100
H  32.36500 52.24100 38.94400
H  30.72500 51.79500 39.08700
H  27.95200 53.47000 36.46300
H  29.45900 52.61200 36.17100
H  30.35700 54.09700 34.91600
H  30.10200 55.36400 36.09000
H  36.02300 56.33000 38.06900
H  35.29500 55.17900 39.20000
H  36.44900 56.28000 39.80200
H  36.91300 61.07200 41.07300
H  35.33200 60.61300 41.74700
H  35.49800 61.42300 40.10000
H  31.23000 62.60500 39.69700
H  29.30300 62.35900 41.92800
H  32.49500 62.25600 42.24200
H  31.13000 63.46800 42.38100
H  32.46500 63.68200 41.19500
H  27.97300 62.76700 39.48200
H  29.43200 63.56000 39.15200
H  28.25200 64.31800 41.75200
H  27.38200 64.98600 40.36600
H  29.13700 65.25500 40.60600
H  23.93800 58.46400 40.54400
H  24.03000 59.58200 39.28900
H  24.83600 59.86800 40.96200
H  26.27600 54.69500 37.53100
H  23.60700 51.98400 40.37800
H  24.62300 52.88400 41.51000
H  25.32700 51.62800 40.57800

