158

Mg 1.97900 -2.07300 44.59300
C  5.35600 -1.02500 44.10000
C  1.02900 0.55000 42.62400
C  -1.19800 -3.27300 44.68100
C  3.25300 -5.10000 45.90400
N  3.18300 -0.37300 43.45700
C  4.50800 -0.14700 43.48000
C  4.78500 1.15800 42.80000
C  3.34900 1.63900 42.28500
C  2.44800 0.56300 42.81100
C  2.97900 2.99800 42.84200
C  5.93000 1.07700 41.68300
C  6.05700 -0.13900 40.80800
H  6.95500 0.02300 39.61600
N  0.20900 -1.46500 43.79100
C  0.04100 -0.36500 42.95200
C  -1.38500 -0.14900 42.70600
C  -2.11900 -1.20100 43.37000
C  -1.03000 -2.00600 44.02900
C  -1.84400 1.11700 41.90900
C  -3.63900 -1.34200 43.41000
O  -4.43600 -0.54400 42.86300
C  -4.29300 -2.59100 43.89700
N  1.21000 -4.02000 44.96300
C  -0.14600 -4.15300 45.12800
C  -0.38700 -5.43300 45.95200
C  0.95300 -6.20100 45.97800
C  1.86700 -5.06200 45.60400
C  -1.01200 -5.16800 47.37200
C  1.17400 -7.45300 45.13000
C  1.64800 -8.67500 45.81200
N  3.90100 -2.95800 44.91700
C  4.26100 -4.20400 45.42800
C  5.73400 -4.24900 45.53600
C  6.15800 -3.04500 44.99700
C  5.04100 -2.26000 44.60700
C  6.64600 -5.27800 46.18300
C  7.35200 -2.21300 44.81000
O  8.50500 -2.50100 45.06700
C  6.87100 -0.85500 44.27300
C  7.16700 0.20500 45.26400
O  6.81900 0.26200 46.45300
O  7.95800 1.19300 44.67700
C  8.34600 2.33400 45.44900
H  0.74600 1.47700 42.12200
H  -2.21200 -3.59100 44.93000
H  3.52400 -6.02900 46.41100
H  5.13500 1.88900 43.52900
H  3.30400 1.68900 41.19700
H  2.28000 2.82700 43.66200
H  2.45200 3.57800 42.08400
H  3.81300 3.59300 43.21500
H  6.87900 1.22100 42.19900
H  5.79100 1.92400 41.01200
H  5.01400 -0.27200 40.52100
H  6.37600 -1.03800 41.33400
H  -1.55300 1.10900 40.85800
H  -1.28200 1.97700 42.27400
H  -2.90700 1.35300 41.95500
H  -3.94900 -3.56000 43.53400
H  -5.37300 -2.66700 43.76600
H  -4.19900 -2.39200 44.96400
H  -1.07400 -5.99400 45.31800
H  1.09500 -6.41800 47.03700
H  -0.77700 -5.99300 48.04500
H  -2.09300 -5.08800 47.25800
H  -0.59400 -4.24300 47.76700
H  2.06000 -7.23400 44.53400
H  0.26800 -7.61300 44.54500
H  1.56600 -8.70800 46.89800
H  2.70400 -8.86300 45.61300
H  1.06200 -9.49700 45.40300
H  6.67500 -6.24700 45.68400
H  6.62300 -5.31300 47.27200
H  7.61400 -4.94100 45.81200
H  7.48900 -0.67100 43.39400
H  9.41700 2.33900 45.65500
H  7.82500 2.50300 46.39100
H  8.04400 3.21300 44.88000
Mg 40.98400 9.35400 30.07100
C  43.06300 10.42600 32.48100
C  38.67900 8.24200 32.48600
C  39.00800 7.95300 27.69700
C  43.54700 9.68100 27.70100
N  40.98500 9.19900 32.32600
C  41.89700 9.91500 33.02300
C  41.43300 9.93400 34.45000
C  40.13900 8.97000 34.43700
C  39.85800 8.91600 32.99800
C  40.23200 7.58200 35.12400
C  41.08700 11.37000 34.97200
C  40.64000 11.36900 36.40500
H  41.30800 12.37500 37.45600
N  39.02800 8.39500 30.10600
C  38.28200 7.99600 31.17200
C  36.97000 7.56900 30.73300
C  37.03900 7.43500 29.31700
C  38.39700 7.88600 28.98500
C  35.86700 7.15900 31.67200
C  35.97800 7.05900 28.29000
O  36.09300 7.10700 27.00900
C  34.71400 6.45400 28.81000
N  41.27700 8.70300 28.00000
C  40.32800 8.25200 27.24100
C  40.82900 8.12700 25.75400
C  42.15300 8.84600 25.79200
C  42.37600 9.08600 27.25900
C  40.85000 6.71300 25.19700
C  42.15400 10.25100 24.97900
C  41.67300 11.51200 25.66000
N  42.93300 9.91100 30.00900
C  43.87400 10.07700 29.03400
C  45.06400 10.72900 29.53900
C  44.75800 10.95800 30.93700
C  43.48600 10.37500 31.14800
C  46.37600 11.09100 28.88500
C  45.30200 11.52600 32.20200
O  46.34700 12.09200 32.48600
C  44.19500 11.13900 33.22600
C  44.83700 10.20000 34.09100
O  44.95900 8.99800 34.00000
O  45.33400 10.98400 35.13900
C  45.97200 10.27500 36.17800
H  38.00600 7.94600 33.29300
H  38.40900 7.58200 26.86200
H  44.17500 10.13100 26.92900
H  42.22200 9.48400 35.05200
H  39.22800 9.38200 34.87300
H  39.69500 7.56500 36.07200
H  41.25300 7.22700 35.26400
H  39.74700 6.85500 34.47300
H  40.37000 11.82800 34.29100
H  42.03300 11.91200 34.96600
H  40.76000 10.34600 36.76100
H  39.61600 11.74100 36.35500
H  35.63900 6.09300 31.69600
H  34.91800 7.65400 31.46700
H  36.17200 7.39700 32.69100
H  34.87900 5.51200 29.33300
H  34.04300 6.12500 28.01600
H  34.04600 7.16200 29.30000
H  40.06600 8.80400 25.37100
H  42.88000 8.10600 25.45600
H  41.02800 5.97600 25.98100
H  41.60000 6.52800 24.42800
H  39.94600 6.50700 24.62400
H  41.41100 9.97900 24.22900
H  43.15000 10.27600 24.53700
H  41.19700 11.34100 26.62600
H  40.83700 11.83300 25.03800
H  42.44000 12.26400 25.84300
H  46.58300 10.29900 28.16500
H  47.24000 11.13200 29.54700
H  46.18300 11.94100 28.23100
H  43.81700 12.02500 33.73700
H  46.58200 9.38900 36.00300
H  45.25000 9.89300 36.90000
H  46.55500 11.04700 36.67800

