158

Mg 25.81700 1.26400 29.21100
C  27.75700 0.76300 32.10400
C  23.07200 1.82500 31.18200
C  23.82500 1.10800 26.38400
C  28.59800 0.40300 27.37300
N  25.37400 1.09200 31.41800
C  26.37200 1.06200 32.35300
C  25.70300 1.36800 33.79200
C  24.20700 1.67100 33.52100
C  24.25000 1.57700 31.91900
C  23.20900 0.72000 34.09900
C  26.44600 2.45700 34.59300
C  26.87400 2.17800 36.05400
H  26.58500 3.26000 37.10200
N  23.74700 1.57300 28.78800
C  22.80600 1.75900 29.76600
C  21.49200 1.99700 29.09900
C  21.73600 1.80600 27.69100
C  23.14800 1.48400 27.56300
C  20.18600 2.24500 29.76900
C  20.76500 1.99600 26.54800
O  21.09500 1.95000 25.34700
C  19.37900 2.26100 26.81200
N  26.18300 0.76000 27.16800
C  25.17700 0.74400 26.23800
C  25.73400 0.50400 24.85700
C  27.30900 0.55400 25.07600
C  27.43700 0.61400 26.62800
C  25.11700 -0.67900 24.09000
C  27.99700 1.75200 24.28500
C  28.67200 1.46600 22.97400
N  27.76600 0.63200 29.61900
C  28.84100 0.36300 28.73300
C  29.97900 0.05000 29.53500
C  29.60300 0.20100 30.89200
C  28.24400 0.55400 30.85500
C  31.28200 -0.18500 28.92900
C  30.05700 0.13700 32.24200
O  31.07100 -0.26900 32.75600
C  28.87600 0.58100 33.13500
C  28.61900 -0.40700 34.23500
O  27.96700 -1.40200 34.15700
O  29.30100 0.00100 35.38900
C  28.98900 -0.74200 36.56400
H  22.20900 2.16600 31.75800
H  23.30900 1.31100 25.44300
H  29.44200 0.20800 26.70800
H  25.82400 0.40700 34.29200
H  23.92900 2.72100 33.61100
H  22.33000 1.35600 34.20100
H  23.53500 0.23200 35.01700
H  22.83200 -0.06100 33.43900
H  25.94100 3.42000 34.66900
H  27.37500 2.65000 34.05700
H  27.92700 1.91500 36.14800
H  26.32100 1.27600 36.31700
H  19.90300 3.26000 29.49000
H  20.38500 2.25100 30.84100
H  19.34500 1.60400 29.50600
H  18.85800 1.38700 27.20300
H  18.94000 2.52700 25.85100
H  19.11400 3.11700 27.43200
H  25.40700 1.40800 24.34300
H  27.81200 -0.36100 24.76100
H  25.85500 -1.45200 23.87000
H  24.79200 -0.43500 23.07900
H  24.27100 -1.23500 24.49400
H  28.79200 2.06500 24.96200
H  27.33700 2.59700 24.08800
H  28.41700 0.50100 22.53400
H  29.73100 1.62800 23.17700
H  28.26800 2.15100 22.22900
H  31.50300 0.39300 28.03100
H  31.40000 -1.22700 28.63000
H  32.03500 0.07200 29.67300
H  29.21100 1.49500 33.62600
H  29.54000 -0.30800 37.39800
H  29.16400 -1.81600 36.49400
H  27.94900 -0.68800 36.88700
Mg 41.26100 9.09500 30.67400
C  42.79800 10.49500 33.42600
C  38.76700 7.92700 32.73600
C  39.65000 8.03500 27.93300
C  44.09200 9.79700 28.62000
N  40.71700 9.31300 32.80100
C  41.54300 9.84700 33.72800
C  40.93200 9.72600 35.17200
C  39.78800 8.72200 34.96500
C  39.80000 8.54200 33.41300
C  39.93900 7.39300 35.76400
C  40.48900 11.12400 35.81000
C  40.07000 11.12100 37.20800
H  41.02300 11.81300 38.24100
N  39.42400 8.24600 30.41200
C  38.59600 7.69500 31.36900
C  37.41600 7.10300 30.71600
C  37.58900 7.33100 29.32500
C  38.91200 7.90300 29.14300
C  36.48700 6.31300 31.53200
C  36.72800 6.87100 28.16000
O  37.01000 6.88300 26.96200
C  35.39200 6.46300 28.52600
N  41.77000 8.92300 28.59400
C  40.92500 8.46400 27.60700
C  41.52000 8.33400 26.22700
C  42.94100 9.06200 26.48700
C  42.97300 9.23200 27.98500
C  41.68400 6.92100 25.70700
C  43.23900 10.37700 25.77000
C  42.24700 11.46500 25.88500
N  43.08200 9.92200 30.92600
C  44.11800 10.18200 30.03600
C  45.05200 10.97300 30.73700
C  44.58900 11.14100 32.07100
C  43.39200 10.44000 32.13200
C  46.20200 11.56300 30.05500
C  45.02500 11.65600 33.32100
O  46.03000 12.25300 33.74400
C  43.84400 11.20000 34.25400
C  44.48200 10.33600 35.34800
O  45.11900 9.30600 35.16600
O  44.08400 10.82700 36.61400
C  44.45100 9.95700 37.72200
H  37.98800 7.59000 33.42300
H  39.09800 7.79700 27.02200
H  44.99500 10.11000 28.09300
H  41.61600 9.25800 35.88000
H  38.78600 9.11500 35.14000
H  40.53800 7.45300 36.67300
H  40.43500 6.76500 35.02300
H  38.88600 7.23200 35.99100
H  39.67700 11.60300 35.26400
H  41.39300 11.71800 35.67500
H  39.93700 10.07900 37.49800
H  39.08100 11.55500 37.35800
H  36.97400 5.99600 32.45400
H  36.26500 5.36600 31.04100
H  35.51000 6.74700 31.74500
H  34.95100 7.05700 29.32600
H  35.53400 5.42100 28.81100
H  34.71800 6.47100 27.66900
H  40.89600 8.87700 25.51800
H  43.78100 8.48700 26.09700
H  41.33700 6.08100 26.30900
H  42.72300 6.74200 25.43000
H  41.09400 6.81100 24.79700
H  43.32500 10.26800 24.68900
H  44.14500 10.72400 26.26700
H  41.48200 11.61500 25.12300
H  42.54100 12.47700 26.16500
H  41.65800 11.12400 26.73700
H  46.34200 12.56200 30.46900
H  46.00900 11.53400 28.98200
H  47.05500 10.91700 30.26200
H  43.47700 12.14200 34.66100
H  44.54700 8.89500 37.49700
H  43.67000 9.94400 38.48300
H  45.36600 10.36800 38.14900

