158

Mg 46.45500 16.68200 28.32300
C  44.35900 15.99300 30.93000
C  48.61000 18.35900 30.44200
C  48.41400 17.40100 25.84400
C  44.25200 14.92200 26.14400
N  46.50900 17.12600 30.42400
C  45.56500 16.56100 31.34100
C  46.00300 16.85900 32.77200
C  47.38800 17.59000 32.55600
C  47.52000 17.74700 31.07000
C  47.56000 18.93200 33.27300
C  46.01300 15.64000 33.78700
C  45.41000 15.94800 35.13400
H  45.23800 17.42900 35.60200
N  48.28700 17.72800 28.15900
C  49.03000 18.37000 29.08800
C  50.19800 18.96300 28.56900
C  50.29500 18.58900 27.19700
C  48.95400 17.90000 26.98900
C  51.22000 19.85200 29.39900
C  51.44200 18.70500 26.19500
O  51.31200 18.30000 25.03400
C  52.72300 19.32200 26.56100
N  46.39000 16.16700 26.27000
C  47.25900 16.73200 25.45900
C  46.99800 16.31400 23.95500
C  45.70000 15.41000 24.01500
C  45.38500 15.50300 25.54200
C  46.77800 17.63200 23.08900
C  45.89500 13.85900 23.63000
C  45.07700 13.29700 22.42600
N  44.66200 15.66800 28.46500
C  43.83100 15.10700 27.49000
C  42.52300 14.73300 28.08000
C  42.71700 15.02700 29.43800
C  43.96600 15.59700 29.63600
C  41.28000 14.25100 27.37700
C  42.13900 15.03000 30.74100
O  40.97400 14.68100 31.03100
C  43.19900 15.52800 31.75300
C  42.53000 16.60900 32.60600
O  42.17900 17.71800 32.29500
O  42.33800 16.09100 33.82900
C  41.48800 16.93700 34.62700
H  49.38000 18.67300 31.15000
H  49.13100 17.66600 25.06500
H  43.49000 14.64600 25.41200
H  45.30500 17.59300 33.17500
H  48.17300 16.87300 32.79500
H  47.66900 19.77100 32.58600
H  48.46700 18.84600 33.87100
H  46.64600 19.07000 33.85100
H  47.03700 15.30600 33.95100
H  45.53600 14.78800 33.30400
H  46.07300 15.55000 35.90300
H  44.44800 15.44200 35.22200
H  50.80400 20.85300 29.51300
H  52.20800 19.92000 28.94500
H  51.39900 19.30500 30.32500
H  53.36300 19.31600 25.67900
H  53.06700 18.70100 27.38800
H  52.52700 20.36200 26.82400
H  47.82100 15.73000 23.54300
H  44.79700 15.68200 23.46900
H  45.72100 17.75000 22.85400
H  47.41000 17.37900 22.23700
H  47.14000 18.47300 23.67900
H  45.71500 13.13900 24.42900
H  46.96500 13.69700 23.50000
H  44.02500 13.48600 22.63900
H  45.25700 12.24600 22.20100
H  45.37100 13.89400 21.56200
H  41.22100 13.16400 27.43800
H  41.24700 14.58200 26.33900
H  40.35700 14.67700 27.77000
H  43.49400 14.64700 32.32200
H  40.55900 16.95300 34.05800
H  41.89000 17.90600 34.92300
H  41.24200 16.42700 35.55900
Mg 9.91400 47.36500 26.13500
C  7.85700 47.60000 29.02000
C  12.49100 48.87300 27.83400
C  11.77900 47.20000 23.35700
C  7.08000 46.52500 24.31200
N  10.15700 48.08600 28.26700
C  9.16400 48.09100 29.25400
C  9.86600 48.61000 30.60800
C  11.09800 49.43400 30.07100
C  11.29800 48.81200 28.61300
C  10.93200 50.98500 30.05300
C  10.32800 47.33900 31.43900
C  10.69400 47.52200 32.95000
H  10.39700 46.43800 34.01400
N  11.93700 47.75900 25.74500
C  12.81000 48.37500 26.60100
C  14.07200 48.56700 25.88200
C  13.83000 48.01000 24.58800
C  12.48400 47.61800 24.49900
C  15.31000 49.18400 26.53300
C  14.84700 47.81300 23.40500
O  14.60900 47.18600 22.32000
C  16.21500 48.30600 23.56000
N  9.52600 46.91700 24.08200
C  10.42200 46.95800 23.14000
C  9.82200 46.57500 21.70700
C  8.31200 46.40100 22.09900
C  8.31100 46.62100 23.58000
C  9.96000 47.69600 20.71900
C  7.58800 45.12300 21.56400
C  6.05700 45.22600 21.25100
N  7.81500 47.12200 26.51100
C  6.79500 46.71700 25.66300
C  5.62500 46.50100 26.45100
C  5.97600 46.82000 27.78800
C  7.28700 47.24100 27.73900
C  4.25100 46.16700 25.80500
C  5.45900 46.96800 29.15200
O  4.35600 46.73800 29.61600
C  6.69300 47.38200 30.05500
C  6.98100 46.21500 30.91500
O  7.36200 45.14600 30.48300
O  6.75000 46.52600 32.23700
C  6.97300 45.44800 33.20000
H  13.25600 49.42500 28.38400
H  12.18400 47.29100 22.34600
H  6.21100 46.20000 23.73500
H  9.21400 49.27100 31.17900
H  12.00700 49.25700 30.64500
H  11.16900 51.48700 29.11500
H  11.59900 51.44400 30.78200
H  10.00100 51.33100 30.50100
H  11.21500 46.99100 30.91000
H  9.65100 46.49400 31.31100
H  10.26900 48.47600 33.26300
H  11.77600 47.62900 33.03100
H  15.12500 49.69200 27.48000
H  15.91200 49.87400 25.94300
H  15.91100 48.32800 26.83900
H  16.28200 49.35000 23.87000
H  16.76100 48.29000 22.61700
H  16.64200 47.63500 24.30600
H  10.16200 45.57600 21.43500
H  7.74900 47.26900 21.75600
H  10.12300 48.62300 21.26900
H  9.07300 47.88100 20.11200
H  10.86100 47.50300 20.13700
H  7.64800 44.38100 22.36000
H  8.13800 44.66500 20.74100
H  5.50300 46.12800 21.51000
H  5.52600 44.44100 21.79000
H  5.91300 44.94800 20.20600
H  4.22300 45.41700 25.01500
H  3.88100 47.14300 25.48900
H  3.72000 45.81100 26.68700
H  6.47100 48.24900 30.67800
H  6.80500 44.42700 32.85800
H  6.28500 45.68600 34.01100
H  7.99100 45.45600 33.58900

