158

Mg 47.43700 34.88000 27.18700
C  45.80100 33.28700 29.83600
C  47.50800 37.66200 29.23700
C  48.59800 36.50900 24.67400
C  46.53700 32.12000 25.08400
N  46.71100 35.36900 29.32200
C  46.32900 34.50500 30.25000
C  46.58000 35.01500 31.71800
C  46.60200 36.52200 31.40000
C  46.97000 36.56000 29.94100
C  45.35400 37.32600 31.75200
C  47.93300 34.39400 32.20400
C  48.12900 34.27400 33.72100
H  47.40100 35.23300 34.69300
N  47.95500 36.81200 26.97100
C  47.99000 37.80700 27.93400
C  48.75400 38.93800 27.43000
C  49.01900 38.65200 26.05300
C  48.47600 37.29300 25.81300
C  48.97200 40.21100 28.24600
C  49.81300 39.48100 25.07600
O  49.99200 39.07800 23.95600
C  50.42900 40.84600 25.42200
N  47.36300 34.47400 25.23700
C  48.07700 35.26400 24.38100
C  48.41600 34.53400 23.06900
C  47.55800 33.21900 23.15400
C  47.10500 33.23500 24.57700
C  48.10000 35.38700 21.77800
C  48.38400 31.90700 22.84900
C  49.33700 31.35600 23.93600
N  46.42400 33.01100 27.40400
C  46.14600 32.01200 26.43200
C  45.45600 30.96900 27.13200
C  45.27400 31.47200 28.38800
C  45.89300 32.67900 28.56400
C  45.09500 29.68700 26.64000
C  44.64800 31.10800 29.59200
O  44.03500 30.17900 29.92300
C  44.84800 32.35000 30.58800
C  45.28100 31.92000 31.94000
O  46.36100 31.51300 32.28300
O  44.24700 31.98900 32.82000
C  44.59200 31.81800 34.24900
H  47.57800 38.52700 29.89900
H  49.17700 36.97000 23.87100
H  46.23600 31.22000 24.54300
H  45.75800 34.63500 32.32400
H  47.38900 37.07500 31.91400
H  45.23500 38.23900 31.16900
H  45.61100 37.61600 32.77100
H  44.35600 36.89300 31.68400
H  48.79100 35.00800 31.93300
H  47.97600 33.37300 31.82400
H  49.19800 34.45500 33.83400
H  48.11300 33.23700 34.05500
H  49.06100 39.98000 29.30700
H  48.14200 40.90700 28.11800
H  49.85400 40.72700 27.86700
H  49.77700 41.53900 25.95400
H  50.54300 41.31100 24.44300
H  51.40600 40.74600 25.89500
H  49.47100 34.26300 23.04100
H  46.69900 33.27500 22.48600
H  49.01700 35.86500 21.43100
H  47.36900 36.16700 21.99100
H  47.64500 34.84500 20.94900
H  48.88500 32.03800 21.89000
H  47.67000 31.13600 22.56000
H  49.13300 30.29800 24.09900
H  49.33700 31.95100 24.84900
H  50.32400 31.30200 23.47700
H  44.07300 29.60700 26.26900
H  45.23900 29.04500 27.50900
H  45.75400 29.48800 25.79500
H  43.89900 32.84700 30.79100
H  45.28900 32.53700 34.68000
H  44.98800 30.81800 34.42500
H  43.65700 31.93800 34.79700
Mg -6.13800 25.71600 25.37200
C  -4.43400 27.10900 28.21400
C  -7.45100 23.54900 27.59400
C  -7.34100 24.12600 22.68100
C  -4.17800 27.72000 23.35800
N  -6.03200 25.44000 27.69600
C  -5.28700 26.12500 28.59400
C  -5.63200 25.80100 29.99600
C  -6.39500 24.41000 29.78900
C  -6.57100 24.40400 28.26200
C  -5.76000 23.16100 30.43300
C  -6.40800 26.85800 30.78900
C  -5.82800 27.23000 32.14400
H  -6.59200 26.41100 33.23200
N  -7.31800 24.12300 25.19800
C  -7.90000 23.42900 26.24300
C  -9.05400 22.70000 25.72500
C  -8.95300 22.76800 24.28500
C  -7.85400 23.72200 23.95000
C  -10.07700 22.04600 26.57400
C  -9.63900 21.95000 23.28000
O  -9.50600 22.04600 22.06400
C  -10.61300 20.84300 23.69500
N  -5.84700 25.90600 23.37300
C  -6.45400 25.12600 22.43500
C  -6.06600 25.53600 20.98500
C  -5.17000 26.79200 21.23700
C  -5.03900 26.80500 22.74500
C  -5.36500 24.44100 20.05000
C  -5.65700 28.16500 20.73000
C  -5.78100 28.52500 19.19900
N  -4.65700 27.17300 25.70400
C  -3.93300 27.88200 24.74600
C  -3.00700 28.76300 25.43600
C  -3.26900 28.58800 26.77800
C  -4.20300 27.60100 26.90300
C  -2.06500 29.78700 24.76700
C  -2.93600 29.06900 28.06600
O  -2.21200 29.95100 28.46300
C  -3.61800 28.09500 29.03800
C  -2.67300 27.35800 29.89000
O  -1.96500 26.46300 29.53900
O  -2.59900 27.85600 31.17900
C  -1.86400 27.24900 32.26500
H  -8.09100 22.96700 28.26000
H  -7.82800 23.58600 21.86600
H  -3.47900 28.35100 22.80600
H  -4.64400 25.58200 30.40200
H  -7.43800 24.36700 30.10200
H  -6.32600 22.92600 31.33400
H  -4.73200 23.27300 30.77900
H  -5.85500 22.30900 29.75900
H  -7.38100 26.40800 30.98800
H  -6.54400 27.74800 30.17500
H  -6.03100 28.29200 32.27800
H  -4.76000 27.05100 32.26800
H  -9.95700 20.96300 26.55200
H  -11.08000 22.27100 26.21300
H  -10.00000 22.32700 27.62400
H  -10.02000 20.07400 24.19000
H  -10.95500 20.34700 22.78600
H  -11.42200 21.17700 24.34500
H  -7.02600 25.84900 20.57300
H  -4.13800 26.75900 20.88700
H  -6.07900 23.92200 19.41000
H  -4.83200 23.90900 20.83700
H  -4.67900 24.85300 19.30900
H  -5.16700 29.04400 21.14900
H  -6.71600 28.19100 20.98500
H  -5.64700 27.62200 18.60300
H  -5.02800 29.27000 18.94100
H  -6.76000 28.94600 18.97000
H  -1.45400 29.29900 24.00800
H  -1.43700 30.04300 25.62000
H  -2.67700 30.53900 24.26900
H  -4.25600 28.77000 29.60900
H  -2.46200 26.75100 33.02800
H  -1.27200 28.01800 32.76100
H  -1.10400 26.55900 31.89800

