158

Mg 0.48400 8.17700 26.67400
C  1.17900 10.16500 29.60000
C  0.17300 5.50900 28.86300
C  0.13600 6.33200 24.12900
C  0.76900 11.01600 24.82500
N  0.55200 7.89100 29.04600
C  0.74600 8.85200 29.98300
C  0.49600 8.37400 31.39400
C  0.44400 6.82900 31.07900
C  0.31800 6.66100 29.57400
C  1.58900 6.03200 31.77400
C  -0.76900 9.00000 32.05800
C  -0.73000 9.27000 33.56900
H  0.45400 8.75100 34.43200
N  0.10800 6.12900 26.57100
C  0.13900 5.15200 27.51600
C  -0.14800 3.81400 26.82400
C  -0.07000 4.07300 25.36900
C  0.08300 5.54000 25.31000
C  -0.44700 2.57700 27.68500
C  -0.21400 3.14200 24.22400
O  -0.12300 3.49400 23.05300
C  -0.63800 1.72600 24.37100
N  0.21400 8.62800 24.73300
C  0.36400 7.64200 23.81900
C  0.60200 8.20500 22.37000
C  0.30000 9.74100 22.61200
C  0.46700 9.83900 24.15300
C  2.02000 7.88000 21.80400
C  -1.11000 10.04200 22.11600
C  -1.52400 11.49600 22.14700
N  0.96300 10.15700 27.04600
C  1.02900 11.22000 26.18100
C  1.57000 12.40400 26.83700
C  1.63000 12.06100 28.17500
C  1.21600 10.66700 28.25300
C  1.93800 13.72800 26.20900
C  2.04100 12.50700 29.48900
O  2.59600 13.51800 29.78300
C  1.63900 11.29800 30.52800
C  2.93000 10.98200 31.30300
O  3.91600 10.39100 30.84000
O  2.75700 11.50400 32.51000
C  3.98100 11.70400 33.34000
H  0.03600 4.69400 29.57700
H  0.22200 5.73400 23.21900
H  0.94700 11.94600 24.28100
H  1.35600 8.59400 32.02700
H  -0.48200 6.46200 31.52400
H  1.12400 5.24700 32.37000
H  2.17600 6.67300 32.43200
H  2.23100 5.58000 31.01700
H  -1.63400 8.35300 31.91700
H  -1.07200 9.90500 31.53100
H  -1.63400 8.78700 33.94100
H  -0.82600 10.34000 33.75200
H  -0.09800 2.67300 28.71300
H  0.12500 1.81800 27.15100
H  -1.50500 2.33300 27.59000
H  -1.55700 1.64500 23.79000
H  -0.75300 1.45900 25.42100
H  0.13900 1.05300 24.00700
H  -0.14100 7.74200 21.72200
H  1.07400 10.33000 22.11900
H  1.76700 7.04300 21.15400
H  2.68800 7.57000 22.60700
H  2.48200 8.74200 21.32300
H  -1.78800 9.38400 22.66000
H  -1.29800 9.64900 21.11700
H  -1.96800 11.85500 21.21800
H  -0.65900 12.13600 22.31900
H  -2.09800 11.73300 23.04300
H  1.06100 14.06700 25.65900
H  2.67300 13.48800 25.44000
H  2.21400 14.44400 26.98300
H  0.84500 11.61100 31.20600
H  4.79500 11.83200 32.62800
H  4.22500 11.03200 34.16300
H  3.90300 12.72900 33.70300
Mg -1.41400 33.90700 26.38500
C  -3.32200 32.50100 28.94600
C  0.08600 35.96000 28.66000
C  0.25900 35.49500 23.74800
C  -2.86700 31.79200 24.15900
N  -1.73100 34.28300 28.59200
C  -2.46800 33.51100 29.47500
C  -2.34800 34.00500 30.88700
C  -1.24400 35.13600 30.75700
C  -0.86200 35.12900 29.25400
C  -1.66400 36.48800 31.38100
C  -1.91200 32.83400 31.85400
C  -1.19500 33.19700 33.09500
H  -1.66200 32.51000 34.39100
N  -0.12200 35.59300 26.22800
C  0.40100 36.24600 27.30800
C  1.24200 37.33000 26.77400
C  1.17200 37.26400 25.32700
C  0.36100 36.09300 25.01300
C  2.08600 38.25600 27.68700
C  1.79900 38.16500 24.32800
O  1.67800 38.08600 23.13100
C  2.53100 39.39900 24.82300
N  -1.16700 33.55400 24.27300
C  -0.44600 34.29100 23.38300
C  -0.71700 33.79000 21.91900
C  -1.55500 32.42100 22.20000
C  -1.82500 32.53700 23.65100
C  -1.46200 34.80000 20.97600
C  -0.76700 31.11300 21.77900
C  0.17800 30.40400 22.75500
N  -2.93100 32.59400 26.46500
C  -3.39200 31.75300 25.46100
C  -4.42300 30.91000 25.95200
C  -4.44000 31.12800 27.35300
C  -3.44500 32.10100 27.61300
C  -5.29300 30.01200 25.13300
C  -5.06100 30.84300 28.57000
O  -6.04100 30.10900 28.78000
C  -4.27200 31.64000 29.74900
C  -5.22600 32.44400 30.54600
O  -5.75800 33.53100 30.28900
O  -5.33600 31.70300 31.70200
C  -6.09000 32.39500 32.77100
H  0.52100 36.68200 29.35400
H  0.50500 36.10900 22.87900
H  -3.37200 31.23100 23.37000
H  -3.33500 34.40200 31.12500
H  -0.37600 34.79500 31.32200
H  -0.78900 36.95700 31.83200
H  -2.51900 36.20200 31.99400
H  -2.05700 37.08300 30.55700
H  -1.31100 32.10300 31.31300
H  -2.82200 32.34800 32.20400
H  -1.35100 34.25800 33.29300
H  -0.14200 32.93800 32.98500
H  3.10400 38.43600 27.34100
H  1.97800 37.81100 28.67600
H  1.62500 39.24200 27.74400
H  1.94000 39.85400 25.61800
H  2.73900 40.14800 24.05900
H  3.46600 39.01700 25.23100
H  0.25000 33.55800 21.47300
H  -2.52100 32.37600 21.69600
H  -1.67900 35.70300 21.54600
H  -2.43400 34.57200 20.53900
H  -0.84200 35.12000 20.13900
H  -0.15800 31.48700 20.95500
H  -1.58600 30.53500 21.35100
H  0.27300 30.84000 23.75000
H  1.20900 30.35200 22.40600
H  -0.11300 29.35600 22.83200
H  -5.32400 29.06700 25.67500
H  -4.82900 29.91600 24.15200
H  -6.32200 30.37200 25.16400
H  -3.69300 31.00000 30.41600
H  -6.76200 31.67500 33.23900
H  -6.62300 33.31500 32.53200
H  -5.35000 32.74600 33.49100

