158

Mg 1.36900 42.07100 24.90000
C  3.42200 42.26300 27.81700
C  -1.24000 41.01800 26.82300
C  -0.37400 41.85300 22.12800
C  4.40700 42.31500 23.07600
N  1.14800 41.74300 27.02400
C  2.06700 42.09700 28.02900
C  1.37600 42.15700 29.35100
C  -0.05600 41.69500 29.02300
C  -0.11000 41.49200 27.55800
C  -0.49500 40.50200 29.81500
C  1.53600 43.57600 30.01400
C  1.50500 43.72100 31.55500
H  1.25700 42.64000 32.57500
N  -0.55900 41.58300 24.47700
C  -1.43700 41.07600 25.43900
C  -2.67200 40.62800 24.76800
C  -2.49300 40.93700 23.38000
C  -1.13900 41.50700 23.26400
C  -3.77200 39.88300 25.40200
C  -3.37000 40.73900 22.22600
O  -2.91300 40.80900 21.06700
C  -4.75400 40.44200 22.46500
N  1.84300 42.05800 22.96800
C  0.95300 42.11100 21.89300
C  1.70500 42.25900 20.54400
C  3.05300 42.70300 21.01400
C  3.11900 42.38900 22.48500
C  1.64200 40.92900 19.66500
C  3.36100 44.26900 20.86000
C  3.25600 44.93000 19.45600
N  3.50500 42.24600 25.32400
C  4.60300 42.31800 24.44600
C  5.85500 42.40200 25.18800
C  5.46700 42.39500 26.50200
C  4.04500 42.29500 26.55100
C  7.14500 42.25400 24.39900
C  5.90100 42.45300 27.85100
O  7.03800 42.46400 28.28400
C  4.62100 42.43800 28.78800
C  4.77600 41.53300 29.96700
O  5.08000 40.31700 29.91600
O  4.72100 42.25800 31.16700
C  4.98800 41.42500 32.35800
H  -2.04800 40.62300 27.44300
H  -0.80300 41.84100 21.12400
H  5.25800 42.43000 22.40200
H  1.79400 41.57600 30.17300
H  -0.74700 42.52200 29.18800
H  -1.52400 40.64100 30.14700
H  0.10100 40.39800 30.72100
H  -0.51100 39.52800 29.32600
H  0.78800 44.27800 29.64600
H  2.45400 43.99100 29.59900
H  0.74900 44.44300 31.86500
H  2.47900 44.12800 31.82700
H  -3.49800 39.51700 26.39100
H  -3.96100 38.97100 24.83600
H  -4.68000 40.48400 25.36000
H  -5.14100 41.21500 23.12800
H  -4.72500 39.42500 22.85800
H  -5.36800 40.44000 21.56500
H  1.28900 43.10200 19.99100
H  3.87300 42.24500 20.46200
H  1.19100 40.99200 18.67500
H  1.21700 40.10500 20.23700
H  2.63500 40.50000 19.53000
H  4.41100 44.32300 21.14900
H  2.85900 44.88500 21.60600
H  2.83500 44.26400 18.70300
H  4.20600 45.16100 18.97400
H  2.78300 45.91200 19.45800
H  7.01800 41.84900 23.39500
H  7.78300 41.63300 25.02700
H  7.74500 43.16300 24.35300
H  4.52600 43.47300 29.11500
H  5.79900 40.70200 32.26600
H  4.11700 40.84800 32.67000
H  5.25000 42.04000 33.21900
Mg -6.05100 24.84400 25.50900
C  -4.57200 26.40500 28.15800
C  -7.89100 22.86000 27.67500
C  -7.59100 23.39600 22.80900
C  -3.80200 26.41600 23.33500
N  -6.19400 24.65500 27.63600
C  -5.57000 25.44700 28.57400
C  -6.09500 25.24200 30.01900
C  -6.93000 23.89100 29.80900
C  -7.13700 23.85400 28.26400
C  -6.26100 22.62800 30.43600
C  -7.02900 26.40500 30.43800
C  -7.15500 26.50200 32.01200
H  -6.66700 25.47100 33.00200
N  -7.64100 23.37400 25.27100
C  -8.17600 22.64600 26.33300
C  -9.21500 21.77400 25.74300
C  -9.10500 21.95300 24.34600
C  -8.12600 22.93600 24.08400
C  -10.10800 20.98400 26.58700
C  -10.00700 21.41500 23.28500
O  -10.10800 21.95800 22.18200
C  -10.90200 20.31400 23.49400
N  -5.92100 24.97300 23.32900
C  -6.60400 24.23800 22.45500
C  -6.12000 24.37200 20.99100
C  -5.08300 25.57200 21.20100
C  -4.88400 25.67700 22.69400
C  -5.43100 23.09500 20.50100
C  -5.50100 26.96900 20.66400
C  -4.86000 27.51000 19.29400
N  -4.51600 26.04900 25.68300
C  -3.77800 26.69700 24.69200
C  -2.82400 27.59100 25.29300
C  -3.13300 27.55800 26.66600
C  -4.13600 26.58000 26.85200
C  -1.88800 28.47600 24.54800
C  -2.82400 28.19000 27.94100
O  -2.02900 29.08200 28.22200
C  -3.80600 27.43900 28.98400
C  -2.88200 26.71400 29.93700
O  -1.85700 26.21500 29.60700
O  -3.29100 26.83200 31.23700
C  -2.46200 26.23200 32.34600
H  -8.18300 22.16500 28.46500
H  -7.91200 22.90800 21.88600
H  -3.17600 26.98300 22.64300
H  -5.23600 25.01000 30.64800
H  -7.91400 24.03400 30.25700
H  -5.74700 22.92200 31.35000
H  -5.63900 22.07000 29.73500
H  -7.20600 22.09600 30.55100
H  -8.06000 26.27100 30.10900
H  -6.60400 27.30800 30.00100
H  -8.23400 26.48700 32.16600
H  -6.75100 27.46200 32.33200
H  -9.68400 19.98100 26.54000
H  -11.15800 21.01700 26.29700
H  -10.15800 21.47100 27.56100
H  -10.32500 19.50000 23.93200
H  -11.25000 20.04800 22.49600
H  -11.70500 20.67700 24.13600
H  -6.92800 24.69400 20.33500
H  -4.07200 25.40400 20.83100
H  -5.58200 22.21300 21.12400
H  -4.36000 23.23600 20.35900
H  -5.88500 22.78000 19.56200
H  -5.25500 27.78500 21.34300
H  -6.57200 26.99300 20.46400
H  -5.69000 27.80400 18.65100
H  -4.34200 26.66400 18.84200
H  -4.10100 28.28600 19.38700
H  -1.29500 29.06800 25.24400
H  -2.44100 29.11800 23.86200
H  -1.23000 27.76600 24.04600
H  -4.43100 28.19900 29.45300
H  -2.07900 25.22400 32.19000
H  -3.07200 26.36000 33.24000
H  -1.61700 26.91000 32.46500

