158

Mg 26.47300 -0.20500 28.81500
C  28.13800 -0.38400 31.87700
C  23.53800 0.53700 30.64200
C  24.67900 -0.26200 25.99000
C  29.32600 -0.83300 27.15700
N  25.91300 -0.01600 31.05200
C  26.81400 -0.05000 32.09600
C  26.14200 0.35900 33.35900
C  24.65400 0.67300 33.01300
C  24.67500 0.34400 31.47700
C  23.61300 -0.15300 33.84700
C  26.80400 1.58000 34.10900
C  26.98300 1.42000 35.63400
H  25.96900 0.61900 36.50300
N  24.39600 0.15200 28.36400
C  23.35800 0.36100 29.25000
C  22.16200 0.51600 28.49300
C  22.43500 0.15300 27.16900
C  23.87600 -0.04100 27.11400
C  20.86200 0.85900 29.13200
C  21.56000 -0.04700 25.98700
O  21.98000 -0.50100 24.95600
C  20.04300 0.28900 26.12400
N  26.96400 -0.48600 26.89000
C  26.08200 -0.41800 25.82900
C  26.75100 -0.59500 24.50100
C  28.28800 -0.53600 24.80300
C  28.21200 -0.65100 26.38200
C  26.37100 -1.83100 23.65900
C  28.86100 0.79600 24.29400
C  30.14800 0.72800 23.48600
N  28.29900 -0.79400 29.39500
C  29.40500 -0.96700 28.56100
C  30.60400 -1.11000 29.39700
C  30.12300 -0.98400 30.74600
C  28.74300 -0.71100 30.67400
C  32.02700 -1.32300 28.91900
C  30.47300 -1.03400 32.16500
O  31.51700 -1.18500 32.75300
C  29.20300 -0.60100 32.99800
C  28.79600 -1.61400 33.97400
O  28.17000 -2.62000 33.74000
O  29.42500 -1.34300 35.22500
C  29.41500 -2.42400 36.26400
H  22.66100 0.88700 31.19100
H  24.24500 -0.50600 25.01800
H  30.29800 -0.75300 26.66600
H  26.23300 -0.44900 34.08500
H  24.51500 1.75300 33.05900
H  23.91100 -0.76100 34.70100
H  23.04600 -0.79800 33.17500
H  22.98000 0.66000 34.20100
H  26.24200 2.51100 34.03700
H  27.79300 1.71600 33.67300
H  27.10100 2.42500 36.03700
H  27.92700 0.90700 35.81500
H  20.93500 1.21100 30.16100
H  20.24100 -0.03600 29.14000
H  20.25500 1.58300 28.58800
H  19.66800 0.19700 25.10500
H  19.96200 1.32000 26.47100
H  19.74500 -0.38400 26.92800
H  26.43200 0.21800 23.85000
H  28.83800 -1.37900 24.38500
H  27.21400 -2.41900 23.29600
H  25.81400 -1.60900 22.74900
H  25.70200 -2.46600 24.24000
H  29.10900 1.35700 25.19500
H  28.11500 1.24300 23.63600
H  31.08800 1.21600 23.74400
H  29.95000 1.13500 22.49400
H  30.40700 -0.30200 23.24500
H  32.71300 -0.93800 29.67400
H  32.15300 -0.94800 27.90300
H  32.22700 -2.39300 28.87500
H  29.56000 0.24400 33.58700
H  29.43600 -3.42900 35.84300
H  28.53800 -2.36900 36.90900
H  30.30000 -2.30500 36.88900
Mg -6.25700 25.86200 26.17600
C  -4.92800 27.35300 29.00300
C  -7.69300 23.45000 28.17600
C  -7.04100 24.13900 23.49000
C  -4.55300 28.18000 24.21900
N  -6.36300 25.49200 28.35800
C  -5.79000 26.31900 29.34000
C  -6.10300 25.72600 30.74400
C  -6.74100 24.34100 30.35400
C  -6.90000 24.40800 28.83500
C  -5.88600 23.01100 30.71800
C  -6.91000 26.76600 31.56700
C  -7.81800 26.31100 32.74600
H  -7.32200 25.32200 33.80800
N  -7.45100 24.22300 25.83600
C  -7.98700 23.32700 26.80500
C  -8.91700 22.46300 26.16200
C  -8.78300 22.55000 24.72700
C  -7.70100 23.62000 24.66200
C  -9.75300 21.57200 26.99100
C  -9.28000 21.70900 23.56000
O  -9.15200 22.00100 22.40800
C  -10.12000 20.50800 23.93400
N  -5.69700 25.99900 24.16500
C  -6.22200 25.22200 23.20400
C  -5.86700 25.63700 21.76600
C  -5.28900 27.10800 22.05000
C  -5.26500 27.17100 23.56100
C  -4.86500 24.60000 21.23200
C  -6.23500 28.14600 21.48400
C  -5.72100 28.77000 20.13400
N  -5.03900 27.46400 26.48500
C  -4.45800 28.31300 25.61000
C  -3.76600 29.38200 26.34900
C  -3.81300 28.95300 27.69500
C  -4.65800 27.81500 27.68500
C  -3.04100 30.52400 25.76500
C  -3.22700 29.14300 28.98900
O  -2.32300 29.82100 29.39400
C  -4.00400 28.09000 29.92000
C  -3.09900 27.14900 30.67400
O  -2.47900 26.16000 30.27400
O  -3.32600 27.44600 31.99600
C  -2.65500 26.49700 32.91500
H  -8.16000 22.59500 28.66800
H  -7.48300 23.78900 22.55500
H  -4.11900 28.98600 23.62200
H  -5.16200 25.43900 31.21200
H  -7.75400 24.36100 30.75500
H  -5.36400 23.12100 31.66800
H  -5.21100 22.63700 29.94700
H  -6.71700 22.33300 30.91200
H  -7.74000 26.90500 30.87400
H  -6.50000 27.76500 31.71200
H  -8.66100 25.83400 32.24600
H  -7.99400 27.23200 33.30200
H  -10.77100 21.59300 26.60300
H  -9.95100 21.93500 28.00000
H  -9.34500 20.56200 26.96500
H  -10.42400 20.01400 23.01100
H  -11.03700 20.94300 24.33400
H  -9.53400 19.78700 24.50500
H  -6.73800 25.56800 21.11400
H  -4.28500 27.06900 21.62900
H  -4.10700 24.33900 21.97100
H  -4.34100 25.11200 20.42500
H  -5.38500 23.76800 20.75800
H  -6.42900 28.90000 22.24700
H  -7.23500 27.77200 21.26700
H  -5.62600 29.85500 20.08100
H  -6.33100 28.43600 19.29500
H  -4.69500 28.43600 19.97500
H  -3.27300 31.36400 26.42000
H  -3.39100 30.77800 24.76500
H  -1.95600 30.47100 25.86200
H  -4.57000 28.74700 30.58000
H  -1.61200 26.69500 33.16400
H  -2.71800 25.48800 32.50800
H  -3.33700 26.46700 33.76500

