158

Mg 24.91000 -5.83700 46.73800
C  27.08500 -3.61200 45.13400
C  22.37000 -4.51600 44.79700
C  23.05000 -8.48600 47.51200
C  27.65900 -7.27000 48.30800
N  24.74700 -4.22200 45.42200
C  25.74300 -3.49700 44.88900
C  25.23000 -2.42300 43.84000
C  23.63900 -2.50100 44.05900
C  23.57400 -3.80000 44.83000
C  23.02600 -1.35000 44.81300
C  25.74200 -2.59200 42.31800
C  26.41000 -1.40500 41.69800
H  25.99900 -0.92800 40.29800
N  22.87800 -6.39900 46.25400
C  22.05200 -5.69500 45.45100
C  20.78600 -6.39700 45.42300
C  20.90100 -7.64700 46.20800
C  22.31200 -7.56400 46.65400
C  19.59700 -5.97900 44.60000
C  19.80600 -8.64700 46.49300
O  18.67700 -8.48500 46.02600
C  20.06600 -9.84500 47.27300
N  25.30600 -7.72500 47.70100
C  24.32200 -8.58500 47.99700
C  24.88100 -9.74400 48.82300
C  26.27600 -9.31900 49.31100
C  26.46300 -8.05800 48.37400
C  23.85200 -10.11200 50.01600
C  27.36500 -10.38700 49.14000
C  27.87300 -10.66400 47.74000
N  27.04800 -5.51200 46.78900
C  28.02100 -6.18100 47.51900
C  29.33600 -5.54100 47.23000
C  29.01800 -4.48400 46.35000
C  27.63800 -4.60100 46.03900
C  30.63400 -6.06600 47.74400
C  29.52600 -3.42600 45.52500
O  30.68600 -3.04300 45.27000
C  28.29000 -2.75700 44.71700
C  28.24700 -1.29500 45.09600
O  27.88300 -0.84200 46.17900
O  28.71000 -0.58000 44.03700
C  28.93800 0.87700 44.25900
H  21.60300 -4.16400 44.10400
H  22.39400 -9.32100 47.76500
H  28.47000 -7.73400 48.87400
H  25.63700 -1.48400 44.21300
H  23.05200 -2.66300 43.15500
H  23.66200 -0.85000 45.54400
H  22.13900 -1.76200 45.29300
H  22.76400 -0.63600 44.03200
H  24.91500 -2.80200 41.64000
H  26.34200 -3.48600 42.14800
H  27.49100 -1.54400 41.66800
H  26.28000 -0.54800 42.35900
H  19.39300 -6.79000 43.90100
H  19.78400 -5.07600 44.01800
H  18.70000 -5.87800 45.21100
H  19.15200 -10.43700 47.32000
H  20.28500 -9.38400 48.23600
H  20.91100 -10.47200 46.98800
H  24.94300 -10.55700 48.10000
H  26.29200 -8.94700 50.33500
H  23.14600 -9.29600 50.16800
H  24.40100 -10.23600 50.94900
H  23.20900 -10.96400 49.79400
H  26.95400 -11.33300 49.49300
H  28.16500 -10.11800 49.82900
H  28.74300 -10.02000 47.60700
H  27.14400 -10.37100 46.98500
H  28.08500 -11.73000 47.66300
H  30.87300 -6.99700 47.22900
H  30.54700 -6.25400 48.81400
H  31.41500 -5.34400 47.50700
H  28.46800 -2.76800 43.64100
H  29.00300 1.04200 45.33500
H  28.02200 1.27700 43.82400
H  29.80900 1.26600 43.73200
Mg 26.93300 51.20700 25.87000
C  25.02300 52.34500 28.55600
C  29.34700 50.30900 28.12100
C  28.73700 50.18800 23.29500
C  24.75800 52.83100 23.74800
N  27.15100 51.33200 28.10700
C  26.20300 51.76600 28.91800
C  26.60300 51.50800 30.41800
C  28.04200 50.92700 30.27500
C  28.22300 50.87500 28.77300
C  29.22200 51.75800 31.01000
C  25.57100 50.57700 31.16500
C  24.91800 51.25800 32.42200
H  24.93700 50.56800 33.83200
N  28.72200 50.25200 25.73700
C  29.62900 50.12900 26.74500
C  30.81400 49.45700 26.21500
C  30.60300 49.23000 24.85100
C  29.32300 49.81300 24.56800
C  31.97000 49.03800 27.18000
C  31.48500 48.60700 23.82300
O  31.13900 48.39000 22.61900
C  32.86300 48.26500 24.12000
N  26.88300 51.59000 23.84200
C  27.64800 50.93600 22.97000
C  27.29600 51.23800 21.49000
C  25.92900 52.00300 21.69100
C  25.87700 52.17100 23.19000
C  28.38500 52.03600 20.75000
C  24.63600 51.26500 21.16900
C  24.10100 51.89000 19.90700
N  25.24100 52.39800 26.06700
C  24.44000 52.97800 25.10000
C  23.31900 53.68700 25.70300
C  23.44100 53.41600 27.11700
C  24.62600 52.67000 27.23100
C  22.22300 54.43000 24.99300
C  22.89600 53.63000 28.44300
O  21.93600 54.22600 28.84700
C  23.97300 52.98100 29.40500
C  24.46700 53.95700 30.34400
O  25.33600 54.75700 30.13000
O  23.71500 53.96600 31.50400
C  23.96400 54.76600 32.69300
H  29.99000 49.93700 28.92200
H  29.35700 49.86700 22.45500
H  23.96400 53.17500 23.08200
H  26.62300 52.49200 30.88700
H  27.99400 49.88900 30.60400
H  29.93800 52.28700 30.38100
H  29.64500 50.93000 31.57900
H  28.80500 52.52500 31.66200
H  26.09000 49.72900 31.61100
H  24.81400 50.17700 30.49100
H  23.85800 51.26900 32.16700
H  25.22100 52.29600 32.55300
H  32.92500 49.44500 26.84600
H  32.19500 47.97300 27.12400
H  31.90300 49.34600 28.22300
H  33.23000 49.23600 24.45300
H  33.43300 47.87200 23.27800
H  33.09600 47.56800 24.92500
H  27.07500 50.33700 20.91800
H  25.94800 52.98500 21.21900
H  28.87000 51.36000 20.04600
H  29.01600 52.52500 21.49200
H  27.92800 52.84000 20.17300
H  23.88700 51.30300 21.96100
H  24.94000 50.23400 20.98400
H  23.02600 51.97600 20.06200
H  24.16500 51.23900 19.03500
H  24.56500 52.82800 19.60100
H  22.31300 54.43500 23.90600
H  22.39000 55.46300 25.29900
H  21.23600 54.08600 25.30300
H  23.58500 52.08200 29.88300
H  24.27500 55.76200 32.37800
H  24.73400 54.38200 33.36300
H  23.02400 54.73400 33.24400

