158

Mg 0.66000 8.44100 27.63000
C  1.66800 10.73300 30.14700
C  0.68900 5.97000 30.03600
C  -0.02600 6.36100 25.15100
C  0.98100 11.12000 25.32600
N  1.12300 8.46700 29.84200
C  1.49600 9.46500 30.68400
C  1.59300 8.95100 32.14300
C  1.66200 7.41100 31.92400
C  1.03500 7.23800 30.53400
C  3.06300 6.76900 31.94000
C  0.31700 9.31200 33.00000
C  0.48400 9.49300 34.53500
H  -0.31200 8.52600 35.44900
N  0.24100 6.43100 27.61600
C  0.25000 5.59100 28.70900
C  -0.30300 4.32700 28.30900
C  -0.41700 4.40000 26.88700
C  -0.06100 5.74300 26.48500
C  -0.65700 3.19400 29.25000
C  -0.87400 3.28800 25.94700
O  -1.01700 3.45900 24.76500
C  -1.15600 2.04000 26.49500
N  0.77100 8.66700 25.52000
C  0.32000 7.67600 24.73300
C  0.07900 8.14800 23.30100
C  0.05200 9.69800 23.45600
C  0.61200 9.87900 24.89700
C  1.12500 7.44200 22.30900
C  -1.38600 10.24600 23.33200
C  -2.01400 10.38800 21.90100
N  1.26900 10.45800 27.61000
C  1.43300 11.44600 26.61600
C  1.77300 12.69700 27.21100
C  1.85600 12.50800 28.54300
C  1.55300 11.10400 28.77000
C  1.79400 13.81900 26.35100
C  2.06800 13.16500 29.81400
O  2.24000 14.36800 30.09000
C  1.78900 12.04900 30.89500
C  2.88300 12.12400 31.90900
O  4.06800 12.00400 31.68700
O  2.31900 12.39600 33.13200
C  3.24900 12.58200 34.29500
H  0.70300 5.15800 30.76600
H  -0.18100 5.62700 24.35700
H  0.78200 11.94500 24.63900
H  2.47000 9.32300 32.67300
H  1.10900 6.86300 32.68700
H  3.79000 7.53600 32.20800
H  3.33300 6.20600 31.04700
H  3.28600 6.09900 32.77000
H  -0.45200 8.55100 32.86600
H  -0.27600 10.16100 32.65700
H  0.26800 10.54200 34.74100
H  1.51500 9.35300 34.85900
H  -1.71500 2.93200 29.24800
H  -0.46400 3.59400 30.24500
H  0.04600 2.36300 29.18100
H  -2.10900 2.10300 27.02100
H  -0.23500 1.76800 27.01000
H  -1.26200 1.25300 25.74900
H  -0.90600 7.79500 22.99700
H  0.70600 10.02000 22.64600
H  1.94000 8.14500 22.13400
H  0.70300 7.20600 21.33200
H  1.39800 6.49800 22.78000
H  -1.42700 11.22400 23.81300
H  -2.06300 9.51400 23.77300
H  -1.31000 10.13100 21.11000
H  -2.36500 11.41500 21.79400
H  -2.91300 9.77400 21.84000
H  0.76900 14.11000 26.12100
H  2.46100 13.62900 25.51000
H  2.20700 14.68700 26.86500
H  0.82000 12.22600 31.36100
H  3.70200 13.56500 34.16700
H  3.98400 11.78200 34.38200
H  2.65500 12.45900 35.20100
Mg -5.44200 25.60600 26.31200
C  -4.54100 27.17500 29.26600
C  -7.48300 23.50200 28.17100
C  -6.17300 23.91500 23.45500
C  -3.37900 27.82400 24.52900
N  -5.89400 25.32200 28.46400
C  -5.38700 26.06400 29.46900
C  -6.01700 25.69700 30.79500
C  -6.61800 24.26500 30.43400
C  -6.76300 24.40800 28.95900
C  -5.74100 22.99600 30.78500
C  -7.08600 26.76500 31.28500
C  -6.90400 27.24800 32.76900
H  -6.45000 26.18800 33.87000
N  -6.64900 23.87000 25.92800
C  -7.47200 23.19600 26.80000
C  -8.31600 22.25900 26.05600
C  -7.79000 22.18600 24.72000
C  -6.85400 23.39000 24.66100
C  -9.40100 21.42900 26.77900
C  -8.00700 21.21800 23.70100
O  -7.49300 21.40700 22.58800
C  -8.73900 19.95700 24.02300
N  -4.84400 25.86900 24.24200
C  -5.26600 24.96500 23.32200
C  -4.63700 25.39900 21.99200
C  -3.94600 26.82200 22.29300
C  -4.03900 26.87300 23.76100
C  -3.80900 24.33300 21.18500
C  -4.66600 28.03900 21.58200
C  -4.02400 28.41400 20.27200
N  -4.20400 27.16100 26.73600
C  -3.41800 27.99200 25.89600
C  -2.67700 28.91900 26.69600
C  -3.19100 28.68500 28.00800
C  -4.02500 27.58600 27.97200
C  -1.65800 29.85800 26.13500
C  -3.07400 29.16700 29.39700
O  -2.42600 30.07900 29.92400
C  -3.95400 28.12900 30.25400
C  -3.12700 27.43500 31.30700
O  -2.13600 26.69800 31.10700
O  -3.54300 27.85300 32.57600
C  -2.78600 27.27700 33.72600
H  -8.09000 22.82000 28.77100
H  -6.31100 23.39200 22.50700
H  -2.73200 28.52500 23.99800
H  -5.20400 25.63800 31.51900
H  -7.64400 24.05600 30.73700
H  -5.62000 22.33600 29.92600
H  -6.21000 22.35500 31.53200
H  -4.76800 23.33400 31.14100
H  -8.08400 26.37300 31.09100
H  -6.96600 27.63800 30.64300
H  -7.89400 27.55800 33.10300
H  -6.20300 28.07900 32.84300
H  -10.16700 21.31800 26.01200
H  -9.86700 21.93000 27.62700
H  -9.05300 20.44300 27.08700
H  -8.48600 19.64500 25.03700
H  -8.46200 19.14900 23.34600
H  -9.80100 20.10300 23.82300
H  -5.53400 25.52600 21.38500
H  -2.90600 26.64900 22.01600
H  -3.93600 23.33200 21.59700
H  -2.73900 24.53900 21.15700
H  -4.06400 24.32500 20.12500
H  -4.47200 28.96200 22.12900
H  -5.72100 27.77100 21.52500
H  -3.29800 29.22300 20.35600
H  -4.76500 28.66600 19.51400
H  -3.42300 27.61700 19.83400
H  -1.44100 29.66000 25.08600
H  -0.69500 30.06000 26.60400
H  -2.10000 30.83900 26.31000
H  -4.83400 28.51700 30.76700
H  -2.46300 26.24800 33.57400
H  -3.49200 27.32100 34.55400
H  -1.86500 27.83800 33.88600

