158

Mg 49.19600 45.79100 42.01500
C  45.83000 46.69600 41.62300
C  48.43400 42.66900 40.73200
C  52.44600 44.97900 42.13100
C  49.86600 49.07600 42.92900
N  47.36800 44.84000 41.20700
C  46.15300 45.40400 41.12500
C  45.09900 44.53400 40.41500
C  45.87400 43.13500 40.49100
C  47.31300 43.52100 40.82200
C  45.30900 41.96700 41.31600
C  44.61400 45.12000 39.10700
C  43.24000 44.66500 38.66900
H  43.28800 44.11300 37.21600
N  50.30800 44.01900 41.54500
C  49.80400 42.79000 41.07500
C  50.88200 41.80600 41.05600
C  52.08100 42.48200 41.46400
C  51.67700 43.86900 41.75700
C  50.71900 40.34500 40.54300
C  53.47300 41.84800 41.32900
O  53.61500 40.60800 41.00700
C  54.73500 42.56500 41.58400
N  50.99600 46.91700 42.34200
C  52.15500 46.31800 42.28500
C  53.24700 47.39100 42.56400
C  52.40000 48.68700 42.84400
C  50.99500 48.23100 42.65400
C  54.39700 47.06700 43.61300
C  52.77500 49.88600 41.93400
C  53.50000 51.00400 42.73900
N  48.11100 47.56800 42.34100
C  48.51600 48.79200 42.73500
C  47.36500 49.71100 42.62400
C  46.27300 48.89700 42.34900
C  46.76900 47.60600 42.08500
C  47.47400 51.19700 43.11000
C  44.87700 48.91600 42.27000
O  44.09600 49.86900 42.45300
C  44.52300 47.48600 41.61700
C  43.36200 46.89600 42.26000
O  43.44900 46.35400 43.35300
O  42.16700 47.10500 41.53000
C  41.08100 46.23200 42.12900
H  48.16800 41.66100 40.40600
H  53.51300 44.75900 42.20300
H  50.16000 50.10600 43.13900
H  44.21400 44.45100 41.04500
H  45.88800 42.72300 39.48200
H  45.96100 41.51500 42.06400
H  44.96000 41.25600 40.56800
H  44.45700 42.45500 41.79000
H  45.43700 44.87700 38.43400
H  44.55800 46.18000 39.35100
H  42.57600 45.52800 38.63200
H  42.85100 43.90600 39.34800
H  51.25200 40.31900 39.59300
H  49.67100 40.11000 40.35900
H  50.97700 39.71600 41.39600
H  54.69600 43.42900 40.92100
H  55.51200 41.84200 41.33700
H  54.82300 42.87700 42.62500
H  53.79000 47.48900 41.62400
H  52.33800 48.93800 43.90300
H  55.36200 47.04400 43.10500
H  54.15800 46.19500 44.22100
H  54.38800 47.83800 44.38300
H  52.00200 50.27400 41.27000
H  53.50900 49.52300 41.21500
H  54.13400 50.60400 43.53000
H  52.75100 51.64200 43.20900
H  54.18200 51.51800 42.06200
H  46.52500 51.28600 43.63900
H  47.67300 51.92300 42.32100
H  48.30700 51.18500 43.81400
H  44.27700 47.80800 40.60500
H  40.62700 46.78800 42.95000
H  41.59100 45.31900 42.43800
H  40.27700 45.87500 41.48500
Mg -1.14200 33.81600 26.69500
C  -2.93600 32.10000 29.44500
C  0.57600 35.46700 28.94200
C  0.24800 35.26700 24.16400
C  -3.60100 32.24600 24.59000
N  -1.45600 33.96300 28.95700
C  -2.08800 33.12900 29.85000
C  -1.73900 33.58900 31.24800
C  -0.67600 34.73600 31.07200
C  -0.54600 34.81700 29.60200
C  -0.91800 36.17800 31.72800
C  -1.13100 32.41000 32.11700
C  -1.59400 32.10400 33.54000
H  -0.73200 32.73700 34.66600
N  0.31600 35.07500 26.54200
C  0.95600 35.61900 27.60500
C  2.05000 36.42000 27.08900
C  1.92100 36.47000 25.67700
C  0.82000 35.58200 25.38300
C  3.05100 37.12500 27.95000
C  2.77400 37.27000 24.66500
O  2.64100 37.06400 23.47100
C  3.73900 38.35800 25.08300
N  -1.66500 33.75800 24.75800
C  -0.92700 34.54000 23.90500
C  -1.66700 34.60200 22.57500
C  -2.85200 33.62900 22.64400
C  -2.70000 33.10100 24.07800
C  -2.12600 36.06700 22.21100
C  -2.91200 32.58700 21.54600
C  -1.78100 31.50800 21.48300
N  -2.90600 32.41400 26.94700
C  -3.66600 31.85000 25.98400
C  -4.45900 30.77400 26.58800
C  -4.24800 30.85500 27.96100
C  -3.29800 31.86400 28.12500
C  -5.47900 29.95000 25.89400
C  -4.57000 30.25400 29.20400
O  -5.12800 29.20300 29.54800
C  -3.83100 31.16800 30.27200
C  -4.88700 31.92200 31.08800
O  -5.53600 32.91000 30.77500
O  -4.97900 31.32500 32.29600
C  -5.93400 31.89100 33.24000
H  1.23600 35.84100 29.72700
H  0.66500 35.66800 23.23800
H  -4.31300 31.75000 23.92700
H  -2.67300 33.80900 31.76500
H  0.33600 34.45000 31.35800
H  -1.62300 35.97100 32.53300
H  -1.28700 36.87500 30.97600
H  0.06900 36.48000 32.07800
H  -0.05300 32.52100 32.23100
H  -1.23200 31.44400 31.62400
H  -1.54200 31.01800 33.62500
H  -2.62200 32.45500 33.61900
H  2.63600 38.11800 28.12400
H  3.99400 37.17700 27.40700
H  3.11400 36.69300 28.94900
H  4.73000 37.90300 25.06700
H  3.42700 38.76500 26.04500
H  3.83500 39.09800 24.28900
H  -1.03200 34.25700 21.75900
H  -3.79600 34.17300 22.59700
H  -3.21300 36.06900 22.12700
H  -1.52500 36.37400 21.35500
H  -1.95900 36.79400 23.00600
H  -2.96500 33.15000 20.61400
H  -3.87600 32.09500 21.67900
H  -2.16800 30.51400 21.71100
H  -0.99500 31.72800 22.20500
H  -1.36200 31.35700 20.48800
H  -5.23500 28.89300 26.00600
H  -5.61800 30.15300 24.83200
H  -6.44500 30.03700 26.39200
H  -3.14500 30.54300 30.84300
H  -5.37400 32.46600 33.97800
H  -6.49900 31.13000 33.77800
H  -6.68900 32.59200 32.88400

