158

Mg 17.50700 -2.20800 27.67800
C  16.29700 -0.15700 30.28300
C  19.25800 -4.05200 30.00800
C  18.76100 -4.06900 25.14900
C  15.86700 -0.11700 25.39700
N  17.79300 -2.01900 29.88900
C  17.13500 -1.17600 30.74100
C  17.73200 -1.36400 32.13000
C  18.58500 -2.63500 32.02900
C  18.55400 -2.97100 30.56600
C  19.99300 -2.35900 32.57400
C  16.53300 -1.47600 33.24200
C  16.62700 -0.41400 34.35800
H  17.99800 0.21200 34.71800
N  18.77800 -3.84900 27.59100
C  19.35500 -4.51600 28.67000
C  20.06500 -5.61600 28.15700
C  20.07900 -5.61400 26.77200
C  19.14900 -4.50800 26.45800
C  20.84200 -6.53300 28.99900
C  20.85900 -6.47200 25.82800
O  20.77700 -6.32100 24.59900
C  21.93200 -7.40500 26.20300
N  17.26900 -2.18300 25.56700
C  17.92900 -2.98800 24.71200
C  17.83600 -2.53600 23.28300
C  16.79400 -1.37800 23.31400
C  16.65000 -1.18400 24.84200
C  19.20400 -2.04700 22.67200
C  15.42800 -1.65300 22.53600
C  15.11200 -0.52700 21.46900
N  16.31200 -0.41400 27.71000
C  15.68400 0.28600 26.72600
C  14.91000 1.38400 27.24900
C  15.08500 1.30300 28.68500
C  15.96000 0.17300 28.86300
C  13.95400 2.28400 26.42300
C  14.73300 1.81700 29.99400
O  13.98600 2.77400 30.31700
C  15.56100 0.97800 31.01800
C  16.57300 1.91500 31.62100
O  17.70500 1.97200 31.22600
O  16.03600 2.78900 32.46400
C  16.87100 3.96300 32.87000
H  19.80000 -4.56900 30.80300
H  19.10000 -4.60700 24.26100
H  15.25900 0.45000 24.68900
H  18.31000 -0.44600 32.24500
H  18.19200 -3.45300 32.63300
H  20.81100 -2.83600 32.03400
H  20.05200 -2.84300 33.54900
H  20.18500 -1.28600 32.59700
H  16.40100 -2.49600 33.60200
H  15.61400 -1.32400 32.67700
H  16.26700 -0.89000 35.27000
H  15.90500 0.30700 33.97400
H  20.73100 -6.34900 30.06800
H  21.88300 -6.23100 28.89100
H  20.62500 -7.58000 28.78700
H  22.08400 -8.14200 25.41400
H  21.65300 -8.06000 27.02800
H  22.83000 -6.86300 26.49700
H  17.48600 -3.36500 22.66800
H  17.32400 -0.52700 22.88700
H  19.71300 -2.82100 22.09700
H  19.83000 -1.90300 23.55200
H  19.05000 -1.18500 22.02200
H  14.67100 -1.40500 23.28000
H  15.35100 -2.61600 22.03200
H  14.47000 0.28000 21.82000
H  14.81400 -1.15900 20.63200
H  16.06800 -0.08600 21.18700
H  14.03800 2.12400 25.34800
H  14.11100 3.31000 26.75400
H  12.97400 1.94800 26.76200
H  14.86000 0.58600 31.75400
H  17.15800 4.58400 32.02200
H  17.72000 3.59600 33.44600
H  16.15500 4.61000 33.37700
Mg 36.80400 49.29400 25.00700
C  36.73600 47.29300 27.84800
C  35.40100 51.85800 26.96700
C  36.13400 51.08300 22.28200
C  37.71800 46.59800 23.12100
N  36.14900 49.45300 27.13700
C  36.23700 48.56200 28.18300
C  36.01400 49.13600 29.53200
C  35.47900 50.56400 29.14000
C  35.65600 50.64100 27.61600
C  34.04600 50.95000 29.60400
C  37.29700 49.23500 30.47200
C  37.00700 48.72000 31.88000
H  35.68500 49.09400 32.54300
N  36.01000 51.27700 24.65200
C  35.54400 52.12800 25.58400
C  35.06300 53.34400 24.88500
C  35.32600 53.17300 23.48100
C  35.81500 51.82300 23.44000
C  34.42700 54.47400 25.61800
C  35.08800 54.17000 22.38200
O  35.35600 53.98600 21.18500
C  34.51500 55.58800 22.65900
N  36.75200 48.83700 22.99900
C  36.56900 49.77500 22.04900
C  37.01300 49.38900 20.67100
C  37.70800 48.00400 20.99000
C  37.37200 47.79900 22.48700
C  35.75400 49.17200 19.75800
C  39.17900 47.88600 20.59300
C  39.62900 46.59700 19.90400
N  37.07000 47.32200 25.32500
C  37.47000 46.32900 24.45700
C  37.65400 45.03800 25.27300
C  37.42800 45.46400 26.55600
C  37.08900 46.79600 26.55500
C  38.13000 43.72200 24.76600
C  37.41300 44.94300 27.91300
O  37.75800 43.88900 28.40000
C  36.93900 46.13600 28.79700
C  35.78000 45.70800 29.62900
O  34.62800 45.48800 29.28500
O  36.21000 45.46400 30.88900
C  35.19100 45.03500 31.80200
H  34.94100 52.62500 27.59400
H  36.25700 51.73400 21.41400
H  38.05900 45.70000 22.60100
H  35.24100 48.53000 30.00500
H  36.08900 51.40200 29.47700
H  34.15200 51.71200 30.37600
H  33.62800 50.03000 30.01200
H  33.45100 51.45700 28.84400
H  37.75000 50.22400 30.55400
H  38.05400 48.58200 30.03800
H  37.85400 49.05300 32.47900
H  37.11900 47.64500 31.74200
H  35.00300 55.39300 25.72900
H  34.36200 54.21400 26.67400
H  33.44200 54.65400 25.18500
H  33.51500 55.38800 23.04500
H  34.36000 56.14500 21.73500
H  35.17400 56.07800 23.37600
H  37.71500 50.15300 20.33800
H  37.13500 47.20400 20.52000
H  34.87300 49.34300 20.37600
H  35.69500 48.18800 19.29200
H  35.88400 50.01500 19.07900
H  39.83700 47.97700 21.45700
H  39.51800 48.64900 19.89300
H  39.86600 46.84500 18.87000
H  38.95400 45.74100 19.90000
H  40.54200 46.26600 20.39900
H  37.35400 43.15700 24.25000
H  38.47400 43.14500 25.62500
H  38.97100 43.80200 24.07800
H  37.76800 46.14100 29.50400
H  35.59500 44.83300 32.79400
H  34.82800 44.14300 31.29000
H  34.51000 45.87900 31.91200

