158

Mg -11.84900 15.65300 42.03300
C  -8.92400 13.81800 41.94400
C  -10.13900 18.29000 40.69100
C  -14.78700 17.23300 40.94800
C  -13.64500 12.76100 42.74100
N  -9.73600 15.97300 41.37900
C  -8.70600 15.09900 41.49000
C  -7.44900 15.63100 40.86600
C  -7.82600 17.12400 40.82000
C  -9.31100 17.16700 40.97000
C  -7.08100 17.97600 41.88600
C  -7.24300 14.93200 39.46200
C  -5.87400 14.38500 39.16400
H  -5.08800 14.80900 38.00700
N  -12.37400 17.50500 41.10500
C  -11.50100 18.44300 40.73100
C  -12.17100 19.63100 40.20600
C  -13.54500 19.26700 40.06000
C  -13.62600 17.92500 40.69500
C  -11.41000 20.89600 39.84600
C  -14.54100 19.94400 39.18000
O  -14.34500 21.02400 38.61600
C  -15.80800 19.13200 38.76800
N  -13.93300 15.11700 41.90000
C  -15.01800 15.94900 41.51700
C  -16.35200 15.17800 41.51100
C  -15.92100 13.76300 41.98300
C  -14.37500 13.86400 42.18400
C  -17.45900 15.84100 42.39100
C  -16.36600 12.60600 41.10700
C  -17.84200 12.14500 41.42700
N  -11.44500 13.67900 42.49000
C  -12.23600 12.60900 42.82900
C  -11.41800 11.49500 43.10500
C  -10.09700 11.87100 42.71000
C  -10.15700 13.25200 42.33400
C  -11.93900 10.07200 43.54100
C  -8.66300 11.46600 42.72900
O  -8.10300 10.53000 43.18400
C  -7.87600 12.71100 42.13600
C  -6.80100 13.12300 43.02600
O  -6.97000 13.40600 44.21000
O  -5.60400 13.28700 42.38200
C  -4.62000 14.15200 43.11400
H  -9.61000 19.21800 40.46300
H  -15.70300 17.78300 40.72100
H  -14.24300 11.86900 42.94200
H  -6.61700 15.48200 41.55500
H  -7.61900 17.56200 39.84300
H  -6.42600 17.38900 42.53000
H  -7.86000 18.54400 42.39500
H  -6.44200 18.70600 41.38900
H  -7.42600 15.57900 38.60400
H  -8.01400 14.16400 39.39100
H  -5.84600 13.30100 39.06200
H  -5.19100 14.60400 39.98500
H  -12.02600 21.76600 39.62000
H  -10.75300 20.77700 38.98500
H  -10.69000 21.21800 40.59900
H  -15.57800 18.08800 38.55000
H  -15.90700 19.44500 37.72800
H  -16.70300 19.42500 39.31700
H  -16.73500 15.12700 40.49200
H  -16.29600 13.53000 42.97900
H  -18.37200 15.82000 41.79600
H  -17.12600 16.82600 42.71700
H  -17.64200 15.27000 43.30100
H  -15.87100 11.67800 41.39300
H  -16.26300 12.79400 40.03800
H  -17.87300 11.51000 42.31300
H  -18.45000 11.67800 40.65200
H  -18.33600 13.06500 41.73800
H  -11.90500 9.32200 42.75200
H  -12.97800 10.16000 43.86000
H  -11.31000 9.79200 44.38600
H  -7.55800 12.31500 41.17200
H  -3.83200 13.55100 43.56800
H  -4.98600 14.88900 43.82800
H  -4.01700 14.64700 42.35200
Mg -5.89900 25.17400 26.38400
C  -4.61100 26.64500 29.38700
C  -7.66500 23.08200 28.55800
C  -6.60700 23.49400 23.65400
C  -3.93400 27.42300 24.55800
N  -6.14000 24.96200 28.75800
C  -5.53200 25.69500 29.71400
C  -6.02500 25.28200 31.12000
C  -6.70200 23.94300 30.77100
C  -6.97800 24.00400 29.31600
C  -5.85900 22.65000 31.14300
C  -6.88900 26.40200 31.68600
C  -7.27700 26.51300 33.17600
H  -6.81000 25.52700 34.26400
N  -7.16200 23.62100 26.08700
C  -7.78900 22.86400 27.06100
C  -8.73200 21.95000 26.33200
C  -8.34700 21.96000 25.02900
C  -7.31600 23.04900 24.87400
C  -9.78200 21.00200 27.06200
C  -8.86200 21.12500 23.89900
O  -8.45500 21.33400 22.78900
C  -9.94000 20.07500 24.03700
N  -5.20100 25.30400 24.45600
C  -5.67800 24.47100 23.45900
C  -5.05000 24.89300 22.08700
C  -4.50300 26.26200 22.37600
C  -4.51300 26.32900 23.92400
C  -4.27700 23.72000 21.39300
C  -5.46100 27.37800 21.76200
C  -5.21100 27.81800 20.27600
N  -4.50300 26.75700 26.86400
C  -3.79100 27.56100 25.98200
C  -2.89000 28.45300 26.72700
C  -3.20400 28.17800 28.08200
C  -4.17100 27.11300 28.09300
C  -1.82500 29.44300 26.15500
C  -2.81700 28.48100 29.46800
O  -1.91300 29.20300 29.93800
C  -3.82400 27.64100 30.37500
C  -3.00900 26.97400 31.39900
O  -2.16400 26.09100 31.26700
O  -3.42400 27.42100 32.62100
C  -2.96700 26.78800 33.78700
H  -8.19000 22.28700 29.09200
H  -6.73000 22.84900 22.78200
H  -3.38700 28.19600 24.01500
H  -5.13400 25.14300 31.73200
H  -7.64400 23.82700 31.30600
H  -5.65000 22.13800 30.20400
H  -6.48300 22.13700 31.87500
H  -4.91800 22.87400 31.64400
H  -7.76200 26.33800 31.03700
H  -6.38100 27.34700 31.49200
H  -8.36100 26.45100 33.27000
H  -6.97000 27.51900 33.46200
H  -10.80100 21.29600 26.81000
H  -9.74500 21.08900 28.14800
H  -9.69800 19.94300 26.81900
H  -9.47300 19.37000 24.72500
H  -10.13700 19.52400 23.11800
H  -10.81500 20.59300 24.43100
H  -5.91400 24.99200 21.43000
H  -3.49700 26.36600 21.97000
H  -3.21300 23.95700 21.40300
H  -4.68800 23.45300 20.42000
H  -4.37800 22.85000 22.04100
H  -5.41000 28.31700 22.31300
H  -6.50000 27.05800 21.84900
H  -4.67400 27.01400 19.77200
H  -4.49700 28.63200 20.39500
H  -6.10400 28.03400 19.68900
H  -1.43600 28.86200 25.31900
H  -1.01800 29.63000 26.86400
H  -2.25000 30.39600 25.83900
H  -4.43700 28.40400 30.85400
H  -1.90400 27.02700 33.79300
H  -3.08400 25.70800 33.69500
H  -3.38300 27.18000 34.71500

