158

Mg 1.97200 -1.13500 44.85400
C  5.45700 -0.45500 44.05800
C  1.22300 1.48600 42.63200
C  -1.21400 -1.95500 45.15600
C  3.08200 -4.03100 46.41800
N  3.24600 0.37700 43.55000
C  4.60600 0.39500 43.34900
C  5.00500 1.73700 42.54700
C  3.60700 2.28600 42.07900
C  2.57900 1.26000 42.74100
C  3.23800 3.70600 42.55500
C  5.86600 1.45200 41.28100
C  6.94400 2.50400 40.98300
H  6.47700 3.62800 40.12200
N  0.14700 -0.26800 44.09700
C  0.07300 0.81900 43.25200
C  -1.29100 1.09400 43.08900
C  -2.10100 0.18400 43.82200
C  -1.10000 -0.72100 44.44800
C  -1.79400 2.30400 42.27500
C  -3.60200 0.21700 44.01100
O  -4.33700 1.02500 43.39400
C  -4.26500 -0.63100 45.04600
N  1.01800 -2.81300 45.45900
C  -0.27500 -2.87900 45.59400
C  -0.66500 -4.22600 46.25200
C  0.68800 -4.82200 46.71500
C  1.68500 -3.80400 46.19400
C  -1.77400 -4.07600 47.40100
C  0.86600 -6.28700 46.29000
C  1.12700 -7.34400 47.37200
N  3.80600 -2.07300 45.23900
C  4.07900 -3.22200 45.96200
C  5.53300 -3.41400 46.04100
C  6.07100 -2.34300 45.35300
C  4.99700 -1.58200 44.79300
C  6.30000 -4.44200 46.81100
C  7.40300 -1.82700 44.88500
O  8.57200 -2.15900 45.07400
C  6.96900 -0.55200 44.05400
C  7.54300 0.60800 44.90100
O  7.12600 0.94500 45.97300
O  8.58500 1.27500 44.23300
C  9.18800 2.49300 44.87200
H  1.02600 2.38500 42.04400
H  -2.26400 -2.22900 45.27800
H  3.45800 -4.89300 46.97400
H  5.60000 2.37800 43.19700
H  3.50800 2.28800 40.99300
H  4.04600 4.23600 43.05900
H  2.32000 3.71100 43.14200
H  3.05500 4.39400 41.73000
H  5.26400 1.26400 40.39200
H  6.31800 0.46700 41.40100
H  7.61900 1.88500 40.39200
H  7.39300 2.85100 41.91300
H  -1.37100 1.99900 41.31700
H  -1.32300 3.22000 42.63000
H  -2.86400 2.50600 42.23200
H  -5.29300 -0.29000 45.17000
H  -3.68800 -0.56400 45.96800
H  -4.34300 -1.65300 44.67700
H  -0.99700 -4.87900 45.44500
H  0.80500 -4.87800 47.79800
H  -2.03600 -3.02000 47.46200
H  -1.53100 -4.53500 48.36000
H  -2.62500 -4.69100 47.11000
H  1.67800 -6.28400 45.56200
H  -0.04000 -6.70200 45.84800
H  0.18900 -7.82500 47.65000
H  1.76000 -6.96600 48.17400
H  1.83500 -8.08300 46.99600
H  6.09600 -5.42100 46.37700
H  6.02500 -4.42300 47.86600
H  7.37500 -4.36400 46.64700
H  7.42800 -0.64000 43.06900
H  9.02600 3.36400 44.23600
H  10.25200 2.26400 44.92900
H  8.83300 2.61300 45.89500
Mg 6.46200 54.06300 41.50100
C  5.94400 50.53600 41.16400
C  9.71500 53.43800 40.40300
C  6.93300 57.42100 41.12700
C  3.24100 54.45800 42.37600
N  7.66400 52.15600 40.84000
C  7.24500 50.86000 40.70700
C  8.35500 49.99200 40.21700
C  9.58700 50.84300 40.53100
C  8.98300 52.28100 40.57300
C  10.39300 50.66800 41.83000
C  8.34600 49.56000 38.73600
C  7.81500 50.56100 37.73300
H  6.81600 50.10900 36.63000
N  8.08500 55.25400 40.80400
C  9.31300 54.78000 40.45100
C  10.16900 55.94800 40.27600
C  9.45300 57.15100 40.53000
C  8.05700 56.64600 40.74000
C  11.73800 55.88100 40.06100
C  9.92300 58.54400 40.41800
O  11.14300 58.68300 40.21500
C  9.01600 59.66900 40.50000
N  5.26700 55.71900 41.62000
C  5.65800 56.97200 41.54900
C  4.59500 57.95800 41.99800
C  3.41000 56.98000 42.26400
C  3.99800 55.60000 42.10900
C  5.07800 58.91100 43.14300
C  2.05500 57.18600 41.45500
C  2.05800 56.45900 40.04500
N  4.87400 52.75900 41.71500
C  3.57100 53.09000 42.10600
C  2.78100 51.93900 42.31900
C  3.68400 50.86200 41.94000
C  4.93100 51.43700 41.58800
C  1.45800 51.76900 42.92800
C  3.79800 49.40900 41.83600
O  3.00800 48.55600 42.12400
C  5.29000 49.19100 41.43200
C  5.37200 48.40400 40.15900
O  5.12500 48.84300 39.03600
O  5.72800 47.15300 40.51900
C  5.61900 46.15500 39.39400
H  10.79400 53.35300 40.26000
H  6.99600 58.51100 41.08800
H  2.22200 54.67500 42.70400
H  8.33800 49.03400 40.73600
H  10.35300 50.78400 39.75800
H  9.87700 50.00100 42.52000
H  10.53000 51.63800 42.30800
H  11.39000 50.25000 41.68700
H  7.88200 48.57600 38.80300
H  9.41500 49.47300 38.53900
H  8.71100 50.86100 37.18900
H  7.44000 51.46700 38.20900
H  12.00500 56.41000 39.14700
H  12.17000 54.89700 39.87600
H  12.14600 56.21100 41.01600
H  9.49200 60.59200 40.16800
H  8.73300 59.87700 41.53200
H  8.16600 59.46500 39.84900
H  4.37500 58.64000 41.17600
H  3.23800 57.07100 43.33600
H  5.99700 58.53600 43.59300
H  4.19800 59.02000 43.77700
H  5.36400 59.88900 42.75700
H  1.94900 58.25500 41.27000
H  1.12100 56.97900 41.97800
H  2.29600 57.09300 39.19000
H  1.06100 56.08600 39.81400
H  2.66100 55.55200 39.99300
H  1.51800 51.44100 43.96500
H  0.80500 51.04100 42.44700
H  0.84300 52.66600 42.85000
H  5.90100 48.65600 42.15900
H  5.86300 45.16400 39.77800
H  6.29700 46.38200 38.57100
H  4.59200 46.11300 39.03200

