158

Mg 41.09700 8.94500 29.39800
C  43.32800 10.17200 31.82300
C  38.98400 7.90800 32.08500
C  39.12100 7.51100 27.23900
C  43.64000 9.43800 26.98200
N  41.22900 8.97900 31.69000
C  42.18600 9.57900 32.44800
C  41.77000 9.64300 33.98500
C  40.55500 8.68400 34.02700
C  40.20900 8.51600 32.49900
C  40.79000 7.29500 34.77800
C  41.69200 11.06600 34.60500
C  40.96300 11.10200 35.93600
H  41.56100 11.83600 37.17400
N  39.32000 7.89400 29.60900
C  38.57000 7.61300 30.73200
C  37.35400 6.85500 30.30700
C  37.26200 6.96000 28.89100
C  38.62900 7.49200 28.53300
C  36.33900 6.27100 31.37300
C  36.12300 6.77700 28.00700
O  36.11700 6.78200 26.77500
C  34.69200 6.51500 28.63500
N  41.31700 8.48600 27.42600
C  40.30200 7.96700 26.62000
C  40.64700 7.91000 25.12700
C  41.97700 8.73100 25.15100
C  42.36300 8.85400 26.58500
C  40.76500 6.45300 24.69500
C  41.92400 10.07300 24.56000
C  42.96700 10.63400 23.73400
N  43.10000 9.72300 29.33700
C  44.02700 9.84600 28.31400
C  45.19900 10.46400 28.80000
C  44.99800 10.67200 30.15600
C  43.69400 10.10400 30.45300
C  46.48500 10.97100 28.06200
C  45.44800 11.24700 31.32700
O  46.45200 11.96300 31.51600
C  44.43100 10.90300 32.51900
C  45.10200 10.17100 33.52800
O  45.24900 8.97100 33.52500
O  45.36500 10.96600 34.58300
C  45.84000 10.30800 35.74600
H  38.25000 7.65400 32.85200
H  38.48300 7.18000 26.41700
H  44.20400 9.49100 26.04900
H  42.62400 9.08300 34.36600
H  39.72100 9.16100 34.54100
H  41.75600 7.23400 35.28000
H  40.77400 6.45200 34.08700
H  39.96500 7.07300 35.45400
H  40.97500 11.63600 34.01600
H  42.67100 11.54500 34.62400
H  40.75000 10.08900 36.27600
H  39.98900 11.58700 35.86800
H  36.64200 6.26100 32.42000
H  36.11600 5.23200 31.13000
H  35.33800 6.66700 31.20200
H  34.32200 7.45800 29.03700
H  34.57400 5.75300 29.40500
H  34.02900 6.20000 27.82800
H  39.94200 8.53000 24.57300
H  42.62400 8.08400 24.55700
H  39.75100 6.14500 24.43800
H  41.15300 5.89800 25.55000
H  41.34000 6.22700 23.79800
H  41.52100 10.79800 25.26800
H  41.10200 9.91300 23.86300
H  42.61600 10.70300 22.70400
H  43.90000 10.07100 23.77400
H  43.03400 11.67600 24.04400
H  46.72300 12.01000 28.28800
H  46.40300 10.95500 26.97600
H  47.27300 10.29600 28.39700
H  44.20900 11.90300 32.89100
H  45.01800 9.76100 36.20900
H  46.14100 10.92300 36.59400
H  46.67700 9.64400 35.53000
Mg 36.54200 49.06900 26.30800
C  36.38000 46.98500 29.22000
C  35.61900 51.64000 28.29200
C  35.89000 50.76000 23.48900
C  36.91000 46.09500 24.39000
N  36.17500 49.22800 28.44000
C  36.27800 48.33700 29.44800
C  36.18900 48.94700 30.84700
C  35.53100 50.34800 30.56600
C  35.75100 50.44000 28.94000
C  33.97400 50.47500 30.85900
C  37.47100 49.12300 31.65600
C  37.36400 48.72500 33.13100
H  37.21600 49.83100 34.13600
N  36.04800 51.01100 25.95600
C  35.70500 51.94900 26.90900
C  35.63100 53.28600 26.24700
C  35.70200 53.06200 24.82000
C  35.88900 51.55400 24.69600
C  35.45300 54.57200 26.96700
C  35.53700 54.00300 23.63800
O  35.74500 53.64300 22.46500
C  35.22600 55.40200 23.94500
N  36.35900 48.58200 24.23500
C  36.17300 49.43600 23.25500
C  36.26900 48.84600 21.85600
C  36.87900 47.38000 22.17700
C  36.73100 47.34500 23.69900
C  34.80400 48.79800 21.11000
C  38.37300 47.13500 21.70800
C  38.62500 45.86600 20.94200
N  36.61700 46.98600 26.65100
C  36.79100 45.93100 25.78200
C  36.83000 44.67900 26.53700
C  36.63100 45.04400 27.87000
C  36.53700 46.44500 27.92300
C  37.01800 43.26800 25.96300
C  36.41700 44.51100 29.22000
O  36.35200 43.37000 29.66500
C  36.43400 45.80100 30.10900
C  35.19300 45.74800 30.94700
O  34.07000 45.72700 30.56200
O  35.61400 45.80600 32.31400
C  34.52400 45.95200 33.29500
H  35.28100 52.52100 28.84200
H  35.54200 51.38900 22.66600
H  37.10000 45.21500 23.77200
H  35.45200 48.39500 31.43000
H  36.08600 51.17300 31.01200
H  33.48900 49.50400 30.96200
H  33.53600 51.11000 30.08900
H  33.76600 51.04800 31.76300
H  37.83100 50.15100 31.63500
H  38.23700 48.49900 31.19600
H  38.18300 48.05000 33.38200
H  36.49400 48.07100 33.18500
H  34.52500 54.91100 26.50800
H  36.22500 55.32700 26.82000
H  35.37900 54.44600 28.04700
H  35.17100 55.90400 22.97900
H  35.99600 55.89100 24.54200
H  34.29800 55.36300 24.51600
H  36.92400 49.51600 21.29900
H  36.26000 46.57300 21.78600
H  34.05600 49.16800 21.81100
H  34.44900 47.80900 20.81900
H  34.80500 49.45800 20.24300
H  39.00600 47.16400 22.59500
H  38.65200 48.02800 21.14800
H  37.80900 45.15300 21.05500
H  39.55300 45.41600 21.29500
H  38.71300 46.15300 19.89400
H  38.09000 43.23100 25.77100
H  36.45400 43.14800 25.03800
H  36.63600 42.45900 26.58500
H  37.42000 45.80400 30.57400
H  33.57000 45.90700 32.77000
H  34.70600 46.77000 33.99200
H  34.61700 45.04100 33.88600

