158

Mg -1.74100 16.77900 26.25100
C  -2.46600 14.34300 28.66400
C  -2.49000 19.19700 28.38400
C  -1.82700 18.92900 23.56400
C  -1.19100 14.09400 23.97200
N  -2.65600 16.70800 28.23400
C  -2.62600 15.67400 29.13100
C  -2.71500 16.21700 30.58700
C  -2.88100 17.76100 30.38700
C  -2.75800 17.89400 28.86400
C  -4.01500 18.46500 30.99100
C  -1.52800 15.79000 31.55000
C  -1.20000 16.64200 32.79100
H  -0.86200 15.76200 34.06400
N  -2.02700 18.77300 25.97500
C  -2.33100 19.63600 26.98700
C  -2.34500 21.02000 26.54000
C  -2.10800 20.91700 25.11100
C  -1.99700 19.54000 24.81900
C  -2.49700 22.19200 27.56800
C  -1.95900 21.97100 24.15100
O  -1.95000 21.74200 22.92900
C  -1.79600 23.32000 24.59400
N  -1.66000 16.51900 24.03000
C  -1.65400 17.58000 23.17600
C  -1.35800 17.20300 21.75000
C  -0.97400 15.65900 21.93300
C  -1.17200 15.37500 23.45700
C  -2.52900 17.48500 20.79600
C  0.49200 15.31700 21.59300
C  1.59300 15.73500 22.59700
N  -1.85200 14.62400 26.22700
C  -1.57900 13.74200 25.28000
C  -1.79600 12.40600 25.72000
C  -2.07200 12.56100 27.09600
C  -2.10800 13.96500 27.36500
C  -1.69700 11.12400 24.84400
C  -2.39900 11.86800 28.33500
O  -2.52600 10.67500 28.60100
C  -2.48300 12.96800 29.45000
C  -1.19800 12.75900 30.20000
O  -0.08600 13.02000 29.80800
O  -1.54700 12.23400 31.41900
C  -0.38000 11.97700 32.28200
H  -2.59200 20.00100 29.11700
H  -1.71900 19.51100 22.64700
H  -0.91100 13.31800 23.25700
H  -3.66500 15.75000 30.84700
H  -2.09800 18.40700 30.78400
H  -3.77000 19.17700 31.77900
H  -4.75500 17.78700 31.41800
H  -4.49100 19.13500 30.27600
H  -0.57200 15.73700 31.02900
H  -1.78600 14.82400 31.98300
H  -1.94400 17.39000 33.06600
H  -0.23400 17.07600 32.53400
H  -2.93300 21.84800 28.50600
H  -3.04800 23.04100 27.16300
H  -1.51100 22.51100 27.90600
H  -1.37500 23.87200 23.75300
H  -1.07500 23.36400 25.40900
H  -2.72200 23.78300 24.93400
H  -0.50900 17.81200 21.44100
H  -1.67600 15.02700 21.38800
H  -3.34200 17.88800 21.39900
H  -2.89300 16.58800 20.29600
H  -2.21000 18.18700 20.02600
H  0.76300 15.80000 20.65400
H  0.61200 14.25100 21.39600
H  2.01800 14.85000 23.07200
H  1.29800 16.42300 23.38900
H  2.39300 16.24100 22.05800
H  -2.62800 10.72600 24.44000
H  -1.15700 10.43600 25.49400
H  -1.05700 11.28700 23.97600
H  -3.32800 12.96600 30.13900
H  -0.87600 11.61100 33.18100
H  0.27700 12.84700 32.28300
H  0.14800 11.07300 31.97900
Mg 40.20400 9.31100 28.75700
C  42.13300 10.66800 31.37300
C  37.89100 8.35300 31.28200
C  38.49300 7.96700 26.38500
C  42.76400 10.19700 26.52800
N  39.99700 9.71900 31.10100
C  40.91600 10.31100 31.91000
C  40.55600 10.14400 33.38800
C  39.30800 9.18100 33.30500
C  39.02200 9.14000 31.76300
C  39.58800 7.78100 33.97600
C  40.25600 11.53100 34.11200
C  39.81500 11.30300 35.57000
H  40.80100 11.56300 36.66400
N  38.43700 8.30900 28.80600
C  37.67600 8.01300 29.88800
C  36.57900 7.13400 29.50300
C  36.70000 6.99200 28.07800
C  37.91300 7.76600 27.67300
C  35.65700 6.46200 30.46700
C  35.86200 6.15700 27.07400
O  36.07900 6.04700 25.89100
C  34.64300 5.47200 27.50300
N  40.63300 8.94500 26.72100
C  39.74000 8.47800 25.93500
C  40.01100 8.69600 24.43800
C  41.35500 9.47400 24.55500
C  41.61300 9.52700 26.01200
C  40.03200 7.48200 23.54500
C  41.40800 10.83200 23.80400
C  41.02200 12.16700 24.49800
N  42.09300 10.12000 28.84500
C  42.97800 10.47600 27.90700
C  44.16600 11.12300 28.49300
C  43.90400 11.20100 29.87200
C  42.59900 10.68100 29.99400
C  45.38700 11.46800 27.75200
C  44.42800 11.57800 31.08100
O  45.50600 12.00500 31.42200
C  43.35600 11.21500 32.11600
C  43.91400 10.29000 33.23100
O  43.97800 9.04600 33.15700
O  44.17900 10.94400 34.40100
C  44.58700 10.19300 35.54700
H  37.27700 7.84200 32.02700
H  37.83100 7.65800 25.57500
H  43.53000 10.57900 25.85000
H  41.48800 9.78400 33.82400
H  38.39800 9.60700 33.72900
H  38.99100 7.76000 34.88800
H  40.65300 7.72900 34.19900
H  39.29500 6.94500 33.34100
H  39.47400 12.06600 33.57300
H  41.15200 12.15100 34.07800
H  39.57300 10.24400 35.65500
H  38.95700 11.90100 35.87900
H  36.15300 5.61200 30.93500
H  34.77000 5.95700 30.08500
H  35.27700 7.14400 31.22700
H  34.03800 5.09100 26.68000
H  34.05500 6.08500 28.18500
H  34.88000 4.57500 28.07500
H  39.21800 9.39600 24.17700
H  42.22500 9.00700 24.09500
H  40.68200 7.60600 22.67900
H  39.03200 7.44700 23.11200
H  40.18900 6.56600 24.11500
H  41.01200 10.69900 22.79800
H  42.48300 10.89900 23.63600
H  40.90000 11.92400 25.55300
H  40.21400 12.60000 23.90700
H  41.87000 12.85200 24.50100
H  45.59800 12.53600 27.81100
H  45.33900 11.19500 26.69700
H  46.08600 10.87400 28.33900
H  43.15400 12.11700 32.69400
H  45.43100 10.72200 35.98800
H  44.78800 9.14200 35.33800
H  43.83000 10.18200 36.33100

