158

Mg 41.00400 40.93900 26.13400
C  40.43700 43.27600 28.87300
C  42.39000 38.89000 28.40200
C  41.75700 38.93000 23.60400
C  40.30800 43.60400 23.94200
N  41.42300 41.19100 28.35300
C  40.94400 42.08200 29.27600
C  41.06300 41.58600 30.67500
C  41.63600 40.17100 30.47700
C  41.80000 40.04700 28.97400
C  42.86200 39.90200 31.38000
C  39.69700 41.59900 31.45000
C  39.65100 42.32900 32.84200
H  38.83500 41.75300 34.03500
N  41.90600 39.12800 26.05000
C  42.36000 38.37800 27.06500
C  42.86800 37.07500 26.62200
C  42.55700 37.06900 25.21200
C  41.98600 38.41500 24.85600
C  43.51300 36.06700 27.57800
C  42.77700 35.89800 24.27300
O  42.38600 35.81900 23.12600
C  43.49400 34.71700 24.78600
N  41.17700 41.27500 24.07400
C  41.35300 40.22900 23.20000
C  41.00900 40.58200 21.75900
C  40.37900 42.00200 21.97400
C  40.67800 42.37800 23.42000
C  42.28300 40.53000 20.81400
C  38.84900 42.26300 21.61900
C  37.81500 41.81700 22.63000
N  40.55600 43.00800 26.26200
C  40.26200 43.94700 25.32800
C  39.86300 45.27100 25.93600
C  39.85300 44.99200 27.29500
C  40.38200 43.66000 27.50300
C  39.59900 46.56100 25.21500
C  39.64500 45.65800 28.59200
O  39.29400 46.78400 28.94000
C  40.08200 44.48100 29.71300
C  41.18800 44.99800 30.56200
O  42.34900 45.24500 30.17700
O  40.80000 45.06800 31.88100
C  41.79500 45.40700 32.89800
H  42.58700 38.11700 29.14700
H  41.94000 38.19100 22.82100
H  39.81900 44.27800 23.23600
H  41.81200 42.20800 31.16500
H  40.86900 39.50600 30.87300
H  42.78800 38.84400 31.63300
H  42.87500 40.44900 32.32200
H  43.76100 40.06000 30.78400
H  39.32100 40.58900 31.61200
H  39.03200 42.11000 30.75500
H  39.31300 43.35500 32.69300
H  40.67900 42.35200 33.20300
H  42.69400 35.36500 27.73000
H  43.86300 36.59300 28.46700
H  44.44400 35.68500 27.15900
H  43.48500 33.85700 24.11600
H  43.10000 34.32000 25.72100
H  44.52700 35.04700 24.89700
H  40.21600 40.01600 21.26900
H  41.10500 42.72100 21.59600
H  43.23700 40.39100 21.32400
H  42.38600 41.49800 20.32300
H  42.15100 39.79300 20.02200
H  38.62300 41.64500 20.75100
H  38.69400 43.30600 21.34400
H  37.00400 42.52100 22.81200
H  38.30900 41.59900 23.57700
H  37.43600 40.86500 22.25700
H  39.97400 46.61500 24.19300
H  40.12200 47.33600 25.77600
H  38.53900 46.78200 25.08700
H  39.17900 44.26600 30.28300
H  42.78800 45.71100 32.56600
H  42.01100 44.57200 33.56500
H  41.47600 46.19300 33.58200
Mg -4.43000 25.47500 26.24000
C  -3.32700 27.11700 29.09600
C  -6.22300 23.41800 28.19600
C  -4.78900 23.41900 23.59800
C  -2.07800 27.41700 24.43800
N  -4.60400 25.22100 28.38000
C  -4.15500 26.03900 29.37100
C  -4.65100 25.63000 30.76100
C  -5.32300 24.25700 30.44200
C  -5.39900 24.26700 28.90000
C  -4.62200 22.93700 31.06100
C  -5.54900 26.68500 31.42900
C  -6.73800 26.22300 32.24600
H  -6.43700 25.16100 33.26800
N  -5.49800 23.73900 25.87300
C  -6.20700 23.07100 26.83300
C  -6.99100 22.02000 26.17800
C  -6.66300 22.14000 24.82400
C  -5.57600 23.08900 24.69900
C  -8.11200 21.28700 26.86100
C  -7.23100 21.37200 23.68500
O  -6.70200 21.42000 22.56700
C  -8.38700 20.35400 23.79200
N  -3.31000 25.33400 24.39000
C  -3.82000 24.47700 23.45800
C  -3.02400 24.70200 22.13400
C  -2.19600 25.98100 22.33100
C  -2.62900 26.28900 23.79500
C  -2.20100 23.48700 21.65600
C  -2.41200 27.24800 21.33200
C  -1.10300 27.84100 20.83300
N  -3.16600 27.05200 26.62000
C  -2.30400 27.78500 25.79900
C  -1.59500 28.78300 26.54800
C  -2.04400 28.61900 27.86600
C  -2.95100 27.54500 27.82600
C  -0.66300 29.77400 26.10400
C  -2.02800 29.12800 29.22700
O  -1.58400 30.18300 29.69900
C  -2.82300 28.09600 30.11700
C  -1.81500 27.56800 31.06600
O  -0.73400 26.99600 30.79400
O  -2.30000 27.77500 32.32000
C  -1.64600 27.10200 33.39400
H  -6.83800 22.71500 28.76200
H  -5.01900 22.94800 22.64000
H  -1.34100 28.05200 23.94100
H  -3.79200 25.54600 31.42700
H  -6.37700 24.32100 30.71400
H  -4.13000 22.51800 30.18300
H  -5.33400 22.26000 31.53200
H  -3.87900 23.26700 31.78700
H  -5.79200 27.44300 30.68400
H  -4.86800 27.19900 32.10800
H  -7.58500 25.96300 31.61200
H  -7.08900 27.16200 32.67400
H  -7.97800 20.22400 26.66300
H  -9.05500 21.47300 26.34600
H  -8.36900 21.48900 27.90100
H  -9.32600 20.83300 24.07100
H  -8.10200 19.63100 24.55600
H  -8.56400 19.74700 22.90400
H  -3.87100 24.95600 21.49700
H  -1.13400 25.82000 22.51800
H  -2.79900 22.78900 21.07000
H  -1.87900 22.97100 22.56000
H  -1.31000 23.75600 21.08900
H  -2.82100 28.09900 21.87500
H  -3.07900 26.98300 20.51200
H  -0.98600 28.83200 21.27300
H  -1.12700 27.97500 19.75200
H  -0.27400 27.22000 21.17200
H  -1.17400 30.70400 25.85400
H  -0.14000 29.39400 25.22600
H  0.01100 29.94400 26.94300
H  -3.50900 28.77400 30.62400
H  -0.70600 26.63200 33.10600
H  -2.29100 26.27900 33.70000
H  -1.45300 27.78900 34.21800

