158

Mg 25.99800 -0.38000 28.99100
C  27.82900 -0.75100 31.96500
C  23.26700 0.20400 30.82200
C  24.35800 -0.25300 26.11500
C  28.95100 -1.60400 27.22600
N  25.61800 -0.31400 31.17400
C  26.49800 -0.49500 32.25900
C  25.82400 -0.14900 33.65700
C  24.38200 0.12300 33.17600
C  24.39000 -0.02700 31.62100
C  23.42700 -0.89600 33.82100
C  26.43700 1.08300 34.39600
C  25.93600 1.34000 35.82500
H  26.52600 2.52800 36.68500
N  24.03100 -0.10900 28.54700
C  23.03200 0.11400 29.39700
C  21.82500 0.47400 28.69100
C  22.17700 0.38300 27.30200
C  23.60900 0.07100 27.22500
C  20.45300 0.71400 29.34300
C  21.30700 0.54800 26.14500
O  21.71500 0.59300 24.99600
C  19.74600 0.78400 26.22600
N  26.52600 -1.01900 26.99800
C  25.62300 -0.87200 25.94700
C  26.35100 -0.89300 24.67100
C  27.69700 -1.53900 24.97300
C  27.75300 -1.38600 26.49500
C  25.61600 -1.57000 23.48900
C  28.96000 -1.00200 24.27100
C  29.11900 0.53700 24.19800
N  28.03200 -0.93200 29.45800
C  29.13400 -1.36700 28.64800
C  30.28700 -1.44300 29.45800
C  29.85800 -1.19000 30.78800
C  28.48600 -0.96700 30.76600
C  31.65000 -1.71700 28.89700
C  30.30800 -1.12700 32.15200
O  31.43700 -1.34100 32.61600
C  28.99100 -0.69100 32.92400
C  28.74600 -1.50700 34.10200
O  28.33000 -2.67600 34.16400
O  29.05000 -0.77600 35.18500
C  28.97700 -1.46200 36.49200
H  22.41400 0.45700 31.45500
H  23.90200 0.05400 25.17200
H  29.91200 -1.81700 26.75300
H  25.94000 -1.05700 34.24700
H  24.11100 1.14000 33.45900
H  24.09900 -1.66100 34.21000
H  22.83500 -1.37600 33.04100
H  22.70700 -0.51200 34.54400
H  26.13700 1.97500 33.84600
H  27.52500 1.08700 34.46000
H  26.31900 0.47300 36.36200
H  24.85000 1.41200 35.89200
H  19.71800 1.34900 28.84700
H  20.66800 1.32700 30.21900
H  20.04700 -0.23800 29.68400
H  19.33500 0.95600 25.23100
H  19.47300 1.64100 26.84200
H  19.28300 -0.13400 26.58600
H  26.46800 0.13800 24.33500
H  27.60100 -2.62000 24.87300
H  24.56900 -1.76700 23.71700
H  26.07500 -2.53100 23.25600
H  25.68300 -1.04700 22.53500
H  28.87100 -1.28500 23.22200
H  29.79700 -1.56600 24.68200
H  28.49700 1.16300 24.83800
H  28.99300 0.76200 23.13900
H  30.15000 0.57900 24.54900
H  31.63900 -1.24000 27.91700
H  31.77200 -2.77800 28.68000
H  32.41000 -1.22500 29.50400
H  29.10900 0.35100 33.22100
H  28.51400 -0.67200 37.08400
H  29.95000 -1.62700 36.95400
H  28.30800 -2.32200 36.52000
Mg 45.96400 44.37300 43.33800
C  42.54300 43.52000 42.92600
C  46.75200 41.04200 42.51800
C  49.19100 45.24800 43.16100
C  44.96700 47.78700 43.23700
N  44.75000 42.47600 42.87900
C  43.40500 42.40400 42.72900
C  42.95600 41.01000 42.35600
C  44.31300 40.19600 42.52400
C  45.39500 41.34400 42.66800
C  44.35400 39.18700 43.75000
C  42.42200 40.85400 40.92400
C  42.97800 41.91500 39.86300
H  42.60100 41.69200 38.33000
N  47.75800 43.19100 42.96800
C  47.87300 41.85200 42.68600
C  49.23300 41.50100 42.63600
C  50.02800 42.72700 42.76700
C  49.03400 43.80900 42.95700
C  49.70500 40.06900 42.25500
C  51.52300 42.80500 42.65000
O  52.14400 41.76400 42.41700
C  52.29600 44.02100 42.59700
N  46.94300 46.27900 42.98200
C  48.26000 46.29900 43.28400
C  48.71000 47.76100 43.24400
C  47.45500 48.55300 43.49900
C  46.35000 47.49200 43.22400
C  49.88700 48.07100 44.21500
C  47.32700 49.91200 42.70400
C  47.77100 51.19600 43.38400
N  44.19600 45.44400 43.30000
C  43.98400 46.77100 43.17200
C  42.54800 47.04100 43.07900
C  41.96700 45.78900 43.07200
C  43.01000 44.77800 43.10600
C  41.87000 48.35500 42.96000
C  40.69000 45.09800 43.04100
O  39.54200 45.53400 42.99200
C  41.00200 43.61900 42.93600
C  40.53600 42.90900 44.13700
O  39.84300 41.90800 44.23900
O  40.89500 43.58200 45.26100
C  40.46100 43.07800 46.61700
H  46.92400 39.96600 42.44200
H  50.21600 45.62600 43.16400
H  44.56200 48.80100 43.24600
H  42.25500 40.59900 43.08200
H  44.60300 39.66200 41.61900
H  44.92700 38.29100 43.51000
H  43.31900 38.91300 43.95800
H  44.75000 39.66100 44.64700
H  41.34400 41.01300 40.88600
H  42.69900 39.92500 40.42500
H  44.04600 42.10600 39.96500
H  42.59500 42.87100 40.21900
H  50.41300 39.98800 41.43100
H  48.89600 39.37700 42.01800
H  50.25700 39.74300 43.13700
H  51.84500 44.76800 41.94400
H  53.31200 43.76700 42.29500
H  52.37800 44.31100 43.64500
H  49.07100 47.90700 42.22600
H  47.30000 48.67800 44.57100
H  50.79100 48.03600 43.60700
H  49.95300 47.27800 44.96100
H  49.80500 49.03000 44.72700
H  46.27900 50.09600 42.47000
H  47.94500 49.85900 41.80800
H  46.91200 51.85300 43.24800
H  48.69000 51.64700 43.00800
H  47.98100 50.96800 44.42900
H  42.18800 49.20200 43.56900
H  40.81600 48.28400 43.22900
H  41.76700 48.75900 41.95300
H  40.47200 43.17700 42.09100
H  41.10300 42.25400 46.93000
H  39.40800 42.79600 46.59700
H  40.62300 43.87800 47.33900

