158

Mg 23.06500 -7.50300 46.22200
C  25.72900 -5.33600 44.86600
C  20.87100 -5.89200 44.27700
C  21.04600 -10.14300 46.58600
C  25.73100 -9.33600 47.75900
N  23.28500 -5.79000 44.78000
C  24.42600 -5.06000 44.35000
C  23.99500 -3.97900 43.25800
C  22.43200 -4.06700 43.27600
C  22.15500 -5.36600 44.07900
C  21.74600 -2.93900 43.93800
C  24.75900 -4.13300 41.84200
C  24.72200 -2.80700 40.98600
H  23.93300 -2.77800 39.64000
N  21.19700 -7.92600 45.56100
C  20.38100 -7.11500 44.84400
C  19.15700 -7.76600 44.44500
C  19.11900 -8.95400 45.26500
C  20.50300 -9.09800 45.79200
C  18.09400 -7.12900 43.56400
C  17.94700 -9.97200 45.39300
O  16.90000 -9.84200 44.68700
C  18.00000 -11.09000 46.36800
N  23.36600 -9.39900 46.98600
C  22.29600 -10.25900 47.13400
C  22.68600 -11.55800 47.91000
C  24.21600 -11.29000 48.18400
C  24.51200 -9.95100 47.50700
C  21.89300 -11.84100 49.18700
C  25.08200 -12.55200 47.88700
C  26.35300 -12.70800 48.70700
N  25.28100 -7.29700 46.49600
C  26.17000 -8.12200 47.19600
C  27.49200 -7.55400 47.06500
C  27.39100 -6.48300 46.17800
C  25.99700 -6.41800 45.77100
C  28.73500 -8.08000 47.64600
C  28.13300 -5.32000 45.62500
O  29.24900 -4.91100 45.87700
C  27.07900 -4.62200 44.62100
C  27.14900 -3.22700 45.09100
O  26.54400 -2.89700 46.11100
O  27.64900 -2.36500 44.12700
C  27.70300 -0.91700 44.50400
H  20.18100 -5.15800 43.85700
H  20.40800 -11.02200 46.69900
H  26.53200 -9.93200 48.20000
H  24.30100 -2.97700 43.55900
H  22.04000 -4.21300 42.26900
H  22.45400 -2.58900 44.68900
H  20.86400 -3.11000 44.55500
H  21.65700 -2.16500 43.17600
H  24.24900 -4.98000 41.38400
H  25.79400 -4.45800 41.94800
H  25.77500 -2.85800 40.70700
H  24.55100 -1.95700 41.64600
H  18.16300 -7.77300 42.68700
H  18.29600 -6.07200 43.38900
H  17.08400 -7.20200 43.96600
H  18.36300 -10.75300 47.33900
H  18.58700 -11.91300 45.96000
H  17.01800 -11.53800 46.52400
H  22.61900 -12.28000 47.09700
H  24.32900 -11.14100 49.25800
H  22.48000 -11.59500 50.07200
H  21.60800 -12.89100 49.12400
H  20.98800 -11.23500 49.13800
H  25.27100 -12.43000 46.82000
H  24.50600 -13.44900 48.11500
H  27.16200 -12.79900 47.98300
H  26.41200 -13.49100 49.46300
H  26.62300 -11.79400 49.23700
H  29.49600 -8.15600 46.87000
H  28.57600 -9.02100 48.17200
H  29.06900 -7.45400 48.47400
H  27.37600 -4.70400 43.57600
H  28.70300 -0.61900 44.81800
H  27.00100 -0.71300 45.31300
H  27.39600 -0.40100 43.59500
Mg 47.75500 44.37600 42.59400
C  44.32000 43.99200 42.73500
C  48.16200 40.91200 42.38700
C  50.86100 44.88200 41.20300
C  47.08800 47.83100 41.81000
N  46.38200 42.63400 42.60300
C  44.98600 42.79300 42.78900
C  44.34400 41.32100 42.92000
C  45.60400 40.37400 42.96900
C  46.77500 41.29500 42.67400
C  45.72200 39.63400 44.30900
C  43.32900 40.85300 41.79000
C  43.71000 41.33200 40.39900
H  43.44000 40.36600 39.24700
N  49.36000 43.06500 41.92700
C  49.32100 41.69900 42.05600
C  50.60600 41.14000 41.71700
C  51.43200 42.28200 41.22900
C  50.55500 43.49100 41.43600
C  50.95900 39.69800 41.64500
C  52.78100 42.11400 40.56200
O  53.33800 41.02500 40.55800
C  53.47200 43.37800 40.07200
N  48.92700 46.16500 41.75200
C  50.18100 46.05800 41.44900
C  50.78500 47.49300 41.28100
C  49.56400 48.40300 41.22400
C  48.47500 47.47400 41.59200
C  51.85400 48.00800 42.29100
C  49.33600 49.08600 39.86900
C  48.89900 50.60500 39.90800
N  46.14700 45.74600 42.57200
C  46.01800 47.06600 42.17700
C  44.64100 47.49400 42.32500
C  43.90600 46.34800 42.57200
C  44.89700 45.31300 42.53800
C  44.07300 48.83600 41.94200
C  42.52800 45.74600 42.75900
O  41.42900 46.31500 42.78200
C  42.82100 44.18800 43.01600
C  42.55500 43.84600 44.42300
O  42.80400 44.49400 45.39200
O  42.04900 42.52100 44.55100
C  42.02600 41.85500 45.80600
H  48.26900 39.83000 42.49400
H  51.90200 45.18300 41.06900
H  46.86000 48.89700 41.74900
H  43.85000 41.32300 43.89200
H  45.58000 39.67700 42.13100
H  44.89600 39.92100 44.96000
H  46.62300 39.87400 44.87300
H  45.77600 38.58000 44.03600
H  42.29200 41.08600 42.03400
H  43.44700 39.77100 41.73700
H  44.77300 41.56800 40.35400
H  43.11200 42.19600 40.10700
H  51.11500 39.43900 40.59800
H  50.12900 39.09600 42.01400
H  51.84300 39.42000 42.21900
H  52.82800 43.91300 39.37300
H  54.29600 43.11100 39.41000
H  53.84600 43.98500 40.89600
H  51.29400 47.42900 40.31900
H  49.63000 49.12900 42.03500
H  51.51500 47.58800 43.23800
H  51.96600 49.09000 42.36800
H  52.88900 47.74700 42.07500
H  48.48200 48.56900 39.43100
H  50.18700 48.86800 39.22300
H  49.46700 51.19500 39.18900
H  49.22700 50.97000 40.88100
H  47.82100 50.69100 39.77200
H  43.16400 49.06100 42.49900
H  43.70900 48.76500 40.91800
H  44.85000 49.56800 42.16800
H  42.21800 43.50000 42.42200
H  41.61900 42.35300 46.68600
H  43.08800 41.67000 45.96600
H  41.61400 40.84800 45.74600

