158

Mg 36.44300 2.56500 30.27700
C  33.91300 3.36800 32.52400
C  38.72100 2.68300 32.81800
C  38.88800 2.05700 27.92700
C  34.04900 2.89800 27.59900
N  36.30900 2.93700 32.39700
C  35.18600 3.24200 33.11300
C  35.53900 3.27600 34.62900
C  37.14100 3.32500 34.61900
C  37.42200 2.95400 33.18500
C  37.68600 4.68100 35.00700
C  34.87900 2.11100 35.45300
C  34.40200 2.48100 36.85100
H  34.81100 3.76300 37.60100
N  38.49900 2.21700 30.41400
C  39.30500 2.41900 31.55200
C  40.60400 2.07700 31.26100
C  40.68600 1.99800 29.81900
C  39.33100 2.07900 29.31000
C  41.56200 1.75000 32.36800
C  41.90400 1.67800 28.95900
O  41.73000 1.65200 27.73300
C  43.20100 1.43800 29.58400
N  36.53700 2.71700 28.13500
C  37.62500 2.25200 27.39700
C  37.35800 2.35000 25.89900
C  35.81300 2.28500 25.92400
C  35.38200 2.67900 27.32700
C  37.94500 3.62900 25.32300
C  35.20200 0.94100 25.39100
C  35.41500 -0.36500 26.29700
N  34.43200 3.00200 30.07900
C  33.60700 3.04900 28.94700
C  32.21200 3.30600 29.40300
C  32.30100 3.46300 30.77300
C  33.66100 3.20400 31.14200
C  31.07200 3.22500 28.48100
C  31.57000 3.75700 32.03000
O  30.37600 4.05000 32.16600
C  32.57200 3.67900 33.18700
C  32.48700 5.04400 33.77500
O  32.97000 5.99100 33.24800
O  31.96400 5.00600 35.02500
C  32.16400 6.14400 35.85100
H  39.49600 2.83100 33.57400
H  39.62100 2.05900 27.11700
H  33.23000 2.94300 26.87900
H  35.11900 4.18400 35.06100
H  37.61000 2.54100 35.21300
H  38.39100 5.00400 34.24100
H  38.17100 4.45200 35.95500
H  36.98500 5.48200 35.24300
H  35.62700 1.32000 35.39500
H  33.98800 1.72500 34.95800
H  34.63900 1.55700 37.37900
H  33.32400 2.63700 36.79900
H  41.77100 2.58800 33.03400
H  42.56800 1.37100 32.18700
H  41.19500 0.99500 33.06300
H  44.03500 1.48600 28.88500
H  43.04900 0.49600 30.11100
H  43.33200 2.23400 30.31700
H  37.83700 1.49100 25.43000
H  35.52300 3.09000 25.24900
H  38.04100 3.46800 24.25000
H  38.79600 3.97800 25.90700
H  37.24700 4.46100 25.41500
H  35.67400 0.65100 24.45200
H  34.13600 1.08300 25.21000
H  36.21500 -0.21300 27.02200
H  35.53500 -1.31500 25.77700
H  34.44900 -0.46100 26.79300
H  31.17000 2.31400 27.89100
H  30.95500 4.03900 27.76600
H  30.13200 3.26300 29.03000
H  32.29000 2.95600 33.95300
H  31.27000 6.76400 35.78600
H  32.96900 6.76000 35.45000
H  32.32100 5.78700 36.86900
Mg 46.93800 24.88600 28.19100
C  47.53900 27.16000 30.80900
C  46.75300 22.39500 30.42200
C  45.99700 23.03000 25.66200
C  47.49000 27.65700 25.83000
N  46.83400 24.83400 30.32200
C  47.11900 25.83100 31.23700
C  47.05200 25.34200 32.67300
C  46.75200 23.80100 32.51700
C  46.82100 23.63600 30.99800
C  47.78100 22.93900 33.32700
C  46.03700 26.19600 33.46300
C  46.59800 27.15100 34.49500
H  46.14300 27.05500 35.96100
N  46.39500 23.01900 28.04100
C  46.53000 22.08700 29.05000
C  46.20500 20.78500 28.54200
C  45.78500 20.94300 27.19600
C  45.98200 22.37000 26.94600
C  46.24800 19.49000 29.34600
C  45.11500 19.98000 26.20400
O  44.84400 20.28000 25.05600
C  44.71000 18.57500 26.61000
N  47.08500 25.20300 25.92500
C  46.57700 24.23100 25.11800
C  46.40600 24.72900 23.68100
C  46.80800 26.22600 23.71900
C  47.18300 26.45100 25.24100
C  47.26000 23.79200 22.71200
C  45.62500 27.09100 23.29400
C  45.80000 27.88900 21.96500
N  47.48700 26.93500 28.23300
C  47.72300 27.88700 27.21100
C  48.13400 29.11500 27.85100
C  48.11800 28.90900 29.21100
C  47.66900 27.53000 29.42500
C  48.36000 30.45600 27.12500
C  48.34400 29.48500 30.52100
O  48.79600 30.60200 30.80000
C  47.95600 28.38300 31.59200
C  49.05800 28.22800 32.55300
O  50.00100 27.51000 32.39300
O  48.93400 29.22400 33.52500
C  49.96500 29.26300 34.54200
H  46.89900 21.48800 31.01300
H  45.63500 22.44800 24.81100
H  47.52800 28.61300 25.30400
H  48.06700 25.48700 33.04300
H  45.77200 23.49100 32.87900
H  48.49300 22.47600 32.64400
H  47.14000 22.18900 33.79100
H  48.43500 23.48000 34.01100
H  45.36800 25.49400 33.96000
H  45.52200 26.71300 32.65300
H  46.36600 28.13300 34.08200
H  47.65900 27.03900 34.71800
H  46.20900 18.65500 28.64700
H  45.36700 19.31300 29.96300
H  47.08200 19.55200 30.04600
H  44.40200 18.56800 27.65500
H  45.60800 17.96500 26.50700
H  43.98900 18.11000 25.93700
H  45.35400 24.66100 23.40300
H  47.68300 26.49100 23.12500
H  48.20700 24.33000 22.66700
H  46.92700 23.85500 21.67600
H  47.35100 22.77000 23.07900
H  45.37000 27.88500 23.99500
H  44.71400 26.50400 23.17400
H  45.47400 27.24900 21.14500
H  46.86500 28.11900 21.92700
H  45.31400 28.86200 22.03300
H  49.04700 30.94700 27.81500
H  47.52500 31.14300 26.99200
H  48.74000 30.30800 26.11500
H  47.11100 28.80300 32.13700
H  50.95500 28.94900 34.21200
H  49.71300 28.60800 35.37700
H  49.92100 30.33400 34.73900

