158

Mg 3.03600 1.30100 44.22600
C  5.89600 3.30500 44.29900
C  1.63400 3.58100 42.08700
C  0.59400 -0.88200 43.52000
C  5.01500 -1.33400 45.51600
N  3.71200 3.14600 43.23900
C  4.91100 3.81500 43.47100
C  4.99600 5.21600 42.82100
C  3.48900 5.35700 42.40800
C  2.90800 3.93600 42.53800
C  2.69100 6.39900 43.26800
C  5.88300 5.46800 41.48100
C  6.04900 4.26200 40.55700
H  5.43700 4.42200 39.09000
N  1.21100 1.44000 43.22300
C  0.80300 2.43800 42.30800
C  -0.41900 2.12100 41.69900
C  -0.82900 0.83700 42.24000
C  0.34000 0.39600 43.09600
C  -1.24400 3.01800 40.77200
C  -2.18100 0.12000 41.95900
O  -3.05300 0.69000 41.26100
C  -2.55700 -1.32100 42.39600
N  2.80700 -0.81400 44.52400
C  1.71600 -1.45400 44.02900
C  1.90600 -2.93400 44.34500
C  3.22900 -3.12700 45.19900
C  3.74600 -1.65900 45.06500
C  0.59800 -3.55100 44.96000
C  4.16500 -4.22700 44.67800
C  4.29500 -5.40800 45.68400
N  5.01100 0.97800 44.89300
C  5.66500 -0.10200 45.44100
C  7.01900 0.30300 45.81400
C  7.14700 1.61700 45.37900
C  5.88600 1.99300 44.81500
C  8.02400 -0.60700 46.57800
C  8.01300 2.79500 45.46100
O  9.16600 2.89900 45.88000
C  7.20200 3.95400 44.78100
C  7.07000 5.11100 45.78000
O  7.94200 5.91100 46.02000
O  5.83700 5.23800 46.43300
C  5.70200 6.36600 47.36500
H  1.16000 4.40700 41.55200
H  -0.14100 -1.64800 43.26200
H  5.52400 -2.16600 46.00700
H  5.42300 5.94000 43.51600
H  3.41400 5.66400 41.36500
H  3.22700 6.71800 44.16200
H  1.78600 5.94100 43.66600
H  2.53400 7.22600 42.57500
H  6.88700 5.73800 41.80700
H  5.39300 6.30200 40.97900
H  5.58500 3.37200 40.98100
H  7.07800 3.90100 40.54100
H  -1.57300 2.48300 39.88100
H  -0.58900 3.82800 40.45000
H  -2.04900 3.38700 41.40800
H  -2.20800 -1.34600 43.42800
H  -2.03100 -2.09500 41.83700
H  -3.64600 -1.36900 42.39400
H  2.08600 -3.48800 43.42400
H  2.91700 -3.25000 46.23700
H  0.24100 -2.69600 45.53500
H  0.81000 -4.47200 45.50200
H  -0.25100 -3.76800 44.31200
H  5.17000 -3.86100 44.46800
H  3.70900 -4.73600 43.82900
H  4.37900 -4.99400 46.69000
H  5.02900 -6.20800 45.58800
H  3.32600 -5.89000 45.81400
H  8.44800 0.02900 47.35500
H  8.73600 -0.99000 45.84700
H  7.48000 -1.40000 47.09000
H  7.83100 4.35100 43.98500
H  4.62100 6.43300 47.49000
H  6.12100 7.31900 47.04100
H  6.27300 6.16700 48.27200
Mg -9.40900 18.68500 42.49800
C  -6.03900 17.99600 42.58100
C  -8.70500 22.05000 41.84200
C  -12.59100 19.31700 42.38900
C  -9.98600 15.20800 42.48300
N  -7.58100 19.79300 41.97100
C  -6.30200 19.26300 42.20100
C  -5.24400 20.36700 42.13100
C  -6.13700 21.69700 42.11700
C  -7.55600 21.15800 41.98700
C  -5.99800 22.58100 43.34100
C  -4.15100 20.26800 40.98200
C  -4.42000 19.55000 39.67600
H  -3.98600 20.19300 38.33200
N  -10.53700 20.40700 42.02700
C  -10.04700 21.66400 41.84300
C  -11.13100 22.57800 41.62500
C  -12.30600 21.81400 41.86400
C  -11.86900 20.50200 42.10500
C  -10.99300 24.04600 41.26700
C  -13.70300 22.34900 41.74800
O  -14.00900 23.50000 41.35000
C  -14.86100 21.44800 41.88300
N  -11.07400 17.41400 42.24600
C  -12.29200 17.90800 42.48000
C  -13.33700 16.86100 42.82600
C  -12.50000 15.48800 42.79000
C  -11.09200 16.05900 42.43200
C  -13.95400 17.21600 44.23400
C  -12.98400 14.43400 41.80500
C  -13.72800 13.25900 42.49400
N  -8.25800 16.93500 42.49100
C  -8.64700 15.62800 42.65900
C  -7.49100 14.83000 42.91200
C  -6.44800 15.73000 42.92500
C  -6.97100 16.98300 42.64700
C  -7.45800 13.35300 43.23700
C  -5.02300 15.84400 43.15600
O  -4.17100 15.00800 43.34000
C  -4.65300 17.34900 42.95400
C  -4.11900 17.90800 44.22700
O  -2.98200 18.32800 44.36000
O  -5.12000 18.06600 45.13400
C  -4.71900 18.74900 46.33700
H  -8.59200 23.13500 41.80300
H  -13.66500 19.48900 42.49000
H  -10.26300 14.15900 42.60700
H  -4.71200 20.34200 43.08200
H  -5.78200 22.34100 41.31200
H  -6.89300 22.86000 43.89600
H  -5.43000 23.47700 43.08800
H  -5.32300 22.17100 44.09200
H  -3.21800 19.87500 41.38400
H  -3.72300 21.24700 40.76500
H  -5.49400 19.38200 39.59100
H  -3.84700 18.62500 39.73200
H  -10.23800 24.54000 41.87800
H  -11.84500 24.72600 41.23100
H  -10.60800 24.11900 40.25000
H  -14.99400 21.11700 42.91300
H  -14.80400 20.67000 41.12200
H  -15.77500 22.02800 41.74900
H  -14.09600 16.83800 42.04400
H  -12.44600 15.09400 43.80400
H  -14.77700 17.90300 44.03500
H  -13.24000 17.68800 44.90900
H  -14.42800 16.32400 44.64200
H  -12.04700 14.06000 41.39200
H  -13.61000 14.68100 40.94700
H  -13.15000 12.34000 42.58800
H  -14.66200 13.05100 41.97200
H  -13.88000 13.40900 43.56200
H  -6.46900 13.09900 42.85600
H  -8.32300 12.82000 42.84200
H  -7.41100 13.21500 44.31700
H  -3.81600 17.65300 42.32500
H  -5.60000 18.89900 46.96000
H  -4.26000 19.71200 46.11700
H  -3.93000 18.20000 46.85200

