158

Mg 25.32700 0.14700 30.24700
C  27.64600 0.39400 32.86300
C  22.86000 0.58600 32.65400
C  23.20300 -0.05400 27.91400
C  27.94600 -0.54500 28.07600
N  25.34100 0.51500 32.48300
C  26.37800 0.61700 33.27300
C  25.99500 0.95300 34.75100
C  24.41400 0.88400 34.67000
C  24.13300 0.61700 33.17200
C  23.76700 -0.06900 35.66000
C  26.46400 2.35400 35.26900
C  27.43500 2.43300 36.42400
H  27.36600 3.51500 37.47000
N  23.29400 0.24800 30.26700
C  22.47300 0.46000 31.29700
C  21.06700 0.64000 30.80800
C  21.12000 0.31600 29.45200
C  22.54200 0.08300 29.17100
C  19.80300 1.09400 31.57000
C  20.01200 0.11700 28.42900
O  20.21300 -0.35000 27.34700
C  18.57500 0.46200 28.72800
N  25.49200 -0.38900 28.23400
C  24.48500 -0.09800 27.44600
C  24.94400 0.10100 25.97500
C  26.49700 -0.24200 26.01700
C  26.68000 -0.41900 27.54400
C  24.12100 -0.65800 24.85600
C  27.48400 0.77100 25.32500
C  26.96000 1.56000 24.14700
N  27.36900 -0.27300 30.40100
C  28.27900 -0.55600 29.43400
C  29.57200 -0.68400 30.04100
C  29.38800 -0.24400 31.35600
C  28.07100 -0.03300 31.57400
C  30.86700 -1.06100 29.41300
C  30.08200 0.06000 32.64100
O  31.32300 0.06300 32.75900
C  28.98600 0.49600 33.60300
C  29.02100 -0.30500 34.86900
O  28.58000 -1.45300 34.93400
O  29.92400 0.31700 35.76500
C  30.47100 -0.51100 36.78500
H  22.13700 0.65500 33.46900
H  22.44600 0.01200 27.13000
H  28.87900 -0.71400 27.53500
H  26.52000 0.18200 35.31400
H  23.91100 1.83200 34.85700
H  22.69200 0.00400 35.81900
H  24.44600 0.01400 36.50800
H  23.79500 -1.05500 35.19600
H  25.59900 3.01000 35.36300
H  26.93100 2.76700 34.37500
H  28.38200 2.53800 35.89500
H  27.63500 1.51800 36.98000
H  20.11700 1.53900 32.51400
H  19.18800 0.19700 31.64100
H  19.28100 1.82600 30.95400
H  18.19900 -0.13200 29.56000
H  17.93100 0.16900 27.89900
H  18.43700 1.51000 28.99300
H  24.74400 1.11700 25.63600
H  26.59500 -1.20800 25.52100
H  23.47200 -1.37300 25.36200
H  24.85900 -1.02700 24.14300
H  23.53700 0.10500 24.34200
H  28.27600 0.10600 24.98000
H  27.74100 1.39800 26.17900
H  26.10800 1.00700 23.75100
H  27.71700 1.67900 23.37200
H  26.70800 2.58800 24.40700
H  31.73500 -0.40300 29.38400
H  30.70200 -1.54200 28.44800
H  31.23000 -1.92600 29.96700
H  29.23200 1.50600 33.93100
H  29.74100 -0.66700 37.57900
H  31.32600 0.01200 37.21200
H  30.87500 -1.46700 36.45100
Mg 26.95800 49.99100 27.11100
C  25.04100 51.22400 29.69600
C  29.42500 49.41900 29.44800
C  29.06700 49.35500 24.58000
C  24.71200 51.26800 24.79100
N  27.14000 50.24700 29.38700
C  26.10100 50.60800 30.24600
C  26.46500 50.26900 31.67500
C  27.97400 49.90200 31.48900
C  28.21200 49.84300 30.02900
C  28.94800 51.01600 32.10900
C  25.56400 49.17200 32.42600
C  24.91100 49.47000 33.79300
H  25.70500 50.12000 34.80500
N  28.92900 49.36100 27.04700
C  29.76300 49.11200 28.11100
C  30.99500 48.53000 27.63600
C  30.96200 48.66700 26.26700
C  29.64700 49.18200 25.90800
C  32.06100 47.97500 28.47800
C  31.95700 48.29400 25.21200
O  31.91800 48.67500 24.08600
C  33.13700 47.36500 25.52900
N  26.89300 50.37100 24.99100
C  27.81300 49.79100 24.21700
C  27.37700 49.73400 22.67700
C  25.88400 50.19600 22.85600
C  25.77700 50.58400 24.28500
C  28.17800 50.68100 21.79500
C  24.89500 49.12800 22.33900
C  24.31200 48.14300 23.35300
N  25.32100 51.13500 27.15000
C  24.48300 51.58600 26.16800
C  23.34400 52.18500 26.72000
C  23.49300 52.07800 28.07600
C  24.76100 51.52600 28.30000
C  22.20600 52.80800 25.91000
C  22.99800 52.41400 29.36300
O  21.97900 53.02900 29.67600
C  23.96200 51.81100 30.51600
C  24.46300 52.90400 31.43900
O  25.32300 53.72400 31.13000
O  23.78800 52.88100 32.64500
C  24.22900 53.84700 33.64200
H  30.09600 48.94300 30.16500
H  29.68100 49.03400 23.73600
H  23.94300 51.56200 24.07300
H  26.45800 51.24000 32.17100
H  28.13100 48.97900 32.04800
H  28.32800 51.78800 32.56500
H  29.60700 51.46000 31.36300
H  29.62200 50.50500 32.79700
H  26.10100 48.26300 32.69500
H  24.80000 48.82900 31.72800
H  24.35500 48.58400 34.09800
H  24.13000 50.17400 33.50500
H  32.31800 47.03500 27.98900
H  31.85400 47.82800 29.53800
H  32.93300 48.61600 28.34400
H  32.89900 46.38200 25.93600
H  33.80900 47.69100 26.32200
H  33.80200 47.20800 24.67900
H  27.52100 48.69300 22.38700
H  25.65800 51.08700 22.27000
H  29.10300 50.88900 22.33300
H  27.74200 51.65800 21.58600
H  28.27700 50.22000 20.81200
H  25.23700 48.52000 21.50200
H  24.03900 49.71100 21.99900
H  24.79600 48.31300 24.31400
H  24.45600 47.14700 22.93600
H  23.27600 48.41400 23.55700
H  21.93500 52.17600 25.06400
H  22.53900 53.81100 25.64400
H  21.37200 52.95500 26.59600
H  23.39700 51.09800 31.11700
H  23.81500 53.54800 34.60400
H  23.76900 54.80200 33.38600
H  25.31600 53.82300 33.72200

