158

Mg -1.94000 16.82200 27.40600
C  -2.55100 14.76800 30.26200
C  -2.15500 19.41300 29.34100
C  -1.78800 18.53700 24.52400
C  -1.75500 13.76200 25.52400
N  -2.15000 16.92900 29.56700
C  -2.24800 16.01700 30.58600
C  -2.11700 16.73300 31.98500
C  -1.97000 18.27300 31.57600
C  -2.07000 18.19500 30.04600
C  -2.83200 19.26800 32.33200
C  -0.92200 16.33800 32.94100
C  -0.41300 17.29700 34.06600
H  -0.37700 16.84200 35.57700
N  -2.03600 18.77700 26.99900
C  -2.14900 19.77100 27.94500
C  -2.12400 21.07200 27.29600
C  -2.10500 20.75200 25.91800
C  -1.97000 19.26200 25.74300
C  -2.17500 22.40300 27.95300
C  -2.13200 21.78600 24.80600
O  -2.19200 21.52100 23.63700
C  -2.20900 23.27200 25.05200
N  -1.72900 16.19300 25.30600
C  -1.69800 17.15700 24.34900
C  -1.71700 16.52000 22.94800
C  -1.36300 15.02700 23.27300
C  -1.49800 14.96100 24.81700
C  -3.12400 16.70300 22.23500
C  0.13600 14.81500 22.79500
C  1.18300 15.84100 23.26000
N  -2.22500 14.68800 27.72000
C  -2.09500 13.59000 26.88000
C  -2.53500 12.44600 27.60600
C  -2.65800 12.83100 28.96200
C  -2.41800 14.21700 28.95100
C  -2.71300 11.07200 26.99500
C  -2.91100 12.33800 30.27600
O  -3.17300 11.26800 30.78100
C  -2.69900 13.59900 31.23800
C  -1.37000 13.33100 31.84800
O  -0.35700 13.27700 31.15400
O  -1.39700 12.93800 33.22100
C  -0.16300 12.58400 33.92200
H  -2.17000 20.32600 29.93900
H  -1.79900 19.14800 23.61900
H  -1.44800 12.85900 24.99200
H  -3.03400 16.56600 32.54900
H  -0.90800 18.51400 31.62000
H  -3.71900 19.69100 31.86000
H  -2.20300 20.07500 32.70900
H  -3.21900 18.85500 33.26300
H  -0.02500 16.14900 32.35200
H  -1.21900 15.42200 33.45100
H  -1.07200 18.15800 33.94900
H  0.60900 17.49800 33.74200
H  -1.38500 23.06400 27.59500
H  -2.16100 22.28800 29.03700
H  -3.09900 22.90100 27.66000
H  -2.08100 23.77600 24.09400
H  -1.49900 23.78800 25.69800
H  -3.25300 23.51900 25.24400
H  -0.95900 16.93200 22.28100
H  -1.96700 14.25700 22.79200
H  -3.82000 17.23400 22.88400
H  -3.54100 15.75800 21.88800
H  -3.02100 17.36500 21.37600
H  0.06400 14.87000 21.70900
H  0.51600 13.80400 22.94400
H  1.55300 16.24800 22.31900
H  1.95500 15.31700 23.82300
H  0.91500 16.67100 23.91300
H  -3.70100 10.96100 26.54800
H  -2.60700 10.36800 27.82100
H  -1.97200 10.90800 26.21200
H  -3.48200 13.66700 31.99300
H  0.73800 12.75700 33.33300
H  -0.16600 11.50900 34.10200
H  -0.09400 13.02700 34.91500
Mg 40.06700 9.31000 30.31600
C  42.13500 10.67700 32.92400
C  38.26500 7.60900 32.74900
C  38.26700 7.89700 27.77900
C  42.17500 10.74000 27.98900
N  40.17200 9.16400 32.59900
C  41.01600 9.90600 33.41500
C  40.62200 9.76900 34.87300
C  39.37200 8.76100 34.84600
C  39.19500 8.50100 33.32800
C  39.50000 7.48800 35.79000
C  40.21700 11.16300 35.53400
C  40.91800 11.63500 36.80400
H  40.01800 12.52800 37.73300
N  38.47000 8.02600 30.28900
C  37.90300 7.41000 31.36200
C  36.69100 6.69900 30.89400
C  36.73600 6.64700 29.40500
C  37.90000 7.51400 29.06900
C  35.68900 6.09500 31.99800
C  35.86200 5.85000 28.43100
O  36.09600 5.73900 27.21800
C  34.54900 5.32300 29.07400
N  40.14800 9.35000 28.20200
C  39.26800 8.77100 27.41500
C  39.46000 9.22500 25.98000
C  40.51400 10.37300 26.10600
C  40.98900 10.14500 27.48700
C  39.66900 8.28300 24.71100
C  39.84400 11.75100 25.86900
C  40.69400 12.74300 24.96500
N  41.89100 10.46600 30.40400
C  42.57400 10.88400 29.33800
C  43.73700 11.70300 29.85900
C  43.54600 11.69900 31.26800
C  42.43400 10.85900 31.55100
C  44.82100 12.18800 29.04800
C  44.08100 12.16300 32.51600
O  45.13500 12.78100 32.70400
C  43.22900 11.54200 33.66200
C  44.01700 10.67700 34.60200
O  44.52000 9.53800 34.40800
O  44.05400 11.38000 35.82500
C  44.45400 10.46100 36.92000
H  37.51100 7.20000 33.42500
H  37.60700 7.66400 26.94100
H  42.85000 11.22300 27.27800
H  41.49100 9.38900 35.41000
H  38.43400 9.27400 35.05800
H  39.18000 6.52400 35.39400
H  38.74600 7.71200 36.54400
H  40.45400 7.48700 36.31600
H  39.14400 11.18300 35.72300
H  40.28700 11.90100 34.73500
H  41.78400 12.22300 36.50000
H  41.25500 10.75500 37.35300
H  35.56400 6.75800 32.85400
H  36.01900 5.08900 32.25700
H  34.70400 5.96200 31.55200
H  33.95400 4.79100 28.33200
H  34.07100 6.21200 29.48500
H  34.75500 4.57000 29.83500
H  38.49300 9.69100 25.79300
H  41.43900 10.24800 25.54300
H  39.82900 7.27500 25.09300
H  40.55100 8.49600 24.10700
H  38.83500 8.27200 24.00900
H  39.74400 12.20000 26.85700
H  38.80900 11.64300 25.54400
H  40.96100 13.71200 25.38600
H  40.32100 12.80600 23.94300
H  41.63500 12.23300 24.75900
H  44.91400 11.77400 28.04400
H  45.73900 11.87800 29.54600
H  44.73300 13.27400 29.02500
H  42.77200 12.34800 34.23700
H  43.79300 9.59400 36.92600
H  44.42100 11.04100 37.84200
H  45.46600 10.11200 36.71500

