158

Mg 47.94900 15.38700 28.51000
C  45.71500 14.99000 31.01400
C  50.05300 17.13200 30.56800
C  49.88800 15.94700 25.76600
C  45.44000 14.09600 26.26100
N  47.92800 15.97300 30.47000
C  46.96400 15.54600 31.40400
C  47.28700 16.16500 32.78500
C  48.59000 17.00000 32.58300
C  48.87000 16.68900 31.14400
C  48.48400 18.54100 32.96800
C  47.27900 15.03900 33.90400
C  46.46900 15.42200 35.21800
H  46.50500 16.89800 35.68100
N  49.82400 16.30000 28.27800
C  50.59000 16.92100 29.24900
C  51.83800 17.34600 28.67200
C  51.75900 17.06500 27.26100
C  50.41800 16.43600 27.03400
C  52.98400 17.92500 29.49200
C  52.75400 17.17400 26.05400
O  52.54000 16.78300 24.94300
C  54.03400 17.88900 26.41300
N  47.67700 15.03200 26.30800
C  48.67700 15.38400 25.39800
C  48.32700 15.09000 23.92600
C  46.97100 14.40400 24.11000
C  46.62500 14.51500 25.62800
C  48.29300 16.32600 22.94200
C  46.77900 12.90200 23.76100
C  47.21500 11.82800 24.76800
N  45.97200 14.63300 28.58600
C  45.05600 14.17700 27.65500
C  43.84600 13.75700 28.30800
C  43.98800 14.05000 29.63800
C  45.28500 14.63200 29.76400
C  42.66500 13.21400 27.60100
C  43.37800 14.22200 30.94900
O  42.26600 13.90400 31.27500
C  44.43800 14.81600 31.86400
C  43.91400 16.08500 32.58300
O  43.87500 17.19400 32.08000
O  43.28800 15.62700 33.76900
C  42.31500 16.57700 34.36900
H  50.80400 17.50300 31.26900
H  50.44600 16.15000 24.84900
H  44.67500 13.66100 25.61400
H  46.48600 16.82900 33.11200
H  49.51400 16.50800 32.88800
H  47.44800 18.87600 32.93200
H  49.10600 18.96700 32.18100
H  48.90100 18.73800 33.95600
H  48.30300 14.91600 34.25500
H  46.92500 14.07700 33.53400
H  46.82600 14.80000 36.03900
H  45.42900 15.17800 35.00500
H  53.80900 17.22300 29.36900
H  52.83500 17.94400 30.57100
H  53.36000 18.89000 29.15000
H  54.55000 17.21900 27.10100
H  53.80400 18.83300 26.90600
H  54.73500 18.00800 25.58700
H  49.10600 14.42200 23.56000
H  46.27800 15.04100 23.56000
H  47.26500 16.53700 22.64700
H  48.88600 16.22000 22.03400
H  48.60700 17.16700 23.56000
H  47.31100 12.79700 22.81500
H  45.74100 12.69200 23.50300
H  47.90400 11.12000 24.30800
H  46.41600 11.21600 25.18500
H  47.84300 12.21800 25.56900
H  42.74300 13.45500 26.54100
H  41.78100 13.73900 27.96100
H  42.61300 12.14700 27.81600
H  44.62100 14.17000 32.72300
H  41.36100 16.60400 33.84400
H  42.67500 17.60200 34.46300
H  41.92800 16.15900 35.29800
Mg 9.51500 48.38000 26.16300
C  7.28300 48.49800 28.80900
C  12.00900 49.23100 28.58000
C  11.81500 47.92800 23.75700
C  6.97600 47.69000 23.95300
N  9.58700 48.91100 28.40200
C  8.57100 48.82600 29.32100
C  9.06600 49.16900 30.78700
C  10.44100 49.84400 30.54500
C  10.71500 49.25300 29.14300
C  10.43700 51.40100 30.60200
C  9.13100 47.94300 31.73000
C  8.75400 48.14200 33.17900
H  9.14200 47.07900 34.17800
N  11.59700 48.56900 26.20500
C  12.46000 48.83200 27.27600
C  13.87600 48.81200 26.75300
C  13.85200 48.32500 25.39400
C  12.34300 48.28200 25.07300
C  15.08800 49.09800 27.57400
C  14.96400 47.94100 24.47600
O  14.79200 47.57400 23.28800
C  16.33200 47.89000 24.91400
N  9.44600 47.97600 24.08800
C  10.51200 47.84800 23.35500
C  10.09900 47.46700 21.90000
C  8.57200 47.59200 21.92300
C  8.24100 47.65400 23.42500
C  10.88500 48.17500 20.75400
C  7.80000 46.46300 21.20800
C  6.79100 47.02100 20.18000
N  7.51200 48.30600 26.30100
C  6.62000 47.96100 25.28800
C  5.31800 47.80400 25.88300
C  5.49400 48.05100 27.28900
C  6.88700 48.33400 27.47200
C  4.06600 47.34800 25.15600
C  4.75800 48.15500 28.55700
O  3.56900 48.02700 28.78800
C  5.95100 48.37400 29.57300
C  6.03900 47.12500 30.33100
O  6.67600 46.13500 30.01500
O  5.20800 47.17000 31.41200
C  5.29100 46.14900 32.46500
H  12.80800 49.59500 29.23000
H  12.61500 47.73800 23.04000
H  6.12000 47.55300 23.28800
H  8.41900 49.88900 31.28700
H  11.15200 49.40900 31.24800
H  11.28800 51.64900 31.23600
H  9.61300 51.71800 31.24200
H  10.42900 51.95400 29.66300
H  10.06100 47.37500 31.69800
H  8.47500 47.19300 31.28700
H  7.67100 48.27300 33.16700
H  9.11000 49.10200 33.55300
H  15.85200 49.68000 27.05900
H  15.57600 48.15200 27.81100
H  14.86000 49.60600 28.51100
H  16.45500 47.29100 25.81700
H  16.83700 48.83700 25.10300
H  16.94500 47.44900 24.12800
H  10.39900 46.41900 21.88400
H  8.17700 48.52500 21.52100
H  11.02600 49.21000 21.06500
H  10.16900 48.14700 19.93200
H  11.72900 47.61000 20.36000
H  7.18700 45.85500 21.87300
H  8.42500 45.87400 20.53700
H  6.15500 46.20300 19.84100
H  7.28300 47.36100 19.26900
H  6.20500 47.87400 20.52300
H  4.28700 46.56300 24.43300
H  3.70900 48.16800 24.53300
H  3.26900 47.02500 25.82500
H  5.70400 49.27400 30.13400
H  6.17000 45.51000 32.37700
H  4.33700 45.62400 32.51100
H  5.39700 46.45000 33.50700

