158

Mg 41.24400 40.32200 26.93700
C  40.51700 42.48600 29.49500
C  42.32500 37.98400 29.37100
C  42.26200 38.22100 24.40300
C  40.92900 42.83300 24.65100
N  41.53400 40.31000 29.33300
C  40.97100 41.25900 30.10800
C  40.98600 40.77200 31.55700
C  41.73800 39.36600 31.55400
C  41.86200 39.20500 30.04100
C  43.00100 39.10400 32.54800
C  39.54300 40.92600 32.30800
C  39.41300 40.14300 33.61800
H  38.92100 40.84300 34.90700
N  42.16300 38.38500 26.89500
C  42.55500 37.57400 28.01300
C  43.00000 36.31200 27.51400
C  42.96100 36.36200 26.07800
C  42.34700 37.65700 25.72900
C  43.45100 35.17800 28.44700
C  43.42600 35.26100 25.01700
O  43.34700 35.48100 23.82600
C  43.91200 33.93500 25.50300
N  41.68800 40.53300 24.74900
C  41.91200 39.44800 23.94100
C  41.82600 39.84600 22.48300
C  41.19700 41.26400 22.66000
C  41.23600 41.59400 24.06500
C  43.20100 39.76000 21.81500
C  39.72200 41.34100 22.21700
C  38.70100 40.30700 22.63800
N  40.79100 42.12200 26.96400
C  40.74800 43.12400 25.98800
C  40.61300 44.36300 26.53800
C  40.33200 44.13700 27.93400
C  40.50500 42.79800 28.10500
C  40.77800 45.57000 25.73200
C  39.95000 44.82000 29.14500
O  39.76100 45.98500 29.30200
C  40.05000 43.77600 30.31200
C  41.06400 44.20700 31.41500
O  42.23100 44.29400 31.25400
O  40.42800 44.52000 32.58300
C  41.22300 45.16800 33.55600
H  42.38900 37.08200 29.98400
H  42.33200 37.44400 23.63900
H  40.72800 43.64000 23.94300
H  41.66500 41.40500 32.12700
H  41.06600 38.56200 31.85500
H  43.94700 39.37200 32.07600
H  43.14200 38.06400 32.84000
H  42.80500 39.66300 33.46300
H  38.84200 40.52700 31.57400
H  39.29800 41.98200 32.42400
H  40.44300 40.02000 33.95200
H  39.02800 39.13800 33.43900
H  42.72500 34.36400 28.43500
H  43.50900 35.37700 29.51700
H  44.43500 34.80000 28.17300
H  43.10500 33.53500 26.11600
H  44.78000 34.05000 26.15300
H  44.18800 33.31000 24.65300
H  41.19900 39.21400 21.85400
H  41.85600 41.93100 22.10400
H  43.11600 38.80700 21.29400
H  44.06900 39.67900 22.47000
H  43.15100 40.43100 20.95800
H  39.59100 41.35800 21.13500
H  39.54700 42.38500 22.47600
H  38.99600 39.52800 23.34100
H  38.46100 39.80000 21.70300
H  37.73200 40.73300 22.90100
H  40.37700 46.40300 26.30900
H  40.32500 45.54300 24.74100
H  41.84200 45.72500 25.55300
H  39.02800 43.55800 30.62400
H  41.63400 46.11300 33.20200
H  42.07500 44.58700 33.90900
H  40.68600 45.53300 34.43100
Mg 0.35100 43.63000 25.60300
C  2.25200 43.71100 28.43400
C  -2.37600 42.80900 27.68000
C  -1.40200 43.08400 22.93600
C  3.24300 44.29700 23.67700
N  -0.05300 43.45700 27.82100
C  0.87300 43.61900 28.76800
C  0.27000 43.54900 30.19100
C  -1.20800 43.13600 29.90100
C  -1.21000 43.12400 28.36200
C  -1.61200 41.76800 30.61700
C  0.38100 44.81100 31.07500
C  0.66400 44.71300 32.59400
H  0.22500 43.32300 33.33400
N  -1.65800 43.08600 25.35600
C  -2.65900 42.87100 26.30000
C  -3.88900 42.45900 25.58400
C  -3.56900 42.44400 24.13700
C  -2.13700 42.82500 24.08900
C  -5.13000 41.87000 26.23300
C  -4.53400 42.04700 23.03500
O  -4.18000 42.11600 21.85000
C  -5.92700 41.52400 23.29100
N  0.85400 43.84200 23.58800
C  -0.09000 43.44800 22.67400
C  0.43500 43.53400 21.23000
C  1.84100 44.18100 21.51900
C  2.02500 44.12500 22.98900
C  0.59000 42.20200 20.54900
C  2.02700 45.65100 20.99000
C  1.53800 45.93200 19.54800
N  2.34700 43.84300 25.92600
C  3.39200 44.05600 25.04900
C  4.60600 44.08200 25.76600
C  4.24300 43.93000 27.11600
C  2.86200 43.76200 27.13400
C  5.99400 44.40900 25.18700
C  4.69800 43.88900 28.49800
O  5.86200 43.83000 28.86700
C  3.43500 43.74300 29.39700
C  3.62800 42.54400 30.25200
O  3.48900 41.34700 29.94400
O  4.02900 42.92900 31.45700
C  4.09900 41.94200 32.50200
H  -3.25700 42.44500 28.21400
H  -1.94700 42.94300 22.00000
H  4.17300 44.31400 23.10500
H  0.74900 42.72200 30.71600
H  -1.91400 43.91400 30.19200
H  -0.86200 41.38200 31.30700
H  -1.75700 41.12600 29.74800
H  -2.54400 41.84400 31.17600
H  -0.56100 45.35900 31.04500
H  1.08600 45.48900 30.59400
H  0.29100 45.57200 33.15100
H  1.74200 44.86800 32.58000
H  -5.92900 42.57600 26.00700
H  -5.06600 41.99600 27.31400
H  -5.18500 40.80000 26.03600
H  -5.73300 40.58800 23.81500
H  -6.50300 41.34100 22.38400
H  -6.55200 42.13600 23.94100
H  -0.10900 44.12300 20.49200
H  2.58600 43.46500 21.17200
H  0.14900 41.39900 21.13900
H  1.58400 41.93200 20.19000
H  -0.08900 42.33300 19.70600
H  3.09400 45.85700 20.90500
H  1.70100 46.41000 21.70100
H  1.26000 45.04100 18.98300
H  2.44700 46.33200 19.10000
H  0.72100 46.65400 19.54500
H  6.40900 45.19200 25.82200
H  5.88200 44.86100 24.20200
H  6.68200 43.56800 25.09400
H  3.39700 44.65600 29.99100
H  5.02200 41.44000 32.21200
H  3.25000 41.26400 32.40800
H  4.11900 42.49400 33.44200

