158

Mg -0.32600 6.85800 26.23100
C  0.59900 8.84800 29.23900
C  -0.45100 4.11400 28.33600
C  -0.82700 5.01500 23.54500
C  0.25300 9.72900 24.39400
N  -0.19100 6.59800 28.57800
C  0.15400 7.51800 29.55600
C  0.09800 6.87300 30.98300
C  0.11100 5.34100 30.51500
C  -0.21800 5.30300 29.02700
C  1.42200 4.53900 30.87000
C  -1.14700 7.35600 31.79200
C  -1.05500 7.62600 33.31300
H  -0.25700 6.61300 34.19100
N  -0.50100 4.88000 25.96000
C  -0.48500 3.88300 26.95200
C  -0.65400 2.56600 26.37600
C  -0.83100 2.79300 24.97000
C  -0.68300 4.30900 24.80300
C  -0.65100 1.29100 27.13800
C  -1.06500 1.73100 23.86000
O  -1.32000 2.07800 22.72300
C  -1.01700 0.25400 24.12400
N  -0.11300 7.27700 24.28200
C  -0.52400 6.36800 23.35700
C  -0.61600 6.96400 21.95100
C  -0.31200 8.50100 22.14800
C  0.04600 8.55700 23.67400
C  0.36500 6.37600 20.87100
C  -1.51300 9.38000 21.70100
C  -2.85400 9.18500 22.31700
N  0.01100 8.89600 26.69700
C  0.21200 9.93600 25.81000
C  0.56200 11.19900 26.54100
C  0.75700 10.73100 27.86100
C  0.37400 9.38600 27.94100
C  0.90100 12.46600 25.87000
C  1.15800 11.15700 29.15000
O  1.62900 12.22300 29.43200
C  0.99100 10.02300 30.10500
C  2.07100 9.94600 31.12400
O  3.22000 9.79700 30.75800
O  1.64700 10.00700 32.43500
C  2.69800 10.16700 33.47300
H  -0.53900 3.23500 28.97700
H  -1.15400 4.38500 22.71600
H  0.37300 10.68500 23.88100
H  1.03900 7.23700 31.39600
H  -0.70400 4.84500 31.04200
H  1.22600 3.72600 31.56900
H  2.14100 5.15000 31.41600
H  1.89000 4.07400 30.00200
H  -1.95200 6.64000 31.62100
H  -1.38300 8.27400 31.25500
H  -2.08400 7.70300 33.66300
H  -0.63000 8.62800 33.35700
H  0.24100 0.70700 26.91000
H  -1.61300 0.85800 26.86400
H  -0.77800 1.39200 28.21600
H  -1.87700 0.00700 24.74700
H  -0.10100 -0.08800 24.60600
H  -1.08700 -0.30800 23.19300
H  -1.68000 6.79400 21.78400
H  0.63300 8.70600 21.64500
H  0.08800 5.33400 20.71100
H  1.39200 6.28300 21.22600
H  0.28200 7.00900 19.98700
H  -1.64700 9.33200 20.62100
H  -1.28400 10.44200 21.78200
H  -3.32100 10.08300 22.72200
H  -2.87600 8.34300 23.00900
H  -3.53800 8.86200 21.53200
H  1.19300 13.20000 26.62100
H  -0.01000 12.81000 25.38000
H  1.67300 12.24400 25.13300
H  0.11900 10.20900 30.73200
H  2.77300 11.18800 33.84500
H  3.68700 9.80600 33.19100
H  2.37100 9.51100 34.28000
Mg 50.89200 44.48600 42.57100
C  47.68400 45.43600 41.12400
C  50.36000 41.33600 41.28600
C  54.15500 43.94600 43.11900
C  51.38900 47.87500 43.15100
N  49.19400 43.57700 41.35100
C  48.02500 44.14600 40.86500
C  47.23700 43.10900 40.10100
C  48.04400 41.76100 40.29900
C  49.27100 42.22600 41.01600
C  47.15600 40.75900 41.05300
C  47.19700 43.63000 38.63600
C  45.81100 43.70500 38.00800
H  45.69200 42.98300 36.64000
N  52.07600 42.83200 42.34200
C  51.66500 41.57400 41.95100
C  52.74100 40.61700 42.14100
C  53.86800 41.34300 42.68200
C  53.44000 42.79300 42.75700
C  52.66200 39.17400 41.78800
C  55.18000 40.73600 43.13200
O  55.47900 39.53100 42.89300
C  56.17900 41.51400 43.96000
N  52.57100 45.76300 42.96500
C  53.83300 45.31800 43.17400
C  54.83100 46.47300 43.39700
C  53.91900 47.70400 43.30600
C  52.48700 47.06700 43.20400
C  55.62300 46.56200 44.78500
C  54.15600 48.81700 42.23300
C  54.41400 50.23000 42.78000
N  49.71500 46.29000 42.50800
C  49.98600 47.59800 42.87200
C  48.78100 48.44500 42.73300
C  47.80500 47.60100 42.11900
C  48.46200 46.31500 41.94700
C  48.67600 49.89000 43.05800
C  46.49700 47.60500 41.49100
O  45.65400 48.45800 41.36800
C  46.38800 46.18000 40.74500
C  45.03900 45.59000 41.11200
O  44.05900 45.52000 40.43700
O  45.07500 45.17500 42.44400
C  43.84400 44.79800 43.11600
H  50.20900 40.34800 40.84600
H  55.20700 43.78700 43.36100
H  51.46800 48.95700 43.27900
H  46.21100 43.07600 40.46700
H  48.22500 41.33200 39.31300
H  46.12700 41.12000 41.02900
H  47.50700 40.75700 42.08500
H  47.06000 39.77100 40.60400
H  47.91500 43.04800 38.05900
H  47.51900 44.66300 38.50600
H  45.57500 44.73900 37.75500
H  44.99500 43.30300 38.60900
H  53.07900 39.08700 40.78500
H  51.65900 38.77500 41.63900
H  53.14600 38.49000 42.48500
H  55.69800 42.21800 44.64000
H  56.84800 41.92700 43.20500
H  56.74700 40.86200 44.62400
H  55.59300 46.56900 42.62400
H  53.74500 48.23200 44.24400
H  55.60700 45.56900 45.23300
H  55.26100 47.36100 45.43200
H  56.67500 46.76600 44.58400
H  53.40900 48.76400 41.44000
H  55.12300 48.49800 41.84400
H  54.12400 50.36800 43.82200
H  54.02500 50.95400 42.06500
H  55.48800 50.41400 42.74900
H  48.78900 50.51900 42.17500
H  49.55400 50.03000 43.68900
H  47.79700 49.99500 43.69500
H  46.41200 46.36800 39.67200
H  43.92700 43.71800 42.99100
H  42.98900 45.16900 42.55100
H  43.76300 45.17800 44.13400

