158

Mg 0.41800 43.39600 25.54000
C  1.75200 43.20600 28.87900
C  -2.58500 42.46200 26.87100
C  -0.69800 43.04500 22.50200
C  3.71800 43.51900 24.36300
N  -0.37000 43.03900 27.64500
C  0.34200 43.01400 28.80200
C  -0.53500 42.88700 30.04600
C  -1.91900 42.37300 29.42300
C  -1.59200 42.49500 27.87600
C  -2.33800 40.95200 29.79000
C  -0.61200 44.23900 30.83400
C  0.02800 44.29700 32.27200
H  -0.85500 44.34000 33.49500
N  -1.45500 42.96700 24.80900
C  -2.59300 42.62300 25.46100
C  -3.73200 42.72000 24.45800
C  -3.18900 42.94700 23.15400
C  -1.70400 42.99500 23.43000
C  -5.19500 42.62400 24.87100
C  -3.84100 42.90300 21.77400
O  -3.24700 43.05100 20.73000
C  -5.22400 42.45200 21.67000
N  1.34400 43.24100 23.74100
C  0.64300 43.20700 22.55600
C  1.60800 43.22700 21.36800
C  2.92200 43.61300 21.94800
C  2.67200 43.43000 23.46600
C  1.51200 41.91500 20.55100
C  3.29400 45.01900 21.60200
C  3.70300 45.39500 20.14000
N  2.41300 43.47200 26.41700
C  3.68500 43.48900 25.78400
C  4.73500 43.69500 26.82200
C  3.96300 43.60000 28.06800
C  2.58000 43.42200 27.74800
C  6.24500 43.75900 26.74400
C  4.16200 43.30500 29.44600
O  5.20400 43.20000 30.12300
C  2.70400 43.20100 30.06700
C  2.66300 41.92200 30.76500
O  2.42000 40.83300 30.26700
O  3.13600 42.24200 32.03600
C  3.21100 41.01800 32.97500
H  -3.59500 42.30600 27.25600
H  -1.04700 42.96900 21.47000
H  4.72400 43.68800 23.97300
H  -0.13200 42.06300 30.63500
H  -2.73200 42.97600 29.82800
H  -1.88000 40.64700 30.73000
H  -1.93600 40.25700 29.05300
H  -3.42700 40.89300 29.80800
H  -1.63800 44.60500 30.86500
H  -0.08400 44.95400 30.20500
H  0.56100 45.24800 32.27800
H  0.87100 43.62500 32.43300
H  -5.88600 43.19100 24.24700
H  -5.21500 43.02600 25.88400
H  -5.48600 41.57700 24.95700
H  -5.46300 42.20400 20.63500
H  -5.81900 43.27700 22.06100
H  -5.26100 41.50100 22.20100
H  1.23500 44.05400 20.76400
H  3.73700 42.98800 21.58200
H  1.42500 41.11700 21.28900
H  2.46100 41.68200 20.06700
H  0.84200 41.98100 19.69300
H  4.15500 45.25000 22.22900
H  2.52200 45.69700 21.96600
H  3.23800 44.66100 19.48200
H  4.77200 45.54700 19.99300
H  3.24400 46.35800 19.91500
H  6.65300 43.35000 25.82000
H  6.64400 43.18400 27.58000
H  6.53500 44.81000 26.75600
H  2.53000 43.97800 30.81100
H  3.39900 40.06200 32.48700
H  2.22400 40.94400 33.42900
H  3.90300 40.95800 33.81500
Mg -5.65600 25.51100 25.50400
C  -4.32300 26.75600 28.42100
C  -7.64000 23.40200 27.30000
C  -6.53800 23.93800 22.58200
C  -3.17800 27.37000 23.64400
N  -5.88200 25.05800 27.68800
C  -5.27000 25.76200 28.71200
C  -5.83500 25.31200 30.07800
C  -6.59600 23.96600 29.63300
C  -6.83200 24.17600 28.11500
C  -5.69600 22.72700 29.79400
C  -6.79200 26.25500 30.75200
C  -6.69300 26.16300 32.23400
H  -6.05300 24.95400 32.95000
N  -6.96400 23.89900 25.02100
C  -7.74700 23.29600 25.90100
C  -8.62200 22.44300 25.11700
C  -8.24900 22.52200 23.75800
C  -7.20600 23.48100 23.72400
C  -9.80300 21.61700 25.79400
C  -8.74000 21.68000 22.57600
O  -8.32100 21.84900 21.42400
C  -9.81700 20.70300 22.76100
N  -4.81900 25.52300 23.43800
C  -5.42300 24.85800 22.42400
C  -4.92200 25.28000 21.04100
C  -4.13600 26.57100 21.37000
C  -3.96500 26.46400 22.86200
C  -4.18400 24.07000 20.39900
C  -4.79100 27.93100 20.94900
C  -4.06800 28.61500 19.75800
N  -4.06500 26.83300 25.84600
C  -3.12900 27.50000 25.04700
C  -2.43400 28.49000 25.93000
C  -2.86200 28.13300 27.21400
C  -3.77300 27.09700 27.15600
C  -1.58300 29.62100 25.54800
C  -2.52100 28.46600 28.58400
O  -1.69200 29.23600 28.98900
C  -3.46300 27.54100 29.42800
C  -2.50000 26.67500 30.18400
O  -1.94100 25.70000 29.67500
O  -2.38500 27.10800 31.46400
C  -1.59800 26.31700 32.39900
H  -8.31000 22.79300 27.91000
H  -6.81700 23.45700 21.64200
H  -2.52700 28.05200 23.09200
H  -4.97800 25.21900 30.74400
H  -7.51500 23.76800 30.18500
H  -4.67800 22.95000 30.11300
H  -5.65200 22.28000 28.80200
H  -6.17000 22.05200 30.50700
H  -7.80300 25.89000 30.57200
H  -6.66500 27.28300 30.41100
H  -7.72800 26.19400 32.57400
H  -6.23500 27.06000 32.65100
H  -9.85500 21.68800 26.88100
H  -9.72400 20.55700 25.55300
H  -10.72500 22.08600 25.45100
H  -10.22300 20.30800 21.83000
H  -10.65900 21.22400 23.21700
H  -9.61900 19.80600 23.34700
H  -5.81000 25.37500 20.41700
H  -3.11100 26.48500 21.01100
H  -3.24700 24.47300 20.01700
H  -4.74800 23.66900 19.55700
H  -4.20600 23.23600 21.10100
H  -4.72900 28.67300 21.74500
H  -5.82500 27.77600 20.63900
H  -3.13000 28.14700 19.45900
H  -3.72300 29.61700 20.01400
H  -4.71100 28.44700 18.89400
H  -1.61900 29.82200 24.47700
H  -0.49600 29.58200 25.62500
H  -1.94000 30.52200 26.04600
H  -4.07100 28.10700 30.13400
H  -2.26000 26.04600 33.22200
H  -0.80700 26.89400 32.87800
H  -1.28200 25.40700 31.89000

