158

Mg 24.16000 -4.70500 45.79100
C  26.09900 -2.39300 44.15000
C  21.49700 -3.79000 43.75700
C  22.54600 -7.36700 46.82100
C  27.09100 -5.94500 47.45900
N  23.86200 -3.23000 44.16600
C  24.77400 -2.36100 43.69700
C  24.10400 -1.29100 42.70400
C  22.59500 -1.63100 42.91500
C  22.61300 -2.96900 43.65200
C  21.82000 -0.54300 43.60700
C  24.70200 -1.54700 41.26000
C  25.08400 -0.27900 40.52600
H  24.69200 -0.09500 39.05100
N  22.27400 -5.46900 45.39000
C  21.34200 -4.95700 44.50700
C  20.15300 -5.73900 44.68300
C  20.32600 -6.81300 45.59100
C  21.74100 -6.61400 45.95900
C  18.93400 -5.24300 43.95400
C  19.32300 -7.87600 45.97100
O  18.16200 -7.96200 45.50300
C  19.61500 -8.81400 47.23000
N  24.81900 -6.55100 46.92100
C  23.83700 -7.38200 47.29700
C  24.41800 -8.52700 48.22000
C  25.88200 -8.02600 48.43300
C  25.96200 -6.73800 47.64500
C  23.41700 -8.93100 49.30600
C  26.98200 -9.03600 48.24800
C  27.53000 -9.26700 46.86100
N  26.18500 -4.26600 45.84000
C  27.23800 -4.81000 46.62400
C  28.40400 -4.04400 46.43100
C  28.04000 -3.13800 45.46700
C  26.66900 -3.26100 45.15800
C  29.75500 -4.27300 47.09700
C  28.47900 -2.07000 44.68100
O  29.59600 -1.57300 44.72100
C  27.27400 -1.52500 43.77400
C  27.07700 -0.07700 44.06200
O  26.33200 0.38800 44.94000
O  27.93400 0.67800 43.28000
C  27.83900 2.07700 43.46700
H  20.68100 -3.54800 43.07300
H  22.03000 -8.25900 47.18200
H  27.91200 -6.34500 48.05700
H  24.43400 -0.30600 43.03400
H  22.08800 -1.74700 41.95700
H  21.70000 -0.71700 44.67600
H  20.80100 -0.47700 43.22400
H  22.28600 0.43800 43.51000
H  23.96400 -2.01300 40.60700
H  25.48600 -2.30400 41.28900
H  26.15600 -0.16600 40.68400
H  24.77400 0.60000 41.09100
H  19.13000 -5.33400 42.88600
H  18.65500 -4.22200 44.21300
H  18.08700 -5.80800 44.34500
H  18.72000 -9.17500 47.73700
H  20.14400 -8.19000 47.95000
H  20.26800 -9.65400 46.99400
H  24.37000 -9.30600 47.46000
H  25.92800 -7.83300 49.50500
H  23.91600 -8.69700 50.24700
H  23.21200 -9.99000 49.14900
H  22.48900 -8.35900 49.28800
H  26.41200 -9.93300 48.49100
H  27.75300 -8.91700 49.00900
H  28.46300 -8.70500 46.89400
H  27.01100 -8.83000 46.00800
H  27.60900 -10.35400 46.85200
H  29.91700 -5.35000 47.07300
H  29.77500 -4.06600 48.16700
H  30.54100 -3.77200 46.53100
H  27.57400 -1.52300 42.72600
H  28.81600 2.48000 43.20100
H  27.57800 2.49900 44.43700
H  27.06100 2.41500 42.78200
Mg 10.23200 46.65300 25.27700
C  8.23300 47.02900 28.22100
C  12.83300 48.15000 27.19300
C  12.11600 46.47200 22.64900
C  7.35900 46.24700 23.55500
N  10.51700 47.39000 27.45100
C  9.59100 47.37500 28.46700
C  10.20000 47.71800 29.78200
C  11.43200 48.51300 29.33100
C  11.66900 48.01300 27.88700
C  11.31700 50.04600 29.45600
C  10.43900 46.43000 30.65900
C  10.77800 46.72900 32.16600
H  10.20900 45.82600 33.24500
N  12.30400 47.06500 24.97900
C  13.14200 47.68400 25.86600
C  14.44700 47.68400 25.29100
C  14.25500 47.19100 23.94300
C  12.86200 46.93300 23.79400
C  15.67900 47.87500 26.17600
C  15.30700 46.89500 22.84000
O  15.01500 46.30500 21.80900
C  16.74900 47.39300 23.09900
N  9.77500 46.55700 23.30700
C  10.71800 46.35600 22.38700
C  10.21100 45.78400 21.00500
C  8.69300 45.78700 21.29500
C  8.59500 46.22600 22.78200
C  10.63400 46.52900 19.66500
C  7.91900 44.42000 20.99900
C  6.61300 44.64300 20.14700
N  8.19500 46.47800 25.70400
C  7.11700 46.32900 24.85300
C  5.87900 46.29600 25.61100
C  6.29200 46.61700 26.86700
C  7.71100 46.68200 26.93900
C  4.49500 46.05200 25.07400
C  5.79200 46.66100 28.26700
O  4.65900 46.53500 28.69800
C  7.07600 46.92700 29.25500
C  7.16300 45.83600 30.25200
O  7.65700 44.71500 30.19300
O  6.37700 46.26100 31.31900
C  6.07500 45.24900 32.26500
H  13.56400 48.68900 27.79900
H  12.56800 46.28300 21.67300
H  6.48600 46.12300 22.91100
H  9.51400 48.27200 30.42300
H  12.26100 48.16500 29.94800
H  10.34000 50.39500 29.78900
H  11.61600 50.44800 28.48800
H  12.05900 50.37900 30.18200
H  11.33600 45.99100 30.22300
H  9.58300 45.77600 30.82500
H  10.33200 47.67800 32.46100
H  11.84100 46.85500 32.37500
H  16.40700 47.11600 25.88900
H  15.49700 47.73900 27.24200
H  16.13600 48.86000 26.07900
H  17.19100 47.73300 22.16200
H  17.31900 46.59200 23.57200
H  16.53700 48.25200 23.73500
H  10.60700 44.79400 20.77800
H  8.18900 46.59600 20.76700
H  11.06300 45.77500 19.00500
H  11.32600 47.27800 20.05000
H  9.80100 47.02100 19.16300
H  7.59000 44.13600 21.99800
H  8.54000 43.67100 20.50700
H  6.57400 45.59500 19.61900
H  5.73200 44.75200 20.77900
H  6.38600 43.94400 19.34200
H  3.83000 46.37300 25.87600
H  4.16500 45.08200 24.70200
H  4.32300 46.73400 24.24100
H  6.82300 47.86000 29.75900
H  5.08500 44.83100 32.08400
H  6.16600 45.73000 33.23900
H  6.74500 44.39900 32.39800

