158

Mg 0.54900 8.27300 25.13400
C  1.31200 9.92800 28.29600
C  0.75000 5.31900 26.98400
C  0.20600 6.76500 22.30500
C  1.20900 11.28700 23.54600
N  0.86700 7.69700 27.44400
C  1.10600 8.56100 28.44200
C  1.29100 7.78000 29.80000
C  1.15900 6.29800 29.37200
C  1.00200 6.42000 27.80400
C  2.30700 5.27600 29.79300
C  0.28500 8.12900 30.96700
C  0.88600 8.58200 32.28500
H  1.98400 7.68500 32.83100
N  0.48300 6.26000 24.68700
C  0.54100 5.23500 25.55400
C  0.37100 4.01900 24.80300
C  0.22600 4.37900 23.40700
C  0.33900 5.83200 23.38800
C  0.31600 2.69100 25.48600
C  0.19300 3.49600 22.19800
O  0.00000 3.94800 21.08800
C  0.32800 1.97500 22.35400
N  0.80800 8.96700 23.20900
C  0.42900 8.12500 22.23600
C  0.70200 8.81600 20.85900
C  0.76900 10.30300 21.25300
C  0.94200 10.16400 22.75400
C  1.89800 8.24600 20.09200
C  -0.39400 11.23300 20.82200
C  -1.81600 11.11000 21.38600
N  1.17500 10.26200 25.68800
C  1.40900 11.38800 24.93500
C  1.74500 12.51400 25.78800
C  1.68600 12.02300 27.09400
C  1.38800 10.61300 27.00100
C  2.02900 13.88200 25.46800
C  1.80600 12.36500 28.51800
O  2.23100 13.42700 29.02500
C  1.57400 11.04300 29.34200
C  2.84300 10.78600 30.06500
O  3.83600 10.14300 29.69900
O  2.76600 11.45100 31.22500
C  3.86600 11.58700 32.15500
H  0.84600 4.32900 27.43500
H  -0.03400 6.31800 21.33900
H  1.37200 12.28200 23.12600
H  2.30600 8.10800 30.02400
H  0.19300 5.86800 29.63500
H  3.02800 5.57700 30.55400
H  2.81100 4.82500 28.93800
H  1.79900 4.46100 30.30800
H  -0.30100 7.25500 31.25100
H  -0.41900 8.84000 30.53400
H  0.11600 8.49100 33.05100
H  1.11400 9.64600 32.22100
H  -0.42100 2.08400 24.96200
H  -0.14700 2.71700 26.47200
H  1.28600 2.19800 25.55900
H  -0.44700 1.47300 22.93300
H  1.34200 1.91400 22.74900
H  0.35700 1.42500 21.41300
H  -0.19900 8.56600 20.29800
H  1.70100 10.77100 20.93400
H  2.74500 8.93100 20.05200
H  1.57500 8.10100 19.06100
H  2.20400 7.26700 20.45800
H  -0.43200 11.25700 19.73300
H  -0.07700 12.23100 21.12400
H  -2.05100 12.08400 21.81600
H  -1.79300 10.36900 22.18400
H  -2.58200 10.80900 20.67100
H  0.99900 14.21000 25.32800
H  2.60800 13.86000 24.54400
H  2.32900 14.46200 26.34000
H  0.66000 11.08700 29.93500
H  4.74800 11.70700 31.52600
H  4.11100 10.70700 32.74900
H  3.69100 12.34100 32.92300
Mg -5.55500 25.94400 26.24900
C  -4.30800 27.60900 29.02400
C  -7.00000 23.68800 28.29900
C  -6.53600 24.21800 23.38900
C  -3.72500 28.06500 24.13200
N  -5.66300 25.80500 28.35600
C  -5.20300 26.61600 29.33900
C  -5.61000 26.15100 30.73300
C  -6.13200 24.72200 30.46900
C  -6.28200 24.70800 28.90200
C  -5.27900 23.59700 31.08800
C  -6.66600 27.12300 31.27400
C  -6.65700 27.00600 32.83200
H  -6.04700 25.76900 33.65200
N  -6.63300 24.26700 25.93500
C  -7.17900 23.43100 26.90500
C  -7.95600 22.43500 26.31300
C  -7.95000 22.61600 24.92700
C  -6.97300 23.70500 24.66000
C  -8.37100 21.20800 27.11100
C  -8.65900 21.81500 23.87400
O  -8.43500 22.00300 22.70000
C  -9.71200 20.68000 24.09700
N  -5.22000 26.15200 24.07100
C  -5.78300 25.37900 23.09300
C  -5.42100 25.80800 21.68100
C  -4.64300 27.10000 21.90500
C  -4.61200 27.19300 23.40500
C  -4.60900 24.74900 20.89100
C  -5.35900 28.43900 21.32500
C  -5.21500 28.70400 19.72000
N  -4.14000 27.44700 26.46000
C  -3.50400 28.25200 25.57500
C  -2.68600 29.21800 26.29200
C  -2.91500 29.00600 27.63300
C  -3.89400 27.94800 27.68300
C  -1.85800 30.35500 25.65800
C  -2.62500 29.42300 28.98900
O  -1.97500 30.33600 29.46900
C  -3.55900 28.60900 29.93000
C  -2.68400 27.96200 30.82300
O  -1.87400 27.13600 30.52900
O  -2.96000 28.37700 32.14900
C  -2.34400 27.46000 33.13400
H  -7.55600 23.04600 28.98500
H  -6.85400 23.66100 22.50500
H  -3.30700 28.77300 23.41300
H  -4.71600 26.10700 31.35500
H  -7.16900 24.69400 30.80300
H  -5.92700 22.93500 31.66200
H  -4.43600 24.04100 31.61700
H  -4.77800 22.99300 30.33100
H  -7.63200 26.83500 30.85900
H  -6.57300 28.17300 30.99600
H  -7.67000 27.11400 33.22000
H  -6.01500 27.79000 33.23300
H  -8.48700 20.34700 26.45400
H  -9.44200 21.27000 27.29900
H  -7.77400 21.10500 28.01700
H  -10.34100 20.40100 23.25200
H  -10.39500 20.98100 24.89200
H  -9.27000 19.72700 24.38600
H  -6.30800 25.91400 21.05500
H  -3.61400 27.02600 21.55300
H  -4.31000 23.88000 21.47700
H  -3.70900 25.21900 20.49500
H  -5.20000 24.39100 20.04800
H  -4.97500 29.30000 21.87200
H  -6.42700 28.27000 21.46400
H  -4.97200 29.76700 19.70400
H  -6.15500 28.43900 19.23700
H  -4.43100 28.04000 19.35700
H  -2.43700 31.27500 25.74400
H  -1.92700 30.26000 24.57400
H  -0.81000 30.38500 25.95400
H  -4.28500 29.28000 30.38900
H  -2.57500 26.40100 33.02500
H  -2.67700 27.87500 34.08500
H  -1.27600 27.63800 33.00600

