158

Mg -2.38000 16.99700 27.56400
C  -2.76200 14.96400 30.34300
C  -2.85300 19.76200 29.60600
C  -2.53800 19.03900 24.69900
C  -2.71500 14.24800 25.41700
N  -2.96600 17.30500 29.76900
C  -2.84200 16.33500 30.74100
C  -2.88000 16.98700 32.14900
C  -3.15600 18.44600 31.88600
C  -2.97900 18.56800 30.36400
C  -4.49300 19.02400 32.33000
C  -1.61400 16.65200 32.99600
C  -1.21100 17.61200 34.16700
H  -0.83400 16.78400 35.47200
N  -2.47900 19.13200 27.23400
C  -2.67400 20.05300 28.19100
C  -2.69700 21.37700 27.54300
C  -2.33400 21.16000 26.16100
C  -2.44900 19.69900 25.96000
C  -3.01500 22.58000 28.37900
C  -2.11400 22.14000 25.02100
O  -2.01300 21.85500 23.86700
C  -1.99100 23.60000 25.45200
N  -2.59200 16.65700 25.37500
C  -2.65100 17.61700 24.39800
C  -2.77900 17.00000 23.01000
C  -2.62100 15.47100 23.23100
C  -2.62600 15.45500 24.72400
C  -4.03500 17.44200 22.26100
C  -1.41900 14.99900 22.40300
C  -0.09400 14.68900 23.17900
N  -2.67400 15.01000 27.79300
C  -2.70400 13.97500 26.90500
C  -2.80700 12.69600 27.50400
C  -2.63000 13.03400 28.81900
C  -2.66300 14.44500 28.99400
C  -3.03000 11.38600 26.95400
C  -2.59300 12.47800 30.16400
O  -2.54800 11.30400 30.56000
C  -2.66200 13.67900 31.24500
C  -1.68000 13.51000 32.23600
O  -0.51600 13.82300 32.14500
O  -2.23700 13.05900 33.46500
C  -1.39400 12.88700 34.67700
H  -2.98200 20.58700 30.30900
H  -2.48100 19.64100 23.79000
H  -2.72500 13.35900 24.78200
H  -3.68600 16.64200 32.79700
H  -2.48200 19.14800 32.37700
H  -5.23400 18.32300 32.71400
H  -4.98700 19.58400 31.53500
H  -4.39300 19.73100 33.15300
H  -0.71100 16.47900 32.41000
H  -1.78100 15.70700 33.51300
H  -2.12800 18.08100 34.52300
H  -0.42600 18.34600 33.98400
H  -2.14700 23.22300 28.53000
H  -3.45600 22.32100 29.34200
H  -3.77200 23.08900 27.78300
H  -2.05100 24.13200 24.50300
H  -1.19500 23.85800 26.15100
H  -2.94300 23.79800 25.94500
H  -1.91000 17.35300 22.45500
H  -3.53900 14.95400 22.95100
H  -4.74800 17.90100 22.94600
H  -4.39000 16.59900 21.66800
H  -3.88500 18.19200 21.48400
H  -1.12600 15.59500 21.53900
H  -1.74900 14.03300 22.02200
H  -0.11500 14.95600 24.23500
H  0.64100 15.27500 22.62700
H  0.24100 13.65600 23.08100
H  -2.36400 10.66600 27.43000
H  -2.88900 11.27800 25.87800
H  -4.02400 11.10300 27.30100
H  -3.57500 13.71700 31.83900
H  -1.79700 13.47500 35.50200
H  -0.33600 13.13900 34.59500
H  -1.41900 11.82700 34.92900
Mg 46.93500 17.30600 28.17300
C  45.20400 17.06800 31.18000
C  49.19900 19.47600 29.71300
C  48.18600 18.12200 25.22200
C  44.18700 15.69300 26.62200
N  47.09500 18.32700 30.21600
C  46.40700 17.79400 31.32200
C  47.13300 18.28700 32.66000
C  48.38400 19.05500 32.09100
C  48.22100 18.96100 30.56500
C  48.62500 20.39600 32.70500
C  47.47900 17.15600 33.69000
C  46.90200 17.26400 35.06500
H  46.60400 18.64500 35.56500
N  48.54500 18.51100 27.54800
C  49.45100 19.24000 28.37200
C  50.52600 19.77000 27.53800
C  50.15000 19.56800 26.19600
C  48.92400 18.71800 26.23400
C  51.71600 20.36600 28.10200
C  50.91800 19.91000 24.92700
O  50.49500 19.71700 23.81600
C  52.33200 20.49500 25.06400
N  46.24000 16.95200 26.18000
C  47.06500 17.35000 25.11500
C  46.58200 16.62800 23.78600
C  45.28200 15.89100 24.27200
C  45.21100 16.18500 25.76700
C  46.52600 17.60600 22.61100
C  45.29400 14.32500 23.95400
C  46.30200 13.42700 24.82200
N  45.08700 16.57400 28.69500
C  44.09000 15.96000 27.97800
C  42.99200 15.51900 28.86500
C  43.43000 15.94000 30.11800
C  44.67000 16.59900 29.96400
C  41.67000 14.92100 28.42200
C  43.10900 15.88500 31.61500
O  42.09000 15.53500 32.21800
C  44.23600 16.72200 32.29700
C  43.64700 17.96400 32.92000
O  43.40400 19.04300 32.40700
O  43.18300 17.59900 34.17400
C  42.36500 18.59600 34.87100
H  50.12100 19.83700 30.17400
H  48.75100 18.23100 24.29400
H  43.35900 15.15400 26.15700
H  46.45500 18.98000 33.15700
H  49.22700 18.41600 32.35400
H  47.77200 20.67900 33.32200
H  48.74500 21.03400 31.83000
H  49.45500 20.40100 33.41200
H  48.53500 16.88700 33.65000
H  47.06200 16.25200 33.24700
H  47.59600 16.77100 35.74600
H  45.92400 16.80700 34.92200
H  52.60500 19.75800 27.93600
H  51.72100 20.45700 29.18900
H  51.86700 21.31200 27.58100
H  52.94300 19.88600 25.73000
H  52.24700 21.55700 25.29500
H  52.81300 20.42100 24.08800
H  47.32200 15.85800 23.56700
H  44.39100 16.24600 23.75300
H  46.61100 18.58700 23.07700
H  45.55400 17.42600 22.15100
H  47.40400 17.37500 22.00800
H  45.83600 14.30900 23.00800
H  44.32100 13.84400 23.85400
H  46.80700 12.68500 24.20300
H  45.70700 12.88400 25.55600
H  47.14900 13.93900 25.27800
H  40.96100 14.99800 29.24600
H  41.81200 13.89600 28.07700
H  41.30500 15.38000 27.50200
H  44.70600 16.15500 33.10000
H  41.47700 18.02600 35.14200
H  42.05300 19.48200 34.31800
H  42.93900 18.87600 35.75500

