158

Mg 53.70300 23.58700 45.20400
C  51.24800 25.71300 43.77200
C  52.07700 20.95500 43.88300
C  56.40300 21.79600 45.48100
C  55.30600 26.52500 46.30400
N  51.93700 23.40200 43.96900
C  51.08300 24.35800 43.55700
C  49.87200 23.76500 42.78000
C  50.00200 22.24900 43.25000
C  51.43400 22.17400 43.67200
C  49.05700 21.87100 44.41600
C  49.99700 23.95100 41.26200
C  48.77700 24.23400 40.36100
H  49.04800 24.49900 38.82600
N  54.17500 21.60400 44.82800
C  53.42200 20.69000 44.22400
C  54.06200 19.35700 44.30600
C  55.32200 19.60300 44.74300
C  55.36500 21.02600 44.95300
C  53.31100 18.06000 44.00800
C  56.39700 18.62200 44.90400
O  56.05800 17.46700 44.65400
C  57.82300 18.95100 45.27000
N  55.55000 24.10700 45.77800
C  56.50400 23.14100 45.89500
C  57.89200 23.80200 46.17000
C  57.48200 25.16100 46.86300
C  56.05000 25.32000 46.27500
C  58.82900 23.00000 47.12000
C  58.42900 26.37500 46.60900
C  58.67800 27.32300 47.69000
N  53.30100 25.67100 45.25200
C  53.96800 26.67600 45.82000
C  53.25000 27.93500 45.68900
C  52.09600 27.57300 44.92200
C  52.26400 26.20400 44.61800
C  53.63500 29.21600 46.33700
C  50.82000 28.03300 44.32900
O  50.23600 29.10000 44.37300
C  50.26800 26.84900 43.57800
C  50.04900 27.22700 42.19400
O  50.88300 27.59100 41.37100
O  48.69500 27.35100 41.95900
C  48.45700 27.80300 40.53000
H  51.46400 20.11800 43.54600
H  57.36000 21.37000 45.79000
H  55.83000 27.40600 46.67900
H  48.99400 24.32400 43.10600
H  49.86000 21.52000 42.45200
H  48.26700 22.62200 44.44200
H  49.53600 21.80000 45.39300
H  48.43000 21.01800 44.15700
H  50.56400 23.06300 40.98200
H  50.67700 24.78600 41.10000
H  48.34900 25.02400 40.97800
H  48.08300 23.39400 40.34500
H  52.30100 18.26700 43.65500
H  53.16700 17.44200 44.89400
H  53.82400 17.49200 43.23200
H  58.23400 19.87500 44.86300
H  58.48300 18.10000 45.09900
H  57.74100 19.10000 46.34700
H  58.43900 23.97300 45.24200
H  57.28100 25.17400 47.93400
H  58.22300 22.19000 47.52700
H  59.28400 23.57300 47.92800
H  59.61700 22.57000 46.50200
H  57.95800 26.95500 45.81500
H  59.39500 26.00300 46.26800
H  59.74200 27.47600 47.86700
H  58.18300 26.97000 48.59500
H  58.15000 28.25600 47.48900
H  52.71900 29.50800 46.85200
H  53.96900 29.99100 45.64700
H  54.41300 29.08900 47.09000
H  49.29400 26.59100 43.99500
H  47.50000 27.41700 40.17800
H  49.13100 27.24200 39.88300
H  48.48800 28.88100 40.37400
Mg -11.00200 17.51200 43.13700
C  -7.56000 18.38000 42.99100
C  -11.72000 20.78300 42.55900
C  -14.35000 16.62500 42.85000
C  -10.17300 14.15600 43.18600
N  -9.74000 19.32800 42.72900
C  -8.36200 19.49400 42.77400
C  -7.87600 20.95300 42.74400
C  -9.29000 21.61400 42.98000
C  -10.29500 20.47900 42.71800
C  -9.34500 22.09100 44.45500
C  -7.33300 21.34400 41.25100
C  -5.86000 21.55400 41.20700
H  -5.11600 20.87500 40.08400
N  -12.81400 18.58400 42.87800
C  -12.87500 19.89600 42.71300
C  -14.23100 20.30400 42.80100
C  -15.07900 19.14900 42.80900
C  -14.10000 18.02100 42.91000
C  -14.60400 21.79000 42.81600
C  -16.62100 19.13600 42.77100
O  -17.21000 20.21300 42.57800
C  -17.49800 17.87000 42.81300
N  -12.17100 15.70400 42.99700
C  -13.50500 15.56200 42.98400
C  -13.94700 14.18000 43.40100
C  -12.60600 13.34100 43.06100
C  -11.58900 14.43800 43.06400
C  -14.43900 14.01100 44.92900
C  -12.57900 12.58700 41.73500
C  -12.53500 11.01200 41.80900
N  -9.22700 16.40000 43.17900
C  -8.99100 15.05200 43.23400
C  -7.56000 14.75500 43.15900
C  -6.97900 16.06400 43.19900
C  -8.02100 17.01500 43.12500
C  -6.79900 13.45000 43.22900
C  -5.74000 16.81300 43.27500
O  -4.56600 16.48100 43.31500
C  -6.09700 18.34700 43.22800
C  -5.81900 18.93400 44.48100
O  -6.23000 18.48800 45.57900
O  -5.06200 20.08600 44.34100
C  -4.96300 20.96500 45.61000
H  -11.91300 21.84800 42.70400
H  -15.42700 16.45000 42.80800
H  -9.94900 13.09000 43.27000
H  -7.18500 21.08100 43.57800
H  -9.61000 22.42100 42.32200
H  -8.42300 22.16100 45.03300
H  -10.08100 21.38900 44.84800
H  -9.85600 23.05000 44.53500
H  -7.73700 22.30400 40.93000
H  -7.58900 20.53400 40.56800
H  -5.56200 21.32500 42.23000
H  -5.72900 22.62300 41.04100
H  -14.88300 22.14400 41.82300
H  -13.78400 22.38100 43.22300
H  -15.51800 21.88200 43.40300
H  -17.41400 17.10000 42.04600
H  -18.52000 18.17700 42.59000
H  -17.58500 17.37900 43.78200
H  -14.70600 13.64500 42.83000
H  -12.33900 12.66800 43.87600
H  -14.30300 14.98700 45.39600
H  -13.82800 13.28800 45.46900
H  -15.50700 13.83600 45.06000
H  -11.62900 12.80500 41.24800
H  -13.41900 12.86700 41.09900
H  -13.27100 10.66900 41.08200
H  -12.83300 10.68200 42.80400
H  -11.51800 10.68500 41.59600
H  -6.24800 13.52000 44.16700
H  -6.14100 13.48000 42.36100
H  -7.42500 12.55800 43.26800
H  -5.50200 18.94200 42.53500
H  -4.46800 20.37000 46.37700
H  -5.95300 21.28700 45.93100
H  -4.37800 21.85600 45.38100

