158

Mg -1.92500 17.13500 25.59600
C  -2.03900 15.08000 28.45600
C  -2.79200 19.73000 27.53500
C  -1.91700 18.97600 22.81400
C  -1.50500 14.22100 23.65400
N  -2.23200 17.26500 27.75100
C  -2.23700 16.37000 28.73100
C  -2.53300 17.01200 30.19700
C  -2.93300 18.46100 29.74300
C  -2.58700 18.54400 28.23400
C  -4.41700 18.86100 29.97000
C  -1.30400 16.89900 31.12700
C  -1.52000 16.15600 32.45100
H  -2.22500 16.87300 33.58000
N  -2.20400 19.11900 25.26600
C  -2.54600 20.05300 26.23200
C  -2.49000 21.35500 25.55600
C  -2.20800 21.18100 24.17700
C  -1.99700 19.70100 24.06000
C  -2.63800 22.72200 26.32500
C  -1.99600 22.22000 23.06500
O  -2.09200 21.97400 21.87400
C  -1.76200 23.70700 23.45700
N  -1.75700 16.66000 23.54900
C  -1.86000 17.60600 22.55900
C  -1.80700 16.99000 21.12100
C  -1.33900 15.59100 21.41800
C  -1.58800 15.45000 22.94600
C  -3.02300 17.17600 20.25500
C  0.09500 15.39900 20.88900
C  1.16100 16.04400 21.80600
N  -1.78600 15.02000 25.98500
C  -1.62300 13.95100 25.07700
C  -1.53400 12.71300 25.73500
C  -1.76700 13.05300 27.08200
C  -1.86800 14.43300 27.17900
C  -1.38500 11.29800 25.20500
C  -1.92100 12.53700 28.45700
O  -1.94100 11.37000 28.82100
C  -1.97500 13.77600 29.35300
C  -0.65600 13.70700 30.10200
O  0.40800 14.20500 29.72200
O  -0.87600 12.91900 31.22100
C  0.24800 12.65900 32.19100
H  -3.14800 20.55100 28.16100
H  -1.90800 19.50800 21.86100
H  -1.23900 13.37400 23.01700
H  -3.36900 16.54800 30.72100
H  -2.27500 19.19300 30.21100
H  -4.41300 19.87400 30.37400
H  -4.91900 18.23900 30.71100
H  -4.92600 18.87000 29.00600
H  -1.05200 17.89800 31.48300
H  -0.46800 16.43200 30.60700
H  -0.55100 15.80000 32.80100
H  -2.14500 15.28700 32.24500
H  -2.72200 22.53100 27.39500
H  -3.40700 23.37900 25.92000
H  -1.66400 23.18100 26.15700
H  -1.83200 24.23200 22.50400
H  -0.77300 23.91600 23.86600
H  -2.64400 24.09700 23.96400
H  -0.96300 17.53300 20.69500
H  -1.94600 14.80100 20.97700
H  -2.64200 17.56500 19.31000
H  -3.67700 17.90100 20.74000
H  -3.51300 16.21500 20.10000
H  0.29800 15.69300 19.85900
H  0.38900 14.34900 20.86200
H  0.68300 16.85200 22.35900
H  2.04300 16.44700 21.30900
H  1.47800 15.30200 22.53900
H  -0.87500 10.65900 25.92600
H  -0.71000 11.31300 24.34900
H  -2.40300 10.92800 25.08800
H  -2.79100 13.61200 30.05600
H  0.00300 11.71700 32.68100
H  0.22900 13.46800 32.92000
H  1.25500 12.61300 31.77600
Mg 46.79900 45.01000 43.31700
C  43.45700 44.27400 42.84400
C  47.48800 41.65200 42.54900
C  49.90400 45.80000 42.89000
C  45.73500 48.48300 43.52000
N  45.57500 43.14700 42.66300
C  44.24100 43.09200 42.67100
C  43.73600 41.64700 42.43100
C  45.03600 40.74100 42.59800
C  46.12400 41.89700 42.57400
C  45.08700 39.86200 43.80500
C  42.90200 41.32700 41.18300
C  43.19300 42.19100 39.93800
H  43.23400 41.47500 38.58700
N  48.53400 43.86600 42.72000
C  48.62300 42.54700 42.56300
C  50.01300 42.14500 42.59300
C  50.77000 43.37800 42.51100
C  49.75300 44.42600 42.61700
C  50.52900 40.67300 42.63200
C  52.22100 43.53600 42.39400
O  52.90600 42.50900 42.40500
C  52.96400 44.84900 42.31100
N  47.70100 46.85300 43.19700
C  49.05100 46.88500 43.35400
C  49.56400 48.35100 43.44200
C  48.25000 49.17100 43.62600
C  47.14200 48.09300 43.42900
C  50.56000 48.54200 44.55000
C  48.05300 50.35400 42.73100
C  47.66400 50.01700 41.25800
N  44.98100 46.14000 43.34200
C  44.72400 47.46800 43.39800
C  43.30300 47.69300 43.38100
C  42.76700 46.44200 43.12600
C  43.81600 45.55000 43.14600
C  42.61800 49.07300 43.51700
C  41.52000 45.77400 42.85300
O  40.39500 46.18200 42.79700
C  41.95900 44.32000 42.74200
C  41.38400 43.50600 43.81400
O  40.75500 42.44400 43.66400
O  41.62800 44.01900 45.05300
C  41.36500 43.16000 46.16900
H  47.87200 40.63100 42.60100
H  50.91600 46.20900 42.94800
H  45.46700 49.52400 43.71000
H  43.11000 41.49900 43.31100
H  45.14700 40.15600 41.68500
H  45.91900 40.16500 44.44000
H  45.31000 38.83900 43.49800
H  44.14200 39.78200 44.34100
H  41.86700 41.47400 41.49200
H  43.09700 40.27700 40.96700
H  44.13100 42.71500 40.12900
H  42.41000 42.93400 39.78600
H  50.52200 40.39100 41.57900
H  49.85300 40.05400 43.22200
H  51.55700 40.55900 42.97400
H  52.44400 45.53700 41.64400
H  53.96300 44.68900 41.90600
H  53.03700 45.28100 43.30900
H  50.11500 48.38800 42.50200
H  48.06200 49.54200 44.63300
H  51.60400 48.57800 44.23800
H  50.46900 47.63200 45.14300
H  50.29900 49.45800 45.08000
H  49.01700 50.84500 42.60000
H  47.27900 51.05200 43.05000
H  46.80500 50.57700 40.88700
H  47.38400 48.97500 41.10400
H  48.46800 50.23800 40.55600
H  43.12100 49.63200 44.30500
H  41.54000 48.95200 43.62500
H  42.77000 49.70900 42.64500
H  41.64800 43.92500 41.77400
H  41.96700 42.25600 46.07500
H  40.29300 42.98000 46.25200
H  41.71500 43.50800 47.14100

