158

Mg 24.86400 -4.81000 45.87500
C  26.97100 -2.53000 44.54700
C  22.26500 -3.60300 43.80600
C  23.11000 -7.75200 46.19600
C  27.67700 -6.37800 47.46300
N  24.62700 -3.30500 44.38300
C  25.67500 -2.46900 43.95200
C  25.21300 -1.52600 42.81200
C  23.66100 -1.72100 42.69900
C  23.47900 -2.95600 43.67900
C  22.74600 -0.47900 43.20400
C  26.07600 -1.53700 41.43500
C  25.63600 -0.55800 40.30100
H  25.93400 -0.92600 38.82200
N  22.89000 -5.53900 45.23300
C  21.94900 -4.84500 44.44500
C  20.69800 -5.55900 44.48000
C  20.97100 -6.75800 45.20700
C  22.37600 -6.78200 45.54900
C  19.45600 -5.18600 43.69400
C  19.86900 -7.83200 45.49400
O  18.75700 -7.64200 45.06200
C  20.14300 -9.04200 46.28000
N  25.35100 -6.84100 46.66200
C  24.42400 -7.80500 46.67000
C  25.11100 -9.08500 47.39800
C  26.54500 -8.58900 47.80100
C  26.51100 -7.18500 47.25300
C  24.44200 -9.61700 48.65600
C  27.79300 -9.38700 47.38500
C  28.73700 -9.78300 48.51700
N  26.96800 -4.38100 46.11400
C  27.97100 -5.09100 46.81500
C  29.21800 -4.25000 46.76800
C  28.81600 -3.25000 45.82600
C  27.44900 -3.44100 45.49400
C  30.51200 -4.53200 47.39500
C  29.27000 -2.03600 45.17600
O  30.39000 -1.49200 45.34300
C  28.12100 -1.60000 44.19100
C  27.84000 -0.20600 44.41600
O  27.17800 0.22600 45.34300
O  28.53600 0.56000 43.48600
C  28.18600 1.93100 43.61400
H  21.41200 -3.25100 43.22000
H  22.53300 -8.66100 46.38000
H  28.49000 -6.84500 48.02300
H  25.42900 -0.55700 43.26400
H  23.49400 -2.10700 41.69300
H  22.21900 -0.17500 42.30000
H  23.44800 0.29200 43.52100
H  21.93000 -0.68500 43.89700
H  26.02800 -2.55500 41.04800
H  27.14600 -1.43200 41.61100
H  26.25300 0.28200 40.62100
H  24.58600 -0.30700 40.44900
H  19.12400 -5.77600 42.84000
H  19.64700 -4.14900 43.41600
H  18.55800 -5.04700 44.29600
H  19.28000 -9.68800 46.44400
H  20.65900 -8.68100 47.17000
H  20.88400 -9.60400 45.71200
H  25.14000 -9.82700 46.60000
H  26.53200 -8.46800 48.88400
H  23.75200 -8.81300 48.91200
H  25.03100 -9.79300 49.55500
H  23.92200 -10.55700 48.46700
H  28.42400 -8.84300 46.68100
H  27.46700 -10.32700 46.94000
H  28.29100 -9.58100 49.49100
H  29.64900 -9.19100 48.44100
H  28.96700 -10.84600 48.44200
H  31.00200 -3.56800 47.53300
H  31.17100 -5.13300 46.76900
H  30.44600 -5.09300 48.32700
H  28.50100 -1.72700 43.17700
H  27.10000 2.02000 43.61200
H  28.45000 2.37800 42.65600
H  28.76300 2.38100 44.42200
Mg -12.56000 17.69700 40.89800
C  -9.48800 16.03800 40.25500
C  -11.03300 20.59200 40.14000
C  -15.68600 19.22200 40.58400
C  -14.19500 14.55900 40.53800
N  -10.49800 18.28400 40.39700
C  -9.36800 17.49600 40.24500
C  -8.03000 18.28500 40.19700
C  -8.61000 19.76300 40.44800
C  -10.14200 19.58600 40.39500
C  -8.05700 20.52300 41.71200
C  -7.42400 18.13100 38.73800
C  -5.85900 17.91100 38.49800
H  -5.39900 16.87900 37.56300
N  -13.29900 19.73300 40.62200
C  -12.44900 20.68000 40.15700
C  -13.24500 21.82100 39.80100
C  -14.57900 21.51600 40.07200
C  -14.61900 20.13600 40.49400
C  -12.61900 23.21200 39.37100
C  -15.70100 22.48300 39.83000
O  -15.57400 23.60600 39.52800
C  -17.11800 22.06600 40.11500
N  -14.56600 17.02200 40.74800
C  -15.64200 17.83500 40.77300
C  -16.99400 17.12800 40.57600
C  -16.53100 15.67700 40.27500
C  -14.99500 15.73800 40.52500
C  -18.03000 17.21500 41.73600
C  -16.77900 15.21300 38.77300
C  -18.20800 14.67700 38.41600
N  -11.96500 15.71400 40.64500
C  -12.76800 14.54000 40.56000
C  -11.89900 13.43100 40.45000
C  -10.60100 13.96500 40.33600
C  -10.71400 15.32800 40.41700
C  -12.23900 11.96300 40.52800
C  -9.13700 13.63600 40.26400
O  -8.63900 12.55200 40.01900
C  -8.36600 15.03700 40.26000
C  -7.54200 15.20600 41.45200
O  -7.95500 15.43300 42.55400
O  -6.24800 15.28900 41.00800
C  -5.21000 15.37100 42.03300
H  -10.46400 21.44700 39.77000
H  -16.69500 19.58500 40.38000
H  -14.63600 13.59000 40.29900
H  -7.34600 17.99600 40.99500
H  -8.36400 20.46000 39.64700
H  -8.41400 21.55000 41.79800
H  -6.96700 20.53600 41.69900
H  -8.44200 19.94700 42.55300
H  -7.60700 18.95600 38.04900
H  -7.87300 17.28400 38.21900
H  -5.43800 17.78200 39.49500
H  -5.49600 18.91900 38.29700
H  -12.78700 23.48000 38.32800
H  -11.59200 23.23200 39.73700
H  -13.12100 23.90800 40.04400
H  -17.46000 21.24500 39.48600
H  -17.75600 22.94000 39.99100
H  -17.27300 21.59800 41.08700
H  -17.50300 17.46000 39.67200
H  -17.08000 14.97400 40.90100
H  -18.09400 16.22800 42.19400
H  -18.95700 17.57500 41.28900
H  -17.78600 18.06200 42.37600
H  -16.09400 14.51600 38.29100
H  -16.64800 16.12200 38.18600
H  -18.73400 15.38600 37.77700
H  -18.66600 14.62800 39.40400
H  -18.07200 13.70100 37.95200
H  -11.46400 11.39600 41.04200
H  -12.28200 11.43800 39.57300
H  -13.12300 11.71300 41.11400
H  -7.72200 15.18600 39.39300
H  -5.52800 14.96600 42.99400
H  -4.97500 16.43500 42.02900
H  -4.35300 14.80200 41.67200

