158

Mg -1.63400 17.64100 25.79900
C  -2.29100 15.51700 28.62000
C  -1.91100 20.32600 27.99600
C  -1.25300 19.65900 23.13900
C  -1.44100 14.78400 23.80200
N  -2.23900 17.88200 28.05300
C  -2.24500 16.87900 29.04100
C  -2.05800 17.43800 30.49800
C  -2.18500 18.97000 30.19500
C  -2.01700 19.09100 28.66500
C  -3.53500 19.63600 30.59100
C  -0.83600 16.94000 31.34800
C  -0.44600 17.80500 32.60100
H  -0.35900 17.05700 33.90800
N  -1.52300 19.73800 25.56400
C  -1.69200 20.66800 26.61100
C  -1.67200 21.99600 26.03000
C  -1.59000 21.76200 24.65100
C  -1.46200 20.33100 24.39800
C  -1.81100 23.29500 26.86800
C  -1.75000 22.73400 23.51800
O  -1.88600 22.48200 22.30200
C  -1.82100 24.23400 23.89500
N  -1.30900 17.28500 23.78600
C  -1.19400 18.27600 22.84800
C  -0.97100 17.72400 21.45500
C  -0.83300 16.16000 21.68700
C  -1.18300 16.03700 23.18000
C  -2.10400 18.17500 20.54800
C  0.61500 15.68600 21.33400
C  1.66400 16.04900 22.38900
N  -1.91700 15.56800 26.03800
C  -1.84700 14.53100 25.11000
C  -2.10200 13.25000 25.74800
C  -2.30500 13.57200 27.17400
C  -2.17900 15.03400 27.26500
C  -1.94700 11.97300 25.06300
C  -2.49100 13.06600 28.54200
O  -2.50300 11.88900 28.93000
C  -2.55200 14.30400 29.52700
C  -1.44900 14.06400 30.45300
O  -0.28100 14.04900 30.14600
O  -1.94400 13.70000 31.65300
C  -1.17200 12.96800 32.66300
H  -2.09100 21.20800 28.61500
H  -1.18900 20.26700 22.23400
H  -1.38000 13.89700 23.16700
H  -2.96100 17.12900 31.02500
H  -1.37500 19.52200 30.67200
H  -4.07700 18.88000 31.15900
H  -4.08800 20.09600 29.77100
H  -3.38900 20.49000 31.25200
H  0.01200 16.87300 30.66700
H  -1.20700 16.04500 31.84800
H  -1.14500 18.61400 32.81600
H  0.51600 18.25300 32.35100
H  -2.62800 23.94400 26.55200
H  -0.90500 23.88000 26.71000
H  -2.11300 23.16700 27.90700
H  -2.83500 24.43000 24.24400
H  -1.66100 24.78100 22.96600
H  -1.03000 24.50200 24.59600
H  -0.00900 18.13600 21.14800
H  -1.56500 15.51300 21.20400
H  -2.86200 18.63200 21.18400
H  -2.57300 17.33600 20.03300
H  -1.67400 18.96600 19.93300
H  0.94600 16.28600 20.48600
H  0.64100 14.60500 21.19500
H  1.33900 16.86100 23.04000
H  2.52400 16.40200 21.82100
H  1.95400 15.20800 23.01900
H  -1.14800 11.90900 24.32300
H  -2.77700 11.79700 24.37900
H  -2.00800 11.09600 25.70800
H  -3.51600 14.26300 30.03400
H  -0.38600 12.30600 32.29900
H  -1.86700 12.47700 33.34400
H  -0.58800 13.78600 33.08600
Mg 8.63700 2.87400 27.70600
C  9.98900 1.26300 30.52000
C  6.56400 4.73300 29.64800
C  7.35200 4.31700 24.93700
C  10.50900 0.67800 25.76900
N  8.33000 2.97200 29.79300
C  8.99100 2.20400 30.73200
C  8.64600 2.75300 32.16000
C  7.53300 3.77300 31.85800
C  7.36700 3.75300 30.31500
C  6.30200 3.67900 32.70800
C  9.85700 3.40700 32.88600
C  9.48100 4.27500 34.08300
H  10.28800 4.03700 35.39700
N  7.12500 4.40200 27.31900
C  6.47000 5.11400 28.30300
C  5.80100 6.20100 27.62100
C  6.07600 6.13400 26.21500
C  6.96400 4.93100 26.13400
C  5.03500 7.28300 28.43500
C  5.48500 6.90900 25.03400
O  5.64100 6.55300 23.91000
C  4.50100 7.98700 25.33700
N  8.74500 2.49100 25.65400
C  8.18000 3.20600 24.69100
C  8.56900 2.79000 23.25700
C  9.59500 1.68200 23.54300
C  9.69800 1.62600 25.10700
C  7.34000 2.51000 22.38500
C  11.01800 1.80300 22.93600
C  11.61400 0.48700 22.28000
N  9.92700 1.20900 28.00300
C  10.65200 0.43600 27.15700
C  11.49700 -0.50200 27.81900
C  11.16600 -0.26900 29.21400
C  10.31300 0.79400 29.23200
C  12.43700 -1.53100 27.15700
C  11.46700 -0.61500 30.55400
O  12.13400 -1.53000 31.02200
C  10.73200 0.41000 31.46500
C  9.91800 -0.29600 32.56400
O  9.02400 -1.09800 32.27300
O  10.22500 0.17600 33.79900
C  9.44400 -0.45200 34.90400
H  5.88800 5.38200 30.20900
H  7.22500 4.71200 23.92700
H  11.13200 0.18200 25.02200
H  8.40700 1.92300 32.82600
H  7.81800 4.81000 32.03400
H  5.99000 4.67100 33.03700
H  6.52500 3.03300 33.55700
H  5.47500 3.30300 32.10500
H  10.42500 3.99800 32.16800
H  10.56800 2.62100 33.14300
H  8.41000 4.34500 34.27200
H  9.78900 5.27900 33.79100
H  5.41900 8.29600 28.31400
H  5.16200 7.12700 29.50600
H  3.97200 7.28800 28.19500
H  5.00500 8.70300 25.98700
H  3.70900 7.50000 25.90500
H  4.10800 8.56700 24.50200
H  9.00300 3.65400 22.75300
H  9.20800 0.76500 23.09700
H  6.40900 2.72000 22.91200
H  7.44700 1.49500 22.00200
H  7.50800 3.16300 21.52900
H  11.63800 2.10100 23.78200
H  11.01800 2.62000 22.21300
H  12.18900 0.67900 21.37400
H  10.78700 -0.17300 22.01900
H  12.25700 0.04900 23.04300
H  12.00600 -2.52900 27.24200
H  13.48000 -1.59800 27.46500
H  12.46700 -1.31600 26.08900
H  11.51300 0.90900 32.03900
H  10.24800 -0.58000 35.62900
H  9.03500 -1.45500 34.77400
H  8.65400 0.05600 35.45700

