158

Mg 45.14800 4.34400 46.77300
C  42.96600 7.10700 46.66900
C  42.42400 2.31200 46.05300
C  47.13300 1.70500 45.90200
C  47.86000 6.33800 46.86300
N  42.92800 4.78500 46.32600
C  42.23700 5.92000 46.48700
C  40.67900 5.65400 46.58000
C  40.63000 4.04900 46.68000
C  42.09500 3.66300 46.35200
C  40.22900 3.45200 48.00500
C  39.91600 6.15000 45.33100
C  40.40600 5.81700 43.85500
H  40.19400 6.79100 42.63100
N  44.80800 2.30000 46.23300
C  43.62300 1.67800 46.06500
C  43.76500 0.24100 45.76100
C  45.15800 0.04600 45.57900
C  45.81200 1.43500 45.94500
C  42.64800 -0.84200 45.53200
C  45.79700 -1.22300 45.11300
O  45.14300 -2.16000 44.71900
C  47.26900 -1.53400 45.11000
N  47.25800 4.05900 46.46100
C  47.84800 2.88300 46.21700
C  49.37400 2.92200 46.27900
C  49.62700 4.40700 46.69800
C  48.18600 4.97000 46.70400
C  50.05500 1.90500 47.25700
C  50.65000 5.16600 45.89100
C  51.92900 5.71100 46.50000
N  45.45200 6.37700 46.77200
C  46.59700 7.05700 46.89200
C  46.31800 8.48200 46.83000
C  44.87100 8.53600 46.81100
C  44.41600 7.21600 46.67900
C  47.29900 9.61800 47.10400
C  43.74500 9.48300 46.81600
O  43.70400 10.71700 46.99300
C  42.41200 8.57000 46.66900
C  41.51000 8.79300 47.87100
O  41.71400 8.39100 49.02300
O  40.31900 9.28800 47.37100
C  39.32400 9.77100 48.40700
H  41.55200 1.65600 46.09200
H  47.88600 0.97900 45.58800
H  48.74400 6.93000 47.10800
H  40.23000 6.14500 47.44300
H  39.87600 3.68700 45.98200
H  40.01200 4.28900 48.66800
H  41.08000 2.92600 48.43700
H  39.38300 2.76800 47.94600
H  39.71100 7.22100 45.31500
H  38.91900 5.72000 45.42400
H  39.87200 4.93600 43.49800
H  41.42900 5.44400 43.82400
H  42.99500 -1.75900 46.00900
H  42.45000 -0.80500 44.46100
H  41.71800 -0.48900 45.97900
H  47.69200 -1.04000 45.98500
H  47.62200 -1.25000 44.11900
H  47.52500 -2.57300 45.31900
H  49.77900 2.77000 45.27900
H  50.05500 4.47800 47.69800
H  50.37600 0.98300 46.77300
H  49.35800 1.68400 48.06500
H  51.06300 2.17400 47.57200
H  50.31700 6.06600 45.37400
H  51.03500 4.43600 45.18000
H  51.75700 5.78700 47.57400
H  52.30600 6.70800 46.27100
H  52.78800 5.12200 46.18100
H  46.69500 10.52100 47.00900
H  48.21500 9.60400 46.51300
H  47.61300 9.78800 48.13400
H  41.90100 8.71000 45.71600
H  39.17900 10.84900 48.32600
H  39.48400 9.50500 49.45100
H  38.40900 9.25800 48.11200
Mg 41.30600 9.57600 29.94900
C  42.66400 10.66800 33.01300
C  38.89500 7.86800 31.72200
C  40.38500 8.20100 27.00900
C  44.25000 10.76800 28.35600
N  40.96900 9.19000 32.16200
C  41.52200 9.88200 33.22700
C  40.68700 9.76600 34.46200
C  39.53700 8.78000 33.99800
C  39.77800 8.59200 32.50600
C  39.33900 7.41800 34.78600
C  40.19800 11.03800 35.18100
C  40.31300 10.99800 36.71300
H  40.73700 12.20800 37.62400
N  39.74200 8.27600 29.44400
C  38.79700 7.67400 30.32400
C  37.86200 6.91800 29.49500
C  38.23100 7.06600 28.09600
C  39.52300 7.82500 28.10300
C  36.60000 6.30700 30.01400
C  37.39600 6.78500 26.85300
O  37.72400 7.18900 25.76900
C  36.26300 5.89600 27.05000
N  42.15900 9.55500 27.93600
C  41.56400 8.92200 26.90800
C  42.43000 9.07900 25.58800
C  43.44300 10.21800 26.02900
C  43.30800 10.21500 27.54900
C  42.98900 7.67700 25.20200
C  43.06700 11.69600 25.47400
C  41.59000 12.13600 25.53400
N  42.97900 10.59900 30.49800
C  44.05400 11.01900 29.70200
C  44.81200 11.97000 30.54100
C  44.37000 11.76500 31.83900
C  43.23600 10.90600 31.76100
C  46.01500 12.75900 30.02100
C  44.72700 11.95900 33.19600
O  45.74800 12.47400 33.71900
C  43.50900 11.46900 34.02300
C  43.97800 10.55500 35.09800
O  44.77800 9.64000 34.93500
O  43.55500 11.04500 36.33900
C  44.09100 10.42700 37.53700
H  38.11200 7.41000 32.33000
H  40.04500 7.97500 25.99700
H  45.04300 11.31100 27.83900
H  41.33900 9.19000 35.11900
H  38.55600 9.25600 34.00900
H  38.32400 7.09200 35.01000
H  39.88800 7.45300 35.72700
H  39.94500 6.69800 34.23500
H  39.13800 11.15400 34.95700
H  40.76600 11.86800 34.76200
H  40.64700 10.01900 37.05600
H  39.24600 10.96600 36.93400
H  36.71600 5.23900 29.83000
H  35.68400 6.63800 29.52600
H  36.60000 6.40900 31.09900
H  35.76900 5.53000 26.15000
H  35.50200 6.41000 27.63700
H  36.57600 4.94300 27.47700
H  41.72700 9.42900 24.83300
H  44.49400 10.05700 25.79200
H  43.00400 6.93900 26.00400
H  43.98200 7.84700 24.78500
H  42.33200 7.22500 24.46000
H  43.24100 11.64200 24.39900
H  43.67300 12.45100 25.97700
H  41.54400 13.20400 25.74500
H  41.14200 11.63900 26.39400
H  41.10000 11.86000 24.60000
H  46.00100 12.66400 28.93500
H  46.98300 12.38800 30.36000
H  45.91300 13.78500 30.37300
H  42.92200 12.33100 34.33900
H  43.31400 10.57700 38.28700
H  45.01000 10.84700 37.94500
H  44.14000 9.36600 37.29100

