158

Mg 48.73000 45.91200 43.11300
C  45.54700 46.67700 42.12600
C  48.20100 42.60200 41.73300
C  52.12600 45.41600 42.84900
C  49.28400 49.15400 44.00400
N  46.96900 44.75200 42.04200
C  45.82300 45.33600 41.66500
C  44.91000 44.44700 40.83100
C  45.60700 42.98800 41.11000
C  46.99500 43.41000 41.72200
C  44.78200 42.13300 42.16600
C  44.90100 44.96500 39.32700
C  43.51300 44.96500 38.59000
H  43.43800 44.17700 37.25800
N  49.93100 44.15100 42.71200
C  49.51300 42.92900 42.14700
C  50.66000 42.07400 41.96500
C  51.79800 42.85100 42.41200
C  51.35500 44.21300 42.62400
C  50.55800 40.65600 41.44400
C  53.15500 42.29400 42.50300
O  53.35400 41.12400 42.35300
C  54.32000 43.22300 42.94600
N  50.43600 47.15900 43.29200
C  51.70800 46.69000 43.23300
C  52.69500 47.73000 43.63800
C  51.83600 48.87200 44.21300
C  50.43300 48.38500 43.84300
C  53.91800 47.29800 44.59400
C  52.12400 50.30400 43.63800
C  53.58000 50.85500 43.60800
N  47.66600 47.61200 43.14300
C  47.96100 48.87600 43.59600
C  46.79100 49.69000 43.60600
C  45.82000 48.91300 42.96400
C  46.39600 47.60600 42.74800
C  46.75600 51.11400 44.04300
C  44.44400 48.91700 42.41800
O  43.57200 49.76700 42.33200
C  44.27300 47.53300 41.83700
C  42.95100 46.91400 42.25800
O  41.89700 47.09300 41.66700
O  43.08900 46.11200 43.36500
C  41.84000 45.43300 43.88400
H  47.93200 41.57900 41.46600
H  53.19000 45.19100 42.75000
H  49.47100 50.12100 44.47500
H  43.89200 44.62600 41.17600
H  45.79400 42.46500 40.17200
H  45.09700 41.94000 43.19200
H  44.65700 41.20700 41.60500
H  43.77300 42.54500 42.13600
H  45.53500 44.25300 38.79800
H  45.34900 45.95600 39.25100
H  43.23600 46.00200 38.40100
H  42.87900 44.61800 39.40500
H  49.54200 40.29000 41.59400
H  51.33500 40.06900 41.93400
H  50.69500 40.60800 40.36400
H  54.16100 43.73400 43.89500
H  54.59000 43.95900 42.19000
H  55.21000 42.59600 43.00400
H  53.03800 48.14100 42.68900
H  51.84800 48.97800 45.29800
H  54.06500 46.22300 44.69900
H  53.89300 47.76200 45.58000
H  54.76800 47.75100 44.08400
H  51.54700 50.91900 44.32900
H  51.58900 50.53000 42.71500
H  53.86700 51.34800 42.68000
H  54.32000 50.14300 43.97600
H  53.38700 51.70200 44.26600
H  46.04800 51.18300 44.87000
H  46.42600 51.84000 43.30000
H  47.70300 51.37300 44.51800
H  44.27900 47.73600 40.76600
H  41.27400 44.78900 43.21000
H  41.24900 46.15400 44.44900
H  42.21700 44.71800 44.61500
Mg 26.48300 50.85100 26.43300
C  24.56700 51.93200 29.01100
C  28.89700 49.83100 28.82700
C  28.31600 49.37300 24.04100
C  24.45800 52.29300 24.13200
N  26.81700 51.12500 28.72800
C  25.73600 51.29900 29.49400
C  26.07100 51.11200 31.00900
C  27.65100 50.90000 30.85500
C  27.82100 50.55900 29.38400
C  28.56000 52.04500 31.37100
C  25.27100 50.00500 31.62300
C  24.85900 50.28200 33.12100
H  25.88000 50.70000 34.24600
N  28.37500 49.81600 26.38800
C  29.17900 49.47400 27.51500
C  30.22900 48.63100 27.10700
C  30.10500 48.45800 25.64600
C  28.90000 49.25300 25.28300
C  31.27100 48.05700 27.97600
C  30.82500 47.58900 24.77000
O  30.61700 47.47500 23.62600
C  31.96500 46.70100 25.26200
N  26.48800 50.90800 24.32400
C  27.22100 50.07300 23.56500
C  26.60200 49.84600 22.19500
C  25.22300 50.76500 22.26300
C  25.38000 51.36000 23.63300
C  27.54600 50.13700 20.97400
C  23.87200 50.04600 22.04100
C  22.81600 50.67500 21.06300
N  24.87100 51.99500 26.54700
C  24.10900 52.52900 25.46800
C  22.95800 53.21900 26.08500
C  23.07400 52.98900 27.44800
C  24.24900 52.26200 27.69400
C  21.86600 53.86900 25.36600
C  22.40500 53.17900 28.71200
O  21.27600 53.62600 28.95400
C  23.38000 52.52400 29.85200
C  23.81000 53.61500 30.75500
O  24.66400 54.46600 30.51700
O  23.08600 53.67300 31.95300
C  23.58200 54.66100 33.01800
H  29.63700 49.56500 29.58500
H  28.79300 48.82200 23.22800
H  23.65100 52.54600 23.44100
H  26.00900 52.01000 31.62300
H  28.00800 50.01600 31.38500
H  27.90900 52.83900 31.73700
H  29.19800 52.44100 30.58100
H  29.08700 51.67100 32.24800
H  25.86400 49.09100 31.58900
H  24.36300 49.83700 31.04400
H  24.32400 49.43300 33.54700
H  24.07400 51.03500 33.04000
H  31.18600 48.44400 28.99200
H  32.25000 48.37400 27.61500
H  31.39200 46.98300 27.83700
H  32.66300 47.38600 25.74300
H  32.39700 46.21300 24.38800
H  31.43000 46.01000 25.91400
H  26.30900 48.81000 22.02500
H  25.37100 51.66100 21.66000
H  27.24100 50.96800 20.33800
H  27.53100 49.25200 20.33700
H  28.57600 50.39400 21.21900
H  23.40500 50.07700 23.02600
H  24.13800 49.02300 21.77500
H  22.47600 49.84300 20.44700
H  23.16800 51.43200 20.36200
H  21.95900 51.13800 21.55300
H  21.13000 54.28800 26.05200
H  21.30700 53.22800 24.68300
H  22.30000 54.57100 24.65400
H  22.77300 51.75600 30.33200
H  22.89900 54.80000 33.85600
H  23.70300 55.61400 32.50400
H  24.50900 54.32500 33.48200

