158

Mg 36.05700 49.11600 25.17400
C  36.25500 47.27200 28.13600
C  34.85500 51.80100 26.92100
C  35.41600 50.62100 22.13900
C  37.25100 46.30500 23.43300
N  35.61400 49.45200 27.23600
C  35.84500 48.60600 28.30700
C  35.76400 49.31300 29.67900
C  35.27100 50.72300 29.22700
C  35.25000 50.65500 27.66900
C  33.92900 51.18800 29.80400
C  37.14600 49.23300 30.42500
C  37.21000 48.86100 31.92500
H  36.00000 49.09800 32.76800
N  35.21600 50.98700 24.52100
C  34.89200 51.99500 25.42700
C  34.58800 53.13600 24.69800
C  34.79800 52.87600 23.35200
C  35.14800 51.44300 23.24900
C  34.23300 54.47000 25.33800
C  34.69600 53.77300 22.14600
O  34.63900 53.29000 21.01900
C  34.72000 55.32100 22.36300
N  36.22600 48.51700 23.08300
C  35.83100 49.29200 22.08900
C  36.21300 48.62400 20.71300
C  37.06400 47.36500 21.11600
C  36.85300 47.40600 22.66300
C  34.99900 48.18800 19.78300
C  38.54300 47.45400 20.82500
C  39.09200 46.04200 20.41200
N  36.75300 47.21500 25.58000
C  37.17000 46.10600 24.77800
C  37.40900 44.93300 25.59300
C  37.12900 45.42200 26.88300
C  36.70200 46.73100 26.86400
C  37.72700 43.55900 25.13200
C  36.98700 44.90100 28.24100
O  37.24300 43.79800 28.67000
C  36.51900 46.12600 29.07800
C  35.36000 45.77000 30.05100
O  34.21400 45.91100 29.75700
O  35.89400 45.27100 31.22500
C  34.77700 45.10100 32.10700
H  34.67200 52.73800 27.45100
H  35.34400 51.06100 21.14200
H  37.86700 45.57700 22.90100
H  34.96000 48.74700 30.14800
H  36.03000 51.48900 29.38900
H  33.38600 50.34100 30.22400
H  33.32200 51.70600 29.06200
H  34.20000 51.89900 30.58500
H  37.57600 50.23400 30.42000
H  37.87100 48.63600 29.87200
H  38.10100 49.36600 32.29700
H  37.26700 47.77400 31.86200
H  34.86100 55.31400 25.05400
H  34.13100 54.34900 26.41600
H  33.30800 54.68300 24.80100
H  33.80300 55.78300 22.72900
H  34.88200 55.74300 21.37100
H  35.57300 55.42400 23.03300
H  36.86800 49.40700 20.33100
H  36.64900 46.40700 20.80200
H  35.11200 48.65000 18.80200
H  34.14900 48.58600 20.33600
H  34.84700 47.11800 19.64600
H  39.08600 47.79200 21.70800
H  38.76000 48.20200 20.06300
H  39.75300 46.13200 19.55000
H  38.29300 45.37100 20.09700
H  39.71700 45.60300 21.19000
H  37.43000 43.42000 24.09300
H  37.14600 42.86600 25.74100
H  38.79500 43.35700 25.21500
H  37.29100 46.43100 29.78400
H  35.42200 44.92200 32.96700
H  34.11300 44.25600 31.92300
H  34.29100 46.07600 32.06600
Mg -11.50300 37.91800 42.07200
C  -9.41000 35.43600 40.84900
C  -9.19400 40.23800 41.02200
C  -13.84600 40.24600 42.07400
C  -13.84400 35.45400 42.75900
N  -9.50200 37.84300 41.02800
C  -8.87200 36.71400 40.57100
C  -7.63200 37.10200 39.81400
C  -7.34800 38.53400 40.34700
C  -8.75400 38.92300 40.84500
C  -6.28400 38.68700 41.44600
C  -7.77200 36.83100 38.26700
C  -6.66000 36.04000 37.73700
H  -5.67000 36.72200 36.79200
N  -11.49000 40.01700 41.70900
C  -10.42900 40.73500 41.32300
C  -10.80600 42.11100 41.22100
C  -12.25700 42.16300 41.43500
C  -12.62400 40.78900 41.68400
C  -9.89000 43.22600 40.75000
C  -13.09100 43.45900 41.43400
O  -12.70600 44.55700 41.05900
C  -14.61300 43.49000 41.79200
N  -13.57000 37.90700 42.30600
C  -14.30300 38.98700 42.45500
C  -15.60700 38.67600 43.14800
C  -15.68900 37.10800 43.12000
C  -14.25100 36.80400 42.76800
C  -15.99100 39.43400 44.46400
C  -16.71700 36.46700 42.10800
C  -17.97400 35.93800 42.82000
N  -11.56700 35.84000 42.05500
C  -12.55900 34.98200 42.39400
C  -12.13200 33.65700 42.30300
C  -10.88100 33.77300 41.69200
C  -10.57100 35.11300 41.55000
C  -12.86800 32.37700 42.76100
C  -9.80700 33.00500 41.18000
O  -9.61400 31.78900 41.17400
C  -8.64900 34.04800 40.69400
C  -7.47700 33.89300 41.60100
O  -7.13000 34.66200 42.46700
O  -6.69100 32.80800 41.22700
C  -5.42900 32.67400 41.96300
H  -8.42800 40.97900 40.78500
H  -14.54400 41.08500 42.10900
H  -14.69500 34.86600 43.10900
H  -6.88300 36.43900 40.24700
H  -7.00600 39.23400 39.58400
H  -5.56100 37.87900 41.33100
H  -6.80800 38.46500 42.37500
H  -5.74600 39.63400 41.41300
H  -7.63100 37.74300 37.68700
H  -8.77800 36.47500 38.04500
H  -7.04200 35.10800 37.32000
H  -5.94100 35.59900 38.42800
H  -9.69400 43.69600 41.71400
H  -10.37100 43.79200 39.95300
H  -8.92500 42.89100 40.37000
H  -15.21000 42.97400 41.04000
H  -14.85600 44.54800 41.89600
H  -14.85700 43.13500 42.79300
H  -16.50300 39.00900 42.62500
H  -15.86300 36.61200 44.07400
H  -16.76500 40.18400 44.29800
H  -15.10200 39.93500 44.84500
H  -16.34100 38.69600 45.18500
H  -16.18200 35.75900 41.47500
H  -17.00500 37.31400 41.48400
H  -18.58500 36.83100 42.95100
H  -17.64300 35.41600 43.71900
H  -18.52100 35.19100 42.24600
H  -13.84100 32.37800 42.26800
H  -13.04000 32.39300 43.83700
H  -12.34700 31.46400 42.47100
H  -8.30600 33.76000 39.70100
H  -5.51300 32.19400 42.93800
H  -4.88200 33.60300 42.12600
H  -4.76900 32.06400 41.34600

