158

Mg 48.21300 25.86800 27.84600
C  48.92400 28.06600 30.25800
C  47.11600 23.44700 30.14500
C  47.58200 23.58900 25.27900
C  49.50100 28.06700 25.44300
N  47.88100 25.79400 29.87600
C  48.29600 26.79800 30.68300
C  48.00900 26.51900 32.18300
C  47.75400 24.96700 32.12700
C  47.55600 24.70900 30.63800
C  48.67300 24.01400 32.90600
C  46.78600 27.42100 32.67700
C  46.16500 27.00400 33.99500
H  46.04000 28.05600 35.14200
N  47.44400 23.83100 27.74500
C  47.09000 23.03900 28.77700
C  46.55700 21.72000 28.31600
C  46.74200 21.77800 26.93200
C  47.26700 23.13800 26.56200
C  45.88400 20.71400 29.19000
C  46.43700 20.60800 25.95600
O  46.65100 20.63900 24.79400
C  45.97500 19.35000 26.46600
N  48.59600 25.84600 25.65500
C  48.09600 24.84200 24.84600
C  48.09100 25.28600 23.39200
C  48.85800 26.57200 23.39600
C  49.04200 26.87400 24.91900
C  48.60500 24.24500 22.37500
C  48.21400 27.74500 22.61900
C  48.89800 28.28500 21.38400
N  49.09900 27.66600 27.81200
C  49.59500 28.44800 26.77700
C  50.10700 29.70900 27.31500
C  49.80100 29.65100 28.70000
C  49.25600 28.37300 28.93300
C  50.66400 30.96800 26.60200
C  49.91300 30.34500 29.98200
O  50.27000 31.50900 30.17100
C  49.34800 29.35600 31.06500
C  50.38200 29.03800 32.14500
O  51.44300 28.47300 32.02800
O  49.92600 29.61200 33.34200
C  50.74600 29.36500 34.54000
H  46.79100 22.72400 30.89600
H  47.30700 22.95600 24.43300
H  49.77100 28.84800 24.73000
H  48.88900 26.77600 32.77300
H  46.80200 24.73800 32.60600
H  49.03900 23.18300 32.30300
H  48.21500 23.60200 33.80500
H  49.52700 24.56400 33.30400
H  46.03400 27.49400 31.89200
H  47.24100 28.39300 32.86900
H  46.70100 26.15000 34.40900
H  45.19600 26.57700 33.73600
H  46.56000 19.86200 29.25700
H  44.98100 20.38100 28.67900
H  45.63200 21.07100 30.18900
H  45.90500 18.57900 25.69900
H  45.00300 19.43300 26.95200
H  46.76300 18.99800 27.13200
H  47.11300 25.48600 22.95400
H  49.85100 26.52500 22.94900
H  49.05800 23.39400 22.88500
H  49.37300 24.63200 21.70600
H  47.76800 23.74800 21.88500
H  48.07400 28.59600 23.28600
H  47.24800 27.42700 22.22800
H  49.63400 27.65500 20.88300
H  49.33300 29.18200 21.82500
H  48.17400 28.53100 20.60700
H  50.13100 31.91600 26.68400
H  50.56100 30.80200 25.52900
H  51.69900 31.23200 26.81400
H  48.44800 29.82300 31.46500
H  51.04800 30.36200 34.86100
H  51.61500 28.71800 34.41700
H  50.11200 28.88900 35.28700
Mg 35.40900 48.68400 24.67300
C  35.12800 47.04000 27.85600
C  34.07800 51.50400 26.05800
C  35.10300 49.79500 21.56000
C  36.70600 45.65400 23.46600
N  34.68600 49.19200 26.77300
C  34.72600 48.37600 27.87800
C  34.41700 49.14000 29.10200
C  34.04700 50.64000 28.53000
C  34.23900 50.44500 26.97800
C  32.63900 51.08500 28.75600
C  35.61200 49.09100 30.06400
C  35.27700 49.34200 31.59700
H  33.82600 49.64400 32.18600
N  34.70100 50.43100 23.96900
C  34.24900 51.52000 24.65700
C  33.81200 52.53200 23.75700
C  34.00800 52.00500 22.41400
C  34.65400 50.68500 22.61600
C  33.25200 53.79600 24.29300
C  33.45300 52.62900 21.14800
O  33.58400 52.10800 20.01300
C  32.55900 53.80800 21.14000
N  35.78100 47.76100 22.80800
C  35.63300 48.49900 21.66200
C  36.40000 47.84200 20.51700
C  37.17800 46.62900 21.13400
C  36.55900 46.64700 22.52500
C  35.43600 47.51000 19.36600
C  38.71500 46.81200 21.25700
C  39.51100 45.50800 21.12000
N  35.90200 46.73200 25.40700
C  36.38200 45.61900 24.80000
C  36.51400 44.51300 25.69500
C  35.96400 44.97400 26.84600
C  35.71100 46.38300 26.69100
C  36.92000 43.13300 25.30500
C  35.62700 44.63200 28.21300
O  35.71900 43.59500 28.89500
C  35.13700 45.91800 28.94300
C  33.86300 45.78600 29.82000
O  32.74100 46.23600 29.65500
O  34.25100 45.12400 30.98000
C  33.22000 44.86100 32.00100
H  33.60400 52.35700 26.54800
H  35.18800 50.26000 20.57600
H  37.25900 44.90000 22.90300
H  33.50200 48.87100 29.63000
H  34.80200 51.36100 28.84400
H  31.99800 50.23700 28.99900
H  32.16100 51.58600 27.91500
H  32.63900 51.62700 29.70200
H  36.25000 49.93100 29.78900
H  36.21600 48.18500 30.00400
H  35.94000 50.14300 31.92400
H  35.61900 48.51000 32.21200
H  33.28600 54.71200 23.70500
H  33.37500 54.03500 25.35000
H  32.23100 53.41500 24.25300
H  31.78500 53.64100 21.89000
H  32.07200 53.89800 20.16900
H  33.20500 54.66000 21.35200
H  37.07500 48.66300 20.27600
H  36.87000 45.70300 20.64800
H  34.75300 46.71600 19.66600
H  36.08400 47.25200 18.52800
H  34.81900 48.37700 19.13000
H  38.96500 47.11600 22.27400
H  39.12600 47.61000 20.63900
H  40.08200 45.38100 22.04000
H  40.08800 45.47800 20.19500
H  38.89200 44.61300 21.06600
H  36.85800 42.48400 26.17900
H  37.92200 43.14700 24.87600
H  36.28200 42.72600 24.52100
H  35.85900 46.18500 29.71400
H  32.72700 43.97300 31.60600
H  32.46600 45.64500 32.06500
H  33.60300 44.68400 33.00600

