158

Mg 16.89200 -2.56000 28.52000
C  15.37000 -0.80700 31.23100
C  19.03100 -4.11300 30.69100
C  18.14300 -4.20100 25.97000
C  15.08800 -0.41800 26.39100
N  17.05900 -2.62700 30.79200
C  16.41700 -1.73200 31.66300
C  17.13900 -1.90700 33.04700
C  18.41800 -2.73700 32.78700
C  18.19600 -3.17400 31.31500
C  19.79300 -2.08000 32.92100
C  16.18000 -2.56800 34.02300
C  15.81600 -1.80300 35.31400
H  16.90700 -0.95200 35.97000
N  18.15200 -4.25600 28.38500
C  18.93600 -4.72000 29.39700
C  19.73200 -5.78200 28.81800
C  19.45300 -5.90200 27.40100
C  18.56700 -4.72300 27.15500
C  20.63200 -6.54500 29.69000
C  19.92500 -6.81100 26.34100
O  19.69500 -6.77200 25.15700
C  20.72600 -8.01800 26.78100
N  16.69900 -2.22700 26.45100
C  17.22900 -3.17100 25.61400
C  16.99800 -2.66700 24.16400
C  15.92900 -1.59200 24.25200
C  15.83900 -1.41500 25.75800
C  18.32000 -2.19500 23.48000
C  14.58300 -1.90900 23.52000
C  14.19900 -0.88800 22.28700
N  15.58300 -0.95300 28.67300
C  14.96200 -0.16400 27.77900
C  14.07800 0.80400 28.33700
C  14.24700 0.59600 29.69900
C  15.11100 -0.51900 29.87500
C  13.14200 1.78100 27.64600
C  13.89000 1.10500 30.97800
O  13.31500 2.14700 31.31700
C  14.48900 0.13800 32.04900
C  15.22000 0.97100 33.09400
O  16.40300 1.20600 32.95500
O  14.39900 1.72600 33.97700
C  15.12400 2.64600 34.80200
H  19.98600 -4.35300 31.16400
H  18.60700 -4.74400 25.14400
H  14.53300 0.15000 25.64100
H  17.49600 -0.96600 33.46600
H  18.52600 -3.64200 33.38500
H  19.64600 -1.23800 33.59700
H  20.26900 -1.78000 31.98700
H  20.53100 -2.77400 33.32300
H  16.47700 -3.57100 34.33000
H  15.26800 -2.60900 33.42600
H  15.28600 -2.44500 36.01700
H  15.07600 -1.03300 35.09700
H  20.39900 -7.60000 29.54300
H  20.39900 -6.43300 30.74900
H  21.65900 -6.38700 29.36200
H  21.53300 -7.60200 27.38400
H  21.19500 -8.38300 25.86800
H  20.15300 -8.77800 27.31300
H  16.55800 -3.51600 23.64100
H  16.26100 -0.60100 23.94200
H  18.60300 -3.02700 22.83700
H  19.14700 -1.96000 24.15100
H  18.17200 -1.25300 22.95100
H  13.80100 -1.91000 24.27900
H  14.47500 -2.94100 23.18500
H  13.17700 -0.54300 22.44400
H  14.18600 -1.55800 21.42700
H  14.94400 -0.10300 22.15600
H  13.53500 2.07600 26.67400
H  13.13200 2.67000 28.27700
H  12.14600 1.35200 27.53400
H  13.72400 -0.35600 32.64700
H  14.41200 2.93200 35.57700
H  15.26700 3.59700 34.29000
H  16.06900 2.27400 35.19800
Mg -4.52700 25.39000 25.81400
C  -3.17900 26.26300 28.86300
C  -6.68000 22.98200 27.53500
C  -5.26100 23.73400 22.91400
C  -2.52300 27.48600 24.21900
N  -4.75200 24.62100 27.96600
C  -4.03400 25.14100 29.05500
C  -4.46200 24.40000 30.30500
C  -5.44100 23.29700 29.78900
C  -5.67100 23.65600 28.33100
C  -4.83900 21.86900 29.98800
C  -5.02600 25.42800 31.43200
C  -5.91400 24.73900 32.53200
H  -5.46200 24.79800 33.95200
N  -5.77900 23.62200 25.33500
C  -6.69100 22.94100 26.12000
C  -7.48500 22.04300 25.39000
C  -7.06900 22.13500 24.04100
C  -5.99900 23.25200 24.06600
C  -8.51400 21.05200 26.03500
C  -7.46600 21.41500 22.78300
O  -6.89300 21.63400 21.71100
C  -8.52200 20.29300 22.73500
N  -3.70400 25.42500 23.88900
C  -4.26200 24.75100 22.90000
C  -3.71300 25.19200 21.51200
C  -3.00400 26.56600 21.87500
C  -3.06600 26.50900 23.42700
C  -2.75700 24.12800 20.93100
C  -3.67600 27.81000 21.23000
C  -2.78500 28.75000 20.33800
N  -3.17900 26.69200 26.34200
C  -2.50400 27.53200 25.58200
C  -1.76500 28.41700 26.47400
C  -1.91500 27.93400 27.76300
C  -2.82500 26.84000 27.62500
C  -0.74900 29.61900 26.04500
C  -1.50100 28.07600 29.14200
O  -0.55600 28.69700 29.62300
C  -2.47600 27.07800 29.95200
C  -1.57400 26.33800 30.84400
O  -0.81000 25.46300 30.51400
O  -1.85100 26.71700 32.10800
C  -0.99400 26.10100 33.11900
H  -7.32700 22.39500 28.19100
H  -5.52300 23.44500 21.89400
H  -1.93000 28.21300 23.66100
H  -3.60700 23.96700 30.82300
H  -6.39000 23.30800 30.32400
H  -3.81900 21.83200 30.37200
H  -4.82000 21.36600 29.02100
H  -5.48100 21.29900 30.65900
H  -5.56400 26.10200 30.76500
H  -4.19000 25.92200 31.92700
H  -5.98000 23.66600 32.35300
H  -6.87600 25.21500 32.34400
H  -9.47400 21.48300 26.32100
H  -8.07700 20.68100 26.96200
H  -8.63900 20.20400 25.36200
H  -8.16300 19.52700 23.42200
H  -8.69000 19.90800 21.72900
H  -9.52700 20.61600 23.01000
H  -4.48200 25.41500 20.77300
H  -1.97400 26.56200 21.51900
H  -1.91300 24.60000 20.42800
H  -3.38400 23.77400 20.11300
H  -2.45600 23.34500 21.62700
H  -4.14100 28.41100 22.01200
H  -4.52600 27.41200 20.67600
H  -1.71600 28.54400 20.40700
H  -2.83700 29.80700 20.59700
H  -3.14800 28.77800 19.31100
H  0.07100 29.25300 25.42700
H  -0.39100 29.97800 27.01000
H  -1.34200 30.38400 25.54300
H  -3.18500 27.77100 30.40500
H  -0.77500 25.04500 32.96600
H  -1.53200 26.02800 34.06500
H  -0.08900 26.65800 33.36400

