158

Mg 35.22800 2.30200 29.79800
C  33.09800 3.65100 32.21900
C  37.61600 2.06300 32.16100
C  37.45500 1.91500 27.22900
C  32.75900 3.17200 27.38000
N  35.25300 2.82000 31.88900
C  34.28900 3.24300 32.75400
C  34.64500 3.14700 34.19800
C  36.22200 3.01000 34.10300
C  36.38900 2.62900 32.56100
C  37.07700 4.17800 34.61600
C  33.94200 1.98900 35.02800
C  33.96000 2.23100 36.57900
H  34.86500 3.32300 37.19900
N  37.30900 2.00400 29.73200
C  38.11800 1.81800 30.84800
C  39.38700 1.43300 30.40800
C  39.41600 1.41200 28.94900
C  38.00500 1.85600 28.58600
C  40.50800 1.22800 31.40400
C  40.60500 1.11600 28.02900
O  40.54200 1.21700 26.80200
C  41.90900 0.61900 28.67900
N  35.14600 2.54200 27.63400
C  36.18600 2.15700 26.82100
C  35.76200 2.15400 25.32000
C  34.18000 2.48600 25.43100
C  34.02000 2.76200 26.91300
C  36.70300 3.04900 24.42200
C  33.20500 1.31300 25.04000
C  32.21400 1.64200 23.95300
N  33.30300 3.04000 29.72300
C  32.44000 3.41500 28.66200
C  31.18700 3.97500 29.17600
C  31.44800 3.99800 30.57600
C  32.73400 3.49900 30.85700
C  30.06400 4.68200 28.42200
C  30.86600 4.46900 31.81800
O  29.84200 5.03500 32.15100
C  31.86600 4.06600 32.97000
C  32.20000 5.31300 33.75100
O  32.97500 6.21100 33.47400
O  31.52400 5.19400 34.97700
C  31.85000 6.16800 36.05500
H  38.29000 1.95700 33.01300
H  38.20800 1.65700 26.48100
H  31.93400 3.25600 26.66900
H  34.39900 4.12100 34.62100
H  36.57100 2.10900 34.60600
H  37.90900 4.48400 33.98300
H  37.53200 3.74100 35.50400
H  36.46500 5.05400 34.83500
H  34.48300 1.10700 34.68500
H  32.93700 1.81900 34.64200
H  34.04300 1.22400 36.98600
H  32.96900 2.53900 36.91400
H  41.36700 1.85800 31.17200
H  40.84800 0.19200 31.42300
H  40.17700 1.51400 32.40300
H  42.66100 0.15200 28.04400
H  41.68200 -0.10700 29.45900
H  42.37000 1.51700 29.09100
H  35.95000 1.12400 25.01600
H  33.80100 3.36300 24.90700
H  37.16600 3.82300 25.03400
H  36.07300 3.70600 23.82300
H  37.43000 2.58200 23.75800
H  32.80200 0.80200 25.91400
H  33.91700 0.68500 24.50400
H  32.73000 1.65000 22.99300
H  31.91500 2.68500 24.06500
H  31.42200 0.90000 24.05400
H  29.22700 5.03600 29.02400
H  29.77900 4.08500 27.55600
H  30.51600 5.53500 27.91700
H  31.61800 3.25000 33.64900
H  31.30000 7.10900 36.05100
H  32.91600 6.36600 35.93700
H  31.76900 5.73700 37.05200
Mg 16.90300 51.49500 26.49600
C  18.84300 50.38800 29.13800
C  14.49800 52.49600 28.60500
C  15.22000 52.44700 23.78600
C  19.46800 50.22700 24.22400
N  16.81500 51.65400 28.68300
C  17.65100 51.03100 29.56800
C  17.07400 51.11000 30.97800
C  15.66100 51.68800 30.85500
C  15.59700 51.91800 29.27100
C  14.53100 50.80500 31.41700
C  18.05800 51.71800 32.00300
C  17.50400 52.52000 33.21600
H  16.51700 51.78900 34.10200
N  15.16500 52.43400 26.31500
C  14.29600 52.75200 27.30300
C  13.14300 53.45300 26.64200
C  13.41900 53.52700 25.23800
C  14.61800 52.74800 25.05700
C  12.07600 54.00500 27.50000
C  12.51500 54.16100 24.13300
O  12.71500 54.03100 22.92600
C  11.24100 54.92800 24.49200
N  17.24900 51.24800 24.24500
C  16.40500 51.81400 23.35400
C  16.83600 51.66800 21.93200
C  18.37700 51.27100 22.06800
C  18.39200 50.83200 23.57600
C  16.03700 50.58200 21.14200
C  19.42800 52.39100 21.79700
C  20.80600 51.86400 21.29500
N  18.74000 50.40700 26.59300
C  19.68500 50.06400 25.58700
C  20.79000 49.49900 26.20700
C  20.52100 49.51200 27.58400
C  19.28800 50.20400 27.80200
C  22.02400 48.93100 25.45400
C  21.03600 49.20600 28.97300
O  22.02700 48.62500 29.39500
C  19.97600 49.79400 29.99100
C  19.47100 48.62700 30.67900
O  18.60800 47.86000 30.25900
O  19.95200 48.54900 31.93200
C  19.24000 47.56900 32.70500
H  13.67500 52.81500 29.24900
H  14.77500 52.98100 22.94300
H  20.27300 49.96600 23.53400
H  16.96900 50.04500 31.18100
H  15.62300 52.70000 31.25900
H  13.93300 51.34800 32.14800
H  14.94000 49.91600 31.89700
H  13.85800 50.50900 30.61200
H  18.89200 52.25400 31.55000
H  18.52500 50.85800 32.48200
H  16.96500 53.39200 32.84600
H  18.37000 52.85800 33.78600
H  12.33200 55.04700 27.69500
H  11.77200 53.43000 28.37500
H  11.12400 54.14400 26.98900
H  10.64400 54.05300 24.74900
H  10.79500 55.57500 23.73800
H  11.39600 55.53200 25.38600
H  16.81000 52.69300 21.56200
H  18.64700 50.32900 21.59000
H  16.75900 49.87500 20.73400
H  15.53600 51.18700 20.38600
H  15.41100 50.20100 21.94900
H  19.63000 52.83500 22.77200
H  18.89500 53.08000 21.14200
H  21.04300 52.44800 20.40600
H  20.67200 50.82100 21.00900
H  21.60000 51.94500 22.03700
H  22.85200 48.78300 26.14700
H  22.27900 49.63500 24.66200
H  21.90100 47.96000 24.97600
H  20.55400 50.38100 30.70500
H  19.84800 47.46600 33.60300
H  19.22500 46.56700 32.27700
H  18.23700 47.86700 33.01200

