158

Mg 1.72000 -2.48900 43.99000
C  5.07900 -1.49900 43.52900
C  0.76300 0.36100 42.31500
C  -1.37700 -3.71100 44.05700
C  2.91000 -5.45500 45.36900
N  2.85200 -0.88700 42.88700
C  4.17900 -0.65200 42.85100
C  4.48600 0.64500 42.04900
C  3.08500 1.36400 42.16100
C  2.16100 0.22100 42.42500
C  2.95600 2.56700 43.07300
C  5.05600 0.49100 40.62000
C  6.33800 1.21200 40.31300
H  6.24100 2.22500 39.21400
N  -0.12600 -1.79100 43.21000
C  -0.31900 -0.58800 42.56300
C  -1.75000 -0.34700 42.36500
C  -2.44300 -1.45400 43.01600
C  -1.36000 -2.39500 43.49800
C  -2.28700 0.74300 41.54200
C  -3.90300 -1.64400 43.15600
O  -4.68900 -0.88300 42.69300
C  -4.57000 -2.80000 43.73700
N  0.84700 -4.40500 44.55100
C  -0.50800 -4.67400 44.53900
C  -0.86000 -5.96500 45.23000
C  0.57200 -6.57700 45.34000
C  1.52600 -5.47200 45.13000
C  -1.70700 -5.77100 46.44800
C  0.92200 -7.67800 44.33100
C  0.12700 -8.99000 44.46200
N  3.57600 -3.25500 44.54800
C  3.90000 -4.45900 45.11100
C  5.30300 -4.50500 45.37600
C  5.83000 -3.32200 44.82300
C  4.74500 -2.62600 44.31700
C  6.08700 -5.60300 46.00700
C  7.04300 -2.59000 44.47500
O  8.18900 -2.89300 44.78600
C  6.52500 -1.32300 43.71600
C  6.90800 -0.10300 44.48600
O  6.99800 0.01000 45.68400
O  7.46700 0.88500 43.69500
C  7.85300 2.17800 44.35700
H  0.50300 1.38700 42.04600
H  -2.43100 -3.94300 44.22400
H  3.29700 -6.32900 45.89600
H  5.20300 1.26600 42.58700
H  2.69800 1.78000 41.23100
H  2.43500 3.28900 42.44400
H  3.94500 2.94200 43.33600
H  2.44200 2.31200 44.00100
H  4.27300 0.92800 40.00000
H  5.07000 -0.59600 40.54500
H  6.99900 0.38700 40.04800
H  6.82200 1.66500 41.17800
H  -1.90100 0.90000 40.53500
H  -2.31000 1.71500 42.03500
H  -3.35900 0.59800 41.41500
H  -5.64200 -2.74300 43.92200
H  -4.11300 -2.89800 44.72200
H  -4.32300 -3.69000 43.15900
H  -1.52600 -6.45500 44.52000
H  0.73600 -6.99100 46.33500
H  -2.71000 -6.19100 46.36900
H  -1.74600 -4.69900 46.64600
H  -1.18500 -6.16300 47.32100
H  2.00200 -7.78000 44.44100
H  0.77100 -7.29500 43.32200
H  -0.52500 -9.10400 43.59600
H  -0.62100 -8.94300 45.25400
H  0.70100 -9.90500 44.31400
H  6.21300 -6.51900 45.43000
H  5.63800 -5.80200 46.98000
H  7.06200 -5.11600 45.98800
H  7.01900 -1.27700 42.74600
H  7.37600 2.54700 45.26500
H  7.65200 2.87400 43.54200
H  8.93800 2.23500 44.44300
Mg 1.35400 43.02800 25.76400
C  3.50700 42.93100 28.53800
C  -1.36300 42.60300 27.87600
C  -0.82700 42.39000 23.11000
C  3.99900 42.93700 23.72800
N  1.10000 42.76700 27.94600
C  2.19000 42.78000 28.89600
C  1.69400 42.73600 30.30400
C  0.13900 42.29100 30.06000
C  -0.09900 42.58300 28.55100
C  -0.32900 40.92500 30.51200
C  1.88300 44.12900 30.96400
C  2.00100 44.17300 32.46600
H  1.70500 42.85800 33.22300
N  -0.87300 42.75300 25.51400
C  -1.76600 42.63500 26.56100
C  -3.04700 42.42400 26.03300
C  -2.94400 42.29500 24.59800
C  -1.53400 42.48200 24.32800
C  -4.23800 42.24700 26.93200
C  -4.01800 42.15700 23.56100
O  -3.73800 42.19400 22.36100
C  -5.43300 41.91700 23.97400
N  1.55400 42.57000 23.81600
C  0.58000 42.50000 22.87000
C  1.15400 42.44100 21.46700
C  2.45000 43.06900 21.67500
C  2.69900 42.76500 23.21300
C  1.13100 40.94400 20.88700
C  2.63000 44.56900 21.36000
C  3.84900 44.95800 20.46500
N  3.41800 42.95300 26.01100
C  4.36700 43.04200 25.08700
C  5.66200 43.19300 25.74100
C  5.36700 43.10700 27.09300
C  3.99800 42.99500 27.23300
C  6.98600 43.24600 25.12200
C  5.88000 43.19100 28.43900
O  7.03800 43.34500 28.73100
C  4.76100 43.01800 29.47000
C  4.92800 41.82000 30.27300
O  4.62100 40.67200 29.94500
O  5.31400 42.17000 31.48600
C  5.45600 41.06900 32.47900
H  -2.06700 42.36300 28.67600
H  -1.43900 42.31000 22.21000
H  4.82200 42.96400 23.01000
H  2.30500 42.05800 30.90000
H  -0.51200 42.97300 30.60900
H  -0.80900 40.33000 29.73500
H  -0.96400 41.16900 31.36500
H  0.53500 40.36300 30.86600
H  1.03700 44.65800 30.52400
H  2.71500 44.64800 30.48800
H  1.34100 44.88700 32.95800
H  3.03700 44.42700 32.68900
H  -4.67600 43.23900 27.04300
H  -3.86500 41.82600 27.86600
H  -4.96900 41.55900 26.50700
H  -5.61700 40.92900 24.39700
H  -6.08500 42.02000 23.10600
H  -5.89900 42.68500 24.59100
H  0.58700 43.08000 20.78900
H  3.30200 42.54800 21.23900
H  0.81800 40.26700 21.68100
H  2.09000 40.74000 20.41100
H  0.40200 40.91000 20.07700
H  2.85100 45.05600 22.31000
H  1.71800 45.01600 20.96500
H  3.48100 45.53200 19.61600
H  4.40600 44.07300 20.15600
H  4.62000 45.46700 21.04400
H  7.65900 42.41800 25.34800
H  7.49800 44.10200 25.56000
H  7.06000 43.44800 24.05400
H  4.81300 43.90500 30.10200
H  6.46500 40.70600 32.28300
H  4.70100 40.28500 32.42100
H  5.49300 41.56700 33.44700

