158

Mg 48.04300 35.72100 27.70200
C  46.31800 33.89800 30.22500
C  48.12400 38.41300 29.66500
C  49.25100 37.51900 25.03800
C  47.81900 33.02300 25.65700
N  47.31000 36.02800 29.69300
C  46.78800 35.13700 30.56300
C  46.65300 35.76700 31.94400
C  46.93000 37.31600 31.71300
C  47.41900 37.29100 30.21100
C  45.81000 38.34000 31.78700
C  47.69200 35.11900 32.94800
C  48.74500 35.96200 33.73600
H  48.30700 36.96100 34.86300
N  48.86000 37.69700 27.44300
C  48.75300 38.61700 28.38300
C  49.36400 39.86600 27.89900
C  49.67400 39.65700 26.50900
C  49.29400 38.22000 26.30600
C  49.48100 41.12700 28.73100
C  50.19800 40.65200 25.44400
O  50.44900 40.22900 24.29800
C  50.54900 42.13300 25.82500
N  48.45600 35.35300 25.60700
C  48.89600 36.24200 24.72800
C  48.91800 35.57800 23.28600
C  48.71900 34.07400 23.52900
C  48.33100 34.13400 25.01500
C  47.95600 36.35600 22.36100
C  50.00400 33.14900 23.29900
C  51.17700 33.22800 24.35100
N  47.20500 33.88800 27.83700
C  47.22500 32.87500 26.93500
C  46.48900 31.77400 27.43500
C  46.23700 32.12700 28.77800
C  46.55800 33.41700 28.89500
C  46.22400 30.46400 26.81100
C  45.65900 31.67000 29.99500
O  45.31600 30.51700 30.25600
C  45.46300 32.92000 30.90200
C  45.76900 32.53800 32.28800
O  46.82000 32.01600 32.63900
O  44.63000 32.76300 33.03800
C  44.57700 32.19200 34.34500
H  48.19500 39.17700 30.44200
H  49.51500 38.12100 24.16600
H  47.57100 32.15900 25.03600
H  45.59400 35.73200 32.19800
H  47.75400 37.68200 32.32600
H  46.11800 39.10700 32.49800
H  44.92900 37.83500 32.18500
H  45.49600 38.74600 30.82500
H  48.35500 34.42800 32.42600
H  47.05500 34.55700 33.63000
H  49.38400 36.55700 33.08300
H  49.46300 35.26700 34.17200
H  48.53000 41.61800 28.52400
H  50.23700 41.87900 28.50700
H  49.72100 40.94800 29.77900
H  49.92100 42.47700 26.64700
H  50.47700 42.63800 24.86100
H  51.59700 42.10700 26.12400
H  49.91500 35.81600 22.91500
H  47.85900 33.58600 23.07000
H  47.34400 37.14200 22.80300
H  47.35000 35.58400 21.88700
H  48.54200 36.72400 21.51900
H  50.55300 33.47200 22.41400
H  49.79300 32.13000 22.97500
H  51.09500 34.22000 24.79500
H  52.13900 33.04000 23.87500
H  50.98400 32.45800 25.09900
H  46.35200 29.65300 27.52800
H  46.88200 30.28900 25.96000
H  45.23700 30.63400 26.38100
H  44.42700 33.25300 30.84700
H  44.10800 32.94800 34.97500
H  45.55400 31.92500 34.74700
H  43.91400 31.32700 34.33300
Mg 36.93700 49.88400 24.54800
C  37.16400 48.11800 27.57100
C  35.27700 52.36400 26.15400
C  36.27700 51.25800 21.46600
C  37.88300 46.85900 22.82700
N  36.47900 50.21100 26.68400
C  36.68100 49.39300 27.75300
C  36.34200 50.14500 29.02300
C  35.76400 51.51800 28.50600
C  35.84900 51.44300 27.01900
C  34.28500 51.82000 29.02000
C  37.67900 50.28800 29.80400
C  37.68700 50.00000 31.35000
H  36.32100 49.81000 32.01300
N  36.04400 51.65700 23.89500
C  35.48600 52.55200 24.70300
C  35.11800 53.75700 23.90600
C  35.38900 53.44600 22.55500
C  35.89800 52.02400 22.54900
C  34.48200 54.94600 24.61800
C  35.24200 54.29800 21.33700
O  35.46900 53.91700 20.16700
C  34.85000 55.83000 21.53700
N  37.04400 49.08700 22.44200
C  36.80400 49.93400 21.39200
C  37.21400 49.21800 20.10300
C  37.78500 47.87200 20.53200
C  37.63400 47.90100 22.01500
C  36.11300 49.12600 19.00900
C  39.33100 47.64900 20.15600
C  40.32600 48.82400 20.57600
N  37.58200 47.94600 25.02100
C  37.82400 46.82000 24.21400
C  38.04100 45.67000 25.03500
C  37.81800 46.16200 26.32200
C  37.44400 47.50700 26.29100
C  38.44300 44.35100 24.55100
C  37.79000 45.72800 27.75100
O  37.97900 44.62500 28.24500
C  37.41500 47.02700 28.56800
C  36.24800 46.62700 29.39200
O  35.09700 46.74800 29.01500
O  36.68200 46.10000 30.58900
C  35.65600 45.47900 31.42100
H  34.99700 53.23400 26.75200
H  36.06600 51.77800 20.53000
H  38.14200 45.94600 22.28800
H  35.65200 49.52200 29.59100
H  36.42900 52.31100 28.84900
H  33.61600 51.63900 28.17900
H  34.20900 52.88400 29.24300
H  33.82300 51.17400 29.76700
H  37.91800 51.34800 29.72000
H  38.53400 49.70500 29.46300
H  38.26700 50.76800 31.86100
H  38.23800 49.06500 31.44500
H  33.45600 55.24000 24.39900
H  34.98400 55.83100 24.22800
H  34.59600 54.95500 25.70200
H  33.82100 55.91800 21.88500
H  34.65600 56.30600 20.57600
H  35.72800 56.22000 22.05300
H  37.99400 49.81300 19.62700
H  37.23400 47.01600 20.14200
H  35.16700 49.39300 19.48200
H  36.10300 48.25000 18.36200
H  36.28300 49.99100 18.36700
H  39.43100 47.64100 19.07000
H  39.55900 46.71100 20.66300
H  39.89100 49.52500 21.28700
H  40.65100 49.44100 19.73800
H  41.19300 48.29800 20.97600
H  39.47900 44.18200 24.84300
H  38.19200 44.28700 23.49200
H  37.86100 43.55700 25.02000
H  38.28200 47.36300 29.13700
H  34.91700 46.20000 31.77000
H  36.14400 44.98900 32.26400
H  35.15000 44.68800 30.86700

