158

Mg 16.48300 -1.21000 27.90800
C  15.55500 1.14000 30.53900
C  18.23100 -2.95000 30.17500
C  17.64100 -3.03800 25.34300
C  15.12400 1.07900 25.60500
N  16.96500 -0.85400 30.02800
C  16.42100 0.08000 30.93300
C  16.89100 -0.18800 32.34900
C  17.76000 -1.45700 32.18100
C  17.73800 -1.75500 30.65200
C  19.27900 -1.12700 32.59000
C  15.67700 -0.37700 33.36900
C  15.83100 0.33600 34.74100
H  17.30300 0.65700 35.24100
N  17.82500 -2.79900 27.78700
C  18.40100 -3.48400 28.81600
C  19.05200 -4.65300 28.28100
C  18.85400 -4.67400 26.90200
C  18.05600 -3.48900 26.63100
C  19.97800 -5.57200 29.11200
C  19.12400 -5.72300 25.82900
O  18.88500 -5.61900 24.61500
C  19.83300 -6.92900 26.28500
N  16.58300 -0.92800 25.72500
C  16.99100 -1.90800 24.90400
C  17.01100 -1.50000 23.47400
C  15.93000 -0.31400 23.52900
C  15.79100 -0.05000 25.05400
C  18.42200 -1.09800 22.97200
C  14.54300 -0.61300 22.82900
C  14.01000 0.57600 21.92600
N  15.44500 0.65800 27.96100
C  15.01000 1.47500 26.97300
C  14.30700 2.67300 27.54500
C  14.47700 2.51600 28.93700
C  15.23600 1.33800 29.15800
C  13.50200 3.70100 26.83100
C  14.07800 3.12200 30.21600
O  13.41300 4.10800 30.53200
C  14.74800 2.23200 31.31700
C  15.52100 2.99600 32.22300
O  16.71100 3.27000 32.09100
O  14.79200 3.47400 33.33200
C  15.59900 4.35600 34.20100
H  18.68200 -3.51300 30.99500
H  18.04400 -3.59100 24.49200
H  14.68700 1.74700 24.86000
H  17.51800 0.65800 32.63000
H  17.33300 -2.28700 32.74300
H  19.32900 -0.14100 33.05100
H  19.89900 -1.10200 31.69400
H  19.62900 -1.83600 33.34000
H  15.53400 -1.42700 33.62400
H  14.72600 -0.11300 32.90700
H  15.39700 -0.31600 35.50000
H  15.32400 1.29900 34.66900
H  20.77500 -5.91000 28.44900
H  19.42600 -6.48600 29.33100
H  20.43800 -5.08100 29.96900
H  19.35900 -7.44100 27.12300
H  20.84900 -6.54600 26.38300
H  19.93600 -7.68100 25.50300
H  16.62200 -2.41300 23.02300
H  16.41000 0.55900 23.08700
H  18.35000 -0.10800 22.52200
H  18.64000 -1.80700 22.17300
H  19.18400 -0.96800 23.74000
H  13.82200 -0.76900 23.63100
H  14.70500 -1.48500 22.19600
H  14.62600 1.47300 21.98700
H  13.04700 0.89300 22.32700
H  13.81300 0.10300 20.96400
H  14.08400 4.62300 26.86500
H  12.52100 3.75600 27.30100
H  13.11300 3.54800 25.82400
H  14.01300 1.67500 31.89900
H  14.95900 4.60500 35.04700
H  15.89700 5.27400 33.69300
H  16.45800 3.92500 34.71700
Mg 48.63800 16.50300 28.24400
C  46.61400 15.97900 31.03900
C  50.96700 17.98400 30.15200
C  50.13800 17.48600 25.33500
C  45.82000 15.29400 26.25600
N  48.67200 17.13500 30.35700
C  47.81600 16.70500 31.31400
C  48.34400 17.05600 32.64800
C  49.75400 17.72900 32.38000
C  49.81500 17.65500 30.83800
C  49.89800 19.16500 33.01300
C  48.56500 15.85100 33.64600
C  47.76200 15.87300 34.96700
H  47.39300 17.16800 35.62100
N  50.30300 17.60100 27.81000
C  51.22900 17.96900 28.74300
C  52.33700 18.50100 28.03500
C  52.11200 18.32100 26.65500
C  50.77700 17.78300 26.54200
C  53.51400 19.08600 28.77000
C  53.04000 18.69800 25.46100
O  52.74500 18.48800 24.29500
C  54.36800 19.25200 25.76800
N  48.01800 16.29800 26.06800
C  48.84800 16.85100 25.12300
C  48.19100 16.65200 23.69300
C  46.95600 15.75000 24.00600
C  46.89100 15.83300 25.53600
C  47.77700 18.01600 23.01600
C  47.00900 14.29200 23.45600
C  46.01500 13.85900 22.39900
N  46.72800 15.56700 28.55400
C  45.74500 15.14200 27.65500
C  44.61800 14.61200 28.39600
C  44.95700 14.87300 29.74700
C  46.19700 15.53500 29.76500
C  43.31600 14.08700 27.91800
C  44.46000 14.74100 31.11300
O  43.45600 14.27200 31.62100
C  45.53500 15.46500 32.02700
C  44.77000 16.53900 32.80400
O  44.62400 17.70800 32.45000
O  44.20500 15.99200 33.95900
C  43.25400 16.88100 34.74400
H  51.68300 18.43800 30.84000
H  50.59500 17.69000 24.36500
H  45.02700 14.94600 25.59100
H  47.66900 17.70600 33.20600
H  50.59100 17.10700 32.69800
H  48.96300 19.71000 32.88300
H  50.71300 19.72100 32.54700
H  50.19300 19.06900 34.05800
H  49.59000 15.66400 33.96700
H  48.33700 14.86300 33.24600
H  48.29900 15.31400 35.73300
H  46.81200 15.35100 34.85600
H  54.35900 18.40000 28.70900
H  53.29600 19.33600 29.80800
H  53.80400 20.01600 28.28000
H  54.26400 20.30800 26.01700
H  55.04800 19.03800 24.94300
H  54.74500 18.59600 26.55300
H  48.86200 16.12700 23.01200
H  46.12800 16.27400 23.52800
H  48.37500 18.81500 23.45400
H  46.71700 18.21700 23.16900
H  47.89000 18.02600 21.93200
H  46.99500 13.56800 24.27100
H  47.97500 14.10700 22.98400
H  46.50300 13.79300 21.42700
H  45.36000 14.72700 22.33200
H  45.55800 12.87900 22.54100
H  43.33300 13.01500 27.72000
H  42.93900 14.65700 27.06800
H  42.59200 14.39100 28.67400
H  45.96400 14.69000 32.66200
H  42.32100 17.11800 34.23300
H  43.63400 17.79500 35.20000
H  42.88300 16.25800 35.55700

