158

Mg 25.76500 0.21800 29.57100
C  27.50300 0.09300 32.60000
C  22.86200 0.60500 31.38300
C  24.06400 0.37200 26.61600
C  28.54500 -0.85700 27.79100
N  25.26400 0.26800 31.76500
C  26.14700 0.27300 32.83100
C  25.46300 0.42600 34.15800
C  23.95100 0.47000 33.64900
C  23.99600 0.39800 32.19900
C  22.86300 -0.49300 34.32000
C  25.99700 1.70500 34.98100
C  25.11300 2.20200 36.11700
H  25.54500 1.80700 37.53000
N  23.76600 0.44800 29.12000
C  22.71900 0.63900 29.98600
C  21.48200 0.84000 29.27100
C  21.82900 0.74500 27.86500
C  23.26800 0.52800 27.83900
C  20.17300 1.08100 30.03800
C  20.95500 0.82700 26.61600
O  21.45100 0.86500 25.48100
C  19.46000 0.81300 26.74700
N  26.27100 -0.09200 27.41300
C  25.35700 0.04600 26.45700
C  25.92100 -0.33800 25.01900
C  27.41600 -0.73600 25.41200
C  27.46600 -0.54200 26.94300
C  25.16000 -1.45500 24.28800
C  28.48500 0.19100 24.68800
C  28.24800 0.36000 23.17100
N  27.61500 -0.26700 29.96900
C  28.66300 -0.67300 29.18600
C  29.83800 -0.67000 29.93900
C  29.45200 -0.41400 31.26500
C  28.09300 -0.17500 31.30400
C  31.19500 -0.99100 29.41400
C  29.89800 -0.33500 32.58500
O  31.03100 -0.49900 33.04300
C  28.68200 -0.08500 33.44200
C  28.52800 -1.19300 34.37300
O  28.09200 -2.29400 34.13400
O  29.01700 -0.85500 35.59200
C  28.76200 -1.79900 36.73000
H  21.95200 0.71800 31.97500
H  23.64100 0.45200 25.61200
H  29.47600 -1.12100 27.28500
H  25.69500 -0.46300 34.74400
H  23.52500 1.45700 33.83000
H  23.23200 -0.97100 35.22800
H  22.64300 -1.29000 33.61000
H  22.03000 0.17800 34.52900
H  26.04000 2.55800 34.30500
H  26.97400 1.43100 35.37900
H  24.08900 1.84100 36.02400
H  25.08300 3.28000 35.96000
H  19.75600 2.00000 29.62400
H  20.23300 1.26200 31.11100
H  19.48900 0.25700 29.83500
H  19.15600 0.01300 27.42300
H  18.89100 0.90800 25.82300
H  19.06500 1.60300 27.38500
H  25.80100 0.50800 24.34300
H  27.66300 -1.77300 25.18300
H  25.59100 -2.45400 24.35200
H  25.05600 -1.22800 23.22700
H  24.11600 -1.50200 24.59600
H  29.40500 -0.36100 24.87900
H  28.64100 1.09900 25.26900
H  28.97500 -0.03700 22.46200
H  28.01000 1.39800 22.94000
H  27.30100 -0.13500 22.95500
H  31.87100 -1.12100 30.25900
H  31.59000 -0.16700 28.81900
H  31.12300 -2.01500 29.04800
H  29.01600 0.83900 33.91600
H  29.67000 -2.21500 37.16600
H  28.01800 -2.55600 36.48300
H  28.31200 -1.29100 37.58400
Mg 9.36700 47.99800 26.17600
C  7.11400 48.69100 28.69000
C  11.86600 49.49400 28.07300
C  11.53700 47.89500 23.49800
C  6.79900 47.21000 24.09500
N  9.43400 48.92500 28.19800
C  8.40100 49.06000 29.06200
C  8.97600 49.50800 30.43200
C  10.36600 50.13600 30.10500
C  10.55600 49.49300 28.71800
C  10.50500 51.73300 30.05200
C  8.93500 48.38300 31.45200
C  8.23500 48.93300 32.75700
H  8.16000 47.95500 34.04600
N  11.40000 48.50300 25.91000
C  12.23900 49.01700 26.79300
C  13.62100 48.82900 26.25700
C  13.53100 48.47200 24.91400
C  12.09700 48.22900 24.72600
C  14.87400 49.09400 27.10200
C  14.66500 48.33500 23.87700
O  14.49500 47.98900 22.71500
C  16.10300 48.47300 24.23300
N  9.18700 47.70000 24.06600
C  10.19400 47.67800 23.18100
C  9.79400 47.17600 21.76700
C  8.25200 46.85500 21.99700
C  8.06100 47.25800 23.47200
C  9.98400 48.15700 20.67300
C  7.89600 45.28700 21.68500
C  6.62400 45.01300 20.91100
N  7.37200 47.90100 26.38000
C  6.43100 47.50300 25.43400
C  5.15100 47.63000 26.04500
C  5.39900 48.06300 27.34800
C  6.73900 48.32700 27.44700
C  3.86900 47.46600 25.40000
C  4.75000 48.43300 28.59300
O  3.54300 48.34900 28.84800
C  5.85300 48.78000 29.58000
C  5.87000 47.66000 30.50700
O  6.42100 46.57200 30.40200
O  5.05100 47.94400 31.59700
C  4.64500 46.86700 32.53400
H  12.70600 49.89200 28.64500
H  12.17000 47.60400 22.65700
H  5.93600 46.89600 23.50500
H  8.34500 50.31400 30.80700
H  11.08400 49.67100 30.78000
H  10.89200 52.02600 29.07600
H  11.40600 51.94500 30.62700
H  9.55200 52.21200 30.27800
H  9.91300 48.07500 31.82300
H  8.48600 47.49900 30.99900
H  7.16000 49.04200 32.61700
H  8.66400 49.88600 33.06700
H  14.61900 49.09200 28.16200
H  15.07700 50.13400 26.84400
H  15.64100 48.36900 26.83400
H  16.44500 47.58600 24.76600
H  16.21600 49.35800 24.85900
H  16.59600 48.64000 23.27500
H  10.32900 46.23000 21.68100
H  7.56800 47.45500 21.39700
H  9.32200 48.04200 19.81500
H  10.86700 47.89600 20.08900
H  10.18200 49.17200 21.02000
H  7.82400 44.75300 22.63200
H  8.72800 44.90600 21.09400
H  6.91300 44.73900 19.89600
H  5.95900 45.87600 20.87300
H  6.07000 44.24500 21.45300
H  3.99800 46.77100 24.57100
H  3.42600 48.40800 25.07700
H  3.25200 46.99500 26.16600
H  5.78000 49.72200 30.12500
H  4.82300 47.26700 33.53300
H  5.31300 46.01200 32.43300
H  3.58500 46.66100 32.38600

