158

Mg -1.23700 17.61700 27.05800
C  -1.47800 15.23700 29.65100
C  -2.04400 20.08700 29.17200
C  -1.35800 19.64900 24.24600
C  -1.55300 14.80200 24.78300
N  -1.52700 17.59200 29.09100
C  -1.67600 16.54800 30.01700
C  -2.09800 17.07700 31.37800
C  -2.32500 18.62400 31.20000
C  -1.94100 18.79000 29.66200
C  -3.70700 19.19100 31.54500
C  -1.10200 16.59300 32.44000
C  -0.76900 17.43700 33.65100
H  -0.44900 16.81200 35.06900
N  -1.57800 19.53900 26.79400
C  -1.88500 20.42800 27.80900
C  -1.79400 21.74900 27.30100
C  -1.62000 21.62200 25.79900
C  -1.52800 20.20200 25.50400
C  -1.98600 22.90700 28.12000
C  -1.37900 22.74600 24.81400
O  -1.36100 22.60800 23.61700
C  -1.01200 24.16800 25.33600
N  -1.41900 17.29800 24.84900
C  -1.36900 18.30200 23.93500
C  -1.26300 17.82300 22.52700
C  -1.22700 16.26600 22.67100
C  -1.42100 16.08100 24.18900
C  -2.40400 18.41400 21.56000
C  0.15500 15.68600 22.17900
C  1.52600 16.10700 22.83000
N  -1.30300 15.38200 27.18300
C  -1.47400 14.48200 26.18100
C  -1.66700 13.13000 26.75500
C  -1.57800 13.39800 28.09800
C  -1.39500 14.80300 28.32300
C  -2.16600 11.88900 25.98300
C  -1.73000 12.77100 29.35700
O  -1.90600 11.64600 29.76200
C  -1.78200 13.99700 30.42700
C  -0.76400 13.65100 31.44000
O  0.42700 14.12000 31.46400
O  -1.32000 12.80300 32.39500
C  -0.40300 12.30100 33.41100
H  -2.16000 20.92100 29.86700
H  -1.29400 20.31300 23.38200
H  -1.64100 13.93100 24.13100
H  -3.04500 16.59200 31.61300
H  -1.64600 19.22700 31.80200
H  -4.23600 18.48500 32.18400
H  -4.25100 19.38900 30.62100
H  -3.47100 20.16900 31.96300
H  -0.13200 16.39400 31.98500
H  -1.54200 15.72900 32.93800
H  -1.61500 18.11700 33.75200
H  0.03800 18.02300 33.21000
H  -2.82100 23.41500 27.63700
H  -1.04700 23.45900 28.15400
H  -2.17500 22.70500 29.17400
H  -0.00700 24.03800 25.73800
H  -1.70300 24.56800 26.07800
H  -0.94500 24.80200 24.45200
H  -0.31700 18.13200 22.08200
H  -2.09300 15.85900 22.14800
H  -1.89900 19.07600 20.85700
H  -3.01400 19.04000 22.21100
H  -3.02600 17.70700 21.01100
H  0.29800 15.93600 21.12700
H  0.15000 14.59900 22.26600
H  1.36600 17.02000 23.40400
H  2.17500 16.56800 22.08600
H  2.00600 15.25800 23.31800
H  -1.48400 11.56800 25.19500
H  -3.11300 12.09400 25.48400
H  -2.39700 11.03000 26.61300
H  -2.79600 13.89900 30.81500
H  -0.92300 11.69700 34.15500
H  0.01900 13.15500 33.94100
H  0.33900 11.61800 32.99700
Mg -1.13300 34.22300 27.60200
C  -3.10100 32.44600 29.90600
C  0.26400 35.98200 30.20000
C  0.11600 36.20900 25.37900
C  -2.75200 32.37000 24.97500
N  -1.53900 34.34200 29.69000
C  -2.39400 33.50900 30.40500
C  -2.23300 33.75100 31.95500
C  -1.45100 35.16500 31.99600
C  -0.85500 35.19400 30.59200
C  -2.35800 36.47400 32.20000
C  -1.47600 32.54500 32.75400
C  -2.17600 32.12500 34.11200
H  -1.45200 31.73700 35.52800
N  0.09100 35.77800 27.74600
C  0.75500 36.32300 28.93000
C  1.69900 37.30700 28.56500
C  1.67200 37.41500 27.15200
C  0.56500 36.47900 26.69400
C  2.60400 38.10300 29.53600
C  2.58300 38.14500 26.15400
O  2.36400 38.16800 24.95400
C  3.75500 38.93100 26.59500
N  -1.57500 34.49000 25.43200
C  -0.78400 35.37300 24.77500
C  -0.79300 35.19100 23.24300
C  -1.58900 33.75300 23.17800
C  -1.99000 33.49200 24.61300
C  -1.51700 36.33700 22.43600
C  -0.62000 32.67100 22.54500
C  -1.16500 31.79800 21.47900
N  -2.66400 32.75600 27.45100
C  -3.13200 32.08400 26.27600
C  -3.99400 31.01800 26.72800
C  -4.01700 31.08700 28.12600
C  -3.19000 32.15400 28.53300
C  -4.66400 30.06800 25.81500
C  -4.46600 30.41300 29.35500
O  -5.12300 29.40600 29.53000
C  -4.06700 31.37400 30.53000
C  -5.25300 32.00400 31.17800
O  -5.73000 33.08600 30.95200
O  -5.75000 31.09900 32.15400
C  -6.62000 31.61500 33.17000
H  0.72100 36.48000 31.05800
H  0.39400 36.93300 24.61100
H  -3.18700 31.87100 24.10700
H  -3.25800 33.90000 32.29400
H  -0.65400 35.04700 32.73000
H  -3.29900 36.15400 32.64900
H  -2.69600 36.99200 31.30200
H  -1.85000 37.19900 32.83500
H  -0.40900 32.70900 32.90500
H  -1.47200 31.74200 32.01800
H  -2.75100 31.22400 33.90000
H  -2.90400 32.91800 34.28400
H  2.09400 38.23900 30.49000
H  2.67300 39.10600 29.11600
H  3.56500 37.60000 29.64600
H  4.49500 38.27300 27.05000
H  3.46700 39.75300 27.25100
H  4.26100 39.42600 25.76600
H  0.26800 35.14100 22.99800
H  -2.55100 33.95900 22.70900
H  -1.45900 37.21500 23.08100
H  -2.52600 36.01500 22.18200
H  -0.87600 36.55900 21.58300
H  -0.26800 31.96500 23.29700
H  0.21800 33.22500 22.12000
H  -1.23500 30.80400 21.92100
H  -0.50400 31.78500 20.61200
H  -2.18400 32.10300 21.24100
H  -3.97600 29.86000 24.99500
H  -5.56200 30.55600 25.43600
H  -4.90700 29.13000 26.31400
H  -3.53000 30.83100 31.30700
H  -6.02900 31.86600 34.05100
H  -7.22500 30.75900 33.46800
H  -7.26600 32.42700 32.83600

