158

Mg 46.33400 17.10800 29.05500
C  44.58800 16.64400 32.20400
C  48.66800 18.77900 30.69600
C  47.43800 17.80900 26.17200
C  43.46200 15.51000 27.60300
N  46.57300 17.73100 31.25200
C  45.78400 17.36200 32.33300
C  46.44700 17.91000 33.60000
C  47.67100 18.77100 33.10300
C  47.62400 18.53500 31.59700
C  47.67500 20.27900 33.51700
C  46.88400 16.84500 34.66600
C  46.05800 16.84800 35.99800
H  45.83100 18.21900 36.63500
N  47.99100 17.95600 28.51700
C  48.89400 18.56600 29.30900
C  50.09900 18.94900 28.51800
C  49.75100 18.66600 27.19500
C  48.31800 18.19300 27.23000
C  51.28700 19.59800 29.06900
C  50.52100 18.67600 25.95900
O  50.00300 18.45300 24.88500
C  51.96100 18.91200 25.97800
N  45.52800 16.72400 27.15700
C  46.15900 17.16200 26.10000
C  45.43900 16.85500 24.74400
C  44.31800 15.83400 25.26500
C  44.44900 15.92000 26.75900
C  45.00900 18.18100 24.03000
C  44.44600 14.46400 24.69500
C  43.56400 14.12700 23.51600
N  44.39500 16.30200 29.72800
C  43.37900 15.68200 28.95200
C  42.36400 15.17400 29.80200
C  42.79200 15.52700 31.08400
C  44.03500 16.23300 30.97300
C  41.01100 14.55600 29.33600
C  42.42800 15.51600 32.48700
O  41.42100 15.01700 33.04800
C  43.57000 16.19900 33.23900
C  42.93100 17.32300 33.96900
O  42.78200 18.46300 33.46400
O  42.47000 16.84500 35.15400
C  41.44800 17.79600 35.80800
H  49.46000 19.32900 31.20900
H  47.79300 18.15800 25.20000
H  42.71100 14.82300 27.20900
H  45.68400 18.51200 34.09400
H  48.59400 18.32800 33.47600
H  48.42200 20.47000 34.28800
H  46.73700 20.62600 33.95100
H  47.83500 20.93300 32.66000
H  47.93700 16.97300 34.91400
H  46.73300 15.86000 34.22500
H  46.63100 16.38100 36.79900
H  45.18000 16.22900 35.81500
H  51.32300 20.65600 28.81300
H  52.13000 19.01500 28.69900
H  51.25200 19.48000 30.15200
H  52.49200 18.09200 26.46300
H  52.25700 19.86000 26.42600
H  52.29700 18.87900 24.94200
H  46.15300 16.32800 24.11100
H  43.29200 16.12800 25.04400
H  45.59600 19.00500 24.43600
H  43.94900 18.35700 24.20900
H  45.28600 18.17800 22.97600
H  44.14700 13.68800 25.39900
H  45.46000 14.12900 24.47300
H  44.11400 14.53500 22.66800
H  42.55600 14.50700 23.68100
H  43.60400 13.04200 23.41900
H  40.58100 15.05400 28.46800
H  40.31400 14.52500 30.17400
H  41.20700 13.52100 29.05600
H  43.93400 15.50500 33.99700
H  42.11200 18.21600 36.56400
H  40.64000 17.30700 36.35200
H  40.99700 18.54200 35.15300
Mg 17.11900 51.51900 25.72200
C  19.11500 50.24100 28.39100
C  14.72700 52.34100 28.09000
C  15.06400 52.05100 23.20800
C  19.67800 50.28000 23.55400
N  17.02700 51.33600 28.03000
C  17.99500 50.87100 28.98000
C  17.53500 51.04600 30.40200
C  16.02000 51.52300 30.15400
C  15.95000 51.83700 28.64700
C  14.89100 50.44100 30.56600
C  18.44800 51.85700 31.35600
C  18.41500 51.48500 32.84700
H  17.59600 52.36700 33.89000
N  15.14000 52.08600 25.66300
C  14.33800 52.45800 26.74200
C  13.07200 52.97500 26.24700
C  13.16600 52.84000 24.83600
C  14.50900 52.36100 24.48700
C  11.95500 53.56500 27.11400
C  12.13100 53.23900 23.78000
O  12.21200 52.98700 22.59600
C  10.83700 53.94400 24.23400
N  17.33100 51.10700 23.67800
C  16.34800 51.59200 22.83100
C  16.92900 51.64000 21.41000
C  18.40600 51.17200 21.54000
C  18.49900 50.79500 23.00500
C  16.01800 50.70300 20.46600
C  19.45100 52.31600 21.25000
C  20.72800 51.94400 20.46400
N  19.02600 50.50200 25.86400
C  19.91500 50.06800 24.92700
C  21.01700 49.34200 25.56000
C  20.80900 49.45400 26.92000
C  19.56600 50.12200 27.04200
C  22.20900 48.63600 24.89300
C  21.30100 48.96900 28.15300
O  22.27300 48.25100 28.36300
C  20.37500 49.62600 29.23900
C  19.88800 48.69700 30.31100
O  19.06500 47.82000 30.11700
O  20.38400 49.02300 31.53300
C  19.96700 48.18300 32.67600
H  13.91100 52.50200 28.79700
H  14.50200 52.34000 22.31800
H  20.51400 49.97300 22.92200
H  17.50300 50.02400 30.77900
H  15.75800 52.43500 30.69000
H  13.95700 50.97200 30.75100
H  15.15800 50.04700 31.54600
H  14.72400 49.76200 29.73000
H  17.89900 52.79200 31.23800
H  19.46500 51.92100 30.96900
H  19.47600 51.47900 33.09800
H  18.12000 50.44300 32.97200
H  11.64000 54.52300 26.69900
H  12.26000 53.77000 28.14100
H  11.22300 52.76100 27.18300
H  10.17000 54.16600 23.40100
H  11.15200 54.92200 24.59700
H  10.28600 53.29300 24.91200
H  16.87700 52.67800 21.08300
H  18.66600 50.33000 20.90000
H  15.05200 50.62500 20.96500
H  16.43400 49.70500 20.33200
H  15.77400 51.18200 19.51800
H  19.77900 52.63100 22.24000
H  18.89800 53.14900 20.81700
H  20.89600 52.63000 19.63400
H  20.73300 50.98200 19.95000
H  21.55800 51.97600 21.16900
H  23.07400 48.39700 25.51100
H  22.50700 49.29000 24.07300
H  21.69700 47.75900 24.49700
H  20.97200 50.43700 29.65700
H  19.92600 48.81600 33.56200
H  20.72200 47.42900 32.89600
H  18.98500 47.72200 32.57300

