158

Mg 17.53100 -2.33900 27.25200
C  16.46200 -0.27200 29.81500
C  19.45500 -4.04400 29.48000
C  19.06600 -3.80500 24.56000
C  15.83700 -0.19900 24.89000
N  17.81900 -2.24400 29.45000
C  17.22300 -1.42400 30.26100
C  17.68400 -1.70700 31.71100
C  18.85200 -2.69300 31.54700
C  18.66000 -3.03000 30.08600
C  20.23700 -2.15200 31.90600
C  16.47400 -2.16800 32.59000
C  16.25600 -1.43100 33.95900
H  17.41400 -0.78900 34.66700
N  18.93000 -3.82100 27.03300
C  19.57000 -4.45000 28.12400
C  20.38100 -5.51600 27.56100
C  20.29800 -5.44000 26.14200
C  19.39600 -4.37700 25.80900
C  20.93800 -6.55300 28.50300
C  20.99200 -6.31400 25.07200
O  20.64100 -6.19200 23.87600
C  21.98600 -7.29500 25.40800
N  17.52400 -2.00100 25.07900
C  18.22700 -2.77500 24.19400
C  18.07100 -2.26500 22.80800
C  16.90600 -1.20900 22.81500
C  16.69400 -1.11400 24.36500
C  19.45800 -1.84400 22.32300
C  15.66600 -1.62100 21.93700
C  14.78000 -0.41400 21.59800
N  16.35600 -0.60900 27.22000
C  15.67800 0.11700 26.23500
C  14.94600 1.17100 26.83400
C  15.24700 1.08800 28.18800
C  16.06300 -0.03900 28.42500
C  14.06500 2.24400 26.11600
C  14.98700 1.72400 29.59500
O  14.25800 2.67100 29.93900
C  15.76500 0.90800 30.57300
C  16.69300 1.94200 31.21100
O  17.66200 2.43000 30.65200
O  16.27800 2.21100 32.52500
C  17.17000 3.21400 33.11200
H  20.16000 -4.52900 30.15800
H  19.56500 -4.20200 23.67300
H  15.31300 0.47700 24.21000
H  18.10700 -0.79000 32.12000
H  18.70900 -3.53000 32.23100
H  20.95000 -2.18200 31.08100
H  20.67100 -2.86300 32.61000
H  20.06300 -1.23100 32.46200
H  16.47200 -3.25000 32.71700
H  15.56800 -1.90800 32.04200
H  15.85700 -2.13700 34.68800
H  15.48100 -0.66700 33.88600
H  22.02200 -6.46600 28.58600
H  20.67100 -7.48900 28.01200
H  20.54300 -6.55000 29.51800
H  21.60100 -8.20900 25.86000
H  22.73000 -6.83800 26.06000
H  22.42600 -7.73700 24.51500
H  17.80200 -3.09700 22.15700
H  17.28800 -0.24400 22.48400
H  20.23200 -1.83000 23.08900
H  19.46000 -0.85500 21.86400
H  19.91600 -2.51900 21.60000
H  15.02500 -2.34800 22.43600
H  16.05700 -2.08700 21.03200
H  14.88700 -0.16000 20.54300
H  14.96100 0.53100 22.10900
H  13.73000 -0.54000 21.86200
H  14.51600 2.39800 25.13600
H  13.93700 3.19700 26.62900
H  13.07500 1.81400 25.95900
H  15.05200 0.46800 31.27100
H  18.08100 2.68000 33.38400
H  16.61700 3.58900 33.97300
H  17.31100 4.05400 32.43300
Mg 53.04700 23.19100 44.34200
C  50.44400 25.37600 43.33900
C  51.42100 20.61300 42.97600
C  55.87400 21.47300 44.68400
C  54.76100 25.94900 45.79700
N  51.23800 23.04600 43.19500
C  50.29400 24.04700 42.95000
C  48.98000 23.41700 42.43100
C  49.28500 21.89900 42.49400
C  50.77100 21.81000 42.87700
C  48.38800 21.15800 43.48800
C  48.67600 23.86100 40.89900
C  49.78100 23.82400 39.90000
H  49.55600 24.35000 38.48600
N  53.57900 21.25600 43.82300
C  52.73600 20.31900 43.32200
C  53.45300 19.06000 43.21600
C  54.81200 19.32900 43.67100
C  54.82300 20.79000 44.05500
C  52.80200 17.84900 42.65500
C  55.97200 18.29200 43.59400
O  55.90400 17.25100 42.98600
C  57.24100 18.61900 44.32200
N  55.23900 23.78100 44.75000
C  56.09500 22.81200 44.98000
C  57.32500 23.20200 45.83500
C  56.91400 24.71100 46.11400
C  55.52700 24.82700 45.57400
C  57.83100 22.37800 46.95500
C  57.85900 25.82900 45.57100
C  58.58800 26.57700 46.69400
N  52.75000 25.29900 44.65000
C  53.45800 26.19400 45.36400
C  52.61600 27.37900 45.54600
C  51.41000 27.11400 44.78500
C  51.64600 25.87200 44.13800
C  52.98300 28.56700 46.27600
C  50.13800 27.73500 44.35200
O  49.65900 28.82100 44.58400
C  49.51400 26.56100 43.40100
C  49.20000 27.08400 42.02900
O  49.88500 26.97500 41.03700
O  47.94100 27.70900 42.04200
C  47.36000 28.07000 40.73200
H  50.87000 19.73200 42.63900
H  56.66000 20.87700 45.15200
H  55.29000 26.74200 46.33000
H  48.19600 23.76800 43.10200
H  49.15700 21.33300 41.57200
H  47.96400 20.31800 42.93800
H  47.59800 21.80000 43.87800
H  48.75600 20.69200 44.40300
H  48.30700 24.88500 40.94900
H  47.84400 23.20500 40.64500
H  50.29200 22.87100 40.03600
H  50.51300 24.56800 40.21400
H  53.50000 17.01700 42.56100
H  52.55300 18.00200 41.60500
H  52.13500 17.32100 43.33500
H  57.09700 18.86900 45.37300
H  57.68000 19.43400 43.74600
H  57.97500 17.81600 44.25300
H  58.15400 23.28500 45.13200
H  56.81800 24.82600 47.19400
H  57.79400 23.09300 47.77600
H  58.86300 22.04800 46.83700
H  57.15800 21.54300 47.15100
H  57.37700 26.40300 44.77900
H  58.66400 25.31100 45.04800
H  59.59800 26.27000 46.96600
H  57.97000 26.67900 47.58500
H  58.57100 27.62500 46.39400
H  52.02900 28.94100 46.64800
H  53.46500 29.30700 45.63700
H  53.53400 28.42600 47.20600
H  48.60300 26.21800 43.89200
H  47.14900 29.11700 40.51600
H  46.40500 27.54400 40.73600
H  47.92100 27.58900 39.93200

