158

Mg 1.72600 8.86900 26.51400
C  2.43100 10.59100 29.53500
C  1.90500 5.90400 28.45300
C  1.41800 7.06700 23.69600
C  2.11900 11.78800 24.74400
N  2.24600 8.34500 28.68900
C  2.28800 9.26000 29.73100
C  2.18600 8.50700 31.12000
C  2.25800 7.01300 30.73200
C  2.14100 7.04900 29.17800
C  3.56800 6.18500 31.11200
C  0.90600 8.95100 31.94800
C  1.28400 8.96600 33.40600
H  2.42500 8.13600 33.93200
N  1.64000 6.76100 26.15300
C  1.57000 5.70600 27.04900
C  1.50500 4.45800 26.34300
C  1.25200 4.77000 24.98100
C  1.42600 6.25600 24.85100
C  1.65700 3.07500 27.14000
C  1.04100 3.87800 23.79400
O  0.85400 4.27200 22.63100
C  1.01600 2.41300 23.95800
N  1.84700 9.33400 24.54000
C  1.65800 8.44000 23.53600
C  1.77800 9.19600 22.08800
C  1.61200 10.72400 22.47400
C  1.81500 10.63000 24.01100
C  3.06600 8.93800 21.22100
C  0.22500 11.41100 22.25100
C  0.02900 12.31300 21.00800
N  2.13500 10.78400 26.96300
C  2.32500 11.88000 26.10100
C  2.82600 12.99300 26.87000
C  2.75300 12.55900 28.23500
C  2.46400 11.18400 28.23100
C  2.88600 14.38100 26.26900
C  2.82300 12.98800 29.55200
O  3.12900 14.07200 30.00800
C  2.60400 11.72700 30.40500
C  3.67200 11.57900 31.36300
O  4.80100 11.13200 31.16400
O  3.28800 12.01000 32.60900
C  4.25700 11.92200 33.72000
H  1.87700 4.98900 29.04800
H  1.17100 6.58700 22.74700
H  2.21700 12.65800 24.09000
H  3.20000 8.76000 31.42800
H  1.39700 6.51200 31.17400
H  4.09300 5.86200 30.21300
H  3.24700 5.31800 31.68800
H  4.22400 6.80600 31.72200
H  0.05100 8.28600 31.83100
H  0.55100 9.90700 31.56500
H  0.50200 8.80100 34.14700
H  1.65400 9.98000 33.55900
H  0.97800 3.05400 27.99200
H  2.64100 3.15900 27.60000
H  1.64400 2.17200 26.52900
H  0.25200 2.09200 24.66600
H  1.96000 2.11100 24.41200
H  0.90400 1.89200 23.00800
H  0.86100 8.89500 21.58300
H  2.39200 11.37900 22.08500
H  3.40800 7.91900 21.40200
H  3.87900 9.54800 21.61400
H  2.92100 8.98200 20.14100
H  -0.02500 11.75100 23.25600
H  -0.43600 10.57400 22.03100
H  -0.88900 12.00800 20.50400
H  0.86200 12.22500 20.31200
H  -0.01300 13.37600 21.24300
H  3.29200 14.20700 25.27300
H  3.57600 14.90400 26.93200
H  1.96400 14.96000 26.32300
H  1.68600 11.91200 30.96200
H  4.45500 12.83500 34.28100
H  5.22200 11.55300 33.37100
H  3.89000 11.10900 34.34700
Mg 46.67500 24.81800 28.22600
C  47.23900 27.27800 30.59300
C  45.90400 22.59800 30.87900
C  46.19600 22.58800 25.87400
C  47.49700 27.15700 25.69000
N  46.48400 25.02800 30.56600
C  46.78300 26.10000 31.23000
C  46.64000 25.86600 32.72100
C  46.42600 24.27600 32.86100
C  46.24100 23.91700 31.35700
C  47.55600 23.49100 33.58600
C  45.46700 26.70000 33.34700
C  44.81700 26.27100 34.68800
H  44.83700 27.08200 35.99500
N  46.17600 22.88400 28.29600
C  45.84000 22.15000 29.51700
C  45.54700 20.77900 29.05000
C  45.52400 20.78600 27.62600
C  46.03000 22.10400 27.22400
C  45.27300 19.64400 30.01900
C  45.12400 19.75500 26.67900
O  45.47300 19.75900 25.48600
C  44.45300 18.42000 27.13000
N  46.84600 24.91900 26.08100
C  46.56100 23.78000 25.35700
C  46.67700 24.07500 23.84100
C  46.82200 25.61100 23.79100
C  47.00400 25.94600 25.25000
C  47.85700 23.34800 23.21800
C  45.54200 26.38000 23.24400
C  45.67800 27.07400 21.90500
N  47.24900 26.75600 28.12300
C  47.65800 27.54100 27.01500
C  48.32800 28.77200 27.52700
C  48.05800 28.75700 28.91400
C  47.46900 27.48400 29.21700
C  48.92100 29.89400 26.80700
C  48.26900 29.53000 30.13100
O  48.75700 30.60500 30.42400
C  47.75000 28.54000 31.32500
C  48.91200 28.14400 32.29400
O  50.01900 27.83000 32.00800
O  48.60300 28.56400 33.50500
C  49.59700 28.52600 34.56100
H  45.58800 21.95000 31.69900
H  45.86900 21.96500 25.03800
H  47.64800 27.89700 24.90200
H  47.51600 26.22100 33.26400
H  45.48700 24.03400 33.36100
H  47.79100 22.61100 32.98800
H  47.20000 23.14200 34.55600
H  48.41000 24.15700 33.70100
H  44.60800 26.73900 32.67800
H  45.89200 27.64800 33.67700
H  45.43300 25.40300 34.92200
H  43.81000 25.90700 34.48400
H  44.20000 19.45100 30.02500
H  45.68700 19.95900 30.97700
H  45.82700 18.73200 29.80000
H  44.02700 17.96000 26.23800
H  43.77500 18.51700 27.97800
H  45.31000 17.84800 27.48600
H  45.73000 23.77900 23.39100
H  47.75500 25.91900 23.31900
H  48.03600 22.41600 23.75400
H  48.83100 23.82100 23.33600
H  47.71800 23.13600 22.15800
H  45.31500 27.20500 23.91900
H  44.71400 25.67400 23.30200
H  45.41000 28.12400 22.01700
H  44.97300 26.60600 21.21800
H  46.71400 27.07800 21.56600
H  49.16900 29.61400 25.78300
H  49.86100 30.18900 27.27500
H  48.23600 30.72300 26.98500
H  46.98800 29.12800 31.83600
H  49.19700 28.71700 35.55700
H  50.30200 29.32200 34.31900
H  50.13100 27.57600 34.55000

