158

Mg 1.54400 7.68100 25.94600
C  2.31200 9.64500 28.78400
C  1.67800 4.89100 28.09100
C  0.83700 5.56600 23.35700
C  1.94800 10.35300 23.88300
N  1.85700 7.29700 28.25900
C  2.13300 8.30400 29.16300
C  2.18200 7.70300 30.58400
C  2.24300 6.15100 30.34300
C  1.95000 6.04900 28.81200
C  3.57300 5.38100 30.71800
C  0.94300 8.07500 31.48600
C  1.06200 8.24900 32.97100
H  2.34600 7.87800 33.77000
N  1.16700 5.48500 25.75800
C  1.30400 4.57100 26.76400
C  0.98200 3.25700 26.25000
C  0.68300 3.39000 24.82500
C  0.77100 4.85000 24.59500
C  0.92600 2.05500 27.07700
C  0.45800 2.35700 23.71100
O  0.68400 2.63300 22.58400
C  0.08400 1.03300 24.07500
N  1.69700 7.84500 23.91100
C  1.24300 6.87800 23.05300
C  1.25400 7.36600 21.60300
C  1.32700 8.94200 21.83700
C  1.79500 9.06800 23.36200
C  2.46700 6.77600 20.79000
C  -0.05800 9.72700 21.44800
C  0.01300 10.55500 20.15000
N  2.11600 9.54500 26.20200
C  2.07000 10.60400 25.27300
C  2.22400 11.86000 25.92800
C  2.39700 11.58000 27.32200
C  2.27600 10.10700 27.41700
C  2.10000 13.23800 25.29800
C  2.65600 12.15100 28.60800
O  2.99000 13.31000 28.86500
C  2.55700 10.91900 29.58700
C  3.86600 10.87600 30.32800
O  4.79700 10.10100 30.14300
O  3.85500 11.81800 31.30500
C  4.74800 11.51800 32.44100
H  1.87900 4.00800 28.70100
H  0.46700 4.94200 22.54100
H  2.06600 11.23000 23.24200
H  3.16100 7.85900 31.03900
H  1.48100 5.63700 30.92800
H  3.99500 5.81200 31.62500
H  4.33600 5.59800 29.97000
H  3.37800 4.38000 31.10400
H  0.03100 7.54900 31.20500
H  0.80000 9.11100 31.17600
H  0.27700 7.67100 33.45700
H  0.76000 9.27900 33.16100
H  1.27200 1.12200 26.63100
H  -0.10900 1.82500 27.33200
H  1.58200 2.14200 27.94200
H  0.97300 0.52900 24.45400
H  -0.27400 0.53700 23.17300
H  -0.61200 1.16900 24.90300
H  0.27700 7.06500 21.22500
H  2.16400 9.18300 21.18200
H  3.20400 6.36700 21.48200
H  2.92000 7.55300 20.17500
H  2.03600 5.95500 20.21600
H  -0.36000 10.31000 22.31800
H  -0.83100 8.97700 21.28300
H  -0.61200 10.09000 19.38800
H  1.03200 10.63900 19.77100
H  -0.37300 11.54700 20.38600
H  1.29000 13.73700 25.82900
H  1.77200 13.00500 24.28500
H  3.02900 13.80800 25.32500
H  1.72000 11.14400 30.24900
H  5.35300 12.42200 32.50300
H  5.34400 10.61300 32.33000
H  4.21200 11.33800 33.37400
Mg 6.98100 54.88100 40.99900
C  6.42400 51.36200 41.24100
C  10.28100 54.09900 40.67700
C  7.42900 58.07400 40.18500
C  3.52600 55.23000 41.19100
N  8.19200 52.99000 40.76700
C  7.75900 51.68600 40.90100
C  8.92200 50.72800 40.70300
C  10.04100 51.68400 41.02700
C  9.49800 53.01800 40.85600
C  10.87700 51.46900 42.39400
C  8.88500 49.98200 39.32300
C  8.57900 50.91700 38.12900
H  7.34100 50.78700 37.34900
N  8.60000 55.96800 40.49900
C  9.91400 55.49600 40.47000
C  10.80400 56.55700 40.12900
C  10.01000 57.77200 40.06100
C  8.61900 57.33300 40.21000
C  12.29600 56.38900 39.78500
C  10.50400 59.19800 39.84600
O  11.73600 59.44600 39.89800
C  9.57000 60.43600 39.84600
N  5.71100 56.30200 40.55300
C  6.14500 57.59800 40.32500
C  4.98100 58.55700 40.32100
C  3.66000 57.64300 40.42600
C  4.31000 56.28500 40.77700
C  4.94900 59.67800 41.36700
C  2.74000 57.70700 39.20600
C  2.24100 59.15000 38.66200
N  5.29800 53.55900 41.15300
C  3.94200 53.90400 41.32400
C  3.20300 52.76200 41.79900
C  4.14200 51.71100 41.70400
C  5.41400 52.26700 41.38000
C  1.72200 52.65300 42.04100
C  4.33600 50.33200 41.98900
O  3.59300 49.48900 42.47000
C  5.82600 49.97900 41.57200
C  5.63500 49.02700 40.47300
O  5.21600 49.40800 39.35700
O  5.83100 47.73900 40.79200
C  5.87600 46.75500 39.69300
H  11.31300 53.78600 40.50500
H  7.50500 59.11700 39.87000
H  2.47300 55.43500 41.39400
H  8.75500 50.00100 41.49800
H  10.82300 51.79000 40.27500
H  11.93500 51.45500 42.13100
H  10.78100 50.44300 42.75000
H  10.61500 52.15300 43.20000
H  8.14100 49.18800 39.39000
H  9.85900 49.54000 39.11500
H  9.40800 50.84000 37.42500
H  8.60300 51.92200 38.55100
H  12.82800 55.94700 40.62800
H  12.71500 57.35700 39.50900
H  12.27000 55.77500 38.88400
H  8.96300 60.38600 38.94300
H  10.10100 61.38500 39.92900
H  8.94900 60.25200 40.72300
H  5.01900 59.05100 39.35000
H  3.01800 57.83500 41.28600
H  4.82200 60.67000 40.93400
H  5.94900 59.63800 41.80000
H  4.20300 59.61800 42.15900
H  1.84300 57.13300 39.43600
H  3.30600 57.22800 38.40700
H  2.64800 59.91800 39.32000
H  1.16000 59.26900 38.73500
H  2.45300 59.22300 37.59500
H  1.25000 52.13500 41.20700
H  1.32200 53.66300 42.13300
H  1.64800 52.04500 42.94300
H  6.21300 49.48200 42.46100
H  6.26200 45.85600 40.17500
H  6.44800 46.98100 38.79300
H  4.85400 46.48700 39.42400

