158

Mg 2.39100 -2.24600 43.92000
C  5.83200 -1.71200 43.71700
C  1.93700 0.35900 41.89500
C  -0.82600 -2.92800 44.01000
C  3.04900 -5.46800 45.33000
N  3.76000 -0.95800 42.69400
C  5.11100 -0.84100 42.91400
C  5.62200 0.32300 42.03100
C  4.30400 1.10600 41.64900
C  3.25300 0.07800 42.06900
C  4.21700 2.42800 42.41100
C  6.33100 -0.31400 40.72500
C  7.67800 0.40400 40.35200
H  8.13000 0.48500 38.85500
N  0.69000 -1.41800 43.05300
C  0.75800 -0.24500 42.35200
C  -0.62800 0.12000 42.11700
C  -1.50000 -0.82000 42.74100
C  -0.59000 -1.76200 43.28900
C  -1.02400 1.43000 41.45800
C  -3.03900 -0.77300 42.80200
O  -3.67700 0.07200 42.11200
C  -3.96700 -1.76400 43.50500
N  1.25000 -3.99400 44.55600
C  -0.09000 -3.98500 44.51000
C  -0.65500 -5.34400 44.93400
C  0.61100 -6.25400 45.36100
C  1.77100 -5.17300 45.05700
C  -1.78800 -5.36500 45.91300
C  0.88100 -7.67800 44.67500
C  1.52100 -8.81100 45.59700
N  4.09600 -3.41900 44.46400
C  4.21800 -4.59000 45.14700
C  5.65000 -4.79500 45.45100
C  6.36900 -3.63800 45.01300
C  5.34700 -2.88000 44.35300
C  6.24400 -5.92200 46.21000
C  7.63000 -2.95600 44.98400
O  8.71400 -3.15200 45.50700
C  7.37800 -1.68400 44.13600
C  7.64500 -0.49500 45.04300
O  7.22200 -0.25200 46.15200
O  8.34700 0.40600 44.23800
C  8.48900 1.75400 44.74100
H  1.70600 1.20300 41.24200
H  -1.89800 -3.13500 43.99600
H  3.38200 -6.40700 45.77700
H  6.37900 0.81500 42.64200
H  4.11600 1.35100 40.60400
H  3.32500 3.03900 42.26700
H  5.09700 3.03000 42.18300
H  4.31900 2.18000 43.46700
H  5.63100 -0.19800 39.89800
H  6.48900 -1.38500 40.84800
H  8.46200 -0.07900 40.93500
H  7.59600 1.40300 40.77800
H  -1.62100 2.06100 42.11600
H  -1.59500 1.28100 40.54100
H  -0.14600 2.00600 41.16600
H  -4.00100 -2.73000 43.00200
H  -4.93200 -1.27300 43.63400
H  -3.44300 -1.87300 44.45500
H  -1.10300 -5.63500 43.98500
H  0.48600 -6.42400 46.43100
H  -1.79900 -4.54900 46.63500
H  -1.90500 -6.39300 46.25600
H  -2.67100 -5.10300 45.33000
H  1.52300 -7.44000 43.82600
H  -0.03900 -8.10900 44.27900
H  2.28300 -9.34600 45.03000
H  0.76700 -9.56500 45.81900
H  1.99400 -8.48700 46.52400
H  6.50200 -6.69400 45.48400
H  5.48500 -6.31000 46.89000
H  7.13800 -5.61800 46.75500
H  8.01800 -1.73000 43.25400
H  8.40800 1.83400 45.82500
H  7.78800 2.49400 44.35500
H  9.44100 2.13000 44.36800
Mg 6.96900 53.26000 41.02800
C  6.52200 49.67000 40.88800
C  10.10200 52.67900 39.51300
C  7.04600 56.39700 40.22400
C  3.58700 53.49000 41.85700
N  8.13500 51.42500 40.24800
C  7.81700 50.08000 40.43500
C  8.94800 49.09600 39.86000
C  10.11600 50.09200 39.89900
C  9.39100 51.52200 39.84600
C  11.06400 50.05600 41.14600
C  8.68400 48.37700 38.43900
C  8.56600 49.25000 37.20700
H  7.36400 49.10500 36.29100
N  8.40600 54.39700 40.10400
C  9.67600 54.05600 39.59300
C  10.34400 55.23600 39.12600
C  9.40800 56.33900 39.31000
C  8.22700 55.73300 39.87600
C  11.68600 55.25300 38.48200
C  9.67100 57.75900 38.93100
O  10.75800 58.09900 38.50300
C  8.70200 58.88700 39.16600
N  5.39500 54.67700 40.90000
C  5.78800 55.97300 40.69600
C  4.67200 56.95100 41.04900
C  3.60900 55.91900 41.49800
C  4.24300 54.60900 41.45400
C  5.05500 58.13500 42.00600
C  2.25400 56.05300 40.63800
C  1.83000 55.12900 39.50300
N  5.40600 51.90600 41.53000
C  4.10600 52.16500 41.89300
C  3.53400 50.93300 42.34200
C  4.43300 49.92900 41.90700
C  5.53400 50.59000 41.38200
C  2.23000 50.68000 42.97300
C  4.59800 48.50200 41.83900
O  3.90100 47.62000 42.29400
C  5.92000 48.25300 41.02000
C  5.36800 47.59200 39.77600
O  4.77000 48.26700 38.88800
O  5.67700 46.24300 39.70600
C  5.44800 45.63400 38.37700
H  11.09300 52.46600 39.10500
H  6.92400 57.47500 40.09500
H  2.58100 53.77200 42.17600
H  9.16200 48.34800 40.62400
H  10.82700 49.93500 39.08800
H  11.93900 49.49800 40.81100
H  10.50500 49.37300 41.78500
H  11.33200 51.02700 41.56300
H  7.92900 47.61300 38.62300
H  9.62500 47.84700 38.29400
H  9.51800 49.14600 36.68700
H  8.57600 50.29800 37.50900
H  12.21800 54.31500 38.64100
H  12.38500 55.99300 38.87200
H  11.70300 55.43300 37.40700
H  8.57400 59.03200 40.23800
H  7.72000 58.66100 38.74900
H  9.03100 59.80500 38.67800
H  4.36400 57.46600 40.13800
H  3.35700 56.12100 42.53900
H  6.11700 58.09800 42.24900
H  4.49600 58.11000 42.94100
H  4.72400 59.04200 41.50000
H  2.23000 57.10100 40.34000
H  1.48000 55.95400 41.39800
H  1.83500 55.71300 38.58300
H  0.83800 54.73400 39.72200
H  2.55300 54.31600 39.42900
H  1.66500 49.99400 42.34200
H  1.60100 51.55800 43.12200
H  2.48600 50.18400 43.91000
H  6.60500 47.62400 41.58900
H  6.24300 44.88800 38.34900
H  5.67400 46.36100 37.59700
H  4.43300 45.27800 38.19800

