158

Mg 53.92200 24.98600 44.55600
C  51.27700 27.02000 43.39800
C  52.21800 22.26000 42.96200
C  56.71000 23.17500 44.83500
C  55.37000 27.69800 45.88800
N  52.11000 24.72200 43.21000
C  51.21100 25.71600 42.88700
C  49.93100 25.17100 42.10600
C  50.09500 23.61200 42.43000
C  51.60600 23.52500 42.87900
C  49.10200 22.95500 43.50100
C  49.86100 25.33400 40.61000
C  51.21300 25.40900 39.80800
H  51.25000 26.37300 38.65600
N  54.44600 23.01900 43.88800
C  53.56300 22.07900 43.33900
C  54.34600 20.87800 43.13400
C  55.60800 21.06900 43.73900
C  55.66600 22.44800 44.21200
C  53.81000 19.71600 42.35400
C  56.64000 19.99000 43.83200
O  56.31300 18.90000 43.41100
C  58.02800 20.18800 44.35100
N  55.98000 25.48600 44.87600
C  56.95300 24.56800 45.09000
C  58.18400 25.18800 45.63200
C  57.73800 26.57700 46.11600
C  56.25100 26.57200 45.67600
C  58.84900 24.45800 46.86100
C  58.44600 27.86200 45.53800
C  59.91100 28.05300 46.00800
N  53.41800 26.91600 44.83300
C  54.07500 27.91600 45.43100
C  53.24200 29.08900 45.55900
C  52.13100 28.79600 44.77400
C  52.30900 27.45700 44.27000
C  53.37600 30.24900 46.50000
C  50.82100 29.27100 44.29000
O  50.20500 30.29900 44.46900
C  50.18000 28.10400 43.45900
C  49.76300 28.60500 42.14600
O  50.50100 29.29400 41.46600
O  48.39700 28.52800 42.00300
C  47.90100 29.42800 41.01300
H  51.63600 21.39300 42.63800
H  57.55800 22.49800 44.96200
H  55.67300 28.54300 46.50800
H  49.04700 25.51500 42.64100
H  49.95200 22.98800 41.54800
H  48.48600 23.78000 43.86100
H  49.57900 22.53100 44.38400
H  48.45400 22.28300 42.93800
H  49.23800 26.19200 40.35900
H  49.46300 24.48500 40.05500
H  51.46000 24.40900 39.45100
H  52.00400 25.63700 40.52300
H  53.56400 18.88200 43.01100
H  54.33700 19.47400 41.43100
H  52.82000 19.93100 41.95200
H  58.56500 19.24800 44.21800
H  58.13100 20.44000 45.40600
H  58.39300 21.01700 43.74500
H  58.86400 25.31900 44.79000
H  57.72000 26.65700 47.20300
H  58.07200 23.72600 47.07900
H  59.00100 25.04500 47.76700
H  59.68500 23.80000 46.62200
H  57.94400 28.75200 45.91700
H  58.40900 27.86700 44.44900
H  60.52400 27.58800 45.23700
H  60.10500 27.40200 46.86000
H  60.26400 29.07800 46.11700
H  53.77300 31.17700 46.08700
H  53.91900 29.90800 47.38100
H  52.34900 30.45600 46.80000
H  49.30300 27.76400 44.00900
H  48.16600 29.12100 40.00100
H  48.26600 30.44600 41.15000
H  46.81300 29.41500 40.95000
Mg -5.41700 24.57900 25.75400
C  -3.68900 26.20200 28.39200
C  -7.12100 22.70800 28.01200
C  -6.67600 22.98000 23.04600
C  -3.34500 26.41700 23.49700
N  -5.43900 24.44000 27.89000
C  -4.74200 25.34600 28.78300
C  -5.27700 25.18000 30.17800
C  -6.02900 23.76200 30.13400
C  -6.25100 23.62200 28.59400
C  -5.18200 22.55400 30.76200
C  -6.08400 26.44200 30.66500
C  -6.02300 26.82800 32.18400
H  -5.22000 25.84000 33.06100
N  -6.73600 23.04300 25.53900
C  -7.41600 22.42600 26.58100
C  -8.37100 21.51800 25.96900
C  -8.35700 21.66700 24.53200
C  -7.26700 22.64900 24.31000
C  -9.29300 20.86800 26.87900
C  -9.12000 20.80300 23.42200
O  -9.04700 21.04300 22.23400
C  -9.94500 19.75600 23.84500
N  -4.88100 24.51000 23.58000
C  -5.61800 23.81500 22.69400
C  -5.23500 24.09100 21.25300
C  -4.19300 25.29800 21.37900
C  -4.07100 25.40000 22.92500
C  -4.68300 22.74000 20.64700
C  -4.67000 26.58000 20.53300
C  -3.76600 27.27900 19.44800
N  -3.93100 26.03400 25.85400
C  -3.20400 26.72600 24.86400
C  -2.31100 27.67700 25.45500
C  -2.46100 27.49600 26.85100
C  -3.39700 26.44700 27.03800
C  -1.32000 28.67200 24.82800
C  -1.92700 27.91500 28.14500
O  -1.08300 28.78300 28.42400
C  -2.75900 27.03900 29.21700
C  -1.89400 26.27900 30.04200
O  -1.26700 25.28100 29.75500
O  -1.67500 26.89100 31.25900
C  -0.65500 26.34500 32.24600
H  -7.53200 22.06700 28.79400
H  -7.18400 22.47600 22.22100
H  -2.79000 26.94900 22.72200
H  -4.45800 24.96100 30.86300
H  -7.01600 23.73300 30.59500
H  -4.75700 21.87900 30.02000
H  -5.75500 21.83100 31.34300
H  -4.42900 22.91300 31.46400
H  -7.12700 26.36700 30.35700
H  -5.76000 27.33200 30.12600
H  -7.00800 26.99800 32.61900
H  -5.38400 27.70800 32.26100
H  -9.05400 19.80900 26.78600
H  -10.28300 21.00700 26.44400
H  -9.27300 21.10900 27.94200
H  -10.35700 19.04200 23.13200
H  -10.84100 20.12900 24.34300
H  -9.36300 19.30400 24.64800
H  -6.11700 24.45900 20.73000
H  -3.21100 25.06500 20.96800
H  -3.59400 22.75500 20.69200
H  -4.91200 22.73100 19.58100
H  -5.09600 21.93700 21.25700
H  -4.75400 27.43100 21.21000
H  -5.62300 26.37700 20.04500
H  -3.43700 28.23400 19.85800
H  -4.33900 27.40900 18.53000
H  -2.90200 26.63900 19.27300
H  -1.75400 29.27400 24.03000
H  -0.40100 28.26300 24.40900
H  -0.96600 29.36600 25.59000
H  -3.27800 27.72300 29.88900
H  -0.99000 25.43200 32.73800
H  -0.60900 27.13500 32.99500
H  0.26300 26.05300 31.73500

