158

Mg 40.93600 7.95700 29.07800
C  42.53000 9.53500 31.88700
C  38.60600 6.74600 31.28900
C  39.49500 6.47000 26.57500
C  43.49100 9.20900 27.05600
N  40.67300 8.05300 31.43200
C  41.29700 8.96200 32.30600
C  40.70700 8.81500 33.68600
C  39.54700 7.81900 33.42200
C  39.63800 7.43500 31.96400
C  39.60400 6.45700 34.20600
C  40.33000 10.19600 34.22200
C  39.40400 10.18000 35.48400
H  40.01200 11.00400 36.66800
N  39.20900 6.81400 28.96400
C  38.35000 6.44300 29.98500
C  37.30700 5.71600 29.45100
C  37.50100 5.75800 28.03500
C  38.79200 6.33400 27.79300
C  36.13600 5.25900 30.29500
C  36.54300 5.27600 26.98500
O  36.87900 5.46100 25.81100
C  35.19900 4.64400 27.21600
N  41.40500 7.83400 27.01100
C  40.65300 7.10300 26.20800
C  41.28700 7.09300 24.81400
C  42.58600 8.03200 24.91300
C  42.50500 8.41000 26.41600
C  41.59100 5.66600 24.21000
C  42.57800 9.25400 24.02600
C  41.48500 10.37200 24.22300
N  42.74300 8.93400 29.36300
C  43.60900 9.45900 28.44100
C  44.57400 10.31000 29.02100
C  44.18800 10.27500 30.34500
C  43.00100 9.51300 30.51100
C  45.56800 11.09600 28.35700
C  44.57500 10.83800 31.60500
O  45.46000 11.61100 31.97400
C  43.51300 10.35600 32.58200
C  44.05300 9.64700 33.84500
O  44.51100 8.53500 33.87800
O  43.86900 10.43000 34.92600
C  43.97400 9.69000 36.17700
H  37.81100 6.45900 31.98000
H  39.06700 5.98400 25.69600
H  44.21600 9.43800 26.27100
H  41.49300 8.29700 34.23600
H  38.55800 8.26100 33.54400
H  39.31900 5.58700 33.61400
H  38.89000 6.57900 35.02100
H  40.64000 6.20700 34.43700
H  39.82800 10.76700 33.44100
H  41.26000 10.69600 34.49200
H  39.34300 9.15700 35.85500
H  38.34500 10.31800 35.26800
H  36.45700 5.22400 31.33600
H  35.85000 4.23900 30.03600
H  35.22500 5.85400 30.22900
H  34.49600 5.45000 27.42700
H  35.24900 3.98300 28.08100
H  34.99100 4.05800 26.32100
H  40.60000 7.57100 24.11600
H  43.33300 7.27900 24.66000
H  41.54900 5.02100 25.08700
H  42.56000 5.77700 23.72400
H  40.85200 5.32900 23.48200
H  42.45400 8.80400 23.04200
H  43.54700 9.75100 24.04900
H  41.87600 11.23200 24.76700
H  40.71500 9.88700 24.82200
H  40.89600 10.64800 23.34800
H  46.47300 10.49200 28.29300
H  45.65700 12.00800 28.94600
H  45.19700 11.44000 27.39200
H  42.97300 11.19400 33.02200
H  43.65600 10.32400 37.00400
H  45.02700 9.43500 36.29400
H  43.32400 8.81600 36.22200
Mg 46.58000 45.65400 44.42900
C  43.25900 45.05800 43.30700
C  47.41700 42.61100 42.98300
C  49.73400 46.48600 44.88200
C  45.58900 49.00500 44.88700
N  45.46500 44.06200 43.25700
C  44.14700 44.08900 42.91900
C  43.78400 42.86600 42.10700
C  45.04700 41.97900 42.21700
C  46.05200 42.94600 42.80400
C  44.85100 40.65500 43.00200
C  43.35400 43.13100 40.64900
C  42.14500 42.30500 40.08900
H  42.51400 41.28200 38.98600
N  48.36800 44.56300 44.17700
C  48.53900 43.36600 43.59800
C  49.88800 42.96800 43.75900
C  50.59300 44.14600 44.28900
C  49.55600 45.14800 44.51600
C  50.47200 41.54900 43.28400
C  52.07700 44.17000 44.43100
O  52.74100 43.16900 44.22900
C  52.89600 45.35900 44.81300
N  47.52100 47.46900 44.62100
C  48.84700 47.53100 44.93700
C  49.23700 49.00200 45.13100
C  47.98200 49.79300 45.17900
C  46.91800 48.72400 44.88200
C  50.16000 49.34300 46.39600
C  47.94600 51.10300 44.31500
C  47.98700 50.86100 42.70400
N  44.75900 46.78000 44.31900
C  44.52400 48.13100 44.56500
C  43.07400 48.37300 44.53500
C  42.57000 47.11100 44.12800
C  43.64800 46.17800 43.98200
C  42.31000 49.56200 44.96900
C  41.35300 46.37400 43.84800
O  40.15800 46.71800 44.01700
C  41.75900 45.01100 43.26700
C  41.12400 43.97000 44.13500
O  40.21900 43.24600 43.81600
O  41.61800 43.95400 45.43500
C  41.04500 42.92700 46.36600
H  47.62200 41.63900 42.53000
H  50.71700 46.75700 45.27100
H  45.19300 50.02100 44.95200
H  42.93500 42.45000 42.64900
H  45.37500 41.62600 41.23900
H  45.64800 40.56200 43.73900
H  44.87600 39.74900 42.39700
H  43.89500 40.49500 43.50000
H  44.26400 42.98200 40.06900
H  43.06700 44.18200 40.60800
H  41.44500 42.94000 39.54600
H  41.47200 41.88800 40.83900
H  51.39200 41.69700 42.72000
H  49.75500 40.96000 42.71100
H  50.65800 40.81900 44.07100
H  52.72900 46.24100 44.19400
H  53.96400 45.14400 44.84300
H  52.66400 45.74300 45.80600
H  49.78800 49.39300 44.27600
H  47.82000 50.13000 46.20300
H  51.20100 49.42800 46.08400
H  50.03700 48.44800 47.00600
H  49.81100 50.28300 46.82300
H  48.89900 51.56800 44.56800
H  47.09800 51.70300 44.64400
H  48.87700 51.38800 42.36200
H  47.07200 51.26600 42.27200
H  48.04700 49.79600 42.47600
H  42.54500 49.86000 45.99100
H  41.24500 49.33100 44.94800
H  42.48900 50.32500 44.21200
H  41.31900 44.89800 42.27700
H  41.63800 43.04300 47.27400
H  41.22900 41.88400 46.10900
H  40.05200 43.30000 46.62000

