158

Mg 54.71800 24.36900 44.64300
C  52.07600 26.36900 43.39200
C  52.83500 21.49700 44.04500
C  57.52900 22.53000 45.07000
C  56.52000 27.30500 45.32100
N  52.63500 24.02500 44.00400
C  51.78700 24.94800 43.36900
C  50.54400 24.22900 42.88700
C  50.67600 22.76400 43.47500
C  52.15500 22.70500 43.92300
C  49.67000 22.15900 44.56000
C  50.32200 24.33100 41.35500
C  48.89900 23.97400 40.93300
H  48.84200 22.79500 40.01700
N  55.24500 22.27700 44.52300
C  54.28700 21.30600 44.34500
C  54.96000 20.03000 44.35500
C  56.31400 20.27500 44.70400
C  56.42100 21.75000 44.75100
C  54.26200 18.69800 43.91200
C  57.31300 19.19900 44.95700
O  56.97200 17.99800 44.97700
C  58.70100 19.55200 45.40500
N  56.80000 24.89300 44.87700
C  57.71100 23.89800 45.14600
C  59.04100 24.47600 45.76000
C  58.69200 26.03900 45.78200
C  57.22800 26.11500 45.26700
C  59.43400 24.00400 47.16300
C  59.61300 26.83000 44.88000
C  59.94700 28.26400 45.39200
N  54.41800 26.47100 44.40900
C  55.22800 27.57300 44.76800
C  54.44500 28.76400 44.63000
C  53.24600 28.34200 44.08600
C  53.27600 26.91200 43.89700
C  54.98500 30.13600 44.94100
C  52.00400 28.78700 43.56100
O  51.56400 29.88000 43.34600
C  51.24700 27.55800 42.92200
C  51.28900 27.70200 41.40200
O  52.25800 27.57300 40.67700
O  49.99700 27.92000 41.06500
C  49.75100 28.00200 39.64800
H  52.25100 20.57500 44.01400
H  58.45500 22.06300 45.41200
H  57.07000 28.22700 45.52400
H  49.78700 24.71800 43.50000
H  50.61400 22.09500 42.61600
H  49.07800 23.00900 44.89700
H  50.23900 21.70800 45.37300
H  49.05400 21.41700 44.05000
H  51.00800 23.65900 40.83800
H  50.49900 25.31600 40.92400
H  48.31600 24.81400 40.55600
H  48.38800 23.68900 41.85200
H  54.04800 18.09600 44.79500
H  54.93000 18.01700 43.38500
H  53.38300 18.97900 43.33100
H  59.19900 20.04100 44.56900
H  59.24400 18.63500 45.63400
H  58.59900 20.13700 46.31900
H  59.84300 24.32400 45.03700
H  58.86300 26.47600 46.76600
H  59.11100 22.98000 47.34900
H  59.04800 24.62300 47.97300
H  60.51400 23.86200 47.13000
H  59.14400 27.07600 43.92700
H  60.59900 26.37600 44.77900
H  60.76600 28.14800 46.10300
H  59.18900 28.90600 45.84000
H  60.31400 28.85800 44.55400
H  54.76200 30.39900 45.97500
H  54.53100 30.95700 44.38600
H  56.07500 30.13600 44.94900
H  50.29400 27.29700 43.38300
H  49.64500 27.02900 39.16900
H  50.61200 28.47400 39.17300
H  48.86200 28.58400 39.40700
Mg -4.77900 25.81600 26.10700
C  -3.56900 27.62800 28.84900
C  -6.41400 23.67100 28.24000
C  -5.84100 24.02100 23.35100
C  -2.57500 27.61600 24.00400
N  -4.80500 25.58800 28.22800
C  -4.36700 26.48100 29.19600
C  -4.79100 25.90300 30.64200
C  -5.27200 24.50900 30.34600
C  -5.52700 24.57800 28.85800
C  -4.43200 23.34300 30.89800
C  -5.91600 26.88000 31.10700
C  -6.60400 26.64400 32.48500
H  -5.97100 25.66200 33.53300
N  -6.08600 24.11600 25.80100
C  -6.69700 23.45100 26.82600
C  -7.63700 22.52200 26.24500
C  -7.48900 22.53300 24.79000
C  -6.47300 23.60300 24.51400
C  -8.54300 21.71200 27.12700
C  -8.10800 21.61400 23.76000
O  -7.79400 21.61800 22.54800
C  -9.03500 20.47900 24.13800
N  -4.25500 25.81500 23.94700
C  -4.73600 24.87500 23.09900
C  -4.15200 25.10200 21.71500
C  -2.97000 26.16500 21.94100
C  -3.30400 26.58200 23.39100
C  -3.63300 23.75200 20.98700
C  -3.04800 27.42700 20.98500
C  -2.43000 27.24300 19.58100
N  -3.40500 27.35900 26.30000
C  -2.62600 28.06500 25.40200
C  -1.88000 29.11000 26.11300
C  -2.20500 28.99700 27.47500
C  -3.09900 27.91000 27.50700
C  -1.07000 30.10700 25.48700
C  -2.01700 29.52900 28.80600
O  -1.28600 30.46200 29.18400
C  -2.91300 28.66300 29.72400
C  -2.02200 28.07400 30.77500
O  -1.00500 27.49700 30.61600
O  -2.73900 28.25500 31.98600
C  -2.09500 27.62800 33.22400
H  -6.82500 22.94200 28.94100
H  -6.22500 23.55700 22.43900
H  -1.73800 28.10800 23.50500
H  -3.98100 25.80000 31.36500
H  -6.30200 24.42700 30.69300
H  -4.94200 22.91300 31.76100
H  -3.49100 23.73800 31.28100
H  -4.30000 22.57900 30.13200
H  -6.67900 26.78300 30.33500
H  -5.55300 27.90600 31.05600
H  -7.65400 26.42600 32.29100
H  -6.59100 27.65100 32.90300
H  -9.54400 21.80500 26.70400
H  -8.62300 22.14200 28.12500
H  -8.25600 20.66000 27.11200
H  -10.05600 20.82800 24.29000
H  -8.61600 19.89600 24.95900
H  -9.12900 19.86200 23.24500
H  -4.91800 25.47900 21.03800
H  -2.00700 25.65400 21.95000
H  -2.55200 23.65300 20.88500
H  -4.05300 23.65000 19.98700
H  -3.96500 22.94400 21.63900
H  -2.45700 28.24200 21.40100
H  -4.05200 27.80700 20.79000
H  -1.38500 27.55300 19.61000
H  -3.00000 27.85600 18.88300
H  -2.42700 26.18000 19.34100
H  -1.62500 31.03600 25.36300
H  -0.76800 29.71400 24.51600
H  -0.14100 30.23400 26.04300
H  -3.65300 29.32300 30.17800
H  -2.02600 26.57100 32.96500
H  -2.82600 27.66900 34.03100
H  -1.06600 27.91300 33.44500

