158

Mg 43.11100 42.67900 26.57900
C  42.32800 44.70700 29.14600
C  44.29400 40.31400 28.89000
C  44.19100 40.88700 24.01100
C  42.31400 45.35500 24.37200
N  43.32500 42.48800 28.80000
C  42.78300 43.47300 29.61000
C  42.85600 43.01500 31.08700
C  43.77500 41.66500 30.97500
C  43.81600 41.43400 29.47900
C  45.21200 41.76400 31.62700
C  41.46300 42.86400 31.71900
C  41.38400 42.07100 32.99800
H  40.51800 42.50300 34.10500
N  44.08400 40.86800 26.45000
C  44.40400 40.00700 27.53500
C  45.00500 38.80400 26.96900
C  44.83300 38.89300 25.52600
C  44.36800 40.23700 25.26800
C  45.53500 37.66100 27.81900
C  45.17400 37.85500 24.48000
O  44.83600 38.05000 23.28900
C  45.72400 36.56100 24.82800
N  43.34000 43.09800 24.52100
C  43.75300 42.16300 23.64500
C  43.63500 42.59300 22.19400
C  42.74000 43.89900 22.33200
C  42.71400 44.12000 23.80300
C  45.03400 42.86300 21.68900
C  41.24600 43.69700 21.82300
C  40.40900 42.67300 22.60400
N  42.48300 44.70800 26.61700
C  42.22300 45.66400 25.70000
C  41.67800 46.83900 26.38700
C  41.70400 46.47800 27.73300
C  42.27500 45.20900 27.83600
C  41.19200 48.07900 25.67000
C  41.33700 46.86100 29.06300
O  40.79200 47.87200 29.42100
C  41.77300 45.77900 30.04600
C  42.78400 46.30600 31.03200
O  43.94500 46.57500 30.88900
O  42.18100 46.48600 32.27800
C  42.94200 47.21300 33.28200
H  44.65500 39.60600 29.63900
H  44.50900 40.33100 23.12600
H  42.03700 46.11200 23.63600
H  43.39600 43.68400 31.75700
H  43.23300 40.83000 31.41900
H  45.21900 40.97700 32.38100
H  45.40500 42.70900 32.13300
H  46.02700 41.63700 30.91400
H  40.83600 42.30300 31.02700
H  40.93100 43.77600 31.99000
H  42.37700 41.85700 33.39300
H  40.89400 41.12600 32.76200
H  45.62200 37.95800 28.86400
H  46.55200 37.49400 27.46400
H  44.96700 36.73500 27.71700
H  46.21200 36.26700 23.89800
H  45.12700 35.70100 25.13300
H  46.60400 36.57600 25.46900
H  43.04300 41.81400 21.71300
H  43.17600 44.71600 21.75600
H  45.14000 42.35000 20.73300
H  45.86300 42.42200 22.24300
H  45.18100 43.94200 21.63200
H  41.37500 43.43300 20.77400
H  40.91500 44.73500 21.83800
H  39.75400 42.07500 21.97000
H  39.74300 43.14500 23.32600
H  41.03500 42.04700 23.24000
H  41.96600 48.30700 24.93800
H  41.09500 48.93700 26.33500
H  40.26400 47.84200 25.15000
H  40.89000 45.38600 30.55000
H  43.72000 47.92500 33.00300
H  43.29400 46.43200 33.95500
H  42.44400 47.94900 33.91300
Mg 1.97800 41.61800 25.18500
C  2.52500 42.15600 28.52500
C  -0.95000 40.01000 25.92700
C  1.46100 41.30000 21.88400
C  5.19600 42.73400 24.56900
N  0.75100 41.30200 27.05300
C  1.26300 41.56000 28.26200
C  0.26000 41.17400 29.32700
C  -0.74000 40.17200 28.58000
C  -0.36600 40.54000 27.11300
C  -0.72100 38.68900 28.98200
C  -0.49100 42.32400 29.97500
C  -0.32600 42.64700 31.46400
H  -0.86800 41.64500 32.47400
N  0.34700 40.84100 24.08400
C  -0.72300 40.18600 24.54400
C  -1.57200 39.79800 23.42900
C  -0.94200 40.26300 22.20000
C  0.32300 40.86600 22.65100
C  -2.95000 39.27600 23.69100
C  -1.57200 40.33500 20.83300
O  -1.01100 40.81400 19.83900
C  -2.88900 39.72500 20.62300
N  3.25100 41.72700 23.50300
C  2.72200 41.73100 22.28000
C  3.77200 42.17300 21.24300
C  4.92400 42.78300 22.09600
C  4.40800 42.44600 23.45800
C  4.14500 41.05800 20.28200
C  5.04400 44.34100 21.73000
C  3.72600 45.24900 21.89900
N  3.63300 42.19500 26.29600
C  4.85600 42.67000 25.86600
C  5.68400 43.00600 27.09100
C  4.73300 42.88100 28.10600
C  3.50700 42.47400 27.58500
C  7.10300 43.52900 27.08800
C  4.57900 43.09400 29.53200
O  5.32100 43.56500 30.38900
C  3.13100 42.56700 29.86000
C  3.34900 41.27500 30.61000
O  4.05400 40.39300 30.27400
O  2.66500 41.29900 31.82000
C  2.83500 40.13000 32.71400
H  -1.87200 39.47400 26.16100
H  1.27200 41.29800 20.80800
H  6.14200 43.21200 24.30400
H  0.76700 40.61900 30.11600
H  -1.75200 40.56900 28.66500
H  0.00900 38.52200 29.77400
H  -0.46800 38.02700 28.15400
H  -1.67700 38.27200 29.29900
H  -1.56600 42.25800 29.80700
H  -0.24400 43.18400 29.35300
H  -0.77800 43.62600 31.62700
H  0.74500 42.64100 31.66300
H  -3.68100 40.03500 23.40900
H  -3.10300 38.98300 24.72900
H  -3.09200 38.40900 23.04600
H  -3.64100 40.08500 21.32500
H  -2.70600 38.65300 20.69900
H  -3.17000 39.88000 19.58200
H  3.27500 42.96900 20.68800
H  5.87600 42.32000 21.83500
H  5.08500 41.08800 19.73100
H  3.35000 40.91300 19.55000
H  4.22900 40.12900 20.84500
H  5.57100 44.50300 20.79000
H  5.77200 44.70200 22.45600
H  3.88000 45.98200 22.69100
H  2.85800 44.60700 22.05000
H  3.58000 45.83100 20.98900
H  7.82800 42.71600 27.12800
H  7.10400 44.16800 27.97100
H  7.30300 44.13400 26.20400
H  2.68700 43.33400 30.49500
H  2.88000 39.14800 32.24200
H  1.95000 40.06000 33.34700
H  3.70400 40.24100 33.36300

