158

Mg 9.17600 48.70800 26.16600
C  6.81000 48.96600 28.82000
C  11.39300 50.41800 28.18900
C  11.30100 48.72500 23.60700
C  6.50300 47.93700 23.95900
N  9.08100 49.67700 28.18000
C  8.10000 49.56200 29.19400
C  8.56500 50.10800 30.55600
C  9.88600 50.75400 30.08600
C  10.15600 50.33900 28.74100
C  9.89800 52.30200 30.20600
C  8.88700 48.97800 31.63400
C  7.99900 49.16800 32.87400
H  8.60800 49.70100 34.15100
N  11.15500 49.30000 25.95100
C  11.88000 49.94700 26.94600
C  13.24900 50.07200 26.45200
C  13.26700 49.64700 25.10800
C  11.86600 49.14500 24.81500
C  14.36100 50.72500 27.21000
C  14.33900 49.46200 24.09800
O  14.16500 48.95300 23.00300
C  15.73000 49.70300 24.44000
N  8.94600 48.43500 24.08700
C  9.96200 48.49000 23.20900
C  9.60000 48.04600 21.76900
C  8.06500 47.69300 21.96400
C  7.80500 48.06900 23.37200
C  9.71500 49.13800 20.77000
C  7.75600 46.21800 21.70400
C  8.25800 45.13700 22.63600
N  7.12200 48.40000 26.28300
C  6.19300 48.11300 25.35000
C  4.88300 47.95300 26.01400
C  5.04800 48.13600 27.38300
C  6.44500 48.54500 27.52200
C  3.61400 47.58600 25.28700
C  4.49200 48.10700 28.74700
O  3.35000 47.92700 29.17700
C  5.59700 48.61700 29.68900
C  5.83200 47.45700 30.58100
O  6.46300 46.45100 30.30800
O  5.14300 47.66400 31.77700
C  5.39900 46.58200 32.65800
H  12.07800 50.92800 28.87000
H  11.85700 48.77600 22.66900
H  5.64100 47.85300 23.29400
H  7.97700 50.89200 31.03300
H  10.71600 50.45800 30.72800
H  10.86800 52.63500 30.57400
H  9.04900 52.62000 30.81100
H  9.71700 52.82900 29.26900
H  9.95600 49.00800 31.84700
H  8.71200 48.03900 31.10800
H  7.61000 48.17000 33.07900
H  7.15800 49.84300 32.71600
H  14.97000 51.34400 26.55100
H  14.89300 50.06800 27.89900
H  14.01100 51.61100 27.73900
H  15.83300 49.27200 25.43600
H  15.87500 50.78100 24.49400
H  16.49700 49.36000 23.74600
H  10.09100 47.12800 21.44500
H  7.29300 48.30100 21.49200
H  10.12600 49.98100 21.32600
H  8.74000 49.45900 20.40500
H  10.37400 48.86600 19.94600
H  8.22500 46.10000 20.72700
H  6.68000 46.19000 21.53300
H  8.61900 45.39800 23.63100
H  9.02300 44.59700 22.07700
H  7.50100 44.36300 22.76200
H  3.58000 47.91300 24.24700
H  2.80900 48.01300 25.88500
H  3.52000 46.50300 25.36800
H  5.34900 49.50700 30.26800
H  4.60100 45.84900 32.54700
H  5.30100 46.83800 33.71300
H  6.39400 46.14100 32.59100
Mg -4.73400 25.77200 26.23100
C  -3.34100 27.39800 28.80200
C  -6.70200 23.88100 28.38400
C  -5.62700 23.73100 23.64700
C  -2.74600 27.52000 23.94300
N  -4.93200 25.55200 28.38100
C  -4.33900 26.48500 29.25700
C  -4.69600 26.06000 30.71600
C  -5.59600 24.80800 30.47900
C  -5.80200 24.79900 28.96600
C  -4.91800 23.44100 30.94900
C  -5.36700 27.15900 31.50900
C  -4.99200 27.22900 33.01100
H  -4.70800 25.95400 33.70600
N  -5.98800 24.01600 26.05600
C  -6.80200 23.49600 27.01200
C  -7.65900 22.45000 26.48100
C  -7.31100 22.31000 25.11800
C  -6.29900 23.37000 24.88600
C  -8.80000 21.81000 27.31200
C  -7.92000 21.35600 24.18800
O  -7.56500 21.38200 22.99000
C  -8.90000 20.34500 24.55900
N  -4.20900 25.62600 24.14500
C  -4.71600 24.73800 23.32300
C  -4.37600 25.02000 21.80200
C  -3.53900 26.32300 21.95600
C  -3.53200 26.51600 23.42400
C  -3.64200 23.79900 21.24000
C  -4.05100 27.55000 21.17000
C  -3.02000 28.06200 20.17900
N  -3.37200 27.25200 26.29500
C  -2.65400 27.91300 25.27700
C  -1.68900 28.76300 25.99600
C  -1.91100 28.55300 27.33500
C  -2.96600 27.64600 27.46200
C  -0.63000 29.65700 25.22800
C  -1.47700 28.95600 28.58100
O  -0.55200 29.67900 28.89500
C  -2.38200 28.25100 29.62700
C  -1.57000 27.41900 30.51100
O  -0.84400 26.57100 30.11600
O  -1.80500 27.66900 31.83600
C  -1.09400 26.73900 32.79900
H  -7.24700 23.28200 29.11700
H  -5.93700 23.11700 22.79900
H  -1.92000 27.94200 23.36700
H  -3.73300 25.71800 31.09300
H  -6.53700 24.90600 31.02000
H  -3.88100 23.64500 31.21400
H  -5.02900 22.66800 30.18800
H  -5.42900 23.08700 31.84400
H  -6.45300 27.07500 31.45700
H  -5.17400 28.11400 31.02000
H  -5.88900 27.67700 33.43800
H  -4.18300 27.93400 33.20100
H  -8.75400 20.72700 27.19000
H  -9.76800 22.23200 27.04600
H  -8.68400 21.87600 28.39400
H  -9.38200 19.88500 23.69600
H  -9.75700 20.86600 24.98600
H  -8.59100 19.59000 25.28200
H  -5.32500 25.21000 21.30000
H  -2.51400 26.12900 21.64000
H  -4.41200 23.12900 20.85500
H  -2.98800 23.46800 22.04600
H  -3.08000 24.06000 20.34300
H  -4.36200 28.34100 21.85200
H  -4.98900 27.29700 20.67500
H  -3.39800 28.80300 19.47400
H  -2.40100 27.32900 19.66000
H  -2.31500 28.56400 20.84200
H  -1.15400 30.54900 24.88400
H  -0.29200 29.15900 24.31900
H  0.13800 29.86500 25.97300
H  -2.99900 29.03600 30.06400
H  -0.91600 27.18100 33.78000
H  -0.09400 26.51700 32.42800
H  -1.78700 25.89800 32.78400

