158

Mg 46.65500 46.39800 44.12500
C  43.46900 45.16700 43.34600
C  47.96500 43.39900 43.09000
C  49.68300 47.79400 44.21700
C  45.27000 49.56100 44.66700
N  45.76100 44.56300 43.24200
C  44.41400 44.23200 43.05600
C  44.22400 42.77000 42.50900
C  45.67900 42.18300 42.79800
C  46.57700 43.42600 43.02200
C  45.61200 41.25500 44.07300
C  43.87100 42.79100 40.95500
C  42.69800 41.89900 40.54900
H  42.63400 41.48000 39.05800
N  48.60400 45.74000 43.67500
C  48.92100 44.42500 43.31400
C  50.30100 44.23900 43.26100
C  50.87400 45.50000 43.60300
C  49.68900 46.47300 43.85100
C  51.02500 42.90700 42.92500
C  52.29300 45.74000 43.68500
O  53.14900 44.86000 43.45700
C  52.77700 47.06700 44.20700
N  47.31100 48.42500 44.25900
C  48.61500 48.70100 44.40400
C  48.85700 50.21800 44.52900
C  47.42300 50.76600 44.61000
C  46.62100 49.45700 44.62500
C  49.67500 50.58300 45.79800
C  47.07300 51.67600 43.35700
C  46.03600 52.79100 43.68200
N  44.73400 47.26200 44.07100
C  44.28600 48.54900 44.43200
C  42.82700 48.50200 44.37500
C  42.46800 47.19200 43.92200
C  43.69900 46.47400 43.79000
C  41.85800 49.61300 44.70300
C  41.42200 46.28100 43.50100
O  40.18100 46.41800 43.40000
C  42.02100 45.01900 43.15800
C  41.49200 44.00000 44.05600
O  41.07900 42.88300 43.62200
O  41.44900 44.39500 45.40600
C  40.54400 43.50400 46.16500
H  48.34800 42.39300 42.90200
H  50.64400 48.31200 44.26800
H  44.80900 50.51900 44.91700
H  43.48300 42.33900 43.18200
H  46.04800 41.61600 41.94400
H  44.68600 41.26100 44.64900
H  46.44700 41.58700 44.69000
H  45.72000 40.20800 43.78900
H  44.70800 42.63600 40.27400
H  43.54900 43.80100 40.70100
H  41.78200 42.46800 40.71400
H  42.61900 41.11900 41.30600
H  51.77100 42.91800 42.13000
H  50.39900 42.07400 42.60700
H  51.57800 42.49200 43.76700
H  53.86400 47.14200 44.23800
H  52.22400 47.23300 45.13200
H  52.49700 47.65000 43.32900
H  49.41000 50.61500 43.67800
H  47.27000 51.43300 45.45800
H  49.48200 49.98400 46.68800
H  49.50100 51.61400 46.10800
H  50.75500 50.55900 45.65100
H  46.69100 50.97100 42.61900
H  47.99500 52.15400 43.02500
H  46.36800 53.72400 43.22700
H  45.78700 52.89000 44.73900
H  45.09800 52.45400 43.24300
H  41.09900 49.34100 45.43700
H  41.25200 49.83500 43.82500
H  42.43200 50.43800 45.12700
H  41.75500 44.70200 42.15000
H  40.94900 42.49200 46.18400
H  39.48500 43.48000 45.90600
H  40.60000 43.78300 47.21700
Mg -10.10800 18.15600 42.96300
C  -6.82500 16.91800 42.75500
C  -8.91500 21.22000 41.80400
C  -13.19900 19.05800 42.62300
C  -11.15000 14.76300 43.38900
N  -8.12200 18.99100 42.36100
C  -6.93500 18.26700 42.44400
C  -5.75100 19.16300 42.05100
C  -6.43400 20.55900 42.09400
C  -7.89800 20.25800 42.00500
C  -6.05100 21.45000 43.25100
C  -5.03900 18.76200 40.72800
C  -5.75800 18.27800 39.49400
H  -5.39200 18.74400 38.06900
N  -10.99300 19.96200 42.30800
C  -10.32100 21.09800 41.96000
C  -11.27600 22.16100 41.83800
C  -12.59300 21.60100 41.92000
C  -12.31800 20.13900 42.27300
C  -10.86600 23.52300 41.54000
C  -13.90100 22.32600 41.76300
O  -13.95200 23.54300 41.60100
C  -15.13600 21.52300 41.89900
N  -11.89100 16.95700 42.70200
C  -13.02600 17.63700 42.83900
C  -14.21100 16.68200 43.00300
C  -13.57700 15.29200 43.16300
C  -12.11300 15.64800 43.02800
C  -15.16200 17.14400 44.19300
C  -14.04400 14.13000 42.17400
C  -14.74100 12.97900 43.00700
N  -9.25000 16.18500 43.09200
C  -9.75100 14.93600 43.30800
C  -8.69800 13.93000 43.38400
C  -7.48600 14.64100 43.15500
C  -7.90400 15.99500 42.98200
C  -8.92000 12.38200 43.68300
C  -6.05200 14.56000 43.06700
O  -5.34100 13.62200 43.22200
C  -5.58400 16.04000 42.73800
C  -4.38400 16.46400 43.56200
O  -3.22200 16.17400 43.34000
O  -4.83300 17.15600 44.68400
C  -3.78400 17.34900 45.71800
H  -8.52100 22.23700 41.76000
H  -14.27300 19.24700 42.68900
H  -11.52600 13.77600 43.66500
H  -5.04300 19.04500 42.87100
H  -6.14600 21.20700 41.26600
H  -5.39100 20.85100 43.87800
H  -6.91700 21.61700 43.89100
H  -5.64400 22.43600 43.02500
H  -4.48500 17.88900 41.07300
H  -4.35900 19.57700 40.47900
H  -6.81400 18.53500 39.58300
H  -5.59800 17.20000 39.52500
H  -9.99900 23.78900 42.14400
H  -11.59900 24.32600 41.61200
H  -10.45900 23.47500 40.53000
H  -15.52200 21.45800 42.91700
H  -15.05100 20.58400 41.35300
H  -15.86200 22.11400 41.34100
H  -14.85500 16.64900 42.12400
H  -13.87800 14.98200 44.16300
H  -14.77800 18.07100 44.61800
H  -15.27600 16.43000 45.00900
H  -16.15100 17.37100 43.79500
H  -13.19700 13.69700 41.64300
H  -14.84500 14.45100 41.50800
H  -15.64300 12.72300 42.45100
H  -15.00300 13.07400 44.06100
H  -14.11500 12.08900 42.93600
H  -9.52500 12.25300 44.58100
H  -7.99900 11.80800 43.79000
H  -9.42600 12.01500 42.79000
H  -5.10100 15.95500 41.76500
H  -2.85600 17.84000 45.42800
H  -3.57100 16.40600 46.22100
H  -4.22900 18.03900 46.43400

