158

Mg 16.61200 52.59700 25.69600
C  18.44100 51.04600 28.25800
C  14.11800 53.11100 27.92500
C  14.82200 53.99000 23.14100
C  18.96200 51.41300 23.35200
N  16.38400 52.22400 27.83000
C  17.29200 51.74400 28.69200
C  16.83400 51.80400 30.14000
C  15.29700 52.15300 29.91400
C  15.25100 52.60200 28.50700
C  14.34500 50.94300 30.36700
C  17.55100 52.88500 30.95900
C  17.65700 52.75500 32.50500
H  16.78900 51.86100 33.29500
N  14.70700 53.53500 25.61600
C  13.86400 53.64800 26.63000
C  12.66000 54.31700 26.16900
C  12.75700 54.47500 24.77900
C  14.16400 54.06100 24.43800
C  11.52200 54.60800 27.03300
C  11.74600 54.94200 23.78400
O  12.05500 54.95100 22.60800
C  10.36200 55.44500 24.00900
N  16.84300 52.65900 23.60300
C  16.05900 53.42600 22.78200
C  16.67600 53.68400 21.36000
C  18.05200 53.00900 21.58200
C  17.92900 52.27100 22.91300
C  15.88000 53.26500 20.12200
C  19.27500 53.91700 21.52400
C  20.41900 53.56600 20.51700
N  18.30800 51.42800 25.67800
C  19.19100 51.03700 24.69300
C  20.22900 50.22100 25.26400
C  20.00500 50.15600 26.65300
C  18.84200 50.98100 26.87300
C  21.26500 49.64700 24.39700
C  20.46900 49.65000 27.91900
O  21.41900 48.89700 28.19400
C  19.45900 50.22600 28.99000
C  18.97500 49.07400 29.91600
O  18.41300 48.06900 29.59100
O  19.58000 49.15600 31.15400
C  19.47700 48.04200 32.13800
H  13.30700 53.28100 28.63600
H  14.23500 54.54600 22.40800
H  19.67800 51.11600 22.58200
H  16.90500 50.83100 30.62600
H  15.17700 53.05300 30.51800
H  13.69500 51.33600 31.14900
H  14.80700 50.07700 30.84000
H  13.69900 50.64400 29.54100
H  17.12600 53.85300 30.69400
H  18.57900 52.85000 30.59900
H  17.58500 53.73600 32.97400
H  18.70300 52.59700 32.76800
H  10.68800 53.90700 26.99300
H  11.10600 55.58000 26.77000
H  11.80600 54.76700 28.07300
H  9.82800 54.78600 24.69300
H  9.86800 55.41600 23.03800
H  10.37800 56.47900 24.35400
H  16.73900 54.75500 21.16800
H  18.19300 52.29200 20.77200
H  16.48500 53.00200 19.25400
H  15.11300 53.98200 19.82900
H  15.14800 52.49100 20.35300
H  19.80300 53.82200 22.47300
H  19.03500 54.92600 21.18800
H  20.49000 54.28600 19.70300
H  20.30700 52.62100 19.98500
H  21.37000 53.45900 21.04000
H  21.72600 50.42800 23.79100
H  20.67600 49.02500 23.72400
H  22.03500 49.09600 24.93700
H  20.10500 50.91400 29.53500
H  18.53700 47.49300 32.10300
H  19.79800 48.43000 33.10500
H  20.29400 47.41300 31.78300
Mg -10.56100 16.11100 41.97900
C  -7.25700 15.00600 41.56300
C  -9.54900 19.16800 40.62800
C  -13.82300 17.06100 41.98200
C  -11.44200 12.76200 42.43700
N  -8.60300 16.88100 41.08800
C  -7.38700 16.29300 41.09900
C  -6.27900 17.24300 40.63300
C  -7.01700 18.63200 40.50700
C  -8.46700 18.23500 40.69700
C  -6.46300 19.68700 41.54100
C  -5.71400 16.74600 39.28600
C  -4.30600 17.34500 38.95200
H  -4.14400 18.27900 37.68000
N  -11.53300 17.89700 41.48000
C  -10.93700 19.01100 40.91700
C  -11.92100 20.09500 40.78500
C  -13.17700 19.49800 41.08900
C  -12.86700 18.08800 41.53600
C  -11.58200 21.60100 40.46700
C  -14.44800 20.29200 41.17400
O  -14.55100 21.49500 40.90400
C  -15.75100 19.54700 41.30400
N  -12.42300 15.07800 42.23200
C  -13.63700 15.70200 42.29600
C  -14.76100 14.69900 42.44800
C  -13.99300 13.36900 42.65800
C  -12.51500 13.73800 42.44600
C  -15.84900 15.00200 43.43100
C  -14.56400 12.16600 41.78800
C  -14.90700 10.95600 42.58500
N  -9.63100 14.25300 42.07600
C  -10.06600 12.96500 42.33300
C  -8.98600 12.09500 42.42300
C  -7.81000 12.81400 42.21400
C  -8.26900 14.12400 41.99400
C  -9.05500 10.57100 42.62100
C  -6.28900 12.88300 42.19300
O  -5.39300 12.08600 42.47300
C  -5.92300 14.33300 41.79800
C  -5.08100 14.80900 42.91500
O  -5.45800 15.17000 44.02200
O  -3.76300 14.78900 42.41300
C  -2.62600 15.26300 43.33800
H  -9.22500 20.19700 40.45800
H  -14.88000 17.29900 42.11700
H  -11.63500 11.68800 42.48500
H  -5.40900 17.34600 41.28100
H  -6.88400 19.22400 39.60100
H  -5.37700 19.60000 41.55100
H  -6.86900 19.42500 42.51800
H  -6.71100 20.70900 41.25300
H  -6.40900 17.13600 38.54300
H  -5.77600 15.68400 39.04500
H  -3.67800 16.47500 38.76100
H  -3.90800 18.01900 39.71100
H  -11.09100 21.59100 39.49400
H  -10.85400 21.90800 41.21800
H  -12.40300 22.31700 40.42600
H  -16.55000 20.13300 40.85000
H  -16.00100 19.49200 42.36400
H  -15.74800 18.57200 40.81700
H  -15.16200 14.69000 41.43500
H  -13.89600 13.18000 43.72700
H  -15.48400 15.89300 43.94300
H  -15.90100 14.14600 44.10300
H  -16.77200 15.05900 42.85400
H  -13.71200 11.86700 41.17700
H  -15.38600 12.43600 41.12500
H  -15.31300 11.24100 43.55500
H  -14.09100 10.24100 42.68800
H  -15.81900 10.51200 42.18700
H  -8.55700 10.21000 43.52100
H  -8.50500 10.12200 41.79400
H  -10.08100 10.26700 42.41300
H  -5.33300 14.37000 40.88200
H  -2.06900 16.06300 42.85100
H  -1.97200 14.44900 43.64900
H  -3.09200 15.59900 44.26500

