158

Mg 47.83400 24.49300 28.21000
C  48.76500 26.91000 30.55400
C  47.46900 22.18900 30.78700
C  47.03800 22.18500 25.89100
C  48.80500 26.70600 25.66800
N  48.10400 24.52800 30.36700
C  48.35000 25.65700 31.11400
C  48.01900 25.45200 32.58700
C  47.88500 23.89600 32.72700
C  47.78300 23.44300 31.23300
C  48.91700 23.19900 33.56000
C  46.75900 26.29900 32.91400
C  46.84300 27.26300 34.12500
H  45.80800 27.14500 35.25500
N  47.27600 22.47500 28.29900
C  47.18200 21.72600 29.46200
C  46.75200 20.38500 29.11200
C  46.60400 20.36700 27.66200
C  46.98600 21.70800 27.22600
C  46.56000 19.23100 30.04200
C  46.07000 19.23100 26.73300
O  45.80000 19.46100 25.58300
C  45.65800 17.97000 27.32600
N  47.87300 24.44700 26.04200
C  47.42000 23.40100 25.34900
C  47.39300 23.75700 23.78900
C  47.77400 25.29300 23.81600
C  48.21000 25.52600 25.28000
C  48.29700 22.93100 22.92100
C  46.66600 26.20000 23.23100
C  45.47000 26.45500 24.20900
N  48.67000 26.40900 28.08800
C  48.95900 27.16100 27.00900
C  49.41000 28.48200 27.46400
C  49.28600 28.48700 28.85600
C  48.87600 27.16500 29.16800
C  50.06800 29.57400 26.68000
C  49.50000 29.20800 30.08000
O  49.82800 30.33900 30.25000
C  49.12100 28.21600 31.26200
C  50.24700 28.10600 32.14100
O  51.13100 27.18600 32.13300
O  50.16300 29.05500 33.11000
C  51.05500 28.79200 34.30400
H  47.47300 21.51800 31.64800
H  46.69500 21.59300 25.04000
H  49.03000 27.55400 25.01800
H  48.82800 25.92500 33.14400
H  46.94300 23.66500 33.22500
H  49.58200 23.90900 34.05200
H  49.47700 22.61600 32.82800
H  48.54600 22.51900 34.32700
H  45.93500 25.58700 32.88000
H  46.57500 27.00100 32.10100
H  46.77800 28.28000 33.73900
H  47.78100 27.09300 34.65400
H  47.03400 19.47300 30.99400
H  47.11200 18.37900 29.64600
H  45.52700 18.92200 30.19900
H  44.96800 18.23000 28.12900
H  46.49100 17.32200 27.60100
H  45.09700 17.42100 26.57000
H  46.38500 23.52500 23.44600
H  48.67300 25.52500 23.24500
H  47.89600 21.94400 22.68700
H  49.36800 22.99900 23.11000
H  48.15500 23.44300 21.97000
H  46.33800 25.93700 22.22600
H  47.16800 27.16800 23.20900
H  44.63500 25.94500 23.72900
H  45.28400 27.52100 24.34300
H  45.70000 26.12000 25.22000
H  49.82600 30.55600 27.08600
H  49.67000 29.50700 25.66700
H  51.15800 29.54900 26.69500
H  48.31900 28.65300 31.85600
H  50.42400 28.20100 34.96800
H  51.39000 29.75400 34.69100
H  51.93700 28.18100 34.10900
Mg -2.08300 34.66200 27.03300
C  -4.13600 33.44700 29.59200
C  -0.80600 36.90900 29.37700
C  -0.43400 35.99800 24.47200
C  -3.87900 32.59800 24.80100
N  -2.65800 35.35500 29.23100
C  -3.31500 34.52900 30.09100
C  -3.10600 34.88800 31.56700
C  -2.13300 36.09400 31.43000
C  -1.81900 36.14600 29.88400
C  -2.64100 37.45500 31.96800
C  -2.60900 33.66600 32.45700
C  -3.40800 33.44000 33.71500
H  -2.65600 32.70900 34.74400
N  -0.93300 36.30600 26.93200
C  -0.45400 37.04800 27.98000
C  0.49500 38.03400 27.54000
C  0.60500 37.72900 26.13000
C  -0.24500 36.60600 25.75300
C  1.11900 39.06600 28.41800
C  1.53700 38.40500 25.23300
O  1.70100 37.95500 24.10400
C  2.18000 39.68200 25.55100
N  -2.25300 34.36000 24.91600
C  -1.36100 34.97200 24.09600
C  -1.39100 34.44200 22.65000
C  -2.40800 33.20500 22.81100
C  -2.85600 33.39300 24.23600
C  -1.90800 35.37000 21.51300
C  -1.65600 31.89900 22.78200
C  -2.24500 30.67300 22.09400
N  -3.64800 33.29600 27.12600
C  -4.25200 32.55100 26.14700
C  -5.23400 31.71200 26.70100
C  -5.18600 32.01300 28.03900
C  -4.21400 33.02500 28.23600
C  -6.11800 30.71100 26.01600
C  -5.66700 31.68600 29.36500
O  -6.50200 30.90800 29.70400
C  -5.03700 32.59100 30.37800
C  -6.17100 33.27100 31.06000
O  -6.86200 34.24500 30.64200
O  -6.46700 32.62000 32.22300
C  -7.70000 33.07100 32.92600
H  -0.13800 37.36900 30.10800
H  0.22600 36.30000 23.65600
H  -4.28700 31.88000 24.08600
H  -4.06700 35.28600 31.89100
H  -1.21500 35.84600 31.96300
H  -2.71300 38.20500 31.18000
H  -2.06600 37.84600 32.80700
H  -3.64100 37.43600 32.40100
H  -1.61200 33.86500 32.85100
H  -2.62800 32.72600 31.90600
H  -4.20000 32.73400 33.46500
H  -3.85300 34.35200 34.11100
H  2.20900 39.08500 28.39100
H  0.82200 39.07300 29.46600
H  0.85200 40.09000 28.16100
H  1.48800 40.44700 25.90200
H  2.67300 39.99000 24.62900
H  2.93600 39.38100 26.27700
H  -0.38400 34.04900 22.51400
H  -3.25400 33.09500 22.13300
H  -2.70800 34.89000 20.94900
H  -1.13000 35.65800 20.80700
H  -2.36900 36.18100 22.07700
H  -1.27700 31.56100 23.74700
H  -0.79200 32.13300 22.16100
H  -1.72900 30.56700 21.14000
H  -3.31500 30.81300 21.93800
H  -2.13500 29.79000 22.72500
H  -6.01800 29.80100 26.60800
H  -5.87000 30.59500 24.96100
H  -7.06700 31.24700 26.05000
H  -4.47900 32.04600 31.13900
H  -7.33600 33.65900 33.76800
H  -8.23100 32.18700 33.27900
H  -8.40600 33.71800 32.40600

