158

Mg 8.15700 2.32800 28.54200
C  9.65600 0.87900 31.44100
C  6.32000 4.38600 30.68800
C  6.69800 3.48800 25.95700
C  9.59100 -0.33900 26.69400
N  8.00100 2.60900 30.80800
C  8.81900 2.03400 31.76000
C  8.48800 2.59600 33.17000
C  7.29600 3.58300 32.90400
C  7.22400 3.57000 31.34900
C  6.07600 3.16100 33.59500
C  9.68000 3.13600 33.82800
C  10.11100 2.60000 35.15900
H  10.71200 3.52800 36.16700
N  6.60000 3.72100 28.28300
C  6.00300 4.48300 29.32700
C  5.15100 5.42800 28.65400
C  5.23800 5.26200 27.20400
C  6.15800 4.11400 27.08300
C  4.25800 6.34700 29.27300
C  4.71200 5.97700 26.09900
O  4.95200 5.64300 24.94900
C  3.84400 7.26300 26.29000
N  8.12100 1.62300 26.59800
C  7.53800 2.40100 25.69800
C  7.64800 1.73000 24.24700
C  8.73000 0.68800 24.50700
C  8.82600 0.66100 25.99900
C  6.30200 1.22400 23.66100
C  10.14300 1.06400 23.81500
C  11.34500 1.66000 24.70100
N  9.41300 0.60400 28.94900
C  9.88600 -0.37200 28.11100
C  10.73900 -1.22000 28.78600
C  10.70000 -0.78600 30.17300
C  9.86200 0.33600 30.18600
C  11.71900 -2.25800 28.17400
C  11.13800 -1.05800 31.50700
O  11.77600 -2.03800 31.89600
C  10.53600 0.04100 32.42400
C  9.74300 -0.69700 33.44500
O  8.60300 -1.13100 33.26100
O  10.39300 -0.67800 34.67400
C  9.66400 -1.07700 35.92600
H  5.74700 5.02000 31.36800
H  6.30300 3.77000 24.97900
H  9.96600 -1.07800 25.98200
H  8.09300 1.77200 33.76300
H  7.68800 4.54400 33.23900
H  5.50500 2.45100 32.99600
H  5.27800 3.90200 33.63000
H  6.27400 2.85600 34.62300
H  9.64400 4.22000 33.93700
H  10.50800 2.95100 33.14400
H  10.85700 1.84500 34.91200
H  9.29600 2.05300 35.63400
H  4.65100 7.33200 29.02200
H  4.12600 6.12200 30.33100
H  3.33500 6.13500 28.73300
H  2.82000 7.03300 26.58700
H  3.90300 7.69700 25.29200
H  4.30100 7.97400 26.97800
H  8.05400 2.50600 23.59800
H  8.35000 -0.25300 24.10900
H  5.48400 1.20500 24.38000
H  6.38900 0.18800 23.33600
H  5.98100 1.73600 22.75400
H  10.00400 1.71700 22.95300
H  10.39200 0.13000 23.31300
H  10.91400 1.75200 25.69800
H  11.53700 2.67300 24.34500
H  12.21300 1.00200 24.67000
H  12.34900 -1.82200 27.39800
H  11.24300 -3.12300 27.71300
H  12.34400 -2.52700 29.02600
H  11.35200 0.63100 32.84100
H  8.85300 -0.37900 36.13900
H  10.37300 -1.09900 36.75300
H  9.17400 -2.05000 35.90800
Mg 35.75600 49.24600 25.96100
C  36.05700 47.65300 29.03800
C  34.57600 52.15700 27.67200
C  35.54200 50.95100 23.02700
C  37.17400 46.52500 24.41100
N  35.29300 49.85800 28.07600
C  35.71400 49.02000 29.15300
C  35.70000 49.80000 30.42400
C  35.06600 51.21900 30.02800
C  35.04000 51.14900 28.57100
C  33.67300 51.42300 30.65400
C  37.08500 49.92100 31.00700
C  37.25000 49.62200 32.48800
H  36.02700 49.60200 33.45600
N  35.10100 51.21700 25.42800
C  34.70100 52.24200 26.30500
C  34.51100 53.42900 25.60200
C  34.94500 53.14300 24.30600
C  35.19000 51.71800 24.20700
C  33.88800 54.70000 26.19300
C  34.97900 54.04200 23.04700
O  35.21600 53.78000 21.86400
C  34.99300 55.60400 23.32100
N  35.98200 48.64500 23.94100
C  35.92600 49.58500 22.95900
C  36.38500 48.89600 21.61100
C  37.02200 47.60200 22.12500
C  36.65100 47.52900 23.57400
C  35.02000 48.69500 20.75200
C  38.63100 47.59800 21.94600
C  39.15800 46.68200 20.85200
N  36.32500 47.37700 26.46500
C  36.97300 46.39700 25.79700
C  37.21500 45.27900 26.69800
C  36.82700 45.74700 27.98700
C  36.35100 47.01500 27.80700
C  37.76500 43.94200 26.26600
C  36.82100 45.35100 29.35700
O  37.12000 44.30700 29.89900
C  36.30300 46.50300 30.07600
C  35.12100 46.15100 30.94700
O  33.97600 45.89600 30.60000
O  35.54800 46.05000 32.24400
C  34.61300 45.51600 33.20800
H  34.26600 53.07000 28.18500
H  35.55000 51.50900 22.08800
H  37.75700 45.77400 23.87400
H  35.11100 49.25700 31.16300
H  35.67300 52.06600 30.34800
H  33.04300 51.70900 29.81100
H  33.78700 52.31800 31.26600
H  33.22600 50.57400 31.17000
H  37.27400 50.93900 30.66600
H  37.85800 49.29900 30.55600
H  37.91600 50.40300 32.85600
H  37.69800 48.64800 32.68700
H  34.66300 55.23100 26.74500
H  33.16800 54.38700 26.95000
H  33.31700 55.33700 25.51800
H  35.71900 55.67300 24.13200
H  34.00700 55.99000 23.58100
H  35.30800 56.16000 22.43800
H  36.98900 49.59500 21.03300
H  36.66100 46.70300 21.62500
H  34.05600 48.75100 21.25800
H  35.09400 47.81700 20.11000
H  34.97500 49.51200 20.03200
H  39.14500 47.44300 22.89500
H  38.91400 48.61500 21.67500
H  38.37400 46.36700 20.16300
H  39.45600 45.79700 21.41400
H  39.86100 47.19200 20.19300
H  36.92500 43.26900 26.09300
H  38.44000 43.60600 27.05400
H  38.38300 44.20500 25.40800
H  37.09700 46.86800 30.72800
H  34.94100 45.94000 34.15700
H  34.64300 44.44800 33.42400
H  33.59000 45.84700 33.03000

