158

Mg 25.81600 -0.66200 29.10100
C  27.67900 -0.89100 31.86500
C  22.78800 -0.43500 31.05100
C  23.81500 -0.55500 26.28400
C  28.50500 -1.36600 27.08500
N  25.31200 -0.69900 31.18600
C  26.30600 -0.77100 32.17000
C  25.71600 -0.63500 33.54200
C  24.19200 -0.78600 33.21000
C  24.06700 -0.69500 31.71900
C  23.45900 -2.02800 33.82200
C  26.14700 0.69800 34.28600
C  26.77700 0.58800 35.68200
H  26.41100 1.68300 36.63300
N  23.68600 -0.42500 28.75200
C  22.65000 -0.19000 29.67900
C  21.43200 0.08700 28.95600
C  21.76000 0.10400 27.54700
C  23.12500 -0.34400 27.47500
C  20.08400 0.32300 29.59200
C  20.94800 0.52200 26.41900
O  21.33600 0.40500 25.26300
C  19.56200 1.00400 26.64000
N  26.13000 -0.83500 26.91700
C  25.19200 -0.84900 25.98800
C  25.79800 -0.99400 24.60200
C  27.26600 -1.41000 24.84900
C  27.32300 -1.21100 26.37900
C  24.91700 -1.83600 23.62900
C  28.28700 -0.60400 23.98200
C  28.46300 0.82900 24.45300
N  27.73900 -1.10700 29.43100
C  28.77200 -1.23200 28.48000
C  29.99400 -1.49300 29.18100
C  29.66300 -1.24900 30.56500
C  28.27100 -0.99500 30.63900
C  31.35400 -1.78000 28.53900
C  30.14100 -1.21700 31.89500
O  31.23500 -1.27800 32.33800
C  28.87200 -0.85500 32.90700
C  28.66600 -1.93200 33.94100
O  28.22700 -3.05600 33.75600
O  29.19300 -1.51800 35.14000
C  29.02300 -2.45300 36.32100
H  21.91500 -0.26200 31.68500
H  23.36300 -0.58900 25.29100
H  29.33200 -1.71200 26.46100
H  26.11000 -1.38400 34.22900
H  23.63900 0.08600 33.56000
H  23.15900 -2.65400 32.98200
H  22.53400 -1.69100 34.29000
H  24.12400 -2.65800 34.41200
H  25.36400 1.45500 34.33400
H  26.91100 1.27500 33.76500
H  27.85700 0.51300 35.55900
H  26.50500 -0.36300 36.14000
H  19.64300 1.24900 29.22300
H  20.02800 0.33500 30.68100
H  19.43600 -0.47700 29.23400
H  19.00500 1.33600 25.76300
H  19.69400 1.87500 27.28300
H  19.02700 0.22700 27.18600
H  25.76500 0.02500 24.21600
H  27.28700 -2.47200 24.60700
H  24.14000 -2.41300 24.13000
H  25.51900 -2.59600 23.13100
H  24.42500 -1.23900 22.86100
H  27.93700 -0.54100 22.95100
H  29.12700 -1.27500 23.80300
H  29.12900 0.99600 25.29900
H  27.54300 1.33500 24.74600
H  28.86500 1.25900 23.53600
H  32.13700 -1.17300 28.99400
H  31.19800 -1.46500 27.50800
H  31.58100 -2.84400 28.60300
H  28.87700 0.14800 33.33400
H  29.33400 -3.48100 36.13300
H  27.98600 -2.42800 36.65500
H  29.72100 -2.16300 37.10600
Mg -11.00200 17.51200 43.13700
C  -7.56000 18.38000 42.99100
C  -11.72000 20.78300 42.55900
C  -14.35000 16.62500 42.85000
C  -10.17300 14.15600 43.18600
N  -9.74000 19.32800 42.72900
C  -8.36200 19.49400 42.77400
C  -7.87600 20.95300 42.74400
C  -9.29000 21.61400 42.98000
C  -10.29500 20.47900 42.71800
C  -9.34500 22.09100 44.45500
C  -7.33300 21.34400 41.25100
C  -5.86000 21.55400 41.20700
H  -5.11600 20.87500 40.08400
N  -12.81400 18.58400 42.87800
C  -12.87500 19.89600 42.71300
C  -14.23100 20.30400 42.80100
C  -15.07900 19.14900 42.80900
C  -14.10000 18.02100 42.91000
C  -14.60400 21.79000 42.81600
C  -16.62100 19.13600 42.77100
O  -17.21000 20.21300 42.57800
C  -17.49800 17.87000 42.81300
N  -12.17100 15.70400 42.99700
C  -13.50500 15.56200 42.98400
C  -13.94700 14.18000 43.40100
C  -12.60600 13.34100 43.06100
C  -11.58900 14.43800 43.06400
C  -14.43900 14.01100 44.92900
C  -12.57900 12.58700 41.73500
C  -12.53500 11.01200 41.80900
N  -9.22700 16.40000 43.17900
C  -8.99100 15.05200 43.23400
C  -7.56000 14.75500 43.15900
C  -6.97900 16.06400 43.19900
C  -8.02100 17.01500 43.12500
C  -6.79900 13.45000 43.22900
C  -5.74000 16.81300 43.27500
O  -4.56600 16.48100 43.31500
C  -6.09700 18.34700 43.22800
C  -5.81900 18.93400 44.48100
O  -6.23000 18.48800 45.57900
O  -5.06200 20.08600 44.34100
C  -4.96300 20.96500 45.61000
H  -11.91300 21.84800 42.70400
H  -15.42700 16.45000 42.80800
H  -9.94900 13.09000 43.27000
H  -7.18500 21.08100 43.57800
H  -9.61000 22.42100 42.32200
H  -8.42300 22.16100 45.03300
H  -10.08100 21.38900 44.84800
H  -9.85600 23.05000 44.53500
H  -7.73700 22.30400 40.93000
H  -7.58900 20.53400 40.56800
H  -5.56200 21.32500 42.23000
H  -5.72900 22.62300 41.04100
H  -14.88300 22.14400 41.82300
H  -13.78400 22.38100 43.22300
H  -15.51800 21.88200 43.40300
H  -17.41400 17.10000 42.04600
H  -18.52000 18.17700 42.59000
H  -17.58500 17.37900 43.78200
H  -14.70600 13.64500 42.83000
H  -12.33900 12.66800 43.87600
H  -14.30300 14.98700 45.39600
H  -13.82800 13.28800 45.46900
H  -15.50700 13.83600 45.06000
H  -11.62900 12.80500 41.24800
H  -13.41900 12.86700 41.09900
H  -13.27100 10.66900 41.08200
H  -12.83300 10.68200 42.80400
H  -11.51800 10.68500 41.59600
H  -6.24800 13.52000 44.16700
H  -6.14100 13.48000 42.36100
H  -7.42500 12.55800 43.26800
H  -5.50200 18.94200 42.53500
H  -4.46800 20.37000 46.37700
H  -5.95300 21.28700 45.93100
H  -4.37800 21.85600 45.38100

