158

Mg 45.15600 4.82700 46.90400
C  42.57900 7.46300 46.55400
C  42.46900 2.57100 46.56600
C  47.37000 2.43300 46.34300
C  47.55900 7.31500 46.75400
N  42.78100 4.98700 46.41300
C  41.98100 6.16800 46.44300
C  40.52500 5.74100 46.15200
C  40.54200 4.31100 46.70300
C  42.04200 3.88900 46.51200
C  40.04800 4.05900 48.13900
C  40.03400 5.77700 44.67700
C  41.03800 5.87100 43.54600
H  40.65100 6.43400 42.12300
N  45.00100 2.76600 46.61500
C  43.79000 2.06400 46.56300
C  44.10100 0.63700 46.36900
C  45.51200 0.57900 46.14600
C  46.04100 1.92200 46.43600
C  43.19700 -0.50000 46.34400
C  46.35900 -0.63600 45.67800
O  45.81400 -1.69700 45.32900
C  47.85200 -0.60700 45.59100
N  47.10700 4.83900 46.70800
C  47.87600 3.72100 46.56400
C  49.36000 4.02400 46.72200
C  49.35100 5.60300 46.64700
C  47.93500 5.97500 46.63300
C  49.91800 3.44100 48.08500
C  50.20200 6.07600 45.40100
C  49.63500 5.83700 44.01800
N  45.12000 6.90500 46.72700
C  46.18000 7.79700 46.68800
C  45.65900 9.18100 46.73200
C  44.29200 9.03500 46.71200
C  43.98600 7.65400 46.69500
C  46.55800 10.39100 46.48000
C  43.08800 9.78300 46.78400
O  42.97100 11.02500 46.78500
C  41.80400 8.76200 46.72200
C  41.06300 8.72100 48.01900
O  41.06600 7.82400 48.83600
O  40.41800 9.93700 48.25800
C  39.47800 10.01800 49.35900
H  41.71800 1.77800 46.55900
H  48.16000 1.67900 46.33300
H  48.35900 8.02400 46.97300
H  39.89600 6.37700 46.77500
H  39.97900 3.69800 46.00000
H  40.82300 3.48700 48.65000
H  39.10400 3.53300 47.99600
H  39.84200 4.98600 48.67500
H  39.46500 6.70600 44.71300
H  39.29400 5.02900 44.39300
H  41.35800 4.86200 43.28500
H  41.86400 6.47700 43.92000
H  43.53800 -1.30100 46.99900
H  43.21400 -0.96700 45.35900
H  42.15200 -0.18900 46.32500
H  48.19900 -1.59500 45.28900
H  48.07000 -0.39900 46.63800
H  48.32200 0.15800 44.97300
H  49.86900 3.54700 45.88500
H  49.92600 5.94900 47.50600
H  49.22300 2.69800 48.47700
H  50.04000 4.23700 48.81900
H  50.90500 3.02900 47.87500
H  51.17100 5.58800 45.50400
H  50.32000 7.15200 45.52900
H  50.28300 5.12400 43.51000
H  49.71400 6.82500 43.56600
H  48.60200 5.51700 44.15900
H  46.27900 11.01900 47.32600
H  46.20900 10.87700 45.56900
H  47.59600 10.06100 46.44900
H  41.15300 8.96600 45.87100
H  39.96500 10.13300 50.32800
H  38.95500 9.09900 49.62900
H  38.85800 10.89300 49.16800
Mg 9.42500 48.45300 24.64000
C  7.33800 48.70100 27.46500
C  11.94600 49.75800 26.66500
C  11.48500 48.30100 22.01500
C  6.69800 47.57400 22.71900
N  9.54500 49.24600 26.74500
C  8.58000 49.26600 27.69900
C  9.06900 49.79300 29.04200
C  10.37900 50.60000 28.57500
C  10.69200 49.86900 27.21400
C  10.29700 52.09000 28.44000
C  9.34600 48.63900 30.00300
C  8.83700 48.77900 31.48100
H  8.93300 47.53600 32.33200
N  11.46400 48.95000 24.36100
C  12.35400 49.37400 25.33200
C  13.70000 49.38800 24.72700
C  13.53800 48.89300 23.41300
C  12.08300 48.74400 23.18400
C  15.02600 49.79200 25.41400
C  14.63100 48.36900 22.46600
O  14.36300 47.66400 21.44900
C  16.07200 48.53500 22.70200
N  9.08200 48.15100 22.58000
C  10.12800 48.04600 21.71900
C  9.72800 47.39700 20.42400
C  8.21400 47.26600 20.57600
C  7.91300 47.73600 22.04800
C  10.02000 48.18600 19.17200
C  7.86500 45.75900 20.48400
C  8.32100 44.80400 21.57900
N  7.42200 48.14900 25.02100
C  6.42200 47.78300 24.11800
C  5.23800 47.62200 24.79000
C  5.59200 47.89900 26.13000
C  6.89200 48.24400 26.24500
C  3.82000 47.35000 24.22000
C  5.00800 47.98900 27.47900
O  3.86000 47.75200 27.80100
C  6.17600 48.37300 28.44400
C  6.40400 47.16900 29.30000
O  7.04800 46.20400 28.97000
O  5.73400 47.27400 30.47100
C  5.50600 46.03200 31.31100
H  12.69300 50.22400 27.31100
H  12.12400 48.05700 21.16300
H  5.86400 47.27200 22.08200
H  8.36200 50.49300 29.48800
H  11.16500 50.40900 29.30600
H  10.54500 52.52400 27.47100
H  11.07500 52.43500 29.12000
H  9.37900 52.61700 28.70300
H  10.42100 48.48200 30.09700
H  8.95700 47.67000 29.68800
H  7.80400 49.12700 31.48900
H  9.56200 49.48600 31.88400
H  14.78800 50.18400 26.40200
H  15.62600 50.54600 24.90400
H  15.53700 48.84200 25.57200
H  16.45400 49.46800 23.11600
H  16.58500 48.24000 21.78600
H  16.33900 47.82900 23.48800
H  10.27800 46.45800 20.49100
H  7.73400 47.85400 19.79400
H  10.34600 49.20600 19.37400
H  9.13100 48.21700 18.54300
H  10.91100 47.83200 18.65200
H  8.27300 45.39200 19.54300
H  6.79100 45.69800 20.30900
H  8.54800 45.32700 22.50800
H  9.18700 44.25700 21.20500
H  7.54900 44.05500 21.75500
H  4.04600 46.68200 23.38800
H  3.35200 48.27600 23.88700
H  3.16900 46.85100 24.93700
H  5.87300 49.25600 29.00500
H  5.95700 46.20200 32.28800
H  5.97800 45.16700 30.84600
H  4.45200 45.75400 31.32800

