158

Mg 34.45400 3.05600 29.71000
C  32.32100 4.01800 32.28900
C  36.99800 2.98900 31.95500
C  36.55000 2.50500 27.09400
C  31.79900 3.75000 27.54800
N  34.60600 3.33000 31.87200
C  33.60500 3.75500 32.63900
C  34.12100 3.82200 34.10800
C  35.63300 3.70800 33.96100
C  35.79000 3.35700 32.49500
C  36.50200 4.98400 34.38800
C  33.51400 2.57200 34.85700
C  33.10700 2.80900 36.31800
H  33.96000 3.77700 37.13200
N  36.45500 2.75400 29.52500
C  37.33100 2.72700 30.59600
C  38.66700 2.53000 30.09200
C  38.51900 2.31900 28.67800
C  37.13700 2.56400 28.37300
C  39.77100 2.19800 31.13900
C  39.62300 1.98700 27.62700
O  39.43300 1.97200 26.40600
C  41.05400 1.74700 28.13400
N  34.18400 3.16300 27.58500
C  35.28500 2.97100 26.74700
C  34.78100 2.95500 25.28200
C  33.21700 3.17500 25.38800
C  33.01500 3.35000 26.94300
C  35.51000 3.98300 24.32200
C  32.37000 1.98800 24.85900
C  32.36100 0.73900 25.81000
N  32.51000 3.75400 29.78500
C  31.51600 3.87100 28.88400
C  30.26700 4.33300 29.45900
C  30.49200 4.24400 30.81800
C  31.85900 3.95600 30.93200
C  29.03900 4.55200 28.81600
C  29.94000 4.52900 32.09600
O  28.80700 4.88400 32.31000
C  31.11400 4.40700 33.09300
C  31.38700 5.76300 33.70200
O  31.69600 6.78100 33.04600
O  31.03000 5.64700 35.00800
C  31.21700 6.92300 35.78200
H  37.84800 3.15400 32.62000
H  37.15900 2.29400 26.21300
H  31.13500 3.88600 26.69200
H  33.94600 4.78400 34.59000
H  36.07000 2.90800 34.55800
H  37.06500 4.83900 35.31000
H  35.96800 5.93400 34.41500
H  37.28600 5.06200 33.63500
H  34.25700 1.77800 34.92500
H  32.57000 2.20400 34.45500
H  33.22900 1.85900 36.83900
H  32.06700 3.08100 36.13900
H  40.78300 1.99300 30.79000
H  39.60100 1.34600 31.79800
H  39.88300 3.06400 31.79100
H  41.56200 2.67600 28.39400
H  41.51200 1.24600 27.28100
H  41.03300 0.98700 28.91400
H  34.99300 1.92500 24.99500
H  32.90500 4.13800 24.98300
H  36.05500 4.74300 24.88200
H  34.80500 4.56000 23.72300
H  36.31700 3.54800 23.73200
H  32.88000 1.72400 23.93200
H  31.35400 2.25200 24.56700
H  32.48400 1.04400 26.84900
H  33.24000 0.10800 25.67400
H  31.36100 0.32600 25.67600
H  28.70100 3.59500 28.41900
H  29.14800 5.19200 27.94100
H  28.29700 5.11700 29.38000
H  30.97200 3.60300 33.81500
H  31.42400 6.64400 36.81500
H  30.33700 7.56200 35.69800
H  32.10100 7.36500 35.32300
Mg 39.62700 10.38400 29.16700
C  41.65200 11.86400 31.65700
C  37.68200 9.09000 31.75600
C  38.06900 8.67500 26.83700
C  42.20000 11.03400 26.90200
N  39.58400 10.62800 31.43800
C  40.49200 11.36800 32.21000
C  40.13000 11.32300 33.69500
C  38.98200 10.19900 33.69000
C  38.76800 9.86000 32.22400
C  39.16600 8.91200 34.57900
C  39.61300 12.62200 34.35000
C  39.11800 12.48100 35.80300
H  39.90300 13.26500 36.80200
N  37.98000 9.21400 29.24900
C  37.33600 8.68000 30.35800
C  36.23500 7.87200 29.89500
C  36.28400 7.89000 28.46000
C  37.50900 8.57000 28.10900
C  35.25500 7.16000 30.80000
C  35.23700 7.34000 27.47700
O  35.29200 7.55500 26.28500
C  34.03800 6.65200 28.01900
N  40.15400 9.83400 27.10800
C  39.26800 9.18300 26.35000
C  39.73900 9.26100 24.85300
C  40.99300 10.24700 24.93600
C  41.12800 10.36900 26.39300
C  40.14100 7.85500 24.20600
C  40.81900 11.53200 24.16700
C  40.08100 12.79000 24.96500
N  41.50900 11.20400 29.23200
C  42.41500 11.41900 28.18900
C  43.59000 12.15600 28.69700
C  43.34500 12.35000 30.06200
C  42.11600 11.77100 30.33500
C  44.82000 12.64200 27.92300
C  43.85800 12.90900 31.25200
O  44.88700 13.60400 31.40400
C  42.75600 12.73000 32.28100
C  43.32200 12.17800 33.61000
O  43.72500 11.05300 33.78900
O  43.19900 13.08900 34.60400
C  43.56600 12.70600 35.91800
H  37.00200 8.77000 32.54900
H  37.53700 8.08900 26.08400
H  42.96100 11.35500 26.18800
H  40.95500 10.87100 34.24500
H  38.04600 10.60800 34.06900
H  38.28400 8.67500 35.17400
H  39.96700 9.11600 35.29000
H  39.37800 8.02900 33.97700
H  38.86200 13.09800 33.71900
H  40.50900 13.24100 34.41100
H  39.08900 11.50200 36.28100
H  38.09800 12.84300 35.66900
H  34.35500 7.77500 30.82400
H  35.71100 7.17900 31.79000
H  34.94400 6.14700 30.54700
H  33.47000 6.32000 27.15000
H  33.47400 7.24000 28.74300
H  34.41400 5.72000 28.44200
H  38.90500 9.67300 24.28600
H  41.80000 9.74800 24.39900
H  41.22800 7.78000 24.17600
H  39.74200 7.75900 23.19700
H  39.52800 7.21400 24.84000
H  40.12800 11.42500 23.33000
H  41.75600 11.82800 23.69500
H  40.11000 12.51700 26.02000
H  39.12800 13.12300 24.55300
H  40.69700 13.68400 24.87200
H  44.65800 13.52400 27.30400
H  45.28000 11.84300 27.34000
H  45.56400 12.82200 28.69900
H  42.22800 13.66900 32.44700
H  44.64900 12.66000 36.03100
H  43.11700 11.76600 36.23700
H  43.24500 13.45000 36.64700

