158

Mg 2.20800 -1.18800 43.93800
C  5.35300 -0.19000 43.44300
C  0.98000 1.43200 42.02700
C  -1.02000 -2.64000 44.14300
C  3.49500 -4.42900 44.93300
N  3.12300 0.26900 42.68600
C  4.42300 0.62100 42.76100
C  4.77900 1.81600 41.82800
C  3.32200 2.50400 41.85700
C  2.36100 1.35800 42.22500
C  3.18800 3.69100 42.81800
C  5.27500 1.36200 40.40100
C  6.42800 2.15800 39.80100
H  6.25400 2.87400 38.47300
N  0.26600 -0.66600 43.23400
C  -0.01300 0.46700 42.47500
C  -1.43900 0.53100 42.21700
C  -1.99600 -0.65600 42.78300
C  -0.89700 -1.41800 43.47200
C  -2.13300 1.57200 41.42500
C  -3.50000 -0.94800 42.68100
O  -4.33800 -0.10000 42.29700
C  -4.04200 -2.21300 43.20400
N  1.40800 -3.18100 44.22300
C  0.04800 -3.41600 44.49100
C  -0.12100 -4.80400 45.30100
C  1.23100 -5.49300 45.03600
C  2.10400 -4.28200 44.63200
C  -0.58600 -4.48900 46.76100
C  1.20500 -6.66100 43.91900
C  1.49500 -8.04900 44.50500
N  4.08800 -2.17400 44.24600
C  4.46300 -3.40600 44.76400
C  5.89400 -3.41500 44.96300
C  6.28000 -2.08600 44.48300
C  5.13800 -1.42600 44.07000
C  6.79400 -4.41500 45.54700
C  7.45900 -1.26100 44.29200
O  8.63400 -1.47700 44.64000
C  6.86800 0.02300 43.60500
C  7.07800 1.23600 44.46400
O  6.21700 1.79500 45.15000
O  8.43900 1.56700 44.41000
C  8.80300 2.71900 45.22500
H  0.66600 2.33000 41.49100
H  -1.98900 -3.09900 44.35400
H  3.86500 -5.41300 45.23000
H  5.39900 2.40100 42.50600
H  3.07900 2.83900 40.84800
H  3.96800 3.63400 43.57700
H  2.18900 3.73100 43.25400
H  3.39600 4.62400 42.29600
H  4.43900 1.24100 39.71100
H  5.63000 0.33200 40.42000
H  7.32000 1.53400 39.74500
H  6.67300 2.93200 40.52800
H  -3.07600 1.17200 41.05200
H  -1.47300 1.66000 40.56300
H  -2.27900 2.54700 41.89100
H  -3.38900 -3.04000 42.92600
H  -5.03500 -2.36200 42.77800
H  -4.16300 -2.15300 44.28500
H  -0.93500 -5.21600 44.70500
H  1.68900 -5.88500 45.94400
H  -1.63800 -4.74300 46.89300
H  -0.57000 -3.42100 46.97400
H  0.08500 -5.03600 47.42300
H  1.90900 -6.48100 43.10700
H  0.21800 -6.70000 43.45800
H  1.30200 -8.13400 45.57400
H  2.47400 -8.42900 44.21400
H  0.84000 -8.67600 43.90100
H  6.98900 -5.35500 45.03100
H  6.44900 -4.67300 46.54900
H  7.71900 -3.86600 45.72600
H  7.46600 0.03600 42.69300
H  8.40200 3.61200 44.74700
H  9.87900 2.89000 45.26600
H  8.44700 2.55100 46.24100
Mg 16.31100 51.96000 24.57200
C  17.88900 50.79900 27.59600
C  13.58200 52.83900 26.56200
C  14.80000 52.81400 21.86600
C  18.96800 50.48300 22.75100
N  15.81700 51.71400 26.82500
C  16.67800 51.38100 27.85600
C  16.14600 51.70200 29.30400
C  14.68400 52.11700 28.89400
C  14.65400 52.30200 27.33200
C  13.59500 51.15900 29.44900
C  16.92700 52.84200 30.06700
C  16.75500 52.92000 31.66600
H  15.85200 51.80700 32.40900
N  14.41500 52.83200 24.22300
C  13.40400 53.06800 25.11100
C  12.32800 53.59400 24.38400
C  12.62400 53.70600 23.01100
C  13.98300 53.08500 23.00500
C  11.04300 54.01700 25.17600
C  11.80100 54.21200 21.78900
O  12.29600 54.31200 20.62900
C  10.35600 54.66700 21.94200
N  16.98100 51.89500 22.60800
C  16.02000 52.17600 21.69600
C  16.48600 51.80600 20.28700
C  18.01100 51.49900 20.53400
C  18.01900 51.26800 22.02800
C  15.70600 50.66100 19.72100
C  18.83100 52.72200 20.13500
C  20.38500 52.53200 20.33500
N  18.05600 50.80500 25.04200
C  19.01900 50.29200 24.20400
C  19.96800 49.58200 25.01500
C  19.58700 49.81000 26.32200
C  18.40800 50.49400 26.32800
C  21.14800 48.89600 24.53200
C  19.95700 49.44700 27.71100
O  20.95000 48.88000 28.16600
C  18.85300 50.18700 28.58000
C  18.30500 49.15400 29.55800
O  17.56500 48.23100 29.22600
O  18.54500 49.49200 30.89700
C  18.19300 48.47700 31.90200
H  12.68500 53.05700 27.14600
H  14.16900 52.93800 20.98300
H  19.81200 49.99500 22.26000
H  16.10800 50.71700 29.77000
H  14.43200 53.06100 29.37700
H  13.11000 50.74800 28.56300
H  12.92800 51.83800 29.97900
H  13.87900 50.39800 30.17500
H  16.57600 53.75700 29.59100
H  17.98400 52.77400 29.80600
H  16.43500 53.94500 31.85400
H  17.77800 52.88000 32.04300
H  10.95200 55.10300 25.19800
H  10.98400 53.67500 26.20900
H  10.11300 53.68100 24.71800
H  10.43900 55.40300 22.74100
H  9.74800 53.80400 22.21300
H  10.01300 55.03600 20.97500
H  16.27900 52.66500 19.64900
H  18.33700 50.62900 19.96300
H  16.40300 50.15900 19.05000
H  14.98200 51.16400 19.08000
H  15.26800 50.05900 20.51800
H  18.47600 53.55800 20.73600
H  18.63900 53.04400 19.11100
H  20.69600 51.53900 20.01200
H  20.64300 52.51700 21.39400
H  20.98900 53.27900 19.81900
H  21.83500 49.39700 23.85000
H  20.87600 47.87300 24.27400
H  21.79200 48.57800 25.35200
H  19.40100 50.98500 29.08200
H  18.49800 47.45400 31.67900
H  17.14400 48.38200 32.18300
H  18.70100 48.72600 32.83300

