158

Mg 44.60400 3.76700 46.62200
C  42.37200 6.45100 46.19300
C  41.82000 1.60000 46.44200
C  46.80800 1.25700 46.27800
C  47.21900 6.12300 46.15700
N  42.29100 3.95800 46.29300
C  41.68800 5.22000 46.14500
C  40.15100 4.95800 45.94200
C  39.96500 3.43900 46.29800
C  41.39200 2.95100 46.40200
C  39.20500 3.13800 47.64400
C  39.44600 5.24300 44.51100
C  38.57700 6.55300 44.45900
H  38.87200 7.55800 43.32800
N  44.33600 1.65300 46.42100
C  43.09900 0.99000 46.35200
C  43.38300 -0.41500 46.18500
C  44.83200 -0.55500 46.07000
C  45.42800 0.80200 46.24200
C  42.36400 -1.53100 46.09600
C  45.55400 -1.90200 45.90600
O  44.99000 -2.99200 45.83400
C  47.06200 -1.96300 45.75000
N  46.72400 3.74600 46.22100
C  47.34800 2.53600 46.34900
C  48.87700 2.70900 46.30400
C  49.00200 4.27000 46.34800
C  47.53600 4.73300 46.24900
C  49.45900 1.87100 47.50100
C  49.81300 4.80800 45.05200
C  51.07500 5.59200 45.46100
N  44.83100 5.87300 46.40200
C  45.91900 6.69100 46.27500
C  45.53000 8.11500 46.20100
C  44.16300 8.05100 46.25900
C  43.77600 6.65400 46.34800
C  46.40400 9.34400 45.85800
C  42.95300 8.82000 46.20000
O  42.86300 10.05800 46.29600
C  41.77400 7.84500 46.22000
C  40.79500 8.17300 47.21800
O  40.61900 7.55900 48.22900
O  40.04900 9.22900 46.83300
C  38.87100 9.62400 47.54400
H  41.01100 0.87100 46.36500
H  47.62300 0.56200 46.06200
H  48.09900 6.76900 46.12700
H  39.79400 5.59200 46.75300
H  39.42400 2.91500 45.51100
H  39.00300 4.06300 48.18400
H  39.68700 2.43400 48.32300
H  38.24600 2.66300 47.43900
H  38.78100 4.42100 44.24800
H  40.15100 5.15100 43.68400
H  38.67100 7.01300 45.44300
H  37.54300 6.26000 44.27600
H  42.37500 -1.75900 45.03000
H  41.40400 -1.24400 46.52500
H  42.60300 -2.45100 46.63000
H  47.29100 -1.62600 44.73900
H  47.43800 -2.98500 45.78900
H  47.47600 -1.37700 46.57000
H  49.33300 2.28600 45.40900
H  49.50600 4.58000 47.26400
H  48.90000 0.96600 47.73700
H  49.45700 2.58600 48.32400
H  50.49400 1.61800 47.27300
H  49.04300 5.46600 44.64800
H  50.11400 3.98400 44.40500
H  51.07000 6.30300 44.63500
H  52.00400 5.02400 45.43700
H  51.03200 6.14600 46.39900
H  45.78700 10.23300 45.98400
H  46.77700 9.31500 44.83400
H  47.17300 9.50300 46.61300
H  41.20500 8.06400 45.31700
H  38.69700 9.11200 48.49000
H  38.03500 9.40400 46.88000
H  38.85800 10.68800 47.77800
Mg 46.65000 16.66200 28.23900
C  44.76000 16.62800 31.06700
C  48.99100 18.78100 29.86900
C  48.10100 17.37800 25.26400
C  44.03400 15.17200 26.54700
N  46.77900 17.73400 30.19000
C  45.97400 17.30800 31.25200
C  46.55800 17.74600 32.61900
C  47.65100 18.79400 32.12400
C  47.88500 18.42000 30.69500
C  47.34800 20.30300 32.31700
C  47.06700 16.50500 33.38100
C  47.13200 16.56500 34.91200
H  47.16600 17.91000 35.62200
N  48.38200 17.72000 27.69000
C  49.18600 18.48000 28.51200
C  50.33300 18.88300 27.74200
C  49.95700 18.72100 26.39500
C  48.80600 17.87100 26.40400
C  51.62000 19.46800 28.35100
C  50.63200 19.19100 25.12300
O  50.24700 18.95100 23.98200
C  51.78900 20.15700 25.26800
N  46.28500 16.04500 26.17700
C  46.99600 16.51400 25.16400
C  46.29400 16.28000 23.81400
C  45.14100 15.28100 24.29600
C  45.14300 15.52300 25.80200
C  45.89800 17.46900 22.95800
C  45.40400 13.86600 23.83400
C  44.80900 13.40000 22.51400
N  44.78600 15.92300 28.67100
C  43.86000 15.27000 27.94500
C  42.65400 14.93400 28.75100
C  42.93800 15.47900 30.01800
C  44.25000 16.06800 29.90400
C  41.57100 14.08400 28.27400
C  42.49200 15.62100 31.33200
O  41.44100 15.21400 31.79200
C  43.68200 16.29600 32.14200
C  43.11300 17.55400 32.73500
O  42.95000 18.62000 32.19800
O  42.64000 17.16500 33.96900
C  41.55900 17.94900 34.52400
H  49.84200 19.32200 30.28900
H  48.33600 17.60000 24.22100
H  43.20400 14.81100 25.93600
H  45.70500 18.11200 33.19000
H  48.56100 18.77400 32.72300
H  46.34100 20.40900 32.72100
H  47.42100 20.93300 31.43000
H  47.99500 20.67200 33.11300
H  48.05400 16.37200 32.93700
H  46.52200 15.63000 33.02700
H  48.00700 15.96600 35.16500
H  46.35100 16.01200 35.43500
H  52.42000 18.74000 28.21700
H  51.52600 19.73100 29.40400
H  51.75100 20.43500 27.86500
H  51.44100 21.14400 25.57100
H  52.26900 20.22600 24.29200
H  52.52900 19.80900 25.99000
H  46.94600 15.62100 23.24000
H  44.17500 15.56700 23.87900
H  46.50200 18.36300 23.11000
H  44.88700 17.72200 23.28000
H  45.99600 17.23100 21.89900
H  44.93000 13.26800 24.61200
H  46.45700 13.58600 23.86500
H  45.69400 13.29600 21.88600
H  44.06000 14.02400 22.02700
H  44.42600 12.40400 22.73500
H  40.65600 14.66300 28.15100
H  41.37300 13.27000 28.97200
H  41.89000 13.74800 27.28700
H  43.94000 15.51800 32.86100
H  40.85000 18.21900 33.74200
H  41.98800 18.87600 34.90600
H  41.09100 17.48800 35.39400

