158

Mg -9.48500 41.17700 42.42900
C  -8.55500 38.05400 41.17800
C  -7.11700 42.61700 40.36900
C  -10.86300 44.05000 43.15700
C  -12.27900 39.54500 43.66600
N  -8.04000 40.51700 40.97700
C  -7.76600 39.18700 40.73600
C  -6.45000 39.00400 40.01100
C  -5.91900 40.46000 39.86700
C  -7.09100 41.26000 40.51900
C  -4.54600 40.75400 40.58700
C  -6.61200 38.31600 38.65100
C  -5.97700 36.93200 38.43200
H  -4.89100 36.73900 37.39000
N  -9.03900 43.12400 41.88100
C  -8.01300 43.46900 41.06600
C  -7.93200 44.90900 41.14200
C  -8.99900 45.38900 41.92300
C  -9.72300 44.17700 42.35700
C  -6.94500 45.78100 40.35100
C  -9.41000 46.88200 42.18800
O  -8.58500 47.79000 41.89200
C  -10.71600 47.29400 42.72100
N  -11.27600 41.71600 43.20700
C  -11.59200 42.98500 43.52400
C  -12.98100 43.12900 44.21700
C  -13.42700 41.59100 44.23100
C  -12.27900 40.92900 43.67500
C  -12.86200 43.68100 45.65800
C  -14.69500 41.25200 43.35400
C  -15.48000 40.07600 43.97700
N  -10.25800 39.18200 42.55000
C  -11.35000 38.68500 43.14500
C  -11.41600 37.28500 43.08100
C  -10.29000 36.98800 42.23000
C  -9.69500 38.17700 41.96600
C  -12.48400 36.18800 43.61500
C  -9.63100 35.81500 41.56400
O  -9.90600 34.60500 41.60500
C  -8.37300 36.45300 40.89600
C  -7.21600 35.78200 41.54300
O  -6.59300 36.25400 42.43200
O  -6.92200 34.67300 40.77000
C  -5.82000 33.82500 41.29700
H  -6.29200 43.12500 39.86500
H  -11.34700 44.90200 43.64000
H  -13.13500 38.96900 44.02300
H  -5.76200 38.49900 40.68900
H  -5.89700 40.75400 38.81800
H  -3.76500 40.00400 40.46100
H  -4.61300 40.96000 41.65500
H  -4.20000 41.61500 40.01400
H  -6.06400 38.89900 37.91100
H  -7.62000 38.35100 38.23800
H  -6.73600 36.20300 38.14700
H  -5.62700 36.49600 39.36800
H  -6.11600 45.28700 39.84400
H  -6.48400 46.39500 41.12400
H  -7.44700 46.40700 39.61200
H  -10.69600 47.10400 43.79400
H  -11.49800 46.93600 42.05200
H  -10.80200 48.37800 42.64000
H  -13.70300 43.67200 43.60800
H  -13.71200 41.13800 45.18100
H  -13.16800 42.89400 46.34700
H  -13.60100 44.48200 45.63600
H  -11.96300 44.25900 45.86900
H  -14.29800 41.09300 42.35100
H  -15.37900 42.08700 43.20200
H  -15.26100 39.84000 45.01800
H  -15.39100 39.19500 43.34200
H  -16.52700 40.37600 43.94300
H  -13.50600 36.31100 43.25700
H  -12.47200 36.34200 44.69400
H  -12.04700 35.21500 43.39000
H  -8.30500 36.23600 39.82900
H  -5.20300 34.21700 42.10500
H  -5.21800 33.41500 40.48600
H  -6.48300 33.00200 41.56600
Mg -2.15700 34.57200 26.15000
C  -3.32300 32.93200 29.00700
C  -0.75000 36.99400 28.17200
C  -1.46600 36.40400 23.36400
C  -3.95900 32.26200 24.20400
N  -1.96700 34.88900 28.38500
C  -2.48900 34.02700 29.33600
C  -2.14200 34.50900 30.75300
C  -1.43000 35.91800 30.48700
C  -1.43100 35.99400 28.90400
C  -2.15400 37.07300 31.16700
C  -1.30200 33.38900 31.64200
C  -1.83100 33.06000 33.03600
H  -0.84100 33.00200 34.24700
N  -1.19600 36.40700 25.79600
C  -0.63300 37.20200 26.75500
C  0.05000 38.33800 26.06600
C  -0.27200 38.26400 24.69300
C  -1.02100 36.99300 24.55300
C  0.79200 39.53700 26.83000
C  -0.00100 39.26300 23.57700
O  -0.25100 39.13400 22.39300
C  0.70500 40.54900 23.79200
N  -2.67000 34.33600 24.08900
C  -2.17900 35.22000 23.20400
C  -2.50400 34.68400 21.74500
C  -3.32500 33.39300 21.96900
C  -3.27300 33.28500 23.50200
C  -3.37600 35.66200 20.91000
C  -2.76100 32.13100 21.21900
C  -1.34900 31.67800 21.60100
N  -3.32700 32.97800 26.48600
C  -4.03900 32.18700 25.62500
C  -4.78800 31.18800 26.33700
C  -4.55000 31.47200 27.71200
C  -3.67300 32.55600 27.74900
C  -5.79700 30.28400 25.78800
C  -4.82700 31.05800 29.09000
O  -5.60400 30.20400 29.51100
C  -4.01700 31.91200 29.99400
C  -4.94300 32.54600 31.04300
O  -5.53600 33.60400 30.93700
O  -4.91400 31.76500 32.21700
C  -5.81500 32.35500 33.24300
H  -0.15500 37.65800 28.80300
H  -1.23400 36.88900 22.41400
H  -4.36400 31.54700 23.48500
H  -3.14700 34.58300 31.17000
H  -0.38300 35.86600 30.78400
H  -1.47400 37.85500 31.50600
H  -2.71200 36.69700 32.02500
H  -2.85000 37.46200 30.42400
H  -0.27200 33.72800 31.75800
H  -1.09100 32.43400 31.16000
H  -2.33700 32.09600 32.98500
H  -2.58500 33.83100 33.19000
H  0.80500 39.37000 27.90700
H  0.34300 40.52800 26.76900
H  1.80800 39.40200 26.45800
H  0.09600 41.16100 24.45700
H  0.74200 41.20100 22.91900
H  1.72900 40.43100 24.14800
H  -1.57800 34.29800 21.31900
H  -4.34500 33.54400 21.61700
H  -3.25400 36.68700 21.25800
H  -4.45500 35.51400 20.96900
H  -3.18000 35.56000 19.84300
H  -2.71900 32.60900 20.24000
H  -3.47700 31.30900 21.23000
H  -1.31200 30.59000 21.65900
H  -0.95200 32.05800 22.54200
H  -0.66300 31.88700 20.77900
H  -6.46800 30.01500 26.60400
H  -5.33100 29.39400 25.36700
H  -6.36000 30.84400 25.04100
H  -3.29500 31.22600 30.43700
H  -6.83400 32.51900 32.89100
H  -5.42900 33.27800 33.67700
H  -5.92100 31.63200 34.05200

