158

Mg 0.94900 8.01900 26.58200
C  1.75200 9.94100 29.34200
C  0.87700 5.20600 28.54600
C  0.94500 6.07900 23.73700
C  1.43700 10.89800 24.61900
N  1.36200 7.59000 28.67800
C  1.55200 8.60800 29.59600
C  1.30800 8.05800 31.01000
C  1.27200 6.47400 30.70400
C  1.24000 6.42500 29.21800
C  2.56900 5.65900 31.12600
C  0.03900 8.67900 31.53400
C  -0.18100 8.67100 33.08600
H  0.95100 8.44700 34.13300
N  0.88500 5.96400 26.19000
C  0.83500 4.96500 27.16100
C  0.79900 3.62900 26.61700
C  0.71100 3.84200 25.19100
C  0.85500 5.30900 24.97500
C  0.82000 2.34000 27.36100
C  0.43000 2.90800 24.04200
O  0.45100 3.28500 22.88400
C  0.09800 1.42100 24.35900
N  0.94800 8.42800 24.48800
C  1.07100 7.48300 23.50800
C  1.29500 8.15100 22.11200
C  0.98200 9.65000 22.49400
C  1.17000 9.70000 24.00000
C  2.73700 7.92500 21.49900
C  -0.51100 10.13300 22.19400
C  -0.75100 11.16900 21.09800
N  1.42700 10.01800 26.85500
C  1.68200 11.07000 25.97500
C  2.07100 12.28400 26.68000
C  2.10500 11.88600 28.04700
C  1.77300 10.46400 28.06900
C  2.36100 13.62900 26.05100
C  2.37100 12.38200 29.40900
O  2.74500 13.48400 29.69100
C  2.08000 11.10000 30.35700
C  3.19000 11.03300 31.38400
O  4.21700 10.35600 31.17600
O  2.89000 11.77400 32.48500
C  3.84400 11.61600 33.54200
H  0.70000 4.34900 29.19900
H  1.00000 5.50600 22.80900
H  1.59200 11.81300 24.04300
H  2.23900 8.18200 31.56300
H  0.41600 5.94900 31.12900
H  2.29700 4.61400 31.27700
H  3.16200 6.11200 31.92100
H  3.18600 5.58200 30.23100
H  -0.67900 7.90900 31.25100
H  -0.14200 9.59500 30.97200
H  -0.99100 7.96900 33.28100
H  -0.72200 9.57700 33.35900
H  -0.05600 2.04600 27.93900
H  1.66700 2.42900 28.04200
H  0.95000 1.46900 26.71800
H  -0.49400 1.35500 25.27200
H  0.97600 0.79200 24.50100
H  -0.52100 1.23600 23.48100
H  0.63700 7.72000 21.35800
H  1.55400 10.28400 21.81700
H  3.30400 8.85400 21.42600
H  2.48300 7.55800 20.50500
H  3.25700 7.10200 21.98800
H  -0.85600 10.54800 23.14100
H  -1.04600 9.20200 22.00400
H  -1.26300 12.01900 21.54700
H  -1.36900 10.72300 20.31800
H  0.17100 11.44400 20.58600
H  3.33300 13.52400 25.56800
H  2.46200 14.40800 26.80700
H  1.53300 13.65700 25.34400
H  1.22800 11.37600 30.97900
H  4.67400 12.23100 33.19500
H  4.07900 10.58300 33.79900
H  3.49000 12.09300 34.45600
Mg 36.03000 48.56900 24.05900
C  36.51700 46.77000 27.04400
C  34.33700 50.93200 25.77500
C  35.39700 49.98200 21.14600
C  37.37000 45.65800 22.26200
N  35.46500 48.74200 26.14500
C  35.93600 48.04200 27.29500
C  35.54600 48.65600 28.56100
C  34.71900 49.92500 28.09100
C  34.76000 49.83200 26.58300
C  33.29000 50.19000 28.70100
C  36.84300 49.07900 29.34400
C  36.85800 48.89600 30.89600
H  35.56000 49.14400 31.63000
N  35.08200 50.25200 23.47500
C  34.40800 51.12600 24.33800
C  34.03000 52.30100 23.59900
C  34.23700 51.99200 22.21400
C  34.95600 50.69900 22.18800
C  33.56300 53.51200 24.31500
C  33.80500 52.78300 20.98700
O  34.12400 52.50200 19.82800
C  33.18400 54.10000 21.28300
N  36.46600 47.99200 21.99000
C  36.11300 48.80200 21.03000
C  36.49500 48.29600 19.63600
C  37.25600 46.90000 19.97500
C  37.07600 46.83500 21.47800
C  35.28500 48.02300 18.61400
C  38.81500 46.94800 19.65500
C  39.26900 46.18300 18.44000
N  36.73100 46.68200 24.50000
C  37.20400 45.60700 23.66300
C  37.36600 44.41400 24.50700
C  37.17400 44.87400 25.83300
C  36.72300 46.20300 25.77000
C  37.57200 43.03400 24.02000
C  37.27100 44.42200 27.26700
O  37.65100 43.42700 27.79400
C  36.87800 45.68400 28.04400
C  35.75900 45.44100 28.97300
O  34.62500 45.34700 28.59700
O  36.21100 45.28700 30.28000
C  35.11600 45.01500 31.27800
H  33.84700 51.73800 26.32500
H  35.23600 50.42600 20.16200
H  37.70500 44.76000 21.73700
H  34.80000 48.09500 29.12400
H  35.28800 50.82900 28.31200
H  33.37200 49.74500 29.69200
H  32.50000 49.71200 28.12000
H  33.08300 51.25800 28.76100
H  37.12500 50.07500 29.00300
H  37.66900 48.50400 28.92600
H  37.65600 49.52900 31.28400
H  37.24300 47.88600 31.03300
H  34.14800 54.30200 23.84300
H  33.81900 53.48600 25.37400
H  32.48100 53.48500 24.19200
H  32.27400 53.80500 21.80700
H  33.05000 54.53300 20.29100
H  33.78500 54.76100 21.90800
H  37.25900 48.96200 19.23500
H  36.80900 46.06900 19.43000
H  34.48300 48.69000 18.93200
H  34.93400 46.99100 18.58600
H  35.48800 48.38700 17.60700
H  39.47100 46.63400 20.46700
H  39.22100 47.94900 19.50800
H  38.49700 45.92500 17.71500
H  39.76800 45.23100 18.62000
H  39.96000 46.88500 17.97400
H  37.56100 42.33700 24.85800
H  38.55800 42.85700 23.59000
H  36.84500 42.68800 23.28500
H  37.69500 45.99400 28.69400
H  35.60900 44.94200 32.24700
H  34.75600 43.99600 31.13600
H  34.22600 45.64400 31.26900

