158

Mg 26.05600 -0.25400 29.56600
C  28.19500 -0.52700 32.37400
C  23.53100 0.32300 31.70400
C  24.15100 -0.11200 26.89300
C  28.72000 -1.52100 27.62300
N  25.90900 -0.16600 31.77500
C  26.91200 -0.11600 32.68800
C  26.43900 0.33800 34.08100
C  24.90200 0.41200 33.91500
C  24.76200 0.21900 32.37000
C  24.05800 -0.65200 34.71800
C  27.14300 1.67800 34.45300
C  28.07300 1.56300 35.71600
H  27.88900 2.57900 36.87400
N  24.08900 0.11100 29.33300
C  23.16100 0.32900 30.31400
C  21.88500 0.57300 29.74700
C  21.97600 0.40000 28.36300
C  23.43600 0.10000 28.09200
C  20.69800 1.02800 30.62100
C  20.89300 0.44100 27.25600
O  21.17800 0.12500 26.08900
C  19.59900 1.09400 27.54000
N  26.41300 -0.66000 27.51500
C  25.46800 -0.45800 26.63100
C  26.00500 -0.69500 25.12300
C  27.44200 -1.12100 25.41400
C  27.59500 -1.11600 26.90500
C  25.13400 -1.69400 24.19600
C  28.52400 -0.26000 24.66200
C  28.56500 1.26800 24.86900
N  28.04100 -0.84500 29.89000
C  28.98100 -1.33500 29.01200
C  30.28600 -1.49500 29.69700
C  30.00400 -1.12700 31.03300
C  28.63900 -0.82900 31.07300
C  31.52300 -1.94700 29.10700
C  30.58200 -0.96400 32.35600
O  31.65400 -1.25400 32.82100
C  29.47000 -0.57600 33.24900
C  29.41200 -1.58100 34.31900
O  28.88000 -2.67300 34.25700
O  30.09800 -1.17100 35.43200
C  30.23600 -2.01800 36.64500
H  22.74200 0.58100 32.41400
H  23.47800 -0.00600 26.04000
H  29.63800 -1.71700 27.06600
H  26.76800 -0.40400 34.80800
H  24.55100 1.34800 34.35000
H  24.64700 -1.05700 35.54100
H  23.70900 -1.48800 34.11200
H  23.13000 -0.22300 35.09600
H  26.42700 2.48200 34.62500
H  27.75900 2.03200 33.62700
H  29.10200 1.70900 35.39000
H  28.07400 0.50900 35.99100
H  20.45200 2.07000 30.42000
H  20.88300 1.07700 31.69400
H  19.86700 0.35800 30.39500
H  19.55200 2.10200 27.95200
H  19.01300 0.45000 28.19600
H  19.05000 1.17500 26.60200
H  25.98900 0.25200 24.58200
H  27.60900 -2.15100 25.09800
H  24.21100 -1.84900 24.75500
H  25.58000 -2.67300 24.02500
H  24.80200 -1.22500 23.26900
H  28.22300 -0.26000 23.61400
H  29.48700 -0.72200 24.88000
H  27.87000 1.63400 25.62500
H  28.15000 1.75400 23.98600
H  29.61200 1.56100 24.94400
H  32.33200 -1.64400 29.77100
H  31.55400 -1.60200 28.07300
H  31.56500 -3.03600 29.14900
H  29.85100 0.40700 33.52500
H  29.64900 -1.53800 37.42700
H  31.25400 -2.08700 37.02900
H  29.95000 -3.05000 36.44400
Mg 41.13100 40.63900 26.78800
C  40.45300 43.33000 28.75400
C  41.89900 38.66700 29.41600
C  42.05200 38.32800 24.54500
C  40.92000 42.89200 23.89700
N  41.27500 40.99500 28.78900
C  40.83800 42.15500 29.41400
C  40.88200 42.00100 30.94000
C  41.24700 40.48900 31.16800
C  41.50600 40.02000 29.73100
C  42.49100 40.40900 32.10800
C  39.54900 42.41700 31.57900
C  39.01400 41.66600 32.88600
H  38.63900 42.53300 34.12100
N  41.86800 38.72300 26.94700
C  42.10200 38.05700 28.12500
C  42.55500 36.79100 27.84000
C  42.61700 36.57600 26.38800
C  42.18700 37.91400 25.90500
C  43.05800 35.83800 28.90400
C  43.15000 35.41800 25.55600
O  43.15400 35.56500 24.34900
C  43.61900 34.08000 26.09500
N  41.68700 40.67300 24.52700
C  41.92300 39.50500 23.83800
C  41.76200 39.72000 22.30500
C  41.03800 41.04300 22.24400
C  41.16700 41.56900 23.62200
C  43.10300 39.59200 21.59200
C  39.60100 40.87500 21.81000
C  38.56500 40.22900 22.79800
N  40.71200 42.70200 26.36800
C  40.72400 43.45100 25.19500
C  40.35700 44.80700 25.52600
C  40.24500 44.80400 26.91000
C  40.59500 43.54100 27.39800
C  39.98200 45.90600 24.57900
C  39.94400 45.69300 28.05400
O  39.52400 46.88900 28.17000
C  40.10400 44.71400 29.26500
C  41.15200 45.24100 30.08700
O  42.30600 44.95400 30.07000
O  40.58300 46.01100 31.06300
C  41.60900 46.34300 32.08700
H  42.05200 38.03200 30.29200
H  42.08700 37.57300 23.75700
H  40.68700 43.52900 23.04100
H  41.64500 42.67900 31.32300
H  40.40800 39.93400 31.58700
H  43.16300 41.26200 32.01200
H  43.07400 39.51500 31.88500
H  42.11400 40.42800 33.13000
H  38.82200 42.30100 30.77600
H  39.59800 43.50000 31.69500
H  39.88300 41.11100 33.23800
H  38.24500 40.93300 32.64300
H  43.19600 34.80300 28.58900
H  42.34000 35.87200 29.72300
H  44.02200 36.28000 29.15700
H  43.91400 33.42400 25.27600
H  42.82300 33.60800 26.67100
H  44.43100 34.21000 26.80900
H  41.08800 38.96800 21.89400
H  41.56600 41.72800 21.58200
H  43.84500 40.05800 22.24000
H  43.03200 40.18300 20.67900
H  43.25300 38.53200 21.38700
H  39.46700 40.40500 20.83600
H  39.26100 41.90200 21.67100
H  39.17300 39.76700 23.57600
H  37.82600 39.57400 22.33700
H  37.98100 40.94100 23.38200
H  39.32600 46.67700 24.98200
H  39.66000 45.70200 23.55800
H  40.92800 46.43200 24.45400
H  39.16900 44.69900 29.82500
H  42.02800 45.38400 32.39100
H  41.19700 46.84200 32.96500
H  42.41500 46.94300 31.66500

