158

Mg 24.52100 -5.48900 46.14700
C  26.58000 -2.96000 44.73300
C  22.19300 -4.48100 43.59900
C  23.02000 -8.22000 46.48400
C  27.36400 -6.59300 47.90800
N  24.45000 -3.76300 44.42000
C  25.34300 -2.80300 44.16200
C  24.85400 -1.96100 43.00900
C  23.25800 -2.14700 43.21200
C  23.31800 -3.53900 43.73000
C  22.47200 -1.23500 44.23500
C  25.50900 -2.44200 41.60900
C  26.12900 -1.33100 40.67000
H  25.57200 -1.36600 39.26800
N  22.76700 -6.18400 45.36700
C  21.92100 -5.63800 44.30400
C  20.78300 -6.44200 44.21200
C  20.96800 -7.56000 45.03800
C  22.31100 -7.37900 45.69600
C  19.55200 -6.11800 43.39500
C  19.96400 -8.78000 45.15800
O  18.88700 -8.88300 44.55000
C  20.12700 -9.90200 46.14400
N  25.10100 -7.12200 47.29300
C  24.28000 -8.22200 47.17500
C  25.02800 -9.49000 47.72400
C  26.22200 -8.83700 48.52800
C  26.24500 -7.44400 47.95600
C  24.25200 -10.64800 48.41400
C  27.64600 -9.58000 48.63400
C  28.38800 -9.54200 50.03300
N  26.50900 -4.85700 46.50300
C  27.50200 -5.36000 47.21500
C  28.71200 -4.51700 47.21500
C  28.37600 -3.57200 46.23200
C  27.05600 -3.87100 45.72500
C  29.96000 -4.79000 47.97700
C  28.89000 -2.47700 45.45300
O  29.93400 -1.88800 45.48700
C  27.80800 -2.06000 44.40900
C  27.62600 -0.57400 44.47500
O  27.29900 0.01700 45.47600
O  27.73600 0.01700 43.27100
C  27.67800 1.52000 43.24500
H  21.39800 -4.15500 42.92500
H  22.52300 -9.17800 46.65100
H  28.18700 -7.00000 48.49900
H  25.23700 -0.98300 43.29800
H  22.75000 -2.07200 42.25100
H  23.21200 -0.60300 44.72600
H  22.06800 -1.83300 45.05200
H  21.74700 -0.59000 43.74000
H  24.74000 -2.89600 40.98400
H  26.27200 -3.20400 41.76900
H  27.20600 -1.50200 40.64900
H  25.93200 -0.32500 41.04000
H  18.70900 -6.31700 44.05600
H  19.55400 -6.74400 42.50200
H  19.50500 -5.04400 43.21500
H  19.18200 -10.41500 46.31900
H  20.38700 -9.51300 47.12900
H  20.78500 -10.66900 45.73600
H  25.32800 -9.97600 46.79600
H  25.88900 -8.62400 49.54400
H  24.66200 -11.51100 47.88800
H  23.18800 -10.78200 48.21900
H  24.39700 -10.61800 49.49400
H  28.36700 -9.21100 47.90400
H  27.47600 -10.63800 48.43400
H  29.46400 -9.69600 49.94200
H  28.02500 -10.39600 50.60500
H  28.06100 -8.67300 50.60300
H  30.66100 -4.96100 47.16000
H  29.95100 -5.61700 48.68700
H  30.10300 -3.83100 48.47600
H  28.16400 -2.26300 43.39900
H  26.86400 1.90300 43.85900
H  27.48500 1.85400 42.22600
H  28.62800 1.90900 43.61200
Mg 36.38900 48.76000 25.03100
C  35.81100 46.90400 28.08700
C  35.33000 51.60000 26.72900
C  36.05900 50.17300 22.13500
C  36.81900 45.58900 23.44800
N  35.61200 49.16700 27.17400
C  35.55300 48.28700 28.24900
C  35.42300 49.10100 29.58100
C  34.98100 50.52600 29.01600
C  35.38100 50.42500 27.54500
C  33.45200 50.73100 29.22300
C  36.67600 49.11500 30.44300
C  36.33600 48.93400 31.93800
H  34.97400 49.14000 32.56700
N  35.89900 50.73900 24.51400
C  35.51200 51.76700 25.32100
C  35.33700 52.98500 24.55300
C  35.60900 52.60200 23.20900
C  35.88200 51.13300 23.22200
C  34.92900 54.34700 25.09400
C  35.50200 53.50600 21.90200
O  35.86100 53.06400 20.80600
C  35.08700 54.92000 21.90800
N  36.31300 47.97300 23.08600
C  36.31700 48.81800 22.05100
C  36.53400 48.08500 20.72900
C  37.13600 46.69200 21.27600
C  36.72300 46.73800 22.71300
C  35.34400 48.01300 19.80300
C  38.64300 46.39300 21.12400
C  39.17200 46.38900 19.69700
N  36.25400 46.56800 25.58500
C  36.59200 45.46400 24.83300
C  36.78600 44.31700 25.70700
C  36.44200 44.84000 26.96400
C  36.09000 46.21800 26.82200
C  37.39900 43.03500 25.26700
C  36.23600 44.44300 28.41200
O  36.31600 43.34500 28.92700
C  35.95300 45.82600 29.18200
C  34.70100 45.70000 30.00000
O  33.64100 46.25300 29.80600
O  35.03900 44.99300 31.12400
C  33.95800 44.99300 32.07500
H  35.08100 52.50800 27.28100
H  35.97600 50.69600 21.18000
H  37.01200 44.64000 22.94300
H  34.67800 48.44900 30.03700
H  35.43500 51.35800 29.55400
H  33.07300 50.98900 28.23400
H  33.28000 51.61500 29.83700
H  32.88900 49.90200 29.65400
H  37.28200 50.01800 30.36400
H  37.39600 48.36900 30.10600
H  37.12300 49.47100 32.46700
H  36.55000 47.86700 32.00600
H  35.35400 54.51600 26.08300
H  33.84700 54.46400 25.02600
H  35.37900 55.05700 24.40100
H  34.08900 54.99900 22.33800
H  34.87900 55.21000 20.87800
H  35.72500 55.56800 22.51000
H  37.34600 48.60400 20.22100
H  36.47000 45.95700 20.82500
H  35.53600 48.62900 18.92400
H  34.49500 48.56500 20.20400
H  35.00300 47.01000 19.54500
H  38.85500 45.40200 21.52600
H  39.26000 47.04100 21.74700
H  38.33400 46.37100 19.00000
H  39.73900 45.48800 19.46400
H  39.84800 47.20100 19.43000
H  38.16700 42.82800 26.01300
H  37.89400 42.98300 24.29700
H  36.65500 42.27100 25.49200
H  36.79300 46.12600 29.80800
H  32.93200 45.14300 31.73900
H  34.11300 45.52800 33.01200
H  33.84600 43.95200 32.37500

