158

Mg 24.69000 -5.22700 46.18300
C  26.63400 -2.80200 44.58200
C  22.05000 -4.55500 44.23600
C  23.42000 -8.27300 46.97200
C  27.72700 -6.32400 47.79800
N  24.51400 -3.95600 44.50600
C  25.35400 -2.98200 44.06300
C  24.67000 -2.03400 42.96500
C  23.14400 -2.44200 43.16700
C  23.21400 -3.71100 43.99500
C  22.30000 -1.27300 43.68500
C  25.27500 -2.49400 41.63400
C  25.68500 -1.29700 40.72900
H  25.13300 -1.26200 39.27900
N  22.91300 -6.15800 45.81500
C  21.92000 -5.72400 45.02300
C  20.78500 -6.58900 45.05600
C  21.18300 -7.66300 45.81600
C  22.56700 -7.40700 46.29200
C  19.55000 -6.30900 44.26600
C  20.28000 -8.75300 46.29100
O  19.13900 -8.81000 45.84300
C  20.67200 -9.92300 47.24700
N  25.39900 -7.02600 47.45000
C  24.71700 -8.14400 47.44900
C  25.49900 -9.27500 48.12100
C  26.89700 -8.69100 48.48900
C  26.67200 -7.24500 47.87400
C  24.83100 -10.02000 49.32200
C  28.21600 -9.43900 47.87500
C  28.20700 -10.98800 47.86500
N  26.69200 -4.57500 46.37100
C  27.77400 -5.11600 47.04300
C  28.96800 -4.25600 46.81100
C  28.55800 -3.34800 45.83000
C  27.18400 -3.59100 45.53800
C  30.28100 -4.33300 47.44400
C  28.98600 -2.36500 45.00100
O  30.09600 -1.95100 44.83100
C  27.79200 -1.87900 44.12600
C  27.45100 -0.47500 44.34100
O  27.03600 -0.11900 45.43700
O  27.79100 0.30100 43.25200
C  27.88400 1.74400 43.40100
H  21.19400 -4.28100 43.61700
H  23.17000 -9.33400 47.02500
H  28.66200 -6.68600 48.23000
H  24.76700 -0.99600 43.28400
H  22.67300 -2.73600 42.23000
H  22.87300 -0.44700 44.10700
H  21.56100 -1.48700 44.45700
H  21.63100 -0.96700 42.88100
H  24.55400 -3.10300 41.08900
H  26.18900 -3.02900 41.89400
H  26.77100 -1.20700 40.74500
H  25.21000 -0.40000 41.12700
H  19.01400 -7.23100 44.04100
H  19.74800 -5.72500 43.36700
H  18.73700 -5.84800 44.82600
H  19.75600 -10.49100 47.41100
H  21.03300 -9.54700 48.20500
H  21.38800 -10.65100 46.86500
H  25.68700 -9.94700 47.28400
H  26.97000 -8.52200 49.56300
H  24.87900 -11.07200 49.04100
H  23.79900 -9.67900 49.41300
H  25.32300 -9.93500 50.29100
H  29.07300 -9.15600 48.48500
H  28.38800 -9.20300 46.82500
H  28.78400 -11.49700 48.63700
H  28.66300 -11.29600 46.92400
H  27.15600 -11.26400 47.95600
H  30.79400 -5.24400 47.13600
H  30.25400 -4.47100 48.52500
H  30.88400 -3.44900 47.23300
H  28.01700 -1.92100 43.06100
H  27.86900 2.05100 44.44700
H  27.06600 2.26900 42.90900
H  28.85200 2.08700 43.03500
Mg 5.93800 55.12200 40.76800
C  3.46900 52.66900 41.20200
C  7.88900 52.81600 39.21300
C  8.17600 57.53300 40.07900
C  3.57600 57.42900 41.77000
N  5.56200 53.10800 39.97000
C  4.56700 52.23800 40.39700
C  4.69700 50.93100 39.66800
C  6.24500 50.92400 39.29400
C  6.62600 52.36800 39.56000
C  7.13400 49.99300 40.16400
C  3.92500 50.78400 38.36600
C  3.74100 49.23300 37.89000
H  4.63700 48.76200 36.85200
N  7.66400 55.23100 39.56500
C  8.37000 54.15200 39.16000
C  9.74700 54.49700 38.76600
C  9.87900 55.85400 39.03900
C  8.54200 56.25400 39.62100
C  10.76600 53.42900 38.37500
C  11.17500 56.66300 38.91700
O  12.23600 56.10800 38.70000
C  11.29600 58.13600 39.03000
N  5.90500 57.12000 40.87200
C  6.97800 57.87500 40.67700
C  6.76600 59.29400 41.21600
C  5.17500 59.39100 41.34200
C  4.86500 57.88500 41.32200
C  7.49200 59.52800 42.63100
C  4.34200 60.24000 40.28400
C  4.09100 61.74600 40.61400
N  3.90300 55.10100 41.48000
C  3.06200 56.13200 41.83100
C  1.82600 55.63000 42.29500
C  2.02600 54.24600 42.18300
C  3.27200 53.95000 41.68800
C  0.58000 56.41800 42.74600
C  1.34600 52.93500 42.33100
O  0.22500 52.66600 42.74000
C  2.38800 51.88200 41.91600
C  1.63400 50.91500 41.11900
O  1.07000 51.05800 40.06200
O  1.66300 49.79400 41.92800
C  1.08500 48.63600 41.29500
H  8.54300 52.01700 38.85900
H  9.01900 58.21900 39.97500
H  2.85700 58.19000 42.07900
H  4.40100 50.12400 40.33800
H  6.43100 50.63900 38.25800
H  7.63100 49.24600 39.54600
H  6.55100 49.38600 40.85700
H  7.81700 50.57300 40.78600
H  4.57200 51.20200 37.59600
H  2.94100 51.24700 38.44200
H  2.68700 49.25600 37.61300
H  3.78200 48.71500 38.84800
H  11.63900 53.68700 37.77700
H  10.20600 52.71400 37.77200
H  10.97200 52.75300 39.20500
H  12.17400 58.51600 38.50900
H  11.17900 58.49300 40.05300
H  10.43700 58.61400 38.56100
H  7.11200 60.00600 40.46600
H  4.84200 59.77800 42.30500
H  6.90500 59.08500 43.43600
H  7.75700 60.56500 42.83800
H  8.46000 59.02700 42.65100
H  3.36900 59.75600 40.19400
H  4.95700 60.15000 39.38900
H  3.03700 61.88700 40.37700
H  4.72800 62.50700 40.16400
H  4.12300 61.85900 41.69700
H  0.62400 57.48800 42.54300
H  0.47700 56.32100 43.82700
H  -0.32300 56.12900 42.20700
H  2.69100 51.42100 42.85600
H  0.14100 48.94400 40.84500
H  0.95000 47.90400 42.09100
H  1.81000 48.34600 40.53400

