158

Mg 30.00500 57.71400 41.34200
C  27.31100 55.94400 40.06700
C  32.15200 55.36100 40.09200
C  32.52000 59.89400 41.94500
C  27.71800 60.30000 42.19900
N  29.68300 55.80200 40.30000
C  28.52500 55.25700 39.89000
C  28.76400 53.87600 39.14700
C  30.22200 53.57800 39.63200
C  30.71800 54.99700 40.04400
C  30.51100 52.33700 40.55700
C  28.66900 53.84800 37.60700
C  29.29000 55.05800 36.84700
H  28.31700 55.97500 36.06200
N  31.99800 57.65600 41.03500
C  32.69600 56.54700 40.54500
C  34.10800 56.90200 40.51900
C  34.26500 58.21400 41.00800
C  32.88400 58.63200 41.37700
C  35.07800 55.91900 39.98800
C  35.51700 59.05300 41.08300
O  36.53700 58.48900 40.84700
C  35.58600 60.49000 41.35100
N  30.11200 59.76500 41.96500
C  31.26500 60.36800 42.25000
C  31.08100 61.84700 42.75200
C  29.53600 61.94800 42.79800
C  29.11400 60.61700 42.23200
C  31.66600 62.09100 44.18000
C  28.94400 63.18800 42.11900
C  29.22600 64.53800 42.88100
N  27.86400 58.05400 41.32400
C  27.09200 59.09300 41.70200
C  25.73200 58.84600 41.41800
C  25.74400 57.57400 40.82500
C  27.09100 57.19600 40.71500
C  24.61700 59.89800 41.58600
C  24.94900 56.54100 40.22100
O  23.71000 56.43300 40.04300
C  25.92500 55.47600 39.71300
C  25.53400 54.19500 40.37100
O  25.52200 54.06000 41.58400
O  25.13700 53.23100 39.48100
C  24.65100 51.92400 40.09000
H  32.75800 54.56200 39.66000
H  33.26600 60.61700 42.27900
H  26.93200 61.02000 42.43900
H  28.09600 53.12000 39.56100
H  30.88000 53.36800 38.78800
H  31.41400 52.46200 41.15500
H  30.90200 51.56500 39.89400
H  29.56200 52.06000 41.01500
H  27.59900 53.76500 37.41400
H  29.21400 52.97200 37.25500
H  29.91100 54.56600 36.09800
H  29.90900 55.65500 37.51700
H  36.14900 56.11000 39.92100
H  34.66900 55.29500 39.19300
H  35.09200 55.16300 40.77400
H  34.75600 60.94700 40.81100
H  36.57800 60.72500 40.96800
H  35.47300 60.72700 42.40900
H  31.49200 62.51900 41.99900
H  29.15800 61.96900 43.82000
H  32.46900 61.36500 44.30700
H  30.97600 62.13200 45.02300
H  32.14200 63.04100 43.93700
H  27.86300 63.08200 42.20700
H  29.35900 63.26100 41.11400
H  29.72300 64.44000 43.84600
H  28.25700 64.98200 43.10600
H  29.76500 65.19900 42.20200
H  23.67800 59.36800 41.74700
H  24.57600 60.59600 40.75000
H  24.68500 60.49600 42.49500
H  25.66600 55.39000 38.65700
H  25.30400 51.36300 40.75800
H  24.51400 51.24400 39.24900
H  23.71000 52.12200 40.60300
Mg 16.39300 53.15600 27.00500
C  18.59200 51.64300 29.20300
C  14.22400 53.63700 29.66200
C  14.29900 54.37300 24.82900
C  18.67000 52.37400 24.42600
N  16.43200 52.70200 29.16800
C  17.46500 52.13000 29.82800
C  17.20600 52.23100 31.36800
C  15.68000 52.30200 31.39400
C  15.35700 52.88000 29.97700
C  15.01000 50.82500 31.65600
C  17.98900 53.40000 32.09300
C  18.23300 53.10400 33.60000
H  17.19500 52.23400 34.40600
N  14.62200 54.08900 27.25900
C  13.86700 54.21800 28.40400
C  12.63000 54.88100 28.08700
C  12.71200 55.25400 26.67000
C  13.91100 54.55600 26.20500
C  11.64500 55.39300 29.14900
C  11.73500 56.17700 25.79100
O  12.00800 56.52400 24.64700
C  10.49600 56.71500 26.46800
N  16.42300 53.29200 24.92800
C  15.37000 53.82600 24.18500
C  15.73200 54.05100 22.66500
C  17.17900 53.41700 22.69400
C  17.45100 53.00800 24.13200
C  14.86300 53.24300 21.62400
C  18.28800 54.27400 21.90100
C  19.44000 54.79300 22.72600
N  18.29500 52.12100 26.79000
C  19.05100 51.75900 25.65900
C  20.17300 51.01100 26.04500
C  20.03900 50.94800 27.42700
C  18.84800 51.64100 27.83200
C  21.18800 50.45800 25.08100
C  20.65000 50.37100 28.64100
O  21.51100 49.54500 28.79100
C  19.75600 50.92600 29.83900
C  19.36300 49.83200 30.77800
O  18.51100 48.99200 30.51700
O  19.96700 49.95700 31.97100
C  19.57500 48.98700 32.99000
H  13.48300 53.75600 30.45600
H  13.53800 54.71900 24.12700
H  19.38500 52.25000 23.61000
H  17.48100 51.30200 31.86700
H  15.25500 52.92700 32.17900
H  15.73300 50.12300 32.07300
H  14.75500 50.44300 30.66700
H  14.18300 50.99800 32.34400
H  17.37700 54.27900 31.88800
H  18.95400 53.51000 31.59800
H  18.39600 54.07700 34.06300
H  19.18400 52.58600 33.72000
H  11.64000 56.48100 29.22800
H  11.93500 55.00600 30.12600
H  10.61500 55.10200 28.93900
H  10.02600 57.40400 25.76600
H  10.93100 57.30500 27.27500
H  9.88400 55.86200 26.76100
H  15.80300 55.11200 22.42200
H  17.13100 52.43800 22.21700
H  15.14600 52.19100 21.60800
H  14.91800 53.68100 20.62800
H  13.84700 53.34600 22.00600
H  17.79300 55.11400 21.41300
H  18.80900 53.69200 21.14100
H  19.11200 54.85300 23.76400
H  19.75000 55.82900 22.58800
H  20.36900 54.22200 22.72600
H  21.28400 49.38400 25.23900
H  22.12300 51.01400 25.14600
H  20.78500 50.57700 24.07500
H  20.40300 51.62900 30.36300
H  18.57500 49.22400 33.35600
H  20.33200 49.09900 33.76600
H  19.62100 47.94900 32.66300

