158

Mg 16.66800 52.21800 26.38000
C  18.56700 50.97000 29.05800
C  14.17100 53.04600 28.47800
C  15.27400 53.90100 23.81800
C  19.17700 51.03600 24.19900
N  16.32800 51.81500 28.44200
C  17.31000 51.51400 29.41800
C  16.81900 51.71600 30.85600
C  15.37300 52.06700 30.56100
C  15.24600 52.30800 29.08500
C  14.40100 50.98900 31.04800
C  17.52200 52.90800 31.61100
C  17.36600 52.95600 33.17000
H  16.26300 52.07900 33.74700
N  14.84300 53.15100 26.18000
C  14.05900 53.52300 27.14300
C  13.10200 54.50200 26.65300
C  13.36900 54.68400 25.29700
C  14.54300 53.89400 25.06800
C  12.03200 54.94300 27.51500
C  12.58200 55.50900 24.28300
O  12.83700 55.63100 23.05400
C  11.48100 56.41100 24.84500
N  17.03200 52.36500 24.18700
C  16.44200 53.21700 23.42600
C  17.12000 53.26600 22.07400
C  18.42600 52.37100 22.22500
C  18.24600 51.88600 23.61500
C  16.11500 52.76700 21.02100
C  19.73500 53.15500 21.96600
C  21.01100 52.42400 21.46000
N  18.41700 51.21800 26.53400
C  19.34800 50.74700 25.57600
C  20.45100 50.25200 26.20800
C  20.22900 50.30300 27.60500
C  18.96200 50.87600 27.73100
C  21.68200 49.68000 25.49800
C  20.77100 50.10500 28.87800
O  21.89800 49.68200 29.21300
C  19.70400 50.56300 29.90300
C  19.37800 49.40700 30.73900
O  18.86700 48.31900 30.46200
O  19.65400 49.72000 32.07000
C  19.26900 48.72100 33.04500
H  13.49600 53.34900 29.28000
H  14.96500 54.60400 23.04100
H  20.01200 50.71500 23.57200
H  16.96300 50.74700 31.33300
H  15.06400 53.04100 30.93800
H  13.54100 50.83500 30.39700
H  14.04500 51.38500 31.99900
H  14.90900 50.03700 31.20500
H  17.23600 53.86400 31.17300
H  18.58400 52.72400 31.45400
H  17.23200 54.00300 33.44000
H  18.28500 52.56900 33.61100
H  11.03700 54.61400 27.21600
H  12.00500 56.02600 27.63800
H  12.20500 54.62100 28.54200
H  10.64100 55.80400 25.18300
H  10.98300 56.99900 24.07400
H  11.91800 57.05500 25.60800
H  17.43700 54.29400 21.89700
H  18.43800 51.57400 21.48200
H  16.60500 52.43000 20.10700
H  15.44100 53.55400 20.68300
H  15.57600 51.90500 21.41400
H  20.07200 53.67600 22.86200
H  19.57600 53.91300 21.19900
H  21.66000 52.24600 22.31700
H  21.59100 52.94000 20.69500
H  20.67500 51.43500 21.14700
H  21.28700 49.10800 24.65800
H  22.12300 48.88800 26.10300
H  22.46400 50.38300 25.21000
H  19.97500 51.43900 30.49300
H  18.20100 48.50000 33.03500
H  19.48400 48.93800 34.09100
H  19.87200 47.87900 32.70600
Mg -12.69700 37.65300 42.18800
C  -10.22500 35.28800 41.54400
C  -10.66900 40.10200 40.99300
C  -15.24200 39.70700 42.66100
C  -14.67300 34.95300 43.46500
N  -10.67600 37.70100 41.12300
C  -9.83000 36.61100 41.13500
C  -8.44300 37.04700 40.54900
C  -8.50200 38.62900 40.84100
C  -9.99600 38.85600 40.94400
C  -7.76800 39.07800 42.16000
C  -8.37300 36.55100 39.01500
C  -7.23400 35.53100 38.69700
H  -6.35400 35.93800 37.56200
N  -13.00000 39.59200 41.78100
C  -12.05300 40.46700 41.30900
C  -12.62600 41.83900 41.29000
C  -13.86700 41.72000 41.90300
C  -14.13300 40.31200 42.14900
C  -11.91800 43.05000 40.81400
C  -14.80500 42.97900 42.13100
O  -14.45500 44.09300 41.73300
C  -16.06500 42.85100 42.83200
N  -14.91900 37.36700 42.73100
C  -15.67200 38.39200 42.92700
C  -16.95600 38.01600 43.71000
C  -16.78800 36.41000 43.74700
C  -15.35500 36.17100 43.34300
C  -17.24900 38.61800 45.11200
C  -17.81200 35.58500 42.85800
C  -17.32300 35.14800 41.42000
N  -12.58200 35.56500 42.33800
C  -13.44000 34.63600 42.93100
C  -12.77700 33.36600 42.94800
C  -11.53100 33.51200 42.39100
C  -11.43200 34.89500 42.04000
C  -13.33100 32.04800 43.44600
C  -10.30700 32.89600 41.97300
O  -9.88300 31.72500 42.14900
C  -9.38100 34.04800 41.47800
C  -8.03600 34.03600 42.26300
O  -6.93000 33.86000 41.76300
O  -8.30900 34.13300 43.60400
C  -7.26200 34.15700 44.56900
H  -10.08600 40.92100 40.56800
H  -15.98900 40.46900 42.89000
H  -15.32100 34.20800 43.93300
H  -7.65800 36.58800 41.14900
H  -8.10800 39.19000 39.99300
H  -8.50700 39.18400 42.95400
H  -7.26400 40.02000 41.94200
H  -6.98500 38.36900 42.42900
H  -8.28000 37.38400 38.31900
H  -9.28900 36.06200 38.68300
H  -7.55800 34.50700 38.51300
H  -6.58000 35.44000 39.56500
H  -12.13800 43.83400 41.53900
H  -12.38600 43.36600 39.88100
H  -10.83300 42.95500 40.78400
H  -16.40100 43.86200 43.06300
H  -15.97200 42.31200 43.77500
H  -16.80300 42.29100 42.25700
H  -17.79000 38.31500 43.07500
H  -16.87800 36.04300 44.77000
H  -17.96000 39.42800 44.94900
H  -16.34100 38.96900 45.60400
H  -17.69500 37.76500 45.62200
H  -18.72700 36.15000 42.67900
H  -18.19500 34.72300 43.40300
H  -17.66000 34.11200 41.38100
H  -16.24000 35.24400 41.34600
H  -17.90000 35.49900 40.56400
H  -14.35100 31.94500 43.07600
H  -13.15000 31.96100 44.51700
H  -12.79500 31.20800 43.00300
H  -9.12000 33.78700 40.45200
H  -6.40800 33.49000 44.44800
H  -7.79800 34.11400 45.51700
H  -6.96800 35.18600 44.77700

