158

Mg 17.73300 -0.91500 27.46000
C  16.29200 0.45100 30.40100
C  19.59900 -2.96800 29.43400
C  18.86000 -2.21600 24.71600
C  15.67400 1.29400 25.51300
N  17.99500 -1.12300 29.67100
C  17.30800 -0.47400 30.70400
C  17.74800 -0.90400 32.11500
C  19.00900 -1.81000 31.73200
C  18.92600 -1.99600 30.18800
C  20.37000 -1.23800 32.21900
C  16.60200 -1.59100 32.86300
C  16.49200 -1.22600 34.38100
H  17.82000 -0.64900 35.11600
N  19.12100 -2.40300 27.12700
C  19.67400 -3.21300 28.02800
C  20.36200 -4.32000 27.35400
C  20.08900 -4.16500 25.95800
C  19.33300 -2.88900 25.88300
C  20.99400 -5.44400 28.11200
C  20.57200 -4.98700 24.81400
O  20.14800 -4.87100 23.68100
C  21.46200 -6.06400 25.23000
N  17.16000 -0.52700 25.43900
C  18.01000 -1.10900 24.53600
C  17.78800 -0.54800 23.12400
C  16.77000 0.62800 23.35800
C  16.48000 0.47600 24.81500
C  19.03600 -0.24600 22.22300
C  15.55400 0.59000 22.39000
C  15.90900 0.63900 20.86900
N  16.30400 0.54000 27.80000
C  15.51600 1.29000 26.94600
C  14.46400 1.99600 27.68500
C  14.77600 1.66000 29.07700
C  15.87000 0.79200 29.08800
C  13.40200 2.99300 27.13700
C  14.30400 1.91700 30.43900
O  13.36700 2.55800 30.92500
C  15.34200 1.14200 31.29200
C  16.12600 2.18800 32.03900
O  17.04300 2.83800 31.58400
O  15.57000 2.27000 33.31400
C  16.05400 3.41800 34.08800
H  20.14600 -3.66700 30.07100
H  19.28700 -2.54900 23.76700
H  15.08900 2.09800 25.06100
H  17.97500 -0.00900 32.69400
H  18.84900 -2.76800 32.22800
H  20.87400 -1.99500 32.82000
H  20.23700 -0.29700 32.75300
H  21.02800 -1.17200 31.35300
H  16.72200 -2.65300 32.64800
H  15.68000 -1.23300 32.40600
H  16.10500 -2.03000 35.00700
H  15.72700 -0.47000 34.20800
H  20.29900 -6.27400 28.23700
H  21.24900 -5.20100 29.14300
H  21.97000 -5.79800 27.78200
H  22.34900 -5.60300 25.66500
H  21.78900 -6.47700 24.27600
H  20.90800 -6.79000 25.82600
H  17.28100 -1.40100 22.67200
H  17.27300 1.59400 23.30900
H  18.95200 0.73200 21.75000
H  19.04900 -1.03300 21.46900
H  19.90800 -0.32900 22.87200
H  14.90400 1.43200 22.62800
H  15.00200 -0.32900 22.58600
H  15.11500 1.24600 20.43300
H  15.90200 -0.41500 20.59200
H  16.90700 0.98300 20.59900
H  12.96000 3.52200 27.98200
H  12.67400 2.38500 26.59900
H  13.78400 3.80800 26.52300
H  14.70000 0.49400 31.88900
H  17.08000 3.70100 33.85300
H  16.11700 3.18200 35.15100
H  15.41400 4.29600 34.00500
Mg 35.87000 1.87200 30.27100
C  33.19800 3.08500 32.36700
C  37.90700 2.15300 32.91800
C  38.29600 0.93700 28.34900
C  33.55000 2.05300 27.63500
N  35.52700 2.45000 32.42600
C  34.34600 2.82600 33.08400
C  34.60900 3.05800 34.61000
C  36.20000 3.02300 34.66800
C  36.58600 2.51400 33.24800
C  36.83900 4.43500 35.07700
C  33.79000 2.06300 35.46400
C  34.40500 1.50700 36.68100
H  34.91400 2.52200 37.72200
N  37.77400 1.50300 30.61300
C  38.50100 1.61600 31.76000
C  39.86100 1.17800 31.57200
C  40.01300 0.94500 30.22400
C  38.66700 1.09000 29.64500
C  40.78000 1.08200 32.76400
C  41.25600 0.58900 29.41500
O  41.30800 0.66400 28.22000
C  42.59100 0.43200 30.18100
N  35.90000 1.57800 28.28700
C  37.04100 1.14500 27.66100
C  36.85600 0.86300 26.19100
C  35.32500 1.20400 25.97400
C  34.88700 1.65500 27.36500
C  37.79000 1.65300 25.25700
C  34.44500 0.07400 25.26200
C  33.47600 0.46800 24.07500
N  33.77000 2.45900 30.00600
C  32.98700 2.48300 28.87500
C  31.66000 2.88200 29.28100
C  31.65900 3.16000 30.62200
C  32.98300 2.87200 30.99700
C  30.56100 3.19800 28.34400
C  30.89200 3.74000 31.72800
O  29.81000 4.32400 31.74400
C  31.82200 3.53500 32.93200
C  31.95400 4.82400 33.69700
O  32.76100 5.71500 33.42000
O  31.24300 4.62900 34.81900
C  31.38000 5.60000 35.81800
H  38.56700 2.35900 33.76300
H  39.00400 0.60900 27.58500
H  32.84700 2.11400 26.80100
H  34.37400 4.08100 34.90100
H  36.57400 2.30300 35.39600
H  37.40100 4.40100 36.01000
H  36.19300 5.30800 34.98500
H  37.70500 4.63600 34.44500
H  33.21900 1.27500 34.97200
H  32.96200 2.68700 35.79800
H  35.23500 0.89600 36.32700
H  33.67400 0.87600 37.18700
H  41.33100 2.01300 32.63500
H  41.43900 0.21500 32.71200
H  40.27100 1.11700 33.72800
H  42.62100 1.33000 30.79800
H  43.37600 0.19600 29.46300
H  42.35000 -0.34200 30.91100
H  37.10500 -0.19400 26.10000
H  35.31700 2.10600 25.36200
H  38.65900 1.09900 24.90200
H  38.23900 2.58900 25.58900
H  37.16200 1.97000 24.42400
H  33.94700 -0.48000 26.05700
H  35.22400 -0.59700 24.90100
H  33.76400 -0.09200 23.18600
H  33.57900 1.52300 23.82000
H  32.43800 0.36600 24.39300
H  30.32600 2.38200 27.66000
H  30.76600 4.03100 27.67300
H  29.72500 3.45300 28.99500
H  31.38200 2.71900 33.50400
H  30.42900 5.83300 36.29800
H  31.72200 6.57600 35.47400
H  31.97000 5.23000 36.65700

