158

Mg 3.30700 -0.37800 43.98200
C  6.25700 1.57000 44.14400
C  1.71400 2.33300 42.57700
C  0.61800 -2.34700 43.68600
C  5.10500 -3.09400 45.14800
N  4.06000 1.62300 43.21400
C  5.22600 2.23000 43.48600
C  5.27500 3.69500 42.99500
C  3.72900 4.01400 42.94700
C  3.06700 2.59200 42.91100
C  3.32300 4.95200 44.11400
C  6.03500 3.97900 41.64300
C  6.51700 2.64400 40.89600
H  7.02900 2.94600 39.49700
N  1.42200 -0.01800 43.19900
C  0.91300 1.12700 42.62600
C  -0.57400 0.93000 42.33500
C  -0.90900 -0.35600 42.74000
C  0.36600 -1.00300 43.21300
C  -1.44100 2.00500 41.72200
C  -2.31000 -0.90000 42.73300
O  -3.23300 -0.14300 42.41300
C  -2.82200 -2.29400 43.18900
N  2.97000 -2.49200 44.10300
C  1.72200 -3.01700 44.13200
C  1.76500 -4.53500 44.41400
C  3.24000 -4.82200 44.82300
C  3.83100 -3.42000 44.65300
C  0.60400 -5.09700 45.26200
C  4.05400 -5.86700 43.94400
C  4.69900 -6.91000 44.77800
N  5.32300 -0.80700 44.47200
C  5.91400 -1.88100 44.98900
C  7.29500 -1.66900 45.42300
C  7.45200 -0.29900 45.13300
C  6.24500 0.19200 44.51800
C  8.15800 -2.67900 46.16900
C  8.36700 0.85500 45.19300
O  9.48900 0.87400 45.67000
C  7.61400 2.09500 44.54700
C  7.58000 3.26600 45.48100
O  8.45400 4.10800 45.53500
O  6.53800 3.19100 46.34300
C  6.57200 4.08300 47.49900
H  1.05200 3.13200 42.23700
H  -0.23000 -3.01500 43.52300
H  5.59700 -4.00300 45.50000
H  5.80600 4.18800 43.80900
H  3.53100 4.56600 42.02800
H  3.12800 4.46700 45.07000
H  2.56200 5.65500 43.77500
H  4.18300 5.57800 44.34900
H  6.99200 4.48500 41.76900
H  5.41000 4.60400 41.00600
H  5.79000 1.83800 40.79800
H  7.36400 2.27000 41.47100
H  -2.03300 2.47800 42.50600
H  -2.02000 1.78900 40.82400
H  -0.73400 2.75300 41.36400
H  -2.69700 -2.34700 44.27100
H  -2.33100 -3.13200 42.69300
H  -3.87000 -2.39500 42.90700
H  1.56000 -5.02600 43.46300
H  3.28400 -5.19000 45.84800
H  0.98400 -5.99200 45.75300
H  -0.24800 -5.29200 44.61000
H  0.38800 -4.38200 46.05600
H  4.81100 -5.36900 43.33800
H  3.49600 -6.37200 43.15600
H  3.95300 -7.21300 45.51200
H  5.60300 -6.50700 45.23500
H  4.95400 -7.86800 44.32500
H  7.90900 -2.76800 47.22700
H  9.11200 -2.15200 46.17000
H  8.32700 -3.66100 45.72600
H  8.26900 2.44500 43.74900
H  5.97200 4.98300 47.37200
H  7.57000 4.41800 47.78100
H  6.28400 3.45800 48.34400
Mg -8.55700 17.99100 42.81100
C  -5.11500 17.52100 42.63700
C  -8.08200 21.34800 42.12900
C  -11.83100 18.26200 42.33300
C  -8.89000 14.41800 42.81100
N  -6.81000 19.32200 42.41800
C  -5.46800 18.89900 42.46400
C  -4.45600 20.03500 42.23100
C  -5.40400 21.26000 42.38200
C  -6.88000 20.63800 42.20300
C  -5.23400 22.22300 43.59600
C  -3.65200 19.95200 40.93100
C  -4.30500 19.23300 39.68300
H  -3.91900 19.86400 38.33500
N  -9.80200 19.60800 42.33900
C  -9.42600 20.92000 42.12800
C  -10.58700 21.71000 41.88100
C  -11.74800 20.86900 41.91600
C  -11.14900 19.48900 42.17100
C  -10.54300 23.20400 41.53500
C  -13.21100 21.25700 41.76500
O  -13.49500 22.46200 41.78000
C  -14.30200 20.30400 41.84600
N  -10.08700 16.46200 42.37200
C  -11.33300 16.92500 42.45500
C  -12.34100 15.74500 42.84100
C  -11.53400 14.47800 42.76300
C  -10.08600 15.17900 42.66900
C  -13.07500 15.97500 44.15500
C  -11.81200 13.45400 41.62500
C  -12.24500 12.01700 42.03700
N  -7.29400 16.19000 42.87000
C  -7.57600 14.88700 42.91000
C  -6.34800 14.17900 42.91700
C  -5.31300 15.18200 42.90800
C  -5.96400 16.35600 42.81600
C  -6.24500 12.65200 42.80500
C  -3.87300 15.39600 42.94700
O  -2.96400 14.61500 43.03800
C  -3.74800 16.94700 42.77900
C  -3.09200 17.31600 44.04500
O  -1.92400 17.76600 44.04700
O  -3.96300 17.23300 45.14100
C  -3.35100 17.44200 46.43900
H  -7.99800 22.42900 41.99500
H  -12.91500 18.32200 42.45300
H  -8.97100 13.33700 42.94200
H  -3.77800 19.81900 43.05600
H  -5.35000 21.99700 41.58100
H  -4.37000 21.81200 44.11800
H  -6.14300 22.18300 44.19600
H  -5.01800 23.23900 43.26400
H  -2.75300 19.39700 41.20000
H  -3.24400 20.93500 40.69400
H  -5.38100 19.40500 39.71100
H  -4.21600 18.14600 39.68600
H  -10.25700 23.51500 40.53100
H  -9.93300 23.77200 42.23800
H  -11.48200 23.69800 41.78800
H  -14.40600 19.84200 42.82700
H  -13.98100 19.53300 41.14500
H  -15.17200 20.85600 41.48900
H  -13.12800 15.77300 42.08700
H  -11.60000 13.94300 43.71000
H  -12.60900 16.79600 44.70000
H  -13.17100 15.03700 44.70100
H  -14.15000 16.04400 43.99200
H  -10.96200 13.34200 40.95200
H  -12.63700 13.90200 41.07200
H  -11.75400 11.17800 41.54400
H  -13.25500 11.77900 41.70500
H  -12.18200 11.90000 43.11900
H  -7.24700 12.23100 42.88100
H  -5.55400 12.27900 43.56100
H  -5.84600 12.42800 41.81600
H  -2.99300 17.19500 42.03200
H  -3.54600 16.59400 47.09500
H  -3.69300 18.39500 46.84000
H  -2.26900 17.57000 46.48200

