158

Mg 1.06800 -1.70700 45.05000
C  4.51900 -0.91300 44.17400
C  0.18400 1.15400 43.35500
C  -2.09200 -2.63000 45.21200
C  2.22500 -4.83200 46.12000
N  2.25100 -0.08100 44.04100
C  3.62700 0.05400 43.85500
C  3.92600 1.29700 43.06200
C  2.48800 2.09600 43.02300
C  1.55400 0.98700 43.57300
C  2.33900 3.41700 43.83100
C  4.51800 1.02300 41.63300
C  5.92700 1.66300 41.35500
H  6.81000 0.92100 40.31000
N  -0.74000 -0.82100 44.49900
C  -0.88600 0.36600 43.79500
C  -2.28800 0.64400 43.56800
C  -2.98900 -0.35500 44.30700
C  -1.94400 -1.35900 44.71300
C  -2.88800 1.81200 42.80200
C  -4.46600 -0.37400 44.75800
O  -5.26200 0.48000 44.29600
C  -5.00200 -1.40200 45.78700
N  0.14100 -3.47000 45.79800
C  -1.17900 -3.62800 45.67700
C  -1.62900 -5.03900 46.01200
C  -0.25100 -5.72100 46.45400
C  0.81100 -4.64400 46.05700
C  -2.86500 -5.06400 47.07800
C  -0.17800 -7.16000 45.73900
C  -0.48200 -8.40000 46.58500
N  2.99500 -2.69000 45.28900
C  3.18700 -3.92200 45.71000
C  4.70600 -4.07300 45.82100
C  5.21300 -2.88100 45.20100
C  4.13300 -2.14200 44.80800
C  5.38400 -5.28700 46.31600
C  6.39400 -2.24300 44.84400
O  7.55300 -2.61700 45.03700
C  6.04300 -1.00800 43.98000
C  6.71100 0.17100 44.69700
O  6.40000 0.52400 45.80700
O  7.80500 0.63200 43.92600
C  8.36100 1.72100 44.70700
H  0.03200 2.10400 42.83800
H  -3.11000 -3.02600 45.19300
H  2.60600 -5.78000 46.50600
H  4.55600 1.96700 43.64700
H  2.28800 2.37200 41.98700
H  1.91900 4.16600 43.16000
H  3.35300 3.65800 44.15000
H  1.72400 3.35200 44.72900
H  3.80700 1.17900 40.82200
H  4.66200 -0.05700 41.60100
H  6.43400 1.84100 42.30400
H  5.59600 2.61500 40.93900
H  -3.93600 1.53500 42.68300
H  -2.22100 2.02500 41.96600
H  -2.71500 2.59400 43.54100
H  -4.19000 -1.73000 46.43600
H  -5.47300 -2.20900 45.22500
H  -5.77500 -0.97900 46.42900
H  -2.09800 -5.46300 45.12400
H  -0.35100 -5.72200 47.53900
H  -2.52400 -5.51100 48.01300
H  -3.63700 -5.73900 46.70900
H  -3.29200 -4.11600 47.40400
H  0.87700 -7.22100 45.47300
H  -0.78000 -7.13900 44.83100
H  0.40500 -8.69800 47.14400
H  -0.88900 -9.22100 45.99500
H  -1.29000 -8.23700 47.29800
H  5.50200 -5.99300 45.49400
H  4.90400 -5.57400 47.25200
H  6.37600 -4.91300 46.56800
H  6.41700 -1.15700 42.96700
H  9.21600 2.11600 44.15800
H  8.87600 1.33300 45.58600
H  7.72800 2.56900 44.96800
Mg 42.26600 41.52100 26.95300
C  41.14500 43.87200 29.37800
C  43.06800 39.49500 29.54600
C  43.50200 39.43400 24.67000
C  42.26200 44.08600 24.60200
N  42.22700 41.73300 29.29200
C  41.61100 42.67400 29.95200
C  41.43200 42.25100 31.42000
C  42.17400 40.84300 31.47400
C  42.55200 40.69200 30.01400
C  43.37000 40.70400 32.44900
C  39.96900 42.05200 31.90000
C  39.39300 43.10100 32.89900
H  38.94700 42.61200 34.27500
N  43.10500 39.65500 27.08100
C  43.34100 39.01900 28.26500
C  43.88600 37.65200 27.94100
C  43.96500 37.65600 26.44600
C  43.46100 38.93200 25.95600
C  44.31000 36.69600 29.01300
C  44.42800 36.55600 25.57400
O  44.64400 36.70100 24.34400
C  44.57400 35.16600 26.12100
N  42.61800 41.62400 24.87500
C  43.16900 40.65700 24.15200
C  43.50700 41.05500 22.70900
C  42.91500 42.52900 22.66800
C  42.61500 42.79000 24.17600
C  44.90600 40.97600 22.26900
C  41.67000 42.71200 21.75700
C  40.34200 42.03900 22.17400
N  41.73400 43.55600 26.94800
C  41.77200 44.44800 25.87400
C  41.20800 45.70800 26.30800
C  40.83800 45.49500 27.64900
C  41.18400 44.13900 27.99300
C  41.07500 46.97200 25.45400
C  40.17900 46.09800 28.74100
O  39.78200 47.27200 28.90200
C  40.43900 45.08200 30.01400
C  41.28600 45.74900 31.05200
O  42.50100 45.82100 30.96800
O  40.50700 46.29900 32.08800
C  41.25300 46.95900 33.10600
H  43.26600 38.78900 30.35500
H  43.79600 38.74500 23.87600
H  42.18700 44.90500 23.88400
H  42.08700 42.86400 32.03900
H  41.58900 39.96500 31.74600
H  44.26500 40.96100 31.88400
H  43.55000 39.67000 32.74400
H  43.14000 41.25300 33.36200
H  39.89400 41.05100 32.32600
H  39.27400 42.03700 31.06000
H  38.50300 43.56200 32.47100
H  40.01700 43.99200 32.96400
H  43.53500 35.93000 29.04200
H  44.55200 37.25900 29.91500
H  45.22600 36.31000 28.56600
H  45.56400 35.21500 26.57500
H  44.60900 34.36000 25.38700
H  43.81900 34.81400 26.82500
H  42.98500 40.46800 21.95400
H  43.62300 43.31000 22.39100
H  45.35800 41.96400 22.34800
H  44.96200 40.61000 21.24400
H  45.43800 40.29200 22.93100
H  41.91600 42.37300 20.75100
H  41.38800 43.75400 21.60700
H  40.49900 41.51800 23.11800
H  39.95300 41.21400 21.57700
H  39.53700 42.75400 22.34300
H  40.19200 46.94400 24.81600
H  41.92900 47.08100 24.78500
H  40.95800 47.82700 26.12000
H  39.56900 44.78600 30.60200
H  41.66900 46.23200 33.80400
H  40.58800 47.57200 33.71500
H  41.92400 47.67900 32.63800

