158

Mg 35.46000 2.86800 29.33200
C  33.35200 3.59900 32.07200
C  38.10600 3.25300 31.32500
C  37.34900 2.27700 26.50700
C  32.60200 2.98200 27.21500
N  35.70400 3.53700 31.53800
C  34.73700 3.45500 32.48200
C  35.37800 3.44000 33.88700
C  36.98800 3.53200 33.60500
C  36.91400 3.48100 32.06700
C  37.68600 4.78200 34.08000
C  34.87400 2.25000 34.82600
C  34.36300 2.55200 36.20400
H  34.98800 3.78300 36.84300
N  37.37600 2.80900 28.96700
C  38.31700 2.93600 29.92900
C  39.69100 2.81100 29.34400
C  39.46800 2.58000 27.92800
C  37.99500 2.59500 27.73300
C  41.06100 2.92300 30.03300
C  40.48400 2.32700 26.81400
O  40.18900 2.34200 25.64000
C  41.86400 2.03400 27.17100
N  35.06400 2.64100 27.14900
C  35.97400 2.34300 26.23100
C  35.30400 2.37800 24.78100
C  33.80400 2.26800 25.13000
C  33.79600 2.69300 26.60000
C  35.72400 3.65400 24.00300
C  33.13400 0.90600 24.88000
C  33.15400 -0.07500 26.11200
N  33.41700 3.32600 29.51900
C  32.39800 3.42000 28.62400
C  31.19500 3.78000 29.28500
C  31.49200 3.83400 30.65800
C  32.87000 3.56000 30.70900
C  29.86300 3.97600 28.63900
C  30.95900 4.16200 31.93800
O  29.87700 4.56500 32.17300
C  32.14100 3.92400 32.98800
C  32.31400 5.12700 33.79500
O  32.62900 6.23700 33.32300
O  31.86400 4.88000 35.07800
C  31.56500 6.06700 35.97300
H  39.03600 3.25700 31.89700
H  37.92400 1.95100 25.63800
H  31.69000 2.86200 26.62800
H  35.15600 4.40300 34.34700
H  37.57200 2.71600 34.03100
H  38.53200 4.50900 34.71100
H  36.95200 5.23200 34.74800
H  37.87200 5.44200 33.23300
H  35.65000 1.48900 34.91300
H  34.07200 1.83100 34.21800
H  34.62600 1.66600 36.78200
H  33.29900 2.75900 36.09200
H  41.68600 3.57400 29.42100
H  41.53400 1.94500 30.12300
H  41.00200 3.31400 31.04800
H  42.05300 1.39100 28.03000
H  42.42300 2.96700 27.24500
H  42.27500 1.43800 26.35600
H  35.63600 1.56700 24.13300
H  33.26800 3.01000 24.53800
H  36.55400 4.15100 24.50600
H  34.89200 4.28000 23.68200
H  36.16100 3.29600 23.07100
H  33.69500 0.34900 24.12900
H  32.05600 0.95700 24.72700
H  33.56700 -1.06700 25.92600
H  32.15300 -0.04100 26.54200
H  33.85900 0.30700 26.85000
H  29.58700 3.14300 27.99300
H  29.90200 4.86600 28.01200
H  29.11300 4.17200 29.40600
H  31.85500 3.08200 33.61900
H  30.49100 6.17200 35.81700
H  32.04900 7.03500 35.84500
H  31.63400 5.76000 37.01600
Mg 1.04400 42.17700 25.44000
C  3.06800 42.16500 28.34200
C  -1.59800 41.21100 27.39000
C  -0.70200 41.53100 22.54500
C  3.84600 42.95300 23.63800
N  0.80000 41.60400 27.64700
C  1.66900 41.97600 28.63100
C  1.06000 42.00200 30.05600
C  -0.35800 41.45500 29.67200
C  -0.42600 41.43200 28.17400
C  -0.66500 40.01100 30.21100
C  0.91800 43.38900 30.74000
C  1.29700 43.44000 32.27400
H  0.72600 42.24100 33.04200
N  -0.87500 41.53300 25.01600
C  -1.81400 41.24300 25.95900
C  -3.03800 40.96100 25.31500
C  -2.82300 40.99800 23.86800
C  -1.39800 41.37300 23.74200
C  -4.34600 40.60600 26.03900
C  -3.67600 40.62600 22.70300
O  -3.37900 40.69700 21.54400
C  -5.08700 40.31300 22.92700
N  1.49000 42.21900 23.37300
C  0.63300 41.88700 22.35600
C  1.33200 41.99100 21.00600
C  2.74300 42.69200 21.43400
C  2.71900 42.64600 22.92000
C  1.50700 40.65500 20.21600
C  2.91100 44.16500 20.98700
C  4.07000 44.55200 20.11200
N  3.07700 42.49800 25.83400
C  4.10200 42.86700 24.98000
C  5.31900 42.96400 25.68600
C  5.04900 42.61600 27.08000
C  3.65500 42.35000 27.09100
C  6.71500 43.20600 25.11600
C  5.52000 42.41700 28.42500
O  6.64400 42.49800 28.89600
C  4.23500 42.29800 29.34400
C  4.37700 41.19500 30.30000
O  4.03200 40.05900 30.01700
O  4.67000 41.64600 31.53000
C  4.50800 40.68200 32.63400
H  -2.44800 41.25000 28.07400
H  -1.15400 41.23900 21.59500
H  4.64300 43.30700 22.98100
H  1.43300 41.25800 30.76100
H  -1.15500 42.11400 30.01700
H  -1.64500 39.96000 30.68600
H  0.07500 39.70300 30.95100
H  -0.74400 39.37300 29.33200
H  -0.09800 43.78400 30.75100
H  1.62500 44.13900 30.38500
H  0.83200 44.32700 32.70400
H  2.38000 43.56500 32.29900
H  -5.07500 41.41100 25.94600
H  -4.29000 40.53600 27.12600
H  -4.77000 39.67800 25.65600
H  -5.31400 39.38600 23.45300
H  -5.64900 40.38000 21.99600
H  -5.56600 41.14700 23.44000
H  0.66600 42.61400 20.40900
H  3.59000 42.03900 21.22200
H  0.81700 39.95900 20.69200
H  2.45900 40.12400 20.21300
H  1.25900 40.81600 19.16700
H  2.99700 44.85800 21.82300
H  2.04500 44.47600 20.40200
H  4.47400 45.45800 20.56300
H  3.84700 44.70800 19.05600
H  4.81600 43.75900 20.15300
H  6.62500 43.94300 24.31900
H  7.19800 42.31900 24.70400
H  7.40800 43.40300 25.93500
H  4.21700 43.28500 29.80500
H  5.49600 40.31800 32.91400
H  3.79700 39.86900 32.48500
H  4.14200 41.12900 33.55800

