158

Mg 43.79200 4.51400 47.85600
C  41.62900 7.20000 47.23100
C  41.26000 2.36900 47.52600
C  46.05000 2.11600 47.65100
C  46.54100 6.91200 47.82400
N  41.68300 4.70100 47.36000
C  41.01800 5.90200 47.23400
C  39.48700 5.65500 47.10600
C  39.31200 4.11000 47.40100
C  40.77800 3.71300 47.61600
C  38.36300 3.70300 48.58400
C  39.05500 6.06700 45.64300
C  37.82900 6.93600 45.45900
H  37.10900 6.85000 44.11800
N  43.64900 2.51000 47.58100
C  42.51800 1.82400 47.53900
C  42.83100 0.38900 47.55300
C  44.26600 0.27300 47.41800
C  44.74000 1.67600 47.54700
C  41.70400 -0.63200 47.62200
C  45.01800 -1.04500 47.30900
O  44.45000 -2.12400 47.31100
C  46.50400 -1.00800 47.08600
N  45.94200 4.49600 47.66500
C  46.58000 3.34000 47.76800
C  48.14600 3.54300 47.84100
C  48.31100 5.11300 47.75000
C  46.81800 5.55400 47.74700
C  48.81900 2.87300 49.10100
C  49.01000 5.62900 46.47000
C  50.42200 6.07500 46.63000
N  44.07900 6.65400 47.73600
C  45.24000 7.47100 47.66500
C  44.78100 8.86800 47.53300
C  43.38600 8.86100 47.49200
C  42.98900 7.46800 47.44200
C  45.67200 10.04700 47.29900
C  42.16900 9.61700 47.31300
O  42.07000 10.84900 47.33000
C  40.96600 8.52800 47.06900
C  39.92100 8.81400 48.05900
O  39.89900 8.40400 49.18100
O  38.84000 9.49500 47.46000
C  37.72500 9.82800 48.38400
H  40.42300 1.66900 47.49000
H  46.86400 1.39300 47.73300
H  47.33400 7.66200 47.85000
H  38.99400 6.26500 47.86300
H  38.92900 3.62200 46.50400
H  37.61900 2.96000 48.29700
H  37.73900 4.53700 48.90500
H  38.94500 3.37400 49.44500
H  38.75100 5.15200 45.13600
H  39.88300 6.52400 45.10200
H  38.19200 7.96300 45.41700
H  37.12400 6.78000 46.27500
H  40.83200 -0.31300 48.19300
H  42.21000 -1.40300 48.20400
H  41.35200 -1.10400 46.70500
H  46.86800 -0.40100 46.25800
H  46.85500 -1.99000 46.76900
H  47.09000 -0.78300 47.97800
H  48.58400 3.17200 46.91400
H  48.63600 5.64600 48.64300
H  49.59100 2.13200 48.89400
H  48.03100 2.51400 49.76300
H  49.29500 3.70900 49.61400
H  48.42900 6.40900 45.97700
H  49.03700 4.86500 45.69200
H  50.83800 5.78200 45.66500
H  50.97900 5.55000 47.40600
H  50.60600 7.13700 46.79100
H  46.37500 9.83100 46.49400
H  46.16900 10.34600 48.22200
H  44.95000 10.83100 47.07100
H  40.41100 8.74500 46.15700
H  37.61300 9.02800 49.11600
H  36.80300 10.18100 47.92200
H  38.10500 10.70000 48.91500
Mg -11.57700 16.18000 42.44200
C  -8.17700 17.16600 42.30700
C  -12.40500 19.50600 42.22700
C  -14.85100 15.24400 42.07900
C  -10.59900 12.84900 42.29200
N  -10.38300 18.12500 42.37300
C  -9.05700 18.27400 42.28600
C  -8.65600 19.71100 41.98400
C  -10.06600 20.46500 42.34800
C  -11.05600 19.33000 42.30100
C  -9.94400 21.21900 43.73300
C  -8.19100 19.84300 40.42000
C  -7.04500 20.79300 40.10600
H  -6.02400 20.18900 39.09100
N  -13.39400 17.18600 42.33800
C  -13.48700 18.62700 42.22500
C  -14.87700 18.93200 42.12900
C  -15.61500 17.71000 42.15900
C  -14.64800 16.63000 42.21300
C  -15.32900 20.25700 41.99500
C  -17.17700 17.63900 42.22600
O  -17.83200 18.66200 42.29800
C  -17.97000 16.28600 42.36100
N  -12.56900 14.34300 42.31900
C  -13.91200 14.21100 42.18400
C  -14.29400 12.75800 42.28000
C  -12.99000 11.97400 42.00600
C  -11.96300 13.09600 42.27300
C  -14.78900 12.52200 43.62600
C  -12.86000 11.47900 40.52100
C  -13.60200 10.20400 40.35100
N  -9.75900 15.20300 42.15600
C  -9.49100 13.79900 42.22200
C  -8.07100 13.52600 42.24800
C  -7.52900 14.84400 42.24500
C  -8.61200 15.81200 42.24600
C  -7.40500 12.18700 42.45000
C  -6.28900 15.62500 42.36300
O  -5.11800 15.28800 42.41400
C  -6.68000 17.12600 42.42300
C  -6.22800 17.59400 43.81900
O  -6.01100 16.88300 44.82200
O  -5.91700 18.96000 43.87300
C  -5.36300 19.56000 45.11400
H  -12.62400 20.56700 42.09300
H  -15.88600 14.92000 41.95400
H  -10.17900 11.84600 42.18800
H  -7.82800 19.96600 42.64400
H  -10.26400 21.23400 41.60200
H  -10.63300 20.79800 44.46500
H  -10.23500 22.25800 43.57700
H  -8.93100 21.08000 44.11100
H  -9.03400 20.13100 39.79100
H  -7.85600 18.86100 40.08800
H  -6.49200 21.01500 41.01800
H  -7.48900 21.76100 39.87200
H  -14.56900 21.03800 42.02000
H  -15.95500 20.52500 42.84600
H  -15.83800 20.35400 41.03600
H  -18.95200 16.51100 42.77700
H  -17.42000 15.71900 43.11200
H  -18.08400 15.80400 41.39000
H  -15.05500 12.36700 41.60500
H  -12.87500 11.18800 42.75300
H  -15.22000 13.41100 44.08500
H  -14.12600 12.12800 44.39700
H  -15.56200 11.75600 43.57200
H  -11.83800 11.26200 40.20800
H  -13.26000 12.31400 39.94500
H  -14.47800 10.43100 39.74300
H  -13.84100 9.80300 41.33600
H  -12.99700 9.40100 39.92900
H  -7.31700 11.94200 43.50800
H  -6.46200 12.07500 41.91500
H  -7.99500 11.33500 42.11100
H  -6.13200 17.52200 41.56800
H  -5.56700 20.63000 45.11100
H  -4.27600 19.63800 45.13400
H  -5.72300 19.16200 46.06400

