158

Mg 1.07500 7.52200 25.79700
C  1.72500 9.49000 28.66300
C  1.30700 4.71800 27.71600
C  0.87100 5.75300 22.87300
C  1.21300 10.38500 23.81900
N  1.43000 7.20800 27.94600
C  1.49800 8.14600 28.99000
C  1.22800 7.44400 30.33400
C  1.52500 5.90800 30.02400
C  1.49200 5.91800 28.47900
C  2.87400 5.18500 30.56400
C  -0.28600 7.81200 30.84700
C  -0.33700 8.13800 32.35100
H  0.67000 7.49400 33.24900
N  0.87900 5.58800 25.41400
C  1.07400 4.59500 26.32100
C  0.87200 3.32400 25.68000
C  0.85600 3.53900 24.19200
C  0.85400 5.02800 24.13800
C  0.80700 1.99100 26.45800
C  0.67100 2.53200 23.16200
O  0.74500 2.75600 21.95500
C  0.39700 1.04300 23.53000
N  1.09000 7.93800 23.67200
C  0.93500 7.07700 22.66000
C  1.00800 7.77400 21.27600
C  0.67700 9.22100 21.64500
C  1.00600 9.18800 23.14700
C  2.29700 7.63200 20.41200
C  -0.79800 9.76800 21.21800
C  -0.84200 11.07100 20.35700
N  1.60900 9.51200 26.05600
C  1.51900 10.52600 25.19100
C  1.67200 11.78900 25.86400
C  1.80600 11.46000 27.19500
C  1.69200 10.06900 27.30700
C  1.69600 13.23400 25.33300
C  2.03700 11.99700 28.60000
O  2.21500 13.14800 29.00000
C  1.76300 10.69900 29.64200
C  2.89200 10.66700 30.63400
O  3.98900 10.12400 30.55800
O  2.38500 11.11100 31.80800
C  3.24800 11.15700 32.92300
H  1.35400 3.89600 28.43300
H  0.83600 5.16600 21.95300
H  1.05000 11.29500 23.23700
H  1.99800 7.79900 31.01900
H  0.67600 5.37100 30.44700
H  3.30500 4.61100 29.74400
H  2.76800 4.61900 31.48900
H  3.59600 5.98600 30.72600
H  -0.96000 6.97600 30.66000
H  -0.63300 8.68800 30.29900
H  -1.26300 7.80500 32.81900
H  -0.27700 9.20600 32.56400
H  1.66000 1.33300 26.29200
H  -0.15300 1.56800 26.16200
H  0.84300 2.20000 27.52700
H  1.29300 0.64900 24.01100
H  0.15400 0.40300 22.68200
H  -0.44300 0.99100 24.22200
H  0.21100 7.31600 20.69100
H  1.41700 9.88200 21.19400
H  3.11000 7.61400 21.13900
H  2.41400 8.50200 19.76700
H  2.22900 6.74700 19.77900
H  -1.38900 9.88200 22.12600
H  -1.41300 8.98900 20.76700
H  -1.43600 10.99600 19.44700
H  0.17900 11.30900 20.05800
H  -1.25400 11.82800 21.02400
H  0.78200 13.72800 25.66100
H  1.46700 13.33600 24.27200
H  2.57900 13.84500 25.52300
H  0.80000 10.75500 30.15000
H  2.77800 11.48400 33.85000
H  4.10300 11.79200 32.69000
H  3.53600 10.13400 33.16700
Mg -1.71700 34.83100 26.81300
C  -3.21600 32.93500 29.38500
C  -0.67600 37.08300 29.13200
C  -0.57000 36.69500 24.25900
C  -3.25000 32.65800 24.46400
N  -1.91800 34.99200 28.98700
C  -2.52300 34.07100 29.83300
C  -2.37000 34.52100 31.34900
C  -1.67300 35.88700 31.16700
C  -1.42900 36.00400 29.65400
C  -2.45900 37.04600 31.75000
C  -1.41900 33.51300 32.07000
C  -1.90200 32.88200 33.37300
H  -0.85800 32.79500 34.48900
N  -0.66500 36.61600 26.66500
C  -0.29500 37.39100 27.77100
C  0.44800 38.51900 27.32800
C  0.46500 38.41200 25.87900
C  -0.28800 37.22600 25.49600
C  0.99400 39.59500 28.18000
C  1.13300 39.45400 24.87200
O  1.19000 39.18300 23.64800
C  1.92300 40.61100 25.38000
N  -1.94000 34.78300 24.60400
C  -1.31100 35.63900 23.80100
C  -1.53400 35.24000 22.34900
C  -2.33200 33.88000 22.41600
C  -2.52500 33.75200 23.94700
C  -2.31200 36.38300 21.53200
C  -1.81100 32.54600 21.73600
C  -0.50800 32.08600 22.29400
N  -3.03300 33.21300 26.81400
C  -3.58800 32.44500 25.81600
C  -4.38600 31.37500 26.40600
C  -4.27900 31.52700 27.78600
C  -3.42400 32.58200 28.06100
C  -5.18900 30.32600 25.60000
C  -4.68900 30.92500 29.11400
O  -5.38200 29.99400 29.37300
C  -3.87200 31.81400 30.18800
C  -4.96500 32.23900 31.12900
O  -5.52700 33.35300 31.08000
O  -5.10800 31.31700 32.17300
C  -6.08700 31.59400 33.20000
H  -0.50600 37.88400 29.85400
H  -0.05200 37.13400 23.40300
H  -3.73500 31.97400 23.76500
H  -3.39600 34.57600 31.71100
H  -0.65200 35.96500 31.54200
H  -3.31900 36.60400 32.25300
H  -2.88400 37.58300 30.90200
H  -1.80700 37.60500 32.42000
H  -0.42000 33.89900 32.27300
H  -1.25100 32.69200 31.37300
H  -2.05200 31.82300 33.16600
H  -2.83500 33.30200 33.75200
H  2.06000 39.65500 27.95900
H  0.88400 39.34500 29.23500
H  0.53700 40.54900 27.91900
H  1.14300 41.27200 25.75800
H  2.48000 40.96100 24.51100
H  2.61000 40.28600 26.16100
H  -0.56500 34.90600 21.97900
H  -3.31700 34.14600 22.03300
H  -2.73900 37.01800 22.30800
H  -3.07100 35.87000 20.94100
H  -1.55600 36.93300 20.97200
H  -1.67000 32.65300 20.66100
H  -2.57700 31.78700 21.89700
H  0.26200 32.08000 21.52200
H  -0.54100 31.06300 22.66900
H  -0.15800 32.73600 23.09600
H  -6.04300 30.70500 25.04000
H  -5.55300 29.51200 26.22700
H  -4.47500 29.87400 24.91100
H  -3.13300 31.23700 30.74400
H  -5.76200 32.43400 33.81500
H  -6.13600 30.73600 33.87100
H  -7.05300 31.90700 32.80300

