158

Mg -3.35300 17.43100 26.63800
C  -3.72900 15.10500 29.28200
C  -3.20500 19.93400 28.77500
C  -3.41600 19.55900 23.94800
C  -3.94900 14.74800 24.34600
N  -3.44400 17.48200 28.66300
C  -3.55400 16.44600 29.62100
C  -3.42200 16.95200 31.06200
C  -3.30400 18.49900 30.90000
C  -3.41900 18.64000 29.34400
C  -4.43200 19.39500 31.61500
C  -2.25400 16.35000 31.99600
C  -1.88700 17.07800 33.33600
H  -2.03600 16.38300 34.67100
N  -3.33900 19.51100 26.34200
C  -3.19600 20.35900 27.41200
C  -3.13600 21.73000 26.93900
C  -3.05600 21.62900 25.52100
C  -3.22200 20.20500 25.18000
C  -3.16600 22.98600 27.78300
C  -2.77300 22.64000 24.44100
O  -2.58100 22.32400 23.23400
C  -2.64200 24.06400 24.83000
N  -3.77400 17.20800 24.45700
C  -3.65800 18.24100 23.63100
C  -3.79700 17.74000 22.09000
C  -3.88200 16.27400 22.25400
C  -3.88000 16.05000 23.76600
C  -4.99400 18.38500 21.41000
C  -2.68700 15.42800 21.52400
C  -1.24400 15.71400 22.05400
N  -3.82600 15.41800 26.71000
C  -3.87000 14.43900 25.70600
C  -3.97900 13.11400 26.28500
C  -4.05700 13.33600 27.69200
C  -3.88100 14.69200 27.94100
C  -4.09400 11.87100 25.60200
C  -4.26300 12.71900 28.96100
O  -4.36300 11.52900 29.37400
C  -4.14700 13.82300 30.08600
C  -2.99700 13.29900 30.95200
O  -1.79800 13.41000 30.76300
O  -3.49100 12.50400 31.96700
C  -2.60000 11.76600 32.85500
H  -3.10400 20.77600 29.46200
H  -3.36700 20.21000 23.07300
H  -4.11500 13.89400 23.68600
H  -4.31800 16.74100 31.64500
H  -2.35100 18.81000 31.33000
H  -5.41200 18.92300 31.68200
H  -4.55300 20.32900 31.06600
H  -4.08800 19.71000 32.60000
H  -1.35600 16.31100 31.37900
H  -2.53400 15.34700 32.31800
H  -2.56100 17.93100 33.41500
H  -0.85900 17.43900 33.30900
H  -2.22500 23.53600 27.80200
H  -3.42300 22.76900 28.82000
H  -3.85900 23.74300 27.41700
H  -3.58400 24.26300 25.34000
H  -2.44200 24.72100 23.98400
H  -1.75800 24.03800 25.46800
H  -2.89900 18.04300 21.55300
H  -4.84200 15.90600 21.88900
H  -4.66000 18.80600 20.46200
H  -5.41000 19.17800 22.03000
H  -5.78000 17.67400 21.15300
H  -2.64300 15.70500 20.47100
H  -2.96800 14.37500 21.52000
H  -0.67200 15.93300 21.15100
H  -0.71600 14.82100 22.38800
H  -1.13300 16.48300 22.81800
H  -3.44700 11.12200 26.05800
H  -3.68200 11.88300 24.59300
H  -5.12800 11.53900 25.50700
H  -5.03700 14.03600 30.67800
H  -1.91100 11.08700 32.35300
H  -3.09000 11.13900 33.60000
H  -2.10800 12.55500 33.42500
Mg -12.18400 38.72000 41.36700
C  -9.86600 36.08900 40.58200
C  -9.89700 40.94800 39.69200
C  -14.47700 41.17300 41.29800
C  -14.51500 36.47500 42.18800
N  -10.09900 38.45700 40.14600
C  -9.38500 37.31600 40.04300
C  -8.12300 37.51700 39.17500
C  -8.08600 39.08900 39.00800
C  -9.45600 39.58500 39.66300
C  -6.79600 39.80600 39.55100
C  -8.15400 36.80100 37.78400
C  -7.00600 35.89200 37.42300
H  -5.90600 36.51000 36.56400
N  -12.12900 40.84700 40.79800
C  -11.04900 41.51300 40.24700
C  -11.44100 42.89100 40.02000
C  -12.79700 43.01500 40.38600
C  -13.22900 41.66200 40.85000
C  -10.54300 43.92800 39.33100
C  -13.63800 44.29600 40.36500
O  -13.05400 45.28500 40.00700
C  -15.09900 44.41400 40.76000
N  -14.12700 38.80000 41.65300
C  -14.83700 39.91400 41.73300
C  -16.23100 39.67600 42.26000
C  -16.30100 38.15100 42.28100
C  -14.90300 37.77800 42.08000
C  -16.48600 40.51300 43.48800
C  -17.30100 37.46900 41.34300
C  -18.15100 36.29700 41.94700
N  -12.16000 36.74100 41.54100
C  -13.21800 35.92100 41.92700
C  -12.75700 34.61400 42.15100
C  -11.45400 34.66900 41.55800
C  -11.14100 35.99200 41.20700
C  -13.47700 33.48700 42.81100
C  -10.30700 33.82500 41.26800
O  -10.11700 32.61200 41.53200
C  -9.28900 34.72400 40.65600
C  -7.98600 34.47800 41.42300
O  -7.27000 33.52900 41.27200
O  -7.77100 35.45100 42.37100
C  -6.73100 35.09000 43.26100
H  -9.24700 41.58400 39.08700
H  -15.33300 41.85000 41.30700
H  -15.34000 35.79200 42.40100
H  -7.29600 37.16500 39.79200
H  -8.17500 39.38300 37.96300
H  -6.23600 39.12700 40.19300
H  -6.92700 40.72000 40.13100
H  -6.09800 40.11200 38.77100
H  -8.42000 37.44500 36.94500
H  -8.98900 36.11900 37.93800
H  -7.22800 34.97300 36.88100
H  -6.51400 35.65100 38.36500
H  -11.07900 44.65900 38.72500
H  -9.81100 43.39200 38.72700
H  -9.87100 44.29200 40.10900
H  -15.41300 45.45300 40.65400
H  -15.27900 44.26100 41.82400
H  -15.84900 43.80900 40.25000
H  -16.92700 39.93900 41.46400
H  -16.62200 37.90500 43.29300
H  -15.62400 41.16600 43.62800
H  -16.60100 39.95600 44.41700
H  -17.35600 41.13400 43.27300
H  -16.65900 37.13700 40.52800
H  -17.92000 38.23400 40.87500
H  -19.13200 36.27800 41.47200
H  -18.28000 36.45900 43.01700
H  -17.65700 35.34000 41.78300
H  -12.71700 32.84300 43.25400
H  -14.14000 33.07400 42.05100
H  -13.94700 33.98100 43.66100
H  -9.10500 34.46200 39.61400
H  -5.81200 34.91300 42.70100
H  -6.91400 34.17400 43.82200
H  -6.65400 35.90100 43.98500

