158

Mg -0.14300 7.36800 26.70200
C  0.36600 9.84500 29.22800
C  -0.19700 5.08800 29.21900
C  -0.03600 5.14600 24.34000
C  0.09000 10.03900 24.27100
N  0.20600 7.44200 28.91000
C  0.29000 8.54200 29.70800
C  0.41800 8.14000 31.22100
C  0.51600 6.58400 31.16500
C  0.04100 6.36300 29.68400
C  2.00300 6.12700 31.49500
C  -0.76800 8.66900 32.12800
C  -0.40500 9.23300 33.51400
H  -0.84800 8.64500 34.85600
N  -0.23100 5.35700 26.74700
C  -0.24400 4.58700 27.87700
C  -0.49700 3.22000 27.46500
C  -0.33800 3.15300 26.07100
C  -0.20300 4.60100 25.66900
C  -0.68900 2.03100 28.50500
C  -0.51800 1.97000 25.06900
O  -0.35500 2.11200 23.88200
C  -0.71900 0.61200 25.52400
N  0.27200 7.54800 24.55900
C  0.12000 6.49100 23.81000
C  0.12400 6.88400 22.36100
C  -0.36800 8.40000 22.34000
C  -0.02600 8.67100 23.79600
C  1.42500 6.62200 21.60400
C  -1.87700 8.60700 22.02200
C  -2.27500 9.90600 21.40600
N  0.16900 9.50800 26.68000
C  0.26000 10.45400 25.63200
C  0.48100 11.82200 26.11600
C  0.40300 11.58900 27.53400
C  0.37500 10.21800 27.83300
C  0.54200 13.15000 25.38900
C  0.54200 12.28800 28.81300
O  0.68300 13.48600 29.09500
C  0.40500 11.16000 29.93100
C  1.57500 11.20600 30.83000
O  2.75000 11.03300 30.67200
O  1.05400 11.50900 32.07400
C  2.10900 11.84500 33.04400
H  -0.34100 4.35100 30.01100
H  -0.08400 4.43700 23.51100
H  0.07200 10.85700 23.54900
H  1.29900 8.69500 31.54100
H  -0.11800 6.17700 31.95300
H  2.42200 5.55700 30.66600
H  2.03400 5.47500 32.36700
H  2.73200 6.88400 31.78400
H  -1.56100 7.92200 32.12000
H  -1.22300 9.51600 31.61300
H  -0.71100 10.27900 33.46900
H  0.68100 9.30300 33.44300
H  -1.38000 1.30700 28.07300
H  -1.04200 2.19100 29.52400
H  0.31400 1.62800 28.64200
H  -1.79000 0.51800 25.70300
H  0.00600 0.33700 26.28900
H  -0.46800 -0.03500 24.68400
H  -0.65700 6.24400 21.95000
H  0.27100 9.01400 21.70600
H  1.92600 5.87300 22.21800
H  2.04300 7.51000 21.47100
H  1.18000 6.16700 20.64400
H  -2.35900 8.55200 22.99700
H  -2.12600 7.81200 21.31900
H  -3.08400 10.31300 22.01300
H  -2.78300 9.71000 20.46200
H  -1.49700 10.63000 21.16900
H  0.78800 14.00400 26.02000
H  -0.26800 13.36900 24.69200
H  1.43000 13.13200 24.75700
H  -0.43000 11.45000 30.56900
H  2.70200 12.68500 32.68200
H  2.67100 10.93200 33.24100
H  1.66100 12.22800 33.96000
Mg 35.99600 48.81000 24.27200
C  36.34400 47.09500 27.30700
C  34.75100 51.53500 25.93900
C  35.69500 50.40000 21.26600
C  37.27900 45.95400 22.58200
N  35.43900 49.18200 26.33700
C  35.69300 48.37400 27.46400
C  35.48900 49.17300 28.79000
C  34.69800 50.48100 28.29000
C  34.98100 50.40500 26.77300
C  33.25100 50.64400 28.71400
C  36.77700 49.43700 29.59000
C  36.74800 49.09100 31.13500
H  35.38400 49.00100 31.91600
N  35.43200 50.74000 23.66500
C  34.93300 51.71000 24.50300
C  34.51900 52.81400 23.70800
C  34.89100 52.55100 22.37700
C  35.36800 51.18100 22.35700
C  33.87700 54.02600 24.31600
C  34.72600 53.48300 21.17300
O  35.20700 53.13900 20.09800
C  34.01400 54.82400 21.25600
N  36.15500 48.12100 22.13100
C  36.07300 49.04400 21.21800
C  36.25400 48.30400 19.85800
C  37.07200 47.02500 20.22000
C  36.80300 47.00100 21.69800
C  34.89400 48.03200 19.20200
C  38.50100 47.08000 19.67500
C  39.74100 47.24600 20.69500
N  36.54700 46.87200 24.80300
C  37.10700 45.85600 24.00200
C  37.70100 44.87100 24.85400
C  37.41700 45.33000 26.18300
C  36.60400 46.49300 26.06200
C  38.44600 43.69400 24.34500
C  37.53300 45.02600 27.63900
O  38.09300 44.09100 28.24800
C  36.87000 46.18100 28.37300
C  35.82900 45.72100 29.38000
O  34.67600 45.50600 29.13900
O  36.45200 45.55100 30.55700
C  35.59400 44.82100 31.57000
H  34.41000 52.40200 26.50900
H  35.51100 50.81100 20.27100
H  37.70800 45.07000 22.10600
H  34.81200 48.60700 29.43000
H  35.13100 51.38000 28.72900
H  32.92800 49.92600 29.46800
H  32.58800 50.51000 27.85900
H  33.03600 51.63600 29.11100
H  37.13400 50.45600 29.44000
H  37.55500 48.72800 29.30600
H  37.32100 49.88200 31.62000
H  37.31800 48.20100 31.40100
H  34.46800 54.91300 24.54100
H  33.49500 53.82300 25.31700
H  33.02900 54.29000 23.68500
H  32.93800 54.68300 21.35500
H  34.16900 55.35800 20.31900
H  34.34100 55.52200 22.02700
H  36.77600 48.99200 19.19300
H  36.52500 46.18100 19.80000
H  34.01800 48.19300 19.83000
H  34.73700 47.04800 18.76000
H  34.81400 48.68500 18.33300
H  38.67300 47.83200 18.90600
H  38.69300 46.16800 19.10900
H  40.36900 46.35600 20.72600
H  39.37000 47.61500 21.65200
H  40.25900 48.14700 20.36700
H  38.94600 43.93500 23.40600
H  37.97700 42.71100 24.29800
H  39.17800 43.43300 25.10800
H  37.70700 46.61300 28.92200
H  35.33000 43.79000 31.33500
H  34.67800 45.36000 31.81300
H  36.15700 44.81200 32.50400

