158

Mg 25.42000 1.54600 29.38800
C  27.23500 1.37700 32.46900
C  22.64900 1.46800 31.21200
C  23.84100 1.71900 26.50100
C  28.54900 0.92200 27.75100
N  24.97100 1.63200 31.58700
C  25.87500 1.56900 32.64700
C  25.09200 1.69100 34.00900
C  23.57900 1.62700 33.56100
C  23.70400 1.49600 32.04500
C  22.75700 0.51900 34.21400
C  25.43700 2.90000 34.85100
C  25.93300 2.63700 36.32800
H  25.56300 3.50000 37.50600
N  23.50400 1.48200 28.91300
C  22.48700 1.53300 29.75600
C  21.28300 1.73700 29.04300
C  21.58800 1.73400 27.66900
C  23.05700 1.72100 27.62700
C  19.91400 1.63700 29.76200
C  20.71400 1.93900 26.47600
O  21.10000 1.71600 25.33000
C  19.28700 2.47900 26.64500
N  26.09000 1.22900 27.35300
C  25.20400 1.50000 26.29700
C  25.93800 1.68100 24.97700
C  27.42500 1.38200 25.42100
C  27.39500 1.12900 26.92600
C  25.48700 0.66300 23.87000
C  28.37600 2.44000 24.97100
C  29.85300 2.03000 24.80400
N  27.43100 1.21600 29.95800
C  28.54100 0.87900 29.14800
C  29.79700 0.82900 29.96900
C  29.28000 0.96500 31.29000
C  27.87200 1.17400 31.26600
C  31.19000 0.60000 29.41100
C  29.67400 1.11400 32.65700
O  30.80400 1.03500 33.10200
C  28.34300 1.25800 33.50800
C  28.20900 0.06100 34.31700
O  28.07200 -1.07600 33.95100
O  28.21900 0.44600 35.61100
C  28.09300 -0.60600 36.61700
H  21.68300 1.43600 31.72000
H  23.43500 1.88900 25.50100
H  29.54100 0.82400 27.30500
H  25.30200 0.84200 34.66000
H  22.98200 2.52200 33.74000
H  21.90000 0.92500 34.75100
H  23.26700 0.00900 35.03100
H  22.36900 -0.25200 33.54900
H  24.51700 3.48300 34.82800
H  26.07200 3.63900 34.36200
H  27.02300 2.64000 36.29700
H  25.79200 1.62900 36.72000
H  19.67000 2.69800 29.79700
H  20.03300 1.12100 30.71500
H  19.25500 1.05400 29.11700
H  18.70000 1.68900 27.11400
H  18.74600 2.76300 25.74200
H  19.44600 3.42600 27.16200
H  25.86800 2.72900 24.68600
H  27.73600 0.40200 25.05800
H  24.99800 1.25200 23.09500
H  24.68400 0.00400 24.19800
H  26.37000 0.14400 23.49800
H  28.30600 3.21000 25.73900
H  27.99900 2.79600 24.01200
H  30.33000 2.63900 24.03600
H  30.04900 1.00900 24.47700
H  30.34000 2.22300 25.76000
H  31.24000 -0.46900 29.61800
H  31.96900 1.19900 29.88300
H  31.33600 0.89600 28.37200
H  28.44500 2.18500 34.07100
H  28.17200 -1.65500 36.33200
H  27.16000 -0.63800 37.18000
H  28.71700 -0.40100 37.48700
Mg 45.23700 5.37300 48.80000
C  42.97200 7.83200 47.56400
C  42.87300 2.96000 47.79700
C  47.65500 2.98500 48.95000
C  47.72900 7.90800 48.84000
N  43.20200 5.45800 47.78300
C  42.52100 6.52600 47.35200
C  41.10300 6.14900 46.80200
C  41.12300 4.58200 46.91500
C  42.45100 4.30400 47.53200
C  39.89500 4.11400 47.76300
C  40.87600 6.62400 45.29300
C  39.56700 7.58200 45.16400
H  38.62700 7.33700 44.00700
N  45.20200 3.29200 48.64800
C  44.10000 2.50100 48.27600
C  44.52800 1.09200 48.36600
C  45.91900 1.14900 48.61500
C  46.30900 2.51400 48.77300
C  43.62500 -0.03000 48.09500
C  46.77000 -0.09400 48.81100
O  46.29800 -1.21700 48.63800
C  48.15100 -0.08200 49.28500
N  47.39000 5.45700 48.99200
C  48.16700 4.32500 49.08000
C  49.63400 4.64900 49.10400
C  49.64400 6.19600 49.08900
C  48.21400 6.54500 48.94600
C  50.41700 3.88700 50.15900
C  50.49300 6.76300 47.91900
C  51.29100 8.08800 48.24400
N  45.32300 7.44600 48.50400
C  46.41400 8.35600 48.61000
C  45.96600 9.64300 48.29700
C  44.59700 9.46800 47.99700
C  44.26600 8.12900 48.04200
C  46.86800 10.88300 48.34300
C  43.40700 10.20400 47.80900
O  43.19100 11.42100 47.88100
C  42.25000 9.14300 47.50700
C  41.17600 9.39300 48.60000
O  41.25400 8.85400 49.67100
O  40.13900 10.03800 47.99800
C  38.85800 10.03900 48.70800
H  42.03900 2.28000 47.60900
H  48.46200 2.25000 48.92900
H  48.56000 8.57900 49.06400
H  40.37500 6.56700 47.49700
H  41.12800 4.11400 45.93000
H  39.62300 3.15500 47.32400
H  39.04000 4.79100 47.74700
H  40.22600 3.86900 48.77200
H  40.97200 5.87900 44.50400
H  41.76300 7.23700 45.13100
H  39.93300 8.60700 45.10200
H  38.95800 7.53100 46.06700
H  43.38100 -0.50300 49.04600
H  44.09600 -0.74600 47.42200
H  42.70700 0.23300 47.57000
H  48.74000 0.42000 48.51700
H  48.55400 -1.04400 49.60200
H  48.23400 0.58700 50.14100
H  49.92900 4.33000 48.10400
H  49.89200 6.59500 50.07300
H  49.75200 3.17400 50.64600
H  50.89300 4.61300 50.81800
H  51.27200 3.33100 49.77300
H  49.92900 7.05300 47.03300
H  51.26700 6.03700 47.67000
H  50.80600 9.01800 47.94800
H  52.29800 7.93200 47.85500
H  51.48000 8.10700 49.31700
H  46.40500 11.54800 47.61500
H  47.88900 10.61600 48.06900
H  46.94700 11.26400 49.36200
H  41.79000 9.48300 46.58000
H  38.27000 10.90600 48.40400
H  38.97700 10.22000 49.77600
H  38.25100 9.15200 48.52700

