158

Mg 42.63100 41.17100 26.09100
C  41.63900 43.41300 28.72100
C  43.56600 39.00900 28.53900
C  43.65000 39.15800 23.66600
C  41.93500 43.65600 23.83600
N  42.65500 41.26500 28.50700
C  42.07200 42.17200 29.28000
C  42.10500 41.61800 30.77800
C  42.92000 40.27000 30.68600
C  43.07500 40.18700 29.18100
C  44.22700 40.18000 31.58200
C  40.71800 41.66100 31.53800
C  40.77400 41.24300 33.02000
H  40.64200 42.32700 34.00900
N  43.50300 39.32500 26.08100
C  43.81800 38.59000 27.20000
C  44.46800 37.38000 26.76500
C  44.42100 37.31900 25.33300
C  43.80300 38.60300 24.97000
C  45.13800 36.50600 27.77200
C  44.92100 36.20500 24.37300
O  44.88600 36.27000 23.19000
C  45.60300 34.94600 24.93100
N  42.97300 41.45000 23.99700
C  43.24300 40.41000 23.23500
C  43.15200 40.84800 21.73300
C  42.43900 42.27100 21.83400
C  42.45600 42.50000 23.31700
C  44.55500 40.65700 21.12600
C  41.11400 42.37800 21.15000
C  40.00900 41.50100 21.61200
N  41.96000 43.11500 26.22700
C  41.84100 43.98900 25.21200
C  41.40400 45.29800 25.76100
C  41.25100 45.08700 27.11000
C  41.64900 43.72300 27.33200
C  41.19800 46.57700 24.95000
C  40.75700 45.67800 28.43000
O  40.22700 46.75700 28.66300
C  40.93800 44.54800 29.46900
C  41.85600 44.97800 30.53600
O  43.11900 44.86800 30.52700
O  41.10700 45.69900 31.50100
C  41.92600 46.26300 32.56800
H  43.60800 38.23300 29.30700
H  43.97700 38.66300 22.74900
H  41.65200 44.40900 23.09700
H  42.74600 42.31900 31.31100
H  42.17100 39.52200 30.94500
H  44.42900 41.11800 32.10000
H  45.06100 40.05500 30.89200
H  44.14800 39.39100 32.32900
H  40.10200 40.88200 31.08900
H  40.17600 42.58600 31.34200
H  41.67800 40.66600 33.21600
H  39.94800 40.54900 33.17600
H  44.57500 35.58700 27.93300
H  45.21900 37.02700 28.72700
H  46.14900 36.18400 27.52600
H  45.65700 34.11700 24.22500
H  44.91500 34.57800 25.69100
H  46.50800 35.24800 25.45900
H  42.43400 40.18900 21.24500
H  43.17400 42.99100 21.47200
H  44.68000 39.84100 20.41400
H  45.17300 40.38100 21.98000
H  44.89200 41.60600 20.71000
H  41.24700 42.14100 20.09500
H  40.73400 43.39500 21.25100
H  39.30500 42.12500 22.16200
H  40.46300 40.72900 22.23400
H  39.40200 41.12200 20.78900
H  41.40700 46.47300 23.88500
H  41.95400 47.20600 25.42000
H  40.21500 46.91500 25.27600
H  39.98500 44.22300 29.88800
H  42.37300 45.44400 33.13100
H  41.39300 47.04100 33.11500
H  42.80200 46.77500 32.17000
Mg 9.68100 47.75800 25.78900
C  7.71500 48.11500 28.48100
C  12.40000 49.09600 27.69000
C  11.84800 47.51000 23.20100
C  6.99800 47.54500 23.62500
N  10.01000 48.67500 27.80400
C  9.04500 48.51900 28.78100
C  9.50800 49.06400 30.16500
C  10.97400 49.58700 29.81200
C  11.13600 49.13500 28.32800
C  11.15100 51.13800 29.97800
C  9.21500 48.15300 31.44600
C  9.77800 48.58200 32.72800
H  8.96600 48.29400 33.98100
N  11.82900 48.13000 25.57000
C  12.72400 48.62900 26.42300
C  14.09600 48.36400 26.00000
C  13.94300 47.78900 24.69900
C  12.51100 47.78500 24.39600
C  15.35000 48.61500 26.79100
C  14.97300 47.30900 23.77000
O  14.69400 46.91300 22.69200
C  16.37700 47.44200 24.13200
N  9.49500 47.46500 23.75500
C  10.56600 47.50800 22.90900
C  10.06100 47.30000 21.45200
C  8.49200 47.22400 21.64300
C  8.27700 47.45100 23.09500
C  10.48800 48.36000 20.42600
C  7.86000 45.82200 21.12400
C  7.45900 45.74000 19.63500
N  7.70900 47.78500 25.96900
C  6.70300 47.62500 25.06400
C  5.43700 47.57800 25.77900
C  5.77500 47.61600 27.11000
C  7.17100 47.89100 27.17400
C  4.11600 47.26800 25.16800
C  5.22900 47.54400 28.51400
O  4.15400 47.44000 29.02800
C  6.54700 47.86300 29.40100
C  6.72200 46.65900 30.30900
O  7.59900 45.76700 30.12400
O  5.89800 46.71400 31.37500
C  6.08100 45.64200 32.41200
H  13.10400 49.59500 28.36000
H  12.43200 47.49300 22.27800
H  6.23400 47.38300 22.86100
H  8.90100 49.95800 30.31000
H  11.60800 49.00500 30.48100
H  11.90000 51.36900 30.73600
H  10.28300 51.75100 30.22000
H  11.53000 51.42200 28.99600
H  9.26200 47.08300 31.24600
H  8.18900 48.44200 31.67300
H  9.87600 49.66200 32.61600
H  10.74900 48.09200 32.79800
H  15.38400 48.97800 27.81800
H  15.90400 49.35100 26.20900
H  15.89500 47.67100 26.80900
H  16.51300 46.81800 25.01600
H  16.58100 48.47400 24.41900
H  17.07300 47.13500 23.35200
H  10.45100 46.30400 21.24300
H  8.09800 48.10800 21.14000
H  9.70000 48.59600 19.71100
H  11.41000 48.03900 19.94100
H  10.77600 49.30800 20.88000
H  7.01300 45.60100 21.77300
H  8.61100 45.05700 21.32200
H  7.79800 46.69100 19.22300
H  6.37500 45.62100 19.62100
H  7.97900 44.87100 19.23200
H  3.72300 48.10700 24.59400
H  3.46200 47.15500 26.03300
H  4.23400 46.35300 24.58700
H  6.30800 48.70800 30.04500
H  6.49300 46.11200 33.30500
H  6.73700 44.81200 32.15000
H  5.11400 45.14500 32.48400

