158

Mg 8.78400 3.61500 27.48000
C  9.97200 2.13800 30.36000
C  7.15000 6.03700 29.30900
C  7.69200 5.07700 24.60500
C  10.16700 1.01300 25.61800
N  8.47900 3.94100 29.61900
C  9.16800 3.28300 30.59100
C  8.97700 4.03600 31.97100
C  7.94200 5.14300 31.63100
C  7.82000 5.03300 30.05300
C  6.60800 5.08100 32.43800
C  10.32400 4.55500 32.55300
C  10.62100 4.11600 34.02500
H  11.08700 5.15400 35.10900
N  7.52900 5.35800 27.00500
C  7.05900 6.21500 27.91800
C  6.48600 7.30300 27.20900
C  6.53400 7.07500 25.83300
C  7.19600 5.77500 25.75800
C  5.85000 8.46900 27.93600
C  5.99300 7.73900 24.63800
O  6.16100 7.25400 23.53300
C  5.38400 9.03100 24.75100
N  8.76400 2.98000 25.45400
C  8.47800 3.90800 24.52100
C  8.75000 3.40200 23.06200
C  9.48900 2.08000 23.38600
C  9.49800 1.98900 24.90100
C  7.55900 3.30400 22.12800
C  10.82200 1.79300 22.70100
C  10.78200 1.36400 21.21500
N  9.78700 1.82000 27.84600
C  10.32100 0.85400 26.95400
C  11.05500 -0.10700 27.67800
C  10.93600 0.35300 29.05100
C  10.11400 1.48300 29.05800
C  11.71600 -1.36100 27.18900
C  11.37300 0.13400 30.37000
O  12.10400 -0.68300 30.82000
C  10.77600 1.25600 31.31900
C  9.93500 0.61700 32.33200
O  9.08400 -0.27500 32.08300
O  10.38700 0.92000 33.60900
C  9.87000 0.09700 34.69800
H  6.84000 6.85900 29.95800
H  7.46200 5.50700 23.62800
H  10.71800 0.30000 25.00100
H  8.62200 3.28800 32.67900
H  8.35900 6.13900 31.77800
H  5.81500 4.55100 31.91000
H  6.22600 6.09100 32.58500
H  6.84600 4.67600 33.42100
H  10.22500 5.64000 32.57600
H  11.18100 4.27400 31.94100
H  11.40000 3.39600 33.77500
H  9.72400 3.55300 34.28200
H  5.79800 8.31600 29.01400
H  4.78100 8.50700 27.72700
H  6.09600 9.51200 27.73700
H  5.22200 9.51800 23.78900
H  6.04500 9.71900 25.27800
H  4.49500 8.92500 25.37200
H  9.46000 4.12800 22.66600
H  8.74700 1.33600 23.09600
H  6.62900 3.54400 22.64300
H  7.34900 2.26800 21.86300
H  7.77800 3.95700 21.28200
H  11.54400 1.13100 23.17900
H  11.29300 2.77000 22.59900
H  9.72500 1.25800 20.97400
H  11.26400 0.40700 21.01700
H  11.22300 2.08500 20.52700
H  12.26400 -1.12800 26.27600
H  10.97700 -2.13800 26.99200
H  12.35400 -1.78200 27.96600
H  11.56100 1.82600 31.81700
H  10.11900 -0.96000 34.79100
H  8.78800 0.18700 34.79400
H  10.18900 0.48500 35.66500
Mg -5.89000 24.86600 26.24000
C  -4.37600 26.57000 28.98400
C  -7.14100 22.64600 28.70500
C  -7.44200 23.42400 23.84900
C  -4.10700 27.02200 24.00800
N  -5.81400 24.63800 28.58300
C  -5.27100 25.57800 29.43200
C  -5.51400 25.19600 30.93300
C  -6.16200 23.70200 30.80500
C  -6.46100 23.63800 29.27500
C  -5.22700 22.56400 31.14800
C  -6.15300 26.28400 31.82100
C  -7.25600 25.79100 32.77100
H  -6.91800 24.81600 33.98800
N  -7.09800 23.21900 26.24200
C  -7.47500 22.42600 27.32400
C  -8.25100 21.33000 26.84200
C  -8.51200 21.58900 25.45400
C  -7.63500 22.75700 25.09600
C  -8.78300 20.20400 27.78700
C  -9.41800 20.90700 24.56500
O  -9.54300 21.11500 23.37000
C  -10.33600 19.77400 25.16200
N  -5.76500 25.16600 24.22200
C  -6.53100 24.40600 23.42300
C  -6.39700 24.96700 21.95300
C  -5.60900 26.28500 22.07300
C  -5.10700 26.14000 23.51300
C  -5.86800 23.92800 20.91900
C  -6.52400 27.56000 21.91800
C  -6.96500 27.95700 20.51100
N  -4.49000 26.46600 26.42200
C  -3.83900 27.17200 25.41000
C  -2.88300 27.98400 26.02500
C  -3.04900 27.86500 27.41600
C  -4.01200 26.85900 27.62200
C  -2.02300 28.97900 25.38600
C  -2.62800 28.37700 28.69100
O  -1.85500 29.32200 28.90600
C  -3.48500 27.56000 29.76600
C  -2.52900 26.82600 30.71500
O  -2.00100 25.80600 30.33600
O  -2.47600 27.45400 31.95800
C  -1.95400 26.62500 33.04700
H  -7.53200 21.93500 29.43600
H  -8.04100 22.94800 23.07000
H  -3.66400 27.81800 23.40500
H  -4.51300 25.06600 31.34400
H  -7.12700 23.53400 31.28200
H  -4.36100 22.78000 31.77300
H  -4.95000 21.94100 30.29800
H  -5.85000 21.93100 31.78000
H  -6.64700 27.03500 31.20400
H  -5.40700 26.83400 32.39500
H  -8.06500 25.34700 32.19300
H  -7.65300 26.69300 33.23700
H  -9.76400 20.52200 28.13700
H  -8.14200 20.24600 28.66800
H  -8.72400 19.23500 27.29000
H  -9.65900 18.92100 25.21000
H  -11.11800 19.75200 24.40200
H  -10.72800 20.10000 26.12500
H  -7.37900 25.28700 21.60500
H  -4.73400 26.49500 21.45700
H  -4.77800 23.94800 20.89900
H  -6.33600 24.01600 19.93800
H  -6.11100 22.92200 21.25900
H  -5.92800 28.41300 22.24100
H  -7.42700 27.46900 22.52000
H  -8.01400 27.72200 20.33500
H  -6.37600 27.50600 19.71200
H  -6.90800 29.04300 20.43200
H  -2.60400 29.72600 24.84400
H  -1.38300 28.35800 24.75900
H  -1.21800 29.45600 25.94500
H  -4.07800 28.33200 30.25600
H  -2.01100 25.54100 32.95200
H  -2.53500 26.83300 33.94600
H  -0.91000 26.85800 33.25400

