158

Mg -0.67600 7.80100 26.58500
C  0.26400 9.39900 29.63400
C  -0.76900 4.89900 28.24900
C  -0.62800 6.51700 23.70600
C  0.05500 11.04500 25.03500
N  -0.21300 7.30900 28.73700
C  -0.07900 8.06800 29.81500
C  -0.30900 7.32700 31.14100
C  -0.58000 5.86100 30.55200
C  -0.42900 5.98100 29.04200
C  0.20700 4.71600 31.21700
C  -1.53200 7.84000 32.00100
C  -1.32300 8.27500 33.43300
H  0.02800 7.84100 34.13100
N  -0.76800 5.92500 26.04400
C  -0.90400 4.80400 26.83500
C  -1.10100 3.62800 26.01200
C  -1.00600 4.18600 24.65100
C  -0.84800 5.67000 24.79100
C  -1.21200 2.18100 26.57700
C  -1.18000 3.43200 23.34500
O  -1.33900 3.96500 22.24800
C  -1.34400 1.91600 23.42100
N  -0.53900 8.72900 24.60800
C  -0.42700 7.89800 23.58300
C  -0.12300 8.70000 22.26600
C  -0.38800 10.18400 22.75300
C  -0.34900 10.04000 24.26100
C  1.35700 8.47600 21.87100
C  -1.60800 10.77100 22.03100
C  -1.34100 11.43100 20.65800
N  -0.04500 9.86400 27.18500
C  0.25900 11.01200 26.43600
C  0.79300 11.97900 27.29800
C  0.75800 11.41300 28.60200
C  0.25200 10.14200 28.43600
C  1.18800 13.36600 26.98700
C  1.05800 11.69500 29.95400
O  1.61400 12.61800 30.54800
C  0.53100 10.40600 30.72300
C  1.62800 10.08600 31.71100
O  2.63100 9.41700 31.45600
O  1.38500 10.80000 32.86800
C  2.56900 10.87800 33.70200
H  -1.00500 3.93500 28.70500
H  -0.52300 6.05200 22.72300
H  0.37700 12.02100 24.66600
H  0.62300 7.26900 31.70400
H  -1.63300 5.58800 30.49100
H  0.83300 5.17000 31.98500
H  0.99400 4.38800 30.53700
H  -0.43500 3.90300 31.55800
H  -2.32000 7.09300 31.89900
H  -1.83000 8.75900 31.49800
H  -2.12900 7.97900 34.10400
H  -1.26300 9.35700 33.55200
H  -0.38700 1.62100 26.13600
H  -2.13300 1.70900 26.23400
H  -0.94800 1.98400 27.61600
H  -1.48100 1.58700 22.39100
H  -2.23000 1.64300 23.99400
H  -0.48100 1.37900 23.81600
H  -0.86000 8.54300 21.47800
H  0.46000 10.83300 22.53600
H  1.95000 9.37300 22.05000
H  1.43900 8.10700 20.84900
H  1.79300 7.69500 22.49500
H  -1.92700 11.61200 22.64700
H  -2.39500 10.03900 21.84900
H  -0.69200 10.78300 20.06900
H  -0.91800 12.42600 20.79900
H  -2.31200 11.46600 20.16300
H  0.64400 14.08700 27.59700
H  1.08300 13.65400 25.94100
H  2.23700 13.41000 27.27700
H  -0.30400 10.60300 31.39700
H  3.23100 11.61400 33.24700
H  2.96300 9.86800 33.81100
H  2.30400 11.25900 34.68800
Mg 7.86600 2.06400 28.25300
C  9.34400 0.66800 31.06000
C  5.64100 3.80100 30.29600
C  6.45000 3.37600 25.54700
C  9.56500 -0.23600 26.30800
N  7.67200 2.27200 30.40900
C  8.34200 1.58800 31.37800
C  8.14700 2.27500 32.75800
C  6.81400 3.05100 32.53900
C  6.69900 3.09700 30.99600
C  5.54100 2.35200 33.16500
C  9.38900 3.10700 33.26100
C  9.91000 2.90500 34.69300
H  9.09400 2.20400 35.75400
N  6.33900 3.46200 27.95600
C  5.53900 4.02800 28.95100
C  4.50100 4.86100 28.30000
C  4.75100 4.80700 26.88900
C  5.87300 3.87500 26.76600
C  3.40800 5.59600 29.04700
C  4.00200 5.50000 25.80700
O  4.13300 5.24600 24.59100
C  2.91100 6.54000 26.16900
N  7.84400 1.54600 26.19800
C  7.36400 2.36700 25.31100
C  7.88800 2.03600 23.87800
C  8.87100 0.87000 24.16800
C  8.72600 0.66600 25.66100
C  6.65800 1.75400 22.95000
C  10.31300 0.99100 23.62500
C  11.42000 1.70500 24.48900
N  9.16900 0.43400 28.55500
C  9.81900 -0.34000 27.65300
C  10.77700 -1.14600 28.41300
C  10.65100 -0.77000 29.76600
C  9.63900 0.22000 29.80000
C  11.66300 -2.17400 27.83100
C  11.22700 -0.93100 31.09100
O  12.10200 -1.63300 31.50900
C  10.41900 -0.01900 31.98200
C  9.89600 -0.93500 33.05800
O  9.17400 -1.87500 32.82400
O  10.50500 -0.62300 34.23000
C  10.36400 -1.70600 35.17600
H  4.92800 4.27000 30.97800
H  5.98600 3.89100 24.70300
H  10.16100 -0.91700 25.69800
H  7.89900 1.39200 33.34800
H  6.96400 4.02000 33.01500
H  5.23700 2.95300 34.02200
H  5.75000 1.33700 33.50300
H  4.65200 2.28900 32.53700
H  9.23600 4.18400 33.19700
H  10.22200 3.03800 32.56100
H  10.02600 3.88700 35.15300
H  10.91200 2.48000 34.74300
H  3.48500 6.66600 29.23900
H  3.34400 5.10700 30.01800
H  2.43200 5.35100 28.62700
H  2.09300 6.17900 26.79200
H  2.46000 6.74000 25.19700
H  3.19800 7.54300 26.48600
H  8.45400 2.94400 23.67100
H  8.35200 -0.05900 23.93300
H  6.65000 2.57500 22.23400
H  5.67600 1.77500 23.42200
H  6.73300 0.80200 22.42400
H  10.22600 1.54500 22.69100
H  10.79400 0.05000 23.35700
H  11.12000 2.06400 25.47300
H  11.80100 2.50700 23.85600
H  12.25400 1.00800 24.57400
H  11.84200 -2.95300 28.57200
H  12.58300 -1.62400 27.63000
H  11.21700 -2.56900 26.91800
H  11.14400 0.75000 32.24600
H  9.73600 -2.52600 34.82800
H  9.94100 -1.38000 36.12600
H  11.31000 -2.06000 35.58700

