158

Mg 41.37900 8.41800 29.30600
C  43.46700 9.36500 32.09100
C  39.13800 7.12500 31.62600
C  39.66900 7.38100 26.76600
C  44.13500 9.29400 27.18300
N  41.35600 8.32200 31.60100
C  42.25300 8.80700 32.50200
C  41.63100 8.79100 33.91300
C  40.39100 7.80700 33.78400
C  40.23800 7.73300 32.21900
C  40.57600 6.46500 34.60600
C  41.22000 10.14600 34.47900
C  40.91300 10.13900 35.99200
H  41.58400 11.28900 36.82900
N  39.65300 7.42700 29.17300
C  38.87500 6.94700 30.19600
C  37.70900 6.33700 29.52200
C  37.67700 6.50900 28.15700
C  39.06700 7.05000 27.97100
C  36.77500 5.44000 30.31700
C  36.78200 6.10600 27.09700
O  36.90800 6.28600 25.90900
C  35.45100 5.52500 27.52800
N  42.02700 8.11500 27.29700
C  40.95700 7.88400 26.44400
C  41.41700 8.07700 24.98700
C  42.68400 8.85500 25.12300
C  42.96800 8.74200 26.62800
C  41.60700 6.65200 24.19900
C  42.71300 10.22700 24.58000
C  41.63600 11.15500 25.18800
N  43.38300 9.22700 29.52500
C  44.40500 9.46000 28.56100
C  45.59100 9.92800 29.16200
C  45.25100 9.96800 30.57600
C  43.90400 9.46900 30.73800
C  46.79700 10.37900 28.49900
C  45.68500 10.35100 31.84900
O  46.75600 10.89200 32.11000
C  44.57300 9.99000 32.87800
C  45.13400 9.03700 33.90300
O  45.15700 7.81400 33.92500
O  45.72500 9.77500 34.92100
C  46.21400 9.12200 36.12800
H  38.35300 6.82700 32.32400
H  38.94000 7.25600 25.96200
H  44.88000 9.57700 26.43700
H  42.33500 8.39800 34.64700
H  39.47100 8.28100 34.12700
H  39.92500 6.22800 35.44800
H  41.53700 6.37000 35.11100
H  40.41500 5.61800 33.94000
H  40.28900 10.56500 34.09600
H  41.95800 10.92100 34.27000
H  41.22100 9.28400 36.59300
H  39.82700 10.22500 35.96900
H  36.57700 4.50500 29.79300
H  35.88100 6.02600 30.53000
H  37.17900 5.19700 31.30000
H  35.48800 4.47100 27.80300
H  34.77400 5.51900 26.67400
H  34.99500 6.24800 28.20400
H  40.70900 8.67700 24.41500
H  43.46400 8.36700 24.54000
H  41.06700 6.64900 23.25200
H  41.19000 5.81500 24.76000
H  42.67600 6.49000 24.05800
H  42.55400 10.12600 23.50600
H  43.67600 10.71900 24.71400
H  42.04300 12.09400 25.56400
H  41.02800 10.64400 25.93400
H  40.83900 11.34000 24.46700
H  46.96300 9.85300 27.55900
H  47.72600 10.17600 29.03100
H  46.68100 11.43700 28.26600
H  44.31100 10.90400 33.41100
H  45.40200 8.92300 36.82800
H  46.99300 9.71000 36.61300
H  46.60800 8.15700 35.81000
Mg 55.32800 24.66000 45.66200
C  52.52300 26.31600 44.54700
C  53.93600 21.71400 44.78300
C  58.37700 23.23800 46.08600
C  56.63200 27.76800 46.59900
N  53.46600 24.12500 44.73400
C  52.54300 24.94500 44.26900
C  51.32200 24.20400 43.81800
C  51.64500 22.71200 44.30700
C  53.11000 22.79300 44.62500
C  50.70300 22.33900 45.58300
C  51.28500 24.23600 42.21900
C  49.84800 24.01900 41.63000
H  49.59700 22.91600 40.58900
N  56.00800 22.70700 45.62700
C  55.28500 21.64700 45.24500
C  56.11100 20.45800 45.22400
C  57.39900 20.89400 45.62500
C  57.34700 22.36700 45.87200
C  55.55200 19.05100 44.78400
C  58.55900 19.92900 45.89200
O  58.54800 18.73400 45.47400
C  59.89700 20.32200 46.46500
N  57.26300 25.44700 46.04200
C  58.35800 24.64200 46.35500
C  59.59900 25.48800 46.65400
C  58.94400 26.89100 46.97600
C  57.49300 26.72200 46.53800
C  60.61000 24.96500 47.82300
C  59.80200 28.10600 46.54500
C  59.56600 28.72800 45.22600
N  54.68500 26.70900 45.67300
C  55.27100 27.80800 46.17400
C  54.32700 28.93600 46.14600
C  53.19000 28.40900 45.47600
C  53.51000 27.12100 45.17200
C  54.49500 30.30000 46.71600
C  51.80500 28.63100 45.01600
O  51.04400 29.59800 45.04800
C  51.31600 27.31800 44.28700
C  50.99700 27.58400 42.83900
O  51.80500 27.85800 41.90800
O  49.72500 27.33300 42.63400
C  49.20100 27.55000 41.24900
H  53.43600 20.82800 44.38700
H  59.35000 22.74600 46.03000
H  57.12300 28.69600 46.89900
H  50.45600 24.64300 44.31300
H  51.51500 22.01000 43.48300
H  50.16700 21.44400 45.26500
H  50.09800 23.17600 45.93000
H  51.29400 22.11700 46.47100
H  51.81400 23.43200 41.70700
H  51.70000 25.16100 41.81900
H  49.41300 24.89600 41.15000
H  49.25300 23.73500 42.49800
H  56.16600 18.19800 45.07100
H  55.53200 18.98500 43.69600
H  54.54200 18.85900 45.14600
H  60.42400 20.90100 45.70700
H  60.48600 19.46200 46.78400
H  59.63500 20.93700 47.32600
H  60.14200 25.44000 45.71000
H  58.79500 26.92100 48.05500
H  60.46900 24.01400 48.33500
H  60.64300 25.72900 48.60000
H  61.62100 25.01600 47.41800
H  60.80200 27.67200 46.52900
H  59.65500 28.75200 47.41100
H  58.75800 28.38400 44.58000
H  60.46100 28.54700 44.63100
H  59.35500 29.79500 45.29700
H  54.21900 31.06200 45.98800
H  55.56300 30.45200 46.87600
H  54.01100 30.35800 47.69100
H  50.39600 27.02300 44.79100
H  49.25100 28.59300 40.93800
H  48.12500 27.38000 41.21100
H  49.68200 26.95000 40.47600

