158

Mg 43.18200 41.97600 26.07700
C  42.32800 44.32900 28.42300
C  44.62700 40.01700 28.64600
C  44.29700 39.75800 23.77800
C  42.41100 44.20400 23.51400
N  43.43800 42.23900 28.30900
C  42.92000 43.20000 29.08300
C  43.20000 42.98100 30.61500
C  44.15600 41.71600 30.57300
C  44.05700 41.27900 29.09000
C  45.60600 42.10700 30.90900
C  41.96800 42.73100 31.54700
C  41.83700 43.57900 32.82100
H  40.75300 43.29800 33.86400
N  44.04600 40.11000 26.22700
C  44.57200 39.46900 27.37300
C  45.17900 38.21900 26.94800
C  45.00600 38.07500 25.52600
C  44.42200 39.35700 25.09900
C  45.72500 37.23400 27.97900
C  45.35700 36.90800 24.63800
O  44.97300 36.89100 23.46800
C  46.06000 35.72300 25.18800
N  43.35900 42.00000 23.92200
C  43.83300 40.96100 23.20700
C  43.67400 41.19800 21.69400
C  42.77900 42.55300 21.59000
C  42.93800 42.97500 23.08100
C  45.01200 41.30900 20.86700
C  41.17400 42.48500 21.20700
C  40.29300 41.55300 21.99500
N  42.66400 43.89200 25.93900
C  42.39100 44.69900 24.82900
C  41.85000 45.94700 25.30800
C  41.79500 45.82700 26.68600
C  42.32000 44.54500 27.04100
C  41.28800 47.06700 24.43700
C  41.40900 46.48600 27.88100
O  41.00900 47.64800 28.01700
C  41.81700 45.59300 29.06200
C  42.81300 46.42000 29.84800
O  44.03400 46.45200 29.63900
O  42.24500 47.05000 30.87000
C  43.07300 47.74500 31.90200
H  45.21300 39.61500 29.47500
H  44.61300 39.07900 22.98300
H  42.19600 44.94100 22.73700
H  43.81900 43.82200 30.92700
H  43.86100 40.90300 31.23700
H  45.54200 42.43300 31.94700
H  46.02600 42.86000 30.24100
H  46.20000 41.19500 30.84500
H  41.89300 41.67800 31.81900
H  41.24700 43.04000 30.79100
H  41.71400 44.62200 32.53000
H  42.79900 43.56900 33.33200
H  45.44000 37.52000 28.99200
H  46.78900 36.99800 27.97400
H  45.11600 36.33200 27.92400
H  46.49900 35.20200 24.33600
H  45.30400 35.10100 25.66700
H  46.80800 35.92000 25.95600
H  43.14000 40.34900 21.26700
H  43.28100 43.24000 20.91000
H  45.81900 40.94300 21.50100
H  45.20700 42.33800 20.56600
H  45.07800 40.75100 19.93300
H  41.10800 42.10100 20.18900
H  40.70900 43.46500 21.10000
H  39.52900 42.18000 22.45400
H  40.85900 41.00600 22.74900
H  39.77200 40.88300 21.31100
H  40.20900 47.10000 24.58900
H  41.48200 46.96500 23.36900
H  41.79000 47.97600 24.76800
H  40.95800 45.40100 29.70400
H  43.59400 47.09400 32.60500
H  42.36100 48.32000 32.49300
H  43.89000 48.35400 31.51500
Mg 6.96900 53.26000 41.02800
C  6.52200 49.67000 40.88800
C  10.10200 52.67900 39.51300
C  7.04600 56.39700 40.22400
C  3.58700 53.49000 41.85700
N  8.13500 51.42500 40.24800
C  7.81700 50.08000 40.43500
C  8.94800 49.09600 39.86000
C  10.11600 50.09200 39.89900
C  9.39100 51.52200 39.84600
C  11.06400 50.05600 41.14600
C  8.68400 48.37700 38.43900
C  8.56600 49.25000 37.20700
H  7.36400 49.10500 36.29100
N  8.40600 54.39700 40.10400
C  9.67600 54.05600 39.59300
C  10.34400 55.23600 39.12600
C  9.40800 56.33900 39.31000
C  8.22700 55.73300 39.87600
C  11.68600 55.25300 38.48200
C  9.67100 57.75900 38.93100
O  10.75800 58.09900 38.50300
C  8.70200 58.88700 39.16600
N  5.39500 54.67700 40.90000
C  5.78800 55.97300 40.69600
C  4.67200 56.95100 41.04900
C  3.60900 55.91900 41.49800
C  4.24300 54.60900 41.45400
C  5.05500 58.13500 42.00600
C  2.25400 56.05300 40.63800
C  1.83000 55.12900 39.50300
N  5.40600 51.90600 41.53000
C  4.10600 52.16500 41.89300
C  3.53400 50.93300 42.34200
C  4.43300 49.92900 41.90700
C  5.53400 50.59000 41.38200
C  2.23000 50.68000 42.97300
C  4.59800 48.50200 41.83900
O  3.90100 47.62000 42.29400
C  5.92000 48.25300 41.02000
C  5.36800 47.59200 39.77600
O  4.77000 48.26700 38.88800
O  5.67700 46.24300 39.70600
C  5.44800 45.63400 38.37700
H  11.09300 52.46600 39.10500
H  6.92400 57.47500 40.09500
H  2.58100 53.77200 42.17600
H  9.16200 48.34800 40.62400
H  10.82700 49.93500 39.08800
H  11.93900 49.49800 40.81100
H  10.50500 49.37300 41.78500
H  11.33200 51.02700 41.56300
H  7.92900 47.61300 38.62300
H  9.62500 47.84700 38.29400
H  9.51800 49.14600 36.68700
H  8.57600 50.29800 37.50900
H  12.21800 54.31500 38.64100
H  12.38500 55.99300 38.87200
H  11.70300 55.43300 37.40700
H  8.57400 59.03200 40.23800
H  7.72000 58.66100 38.74900
H  9.03100 59.80500 38.67800
H  4.36400 57.46600 40.13800
H  3.35700 56.12100 42.53900
H  6.11700 58.09800 42.24900
H  4.49600 58.11000 42.94100
H  4.72400 59.04200 41.50000
H  2.23000 57.10100 40.34000
H  1.48000 55.95400 41.39800
H  1.83500 55.71300 38.58300
H  0.83800 54.73400 39.72200
H  2.55300 54.31600 39.42900
H  1.66500 49.99400 42.34200
H  1.60100 51.55800 43.12200
H  2.48600 50.18400 43.91000
H  6.60500 47.62400 41.58900
H  6.24300 44.88800 38.34900
H  5.67400 46.36100 37.59700
H  4.43300 45.27800 38.19800

