158

Mg 1.76100 -2.07300 43.44400
C  5.37000 -2.23600 42.79100
C  1.69700 0.82300 41.64900
C  -1.66400 -2.45000 43.08400
C  1.98900 -5.36100 44.56400
N  3.43200 -0.79400 42.52700
C  4.80000 -1.03400 42.37900
C  5.43500 0.16300 41.69500
C  4.30600 1.13500 41.46900
C  3.00900 0.36000 41.82600
C  4.48900 2.58800 42.02200
C  6.12100 -0.24200 40.35400
C  6.76300 0.80800 39.53600
H  6.14200 1.05300 38.17600
N  0.17600 -0.92400 42.67700
C  0.38300 0.26100 41.95400
C  -0.83600 0.78100 41.47600
C  -1.82700 -0.15100 41.85200
C  -1.13400 -1.24600 42.59800
C  -0.98200 2.04800 40.68700
C  -3.35100 0.07500 41.70900
O  -3.86200 1.04700 41.15200
C  -4.33100 -0.83900 42.42700
N  0.35600 -3.67900 43.78100
C  -0.96200 -3.54400 43.60500
C  -1.64800 -4.85300 43.95800
C  -0.47400 -5.82000 44.50500
C  0.68900 -4.90600 44.38600
C  -2.88700 -4.75700 44.90300
C  -0.45600 -7.18900 43.70500
C  -1.55100 -8.20200 44.09500
N  3.28000 -3.57400 43.71500
C  3.19600 -4.84000 44.17900
C  4.56300 -5.34600 44.32600
C  5.43000 -4.35400 43.79100
C  4.59600 -3.33700 43.38900
C  5.03100 -6.61200 44.98700
C  6.84200 -3.99300 43.50500
O  7.88400 -4.59000 43.71100
C  6.79800 -2.67400 42.66500
C  7.81500 -1.74200 43.08200
O  8.88300 -1.61400 42.48700
O  7.41700 -1.05600 44.21800
C  8.46500 -0.14800 44.71300
H  1.70300 1.69200 40.98800
H  -2.71700 -2.66000 42.89000
H  1.96900 -6.40100 44.89500
H  6.18100 0.53900 42.39600
H  4.21900 1.29400 40.39400
H  3.51400 2.85500 42.43000
H  4.69200 3.31600 41.23600
H  5.22900 2.62500 42.82100
H  5.44100 -0.79700 39.70800
H  6.97300 -0.85300 40.65200
H  7.83800 0.68500 39.41000
H  6.56800 1.71000 40.11600
H  -1.99300 2.44600 40.77500
H  -0.68700 1.77000 39.67500
H  -0.28800 2.81700 41.02400
H  -5.37800 -0.53300 42.43000
H  -4.04100 -1.08500 43.44800
H  -4.35600 -1.81300 41.93900
H  -2.12900 -5.19000 43.03900
H  -0.63200 -6.03700 45.56100
H  -3.03300 -3.74200 45.27100
H  -2.90000 -5.48300 45.71600
H  -3.78000 -5.00100 44.32800
H  0.47500 -7.72700 43.88500
H  -0.43600 -6.98300 42.63500
H  -2.38000 -7.58600 44.44500
H  -1.37200 -8.98100 44.83700
H  -1.84900 -8.75300 43.20300
H  4.73900 -7.45900 44.36500
H  4.67900 -6.65400 46.01700
H  6.10600 -6.76500 45.08000
H  7.03800 -2.98600 41.64900
H  9.12100 -0.87900 45.18500
H  8.13000 0.47000 45.54600
H  9.02900 0.48100 44.02500
Mg 9.57900 48.41200 25.31400
C  7.66300 48.97200 28.14800
C  12.33000 49.47000 27.06000
C  11.31200 47.85500 22.44300
C  6.60700 47.88500 23.52800
N  9.91300 48.98300 27.41100
C  9.03300 49.10700 28.41100
C  9.68200 49.55400 29.74700
C  11.01200 50.20400 29.17200
C  11.09200 49.50700 27.76600
C  11.07800 51.77700 29.07600
C  10.04600 48.49400 30.82000
C  9.55700 48.74200 32.29500
H  9.54100 47.44800 33.15600
N  11.58600 48.56000 24.84300
C  12.54700 49.00800 25.68700
C  13.77900 48.90700 25.01700
C  13.55500 48.42000 23.74500
C  12.07900 48.26200 23.57000
C  15.04000 49.31400 25.71900
C  14.55000 48.10100 22.65900
O  14.27300 47.60900 21.57800
C  15.97300 48.48300 22.87100
N  9.06500 48.04800 23.25300
C  9.94600 47.65500 22.28800
C  9.26900 47.22600 20.95600
C  7.79000 47.10500 21.40400
C  7.79900 47.81400 22.84900
C  9.44500 48.14800 19.69600
C  7.20500 45.68600 21.35400
C  7.47200 44.65500 22.45900
N  7.53000 48.52700 25.67400
C  6.41200 48.29500 24.83300
C  5.16600 48.38300 25.60200
C  5.59200 48.73600 26.90600
C  7.02100 48.75100 26.91300
C  3.79000 48.18700 25.15000
C  5.14300 49.03300 28.26000
O  4.01400 49.01500 28.78100
C  6.49200 49.15000 29.15200
C  6.41900 48.05800 30.13200
O  6.86000 46.94000 29.85900
O  5.78200 48.41500 31.29600
C  5.50400 47.37100 32.25900
H  13.21400 49.92300 27.51400
H  11.87400 47.63400 21.53300
H  5.73800 47.64900 22.91000
H  9.13900 50.35300 30.25300
H  11.92200 49.88800 29.68200
H  10.22200 52.31800 29.48000
H  11.25900 52.02800 28.03100
H  11.93700 52.08600 29.67200
H  11.10400 48.22900 30.81200
H  9.51200 47.62200 30.44400
H  8.68800 49.37500 32.47800
H  10.45600 49.28600 32.58400
H  15.02500 49.62500 26.76400
H  15.58700 50.08600 25.17900
H  15.68300 48.43400 25.73500
H  15.96200 49.48200 23.30700
H  16.57900 48.17100 22.02100
H  16.36600 47.80000 23.62400
H  9.48700 46.16600 20.82500
H  7.27900 47.87000 20.82000
H  9.39500 49.20900 19.94000
H  8.78200 47.91500 18.86300
H  10.45500 47.94600 19.33800
H  7.44600 45.11200 20.45900
H  6.12000 45.75200 21.43100
H  8.00500 45.10500 23.29700
H  8.19600 43.91400 22.11800
H  6.59700 44.11900 22.82600
H  3.07800 48.48600 25.91900
H  3.68700 47.14500 24.84700
H  3.67900 48.85300 24.29400
H  6.38800 50.04700 29.76200
H  6.31100 47.26800 32.98400
H  5.29600 46.42800 31.75200
H  4.64400 47.56900 32.89800

