158

Mg 17.28500 -1.18000 28.61100
C  15.78400 0.87200 31.06300
C  19.06900 -2.78300 31.07500
C  18.78300 -2.88100 26.22700
C  15.83300 0.90800 26.17300
N  17.28700 -1.05400 30.88000
C  16.61800 -0.10300 31.67800
C  16.92100 -0.29800 33.15700
C  18.29300 -1.18100 33.01900
C  18.27100 -1.75900 31.54800
C  19.55800 -0.27600 33.36900
C  15.80000 -0.98300 33.97500
C  15.81500 -0.70500 35.49500
H  16.99700 -0.09600 36.24300
N  18.66400 -2.70500 28.63900
C  19.23600 -3.26000 29.73900
C  20.08700 -4.28500 29.32900
C  19.98100 -4.38300 27.92500
C  19.10700 -3.24300 27.50300
C  20.89200 -5.07300 30.40000
C  20.75100 -5.28600 26.96000
O  20.70500 -5.17300 25.76100
C  21.54500 -6.51600 27.45700
N  17.46800 -0.83400 26.52100
C  17.98100 -1.85100 25.78500
C  17.83900 -1.54200 24.29800
C  16.95000 -0.30400 24.22600
C  16.68400 -0.03400 25.71000
C  19.21500 -1.57100 23.49400
C  15.68000 -0.38200 23.25800
C  14.27000 -0.91900 23.64600
N  16.01300 0.48000 28.60800
C  15.52300 1.22200 27.49700
C  14.67400 2.27700 27.98200
C  14.81700 2.21000 29.37100
C  15.56300 1.09100 29.70300
C  13.97700 3.34500 27.14700
C  14.51000 2.89300 30.59000
O  13.96500 3.98400 30.81300
C  15.10800 2.05800 31.80200
C  16.01400 2.75600 32.67500
O  17.12500 3.07800 32.38100
O  15.33100 3.15400 33.88000
C  16.12900 3.87200 34.85600
H  19.63200 -3.31600 31.84400
H  19.18000 -3.57500 25.48400
H  15.30000 1.52400 25.44600
H  17.19500 0.62600 33.66400
H  18.38800 -2.02600 33.70100
H  20.36000 -0.82900 32.87900
H  19.69700 -0.24200 34.44900
H  19.47200 0.77500 33.09100
H  15.88600 -2.06000 33.82600
H  14.89000 -0.76500 33.41700
H  15.64300 -1.72500 35.83900
H  14.96000 -0.15400 35.88500
H  20.29000 -5.82600 30.90900
H  21.27400 -4.38900 31.15800
H  21.77300 -5.50100 29.92100
H  21.91200 -7.14000 26.64200
H  20.94700 -7.14200 28.11900
H  22.34000 -6.09000 28.07000
H  17.23400 -2.35000 23.88700
H  17.59300 0.51700 23.91100
H  20.08900 -1.50100 24.14200
H  19.37100 -0.66700 22.90500
H  19.19500 -2.47400 22.88300
H  15.97800 -0.91800 22.35700
H  15.48800 0.61400 22.85700
H  13.59000 -0.10100 23.88500
H  14.47700 -1.64500 24.43100
H  14.00300 -1.45600 22.73600
H  14.64400 3.42600 26.28900
H  13.79000 4.35800 27.50300
H  13.00800 2.92400 26.87900
H  14.24600 1.64800 32.32700
H  17.14100 4.08200 34.50900
H  16.12000 3.25500 35.75400
H  15.64500 4.80400 35.14800
Mg 29.80900 57.60800 40.66400
C  26.92500 55.89600 39.63200
C  31.75400 55.07700 39.19700
C  32.52900 59.57200 41.02000
C  27.78000 60.26400 41.70500
N  29.33800 55.77000 39.48100
C  28.12400 55.26600 39.22800
C  28.27400 53.94300 38.49200
C  29.77100 53.57500 38.65600
C  30.34600 54.84000 39.20700
C  29.95200 52.35700 39.67800
C  27.70500 53.91500 37.03800
C  27.74800 55.19000 36.23600
H  26.73400 55.34500 35.05300
N  31.86600 57.33200 40.20900
C  32.43300 56.23600 39.58600
C  33.87600 56.52500 39.43200
C  34.10900 57.81900 39.93800
C  32.83300 58.28300 40.51200
C  34.82900 55.57600 38.66700
C  35.52500 58.43400 40.07700
O  36.47100 57.78500 39.63400
C  35.88100 59.72700 40.80800
N  30.03700 59.64800 41.19900
C  31.28000 60.15300 41.29400
C  31.20900 61.66400 41.64200
C  29.67200 61.91000 42.02100
C  29.11000 60.54100 41.58600
C  32.17700 62.21300 42.66700
C  28.87500 63.12600 41.47300
C  28.31500 63.99300 42.51700
N  27.81400 58.00700 40.90800
C  27.12400 59.06600 41.38200
C  25.68600 58.85100 41.35900
C  25.55500 57.60000 40.78100
C  26.90300 57.08200 40.50800
C  24.55300 59.82200 41.68200
C  24.65000 56.68300 40.17200
O  23.44100 56.70200 40.00300
C  25.47000 55.51600 39.56300
C  25.17100 54.24600 40.31400
O  25.46700 54.01500 41.46700
O  24.34600 53.39200 39.58900
C  24.06400 52.06200 40.26700
H  32.40500 54.23200 38.96400
H  33.33000 60.29200 40.84300
H  27.19900 61.15000 41.97300
H  27.66600 53.15600 38.93900
H  30.24900 53.20800 37.74800
H  30.26100 51.47300 39.11900
H  29.04900 52.07200 40.21800
H  30.69800 52.64800 40.41700
H  26.74400 53.40800 36.95200
H  28.29900 53.18800 36.48500
H  28.73800 55.19900 35.78100
H  27.58300 56.10200 36.81000
H  34.26900 54.76400 38.20300
H  35.51800 55.10700 39.36900
H  35.44800 56.06900 37.91700
H  35.66400 60.52800 40.10000
H  36.95800 59.82400 40.94400
H  35.31700 59.78000 41.73900
H  31.45200 62.15400 40.69900
H  29.69600 61.96200 43.10900
H  31.66500 62.84000 43.39800
H  33.00100 62.71500 42.16000
H  32.48700 61.31400 43.20000
H  27.99900 62.83100 40.89500
H  29.38800 63.78500 40.77300
H  27.24000 63.87500 42.65300
H  28.65000 65.02300 42.39000
H  28.75200 63.86800 43.50800
H  24.69500 60.44000 42.56900
H  23.58100 59.34000 41.58200
H  24.69700 60.47300 40.81900
H  25.25000 55.38400 38.50400
H  23.70800 52.21800 41.28500
H  24.96400 51.45800 40.38300
H  23.30300 51.50200 39.72400

