158

Mg 54.71100 25.23900 45.01100
C  51.80900 26.99100 43.92100
C  53.49500 22.45400 43.44500
C  57.83100 23.86800 45.23500
C  56.08400 28.39800 45.95400
N  52.94800 24.84700 43.70800
C  51.86800 25.73100 43.46100
C  50.83600 24.94600 42.58000
C  51.20900 23.47100 42.77300
C  52.62700 23.57500 43.37300
C  50.24200 22.84700 43.81700
C  50.86000 25.33700 41.06000
C  49.48800 25.49700 40.41400
H  49.35600 24.64800 39.21300
N  55.54800 23.40900 44.47700
C  54.86500 22.33500 43.95800
C  55.69600 21.10400 43.94100
C  56.96700 21.51700 44.33300
C  56.83500 22.99700 44.65300
C  55.27200 19.75700 43.44400
C  58.23500 20.75600 44.31600
O  58.12900 19.61500 43.96600
C  59.66000 21.21800 44.65500
N  56.75100 26.09000 45.28600
C  57.75200 25.24500 45.60100
C  58.95100 25.90400 46.23900
C  58.41600 27.41100 46.37600
C  56.98400 27.31500 45.83500
C  59.37500 25.20700 47.51100
C  59.36100 28.51900 45.81700
C  58.93500 29.18600 44.56700
N  54.13000 27.30300 44.99300
C  54.74100 28.39400 45.49400
C  53.71800 29.40700 45.83300
C  52.56200 28.97700 45.08400
C  52.89900 27.66500 44.65900
C  53.95300 30.60600 46.58000
C  51.20800 29.30700 44.62500
O  50.58900 30.32900 44.86700
C  50.68200 27.99500 43.86900
C  50.31200 28.52300 42.46200
O  51.15700 28.92000 41.60500
O  48.91700 28.64600 42.32500
C  48.51000 29.27700 41.07100
H  53.14400 21.50700 43.03100
H  58.75500 23.34300 45.48800
H  56.45100 29.29800 46.45200
H  49.85500 25.15500 43.00500
H  51.15100 22.83500 41.88900
H  49.88100 21.86300 43.51900
H  49.40400 23.51400 44.01900
H  50.78200 22.76900 44.76100
H  51.33300 24.50400 40.54000
H  51.53100 26.19600 41.04700
H  49.33100 26.53200 40.10800
H  48.77300 25.24700 41.19800
H  54.24600 19.49500 43.70200
H  55.80300 19.07200 44.10500
H  55.43500 19.60900 42.37700
H  59.95200 22.13300 44.13800
H  60.38500 20.45500 44.36900
H  59.65900 21.27700 45.74300
H  59.83000 25.91700 45.59600
H  58.37600 27.51600 47.46000
H  59.43700 25.77300 48.44000
H  60.38700 24.83900 47.34100
H  58.75300 24.31100 47.52200
H  60.35800 28.11800 45.63600
H  59.51500 29.20300 46.65100
H  58.50500 28.34700 44.02000
H  59.82300 29.49300 44.01500
H  58.33600 30.08700 44.69800
H  54.67000 30.39600 47.37400
H  52.92700 30.85100 46.85700
H  54.39800 31.37700 45.95200
H  49.80200 27.65000 44.41200
H  48.97500 30.26300 41.07800
H  47.43300 29.44100 41.10900
H  48.81300 28.75700 40.16200
Mg 6.34900 53.82700 41.06900
C  5.94900 50.25100 40.80800
C  9.47200 53.35900 39.70200
C  6.42800 57.10500 40.41900
C  3.05600 53.91300 41.82900
N  7.45400 51.96800 40.17100
C  7.16100 50.66900 40.19200
C  8.36600 49.70500 39.83800
C  9.53400 50.70600 39.84700
C  8.77800 52.10600 39.86900
C  10.50200 50.55900 41.08800
C  8.21300 48.94300 38.46800
C  7.90900 49.73200 37.27900
H  6.87600 49.29900 36.26500
N  7.84100 55.16800 40.35600
C  9.09400 54.75700 39.86900
C  9.90100 55.94900 39.82000
C  9.02200 57.06800 39.93300
C  7.69700 56.54300 40.27300
C  11.42800 55.95300 39.52300
C  9.38000 58.51100 39.90500
O  10.52900 58.82600 39.62600
C  8.35100 59.68200 40.06500
N  4.87100 55.26800 40.81100
C  5.11400 56.62200 40.59600
C  3.86100 57.50700 40.91600
C  2.87900 56.37300 41.17300
C  3.69200 55.11300 41.44000
C  4.02400 58.52900 42.05700
C  1.83400 56.09400 40.07600
C  0.45600 56.74000 40.19400
N  4.81800 52.39900 41.45300
C  3.54500 52.60900 41.76500
C  2.84100 51.40400 42.13000
C  3.83300 50.38000 41.80200
C  4.93500 51.08900 41.29600
C  1.47700 51.19900 42.75600
C  4.11000 49.00200 41.79700
O  3.45900 48.02200 42.19500
C  5.49100 48.83600 41.04800
C  5.16600 48.02000 39.91600
O  4.78900 48.38000 38.78200
O  5.39600 46.71900 40.27300
C  4.89800 45.77900 39.31200
H  10.46000 53.23300 39.25500
H  6.31200 58.19100 40.44000
H  2.05800 54.17700 42.18600
H  8.48200 49.02100 40.67900
H  10.19200 50.57900 38.98700
H  10.40100 51.44400 41.71500
H  11.52300 50.51800 40.70700
H  10.20700 49.74200 41.74600
H  7.52000 48.10300 38.51400
H  9.21600 48.52200 38.38300
H  8.82500 49.90100 36.71200
H  7.61100 50.71100 37.65600
H  11.76500 55.00500 39.10400
H  11.97300 56.23000 40.42500
H  11.68100 56.67800 38.74900
H  8.95800 60.56800 39.87700
H  7.87200 59.74600 41.04200
H  7.73100 59.59200 39.17200
H  3.54800 57.94900 39.97000
H  2.35900 56.63700 42.09400
H  3.34600 58.47100 42.90800
H  3.78800 59.46500 41.55100
H  5.05700 58.55600 42.40200
H  1.70700 55.04400 39.81500
H  2.19800 56.51400 39.13900
H  0.44200 57.82400 40.08400
H  0.09400 56.44600 41.18000
H  -0.16500 56.21500 39.46900
H  0.68400 51.80700 42.31900
H  1.47000 51.25100 43.84500
H  1.23300 50.19400 42.41300
H  6.03500 48.23100 41.77400
H  3.88700 46.07100 39.02500
H  4.84600 44.75000 39.66700
H  5.55000 45.75600 38.44000

