158

Mg 50.31500 46.63600 41.67400
C  47.10200 46.98700 40.26600
C  50.08700 43.38000 40.78500
C  53.65800 46.45300 41.74000
C  50.47200 50.01600 42.05200
N  48.69900 45.39700 40.79600
C  47.48900 45.66300 40.32600
C  46.66900 44.47500 39.86900
C  47.57000 43.30200 40.40500
C  48.88800 44.05800 40.73400
C  47.02700 42.48800 41.60700
C  46.34100 44.49300 38.31900
C  44.96700 44.10400 37.85600
H  44.78200 43.21700 36.59800
N  51.72300 45.11000 41.47500
C  51.39000 43.83400 41.07100
C  52.55400 43.02200 41.05500
C  53.71300 43.80400 41.42100
C  53.09700 45.17900 41.61100
C  52.42900 41.62000 40.70700
C  55.19600 43.38800 41.58200
O  55.48800 42.21800 41.57100
C  56.27900 44.36700 42.05600
N  51.91600 48.07300 41.76500
C  53.17000 47.72600 41.91800
C  54.12300 48.95000 42.06500
C  53.01900 50.15400 42.29500
C  51.71800 49.42600 41.96100
C  55.26400 48.91100 43.11600
C  53.33600 51.45300 41.39200
C  53.35700 52.84700 42.18600
N  48.97300 48.29000 41.37400
C  49.22100 49.62900 41.60500
C  48.08600 50.38100 41.11000
C  47.17800 49.38300 40.54500
C  47.84200 48.17200 40.68600
C  47.88200 51.87900 41.36500
C  45.94500 49.11000 39.95800
O  44.98500 49.87900 39.58000
C  45.79800 47.53700 39.76000
C  44.68000 47.32900 40.69700
O  44.81700 47.28700 41.94100
O  43.58000 47.08700 39.89400
C  42.41400 46.70200 40.75900
H  50.12200 42.29100 40.70200
H  54.74800 46.38300 41.74400
H  50.57600 51.07500 42.29800
H  45.75600 44.56300 40.45800
H  47.96300 42.59800 39.67200
H  45.96300 42.68500 41.74600
H  47.55900 42.78800 42.50900
H  47.15800 41.42500 41.40700
H  46.95500 43.67700 37.93800
H  46.68600 45.44600 37.91800
H  44.53600 45.05300 37.53500
H  44.41100 43.73800 38.71900
H  52.08000 41.56500 39.67600
H  51.77100 41.00700 41.32200
H  53.36100 41.05500 40.69300
H  55.86100 44.98800 42.84800
H  56.61200 44.97900 41.21800
H  57.01200 43.76900 42.59800
H  54.69900 49.01100 41.14100
H  53.06300 50.46800 43.33800
H  56.06100 48.63300 42.42500
H  55.14700 48.11200 43.84800
H  55.44900 49.88500 43.56900
H  52.53400 51.51800 40.65700
H  54.29100 51.36500 40.87500
H  54.19400 53.44200 41.82100
H  53.43700 52.63700 43.25300
H  52.41500 53.31600 41.90200
H  47.98700 52.45700 40.44700
H  48.52300 52.25300 42.16300
H  46.82100 52.05400 41.54000
H  45.51500 47.34800 38.72400
H  41.69400 47.49100 40.97600
H  42.60700 46.04300 41.60600
H  41.89700 46.02800 40.07700
Mg -5.52200 25.58200 26.29100
C  -4.53300 27.42900 29.32300
C  -7.35700 23.59500 28.54500
C  -6.31700 23.72400 23.80100
C  -3.30000 27.53000 24.60300
N  -5.94700 25.59600 28.71600
C  -5.34900 26.36600 29.70600
C  -5.80600 25.85000 31.11900
C  -6.68100 24.57000 30.83700
C  -6.71700 24.59600 29.30300
C  -6.04100 23.21500 31.48000
C  -6.60400 26.89700 31.88800
C  -6.42000 27.01900 33.41800
H  -5.84400 25.93500 34.23800
N  -6.72000 23.98000 26.16900
C  -7.35000 23.27900 27.17500
C  -8.21600 22.22900 26.55400
C  -7.90400 22.26900 25.15900
C  -6.96900 23.34500 25.02700
C  -9.15700 21.36600 27.36900
C  -8.42400 21.39100 24.06100
O  -7.98800 21.38000 22.92300
C  -9.54400 20.37900 24.34600
N  -4.93800 25.66400 24.49000
C  -5.39200 24.71000 23.56800
C  -4.72300 24.88700 22.14700
C  -3.86900 26.26000 22.38000
C  -4.03100 26.45200 23.91200
C  -3.90200 23.60200 21.68600
C  -4.38300 27.65100 21.74100
C  -4.10700 27.82200 20.28900
N  -4.25100 27.18300 26.72700
C  -3.38600 27.83800 25.93100
C  -2.72600 28.87100 26.64800
C  -3.15600 28.78300 27.94200
C  -4.12900 27.75800 27.98000
C  -1.84100 29.85800 25.98000
C  -3.04000 29.32700 29.26300
O  -2.25900 30.20000 29.64900
C  -3.83200 28.47800 30.19400
C  -2.83600 27.79100 31.05300
O  -2.19400 26.80900 30.66300
O  -2.69300 28.35000 32.27500
C  -1.97300 27.50700 33.27700
H  -7.78500 22.84200 29.21000
H  -6.50200 23.14800 22.89200
H  -2.66700 28.24000 24.06700
H  -4.91500 25.59200 31.69100
H  -7.73000 24.70100 31.10300
H  -6.78900 22.65100 32.03600
H  -5.24800 23.54000 32.15300
H  -5.64400 22.56300 30.70100
H  -7.61000 26.93900 31.47000
H  -6.18400 27.77300 31.39400
H  -7.44300 27.03400 33.79200
H  -5.84400 27.94000 33.50900
H  -10.10600 21.11900 26.89400
H  -9.34100 21.74900 28.37300
H  -8.63000 20.42700 27.53800
H  -9.38100 19.67400 25.16100
H  -9.63700 19.76100 23.45200
H  -10.48600 20.91500 24.46100
H  -5.34000 24.99800 21.25600
H  -2.82100 26.11800 22.11600
H  -2.86400 23.77100 21.39900
H  -4.27300 23.23600 20.72900
H  -4.02200 22.71400 22.30700
H  -4.11100 28.51400 22.34800
H  -5.46700 27.54900 21.77900
H  -3.91100 26.82800 19.88700
H  -3.17600 28.38900 20.30000
H  -4.86000 28.40100 19.75500
H  -2.35900 30.34500 25.15400
H  -1.05600 29.34400 25.42600
H  -1.34800 30.56400 26.64900
H  -4.54900 29.04300 30.78900
H  -2.06200 26.42900 33.14000
H  -2.32700 27.82100 34.25800
H  -0.89900 27.69000 33.24200

