158

Mg 23.90200 -4.85200 45.42000
C  26.25500 -2.66000 43.86000
C  21.43900 -3.66300 43.33900
C  22.10100 -7.51300 46.25700
C  26.81400 -6.37600 46.99600
N  23.81400 -3.21500 43.82400
C  24.93800 -2.58100 43.31900
C  24.44800 -1.85200 41.99000
C  22.91400 -1.95200 42.02000
C  22.64900 -2.94400 43.17900
C  22.32800 -0.59500 42.40600
C  25.09900 -2.52800 40.76200
C  25.75200 -1.50600 39.67000
H  25.49700 -1.83900 38.18400
N  21.94100 -5.42900 45.14300
C  21.04800 -4.78100 44.23700
C  19.76000 -5.47300 44.29300
C  19.96600 -6.55100 45.24300
C  21.36000 -6.55600 45.54800
C  18.56000 -5.10300 43.48000
C  18.87400 -7.42400 45.74100
O  17.75700 -7.34800 45.17000
C  19.04700 -8.45600 46.84100
N  24.31300 -6.67400 46.55400
C  23.40800 -7.63700 46.64900
C  23.88000 -8.82800 47.55800
C  25.41200 -8.39700 47.77200
C  25.52700 -7.06300 47.03100
C  23.02200 -8.86000 48.93300
C  26.41800 -9.48800 47.27900
C  27.46000 -10.05000 48.26000
N  26.08000 -4.46000 45.61000
C  27.07200 -5.20100 46.28100
C  28.32600 -4.49300 46.13600
C  28.05600 -3.51200 45.15000
C  26.72800 -3.45400 44.90900
C  29.58600 -4.75900 46.84400
C  28.67300 -2.42200 44.31200
O  29.85800 -2.01500 44.26300
C  27.54400 -1.94600 43.35200
C  27.48600 -0.39900 43.30900
O  27.41200 0.36800 42.36900
O  27.53700 0.07300 44.59900
C  27.24200 1.52400 44.72300
H  20.71500 -3.25600 42.63000
H  21.54000 -8.42500 46.47100
H  27.58900 -6.88000 47.57600
H  24.82200 -0.83600 42.11800
H  22.40400 -2.10100 41.06800
H  21.98200 -0.00600 41.55700
H  23.11800 0.05400 42.78500
H  21.46200 -0.61900 43.06700
H  24.38500 -3.20800 40.29800
H  25.95000 -3.10500 41.12500
H  26.78200 -1.54400 40.02600
H  25.40100 -0.50100 39.90500
H  18.72200 -4.19300 42.90300
H  17.76800 -4.84800 44.18400
H  18.19700 -5.83700 42.76000
H  19.72800 -9.22300 46.47400
H  18.03800 -8.81700 47.04300
H  19.43600 -7.93900 47.71900
H  23.75700 -9.78100 47.04300
H  25.47600 -8.13100 48.82700
H  22.09600 -8.28800 48.90200
H  23.63500 -8.51700 49.76700
H  22.81300 -9.89600 49.20100
H  26.94700 -9.10100 46.40800
H  25.77000 -10.29000 46.92500
H  28.44800 -9.67300 47.99300
H  27.37800 -11.13700 48.24600
H  27.36600 -9.62100 49.25800
H  30.35700 -4.01700 46.63600
H  29.83800 -5.72900 46.41700
H  29.32500 -4.93800 47.88700
H  27.88000 -2.42900 42.43400
H  27.09000 1.81600 45.76200
H  26.30000 1.77200 44.23400
H  28.04100 2.20400 44.42700
Mg 42.71000 40.76100 26.47500
C  41.43100 43.00500 28.99400
C  43.76200 38.69400 28.90000
C  43.76500 38.75600 24.04000
C  41.88700 43.10100 24.07500
N  42.58600 40.85300 28.74000
C  41.95200 41.74800 29.55500
C  42.07800 41.43400 30.99900
C  42.92400 40.09500 30.88800
C  43.15400 39.85400 29.45400
C  44.13400 39.98700 31.79300
C  40.70600 41.23800 31.68800
C  40.64700 40.73600 33.18500
H  40.39300 41.72500 34.30900
N  43.49200 38.96000 26.47800
C  43.87300 38.24700 27.59000
C  44.34700 36.98600 27.22200
C  44.24700 36.95600 25.77600
C  43.88200 38.31300 25.34700
C  44.91500 35.90100 28.20600
C  44.51000 35.88000 24.70400
O  44.34900 35.94000 23.47000
C  45.00200 34.59600 25.34000
N  42.81300 40.92900 24.35800
C  43.32000 39.98800 23.57800
C  43.30600 40.38400 22.05900
C  42.74600 41.80500 22.06300
C  42.42400 42.00900 23.55200
C  44.65600 40.21400 21.25300
C  41.50600 41.92200 21.14300
C  40.23100 41.31200 21.70200
N  41.98000 42.67600 26.52600
C  41.63900 43.45600 25.47000
C  41.07400 44.73300 25.88500
C  40.96600 44.51700 27.28100
C  41.56200 43.28100 27.61200
C  40.93800 45.96000 25.02600
C  40.44300 45.21100 28.50900
O  40.02700 46.36800 28.68600
C  40.72800 44.13300 29.65900
C  41.63100 44.71700 30.66900
O  42.79600 45.04600 30.41800
O  40.96600 44.90800 31.86100
C  41.77000 45.56800 32.87000
H  44.02900 38.04400 29.73600
H  44.05600 38.18700 23.15500
H  41.61600 43.85800 23.33600
H  42.68000 42.20300 31.48400
H  42.34300 39.23500 31.22000
H  44.36100 40.84500 32.42700
H  44.98000 39.86100 31.11700
H  44.07100 39.12800 32.46100
H  39.96500 40.77500 31.03600
H  40.31700 42.25400 31.75800
H  41.61000 40.24600 33.32800
H  39.91700 39.93200 33.27700
H  44.41000 34.94200 28.09200
H  44.69800 36.17300 29.23900
H  45.98300 35.81400 28.00300
H  44.26400 34.19200 26.03400
H  45.90800 34.77200 25.91900
H  45.12100 33.88600 24.52100
H  42.53800 39.79900 21.55300
H  43.47900 42.53600 21.72300
H  45.41800 39.82500 21.92900
H  45.10300 41.06400 20.73800
H  44.38400 39.50400 20.47300
H  41.53600 41.42800 20.17100
H  41.44200 42.99300 20.95300
H  39.61600 41.01200 20.85400
H  39.68800 42.05300 22.29000
H  40.43300 40.49500 22.39500
H  39.89100 46.22200 24.87600
H  41.28000 45.77800 24.00700
H  41.49400 46.80500 25.43200
H  39.83100 43.69400 30.09500
H  42.72700 45.08100 33.05500
H  41.26200 45.51300 33.83300
H  41.87500 46.62300 32.62000

