158

Mg 17.08800 -2.99200 27.57900
C  16.24900 -1.02400 30.24400
C  18.65700 -5.19000 29.68900
C  17.88600 -4.76600 24.89000
C  15.55500 -0.56100 25.42100
N  17.37600 -3.10800 29.69000
C  16.93000 -2.18600 30.60600
C  17.27200 -2.68900 32.06900
C  18.09500 -3.98900 31.81600
C  18.01500 -4.13400 30.29700
C  19.54200 -4.04400 32.45300
C  16.01100 -2.92100 32.93900
C  16.11800 -2.54200 34.48600
H  17.43500 -1.91800 35.07600
N  18.05300 -4.83000 27.34300
C  18.72100 -5.51700 28.32300
C  19.34200 -6.73400 27.70400
C  19.04900 -6.67200 26.27400
C  18.29400 -5.40300 26.11800
C  20.00000 -7.80400 28.55100
C  19.42000 -7.72300 25.25000
O  19.16200 -7.61400 24.01100
C  20.17600 -8.95100 25.55400
N  16.81200 -2.73100 25.42800
C  17.25300 -3.55500 24.52500
C  17.00000 -3.07500 23.03600
C  16.21700 -1.70200 23.27900
C  16.22400 -1.63400 24.82000
C  18.23100 -2.92700 22.11000
C  14.67000 -1.71300 22.88200
C  13.52200 -2.19600 23.79600
N  15.99300 -1.18200 27.77200
C  15.43300 -0.30700 26.82500
C  14.78700 0.79700 27.50400
C  15.05700 0.53200 28.89200
C  15.83300 -0.64800 28.96800
C  14.01200 1.94400 26.84400
C  14.91400 1.06900 30.16100
O  14.43300 2.08200 30.48900
C  15.61400 0.09000 31.17700
C  16.60400 0.80800 31.93300
O  17.77500 1.08000 31.59400
O  15.95400 1.19200 33.07700
C  16.79100 2.08000 33.95900
H  19.18800 -5.84500 30.38300
H  18.14900 -5.29100 23.97000
H  15.11300 0.20800 24.78500
H  17.96100 -2.00900 32.56900
H  17.53800 -4.85800 32.16600
H  19.80200 -3.06800 32.86300
H  20.28600 -4.28800 31.69500
H  19.66900 -4.78700 33.24100
H  15.66000 -3.95100 32.88200
H  15.19900 -2.34000 32.50000
H  15.85100 -3.37600 35.13500
H  15.36900 -1.75700 34.58400
H  19.41400 -8.72200 28.53700
H  20.13100 -7.45500 29.57500
H  20.98100 -8.01400 28.12400
H  21.11000 -8.90200 26.11300
H  20.40900 -9.43600 24.60600
H  19.43700 -9.55400 26.08200
H  16.22900 -3.74700 22.66200
H  16.64900 -0.76100 22.93700
H  18.49200 -1.88000 21.95600
H  18.14900 -3.59400 21.25200
H  19.16700 -3.15400 22.62000
H  14.62800 -2.24900 21.93300
H  14.45300 -0.66800 22.66200
H  12.68300 -2.45200 23.14900
H  13.16300 -1.33200 24.35600
H  13.83600 -2.98400 24.48100
H  13.94800 1.80300 25.76500
H  14.41200 2.89800 27.18800
H  12.99500 1.89300 27.23200
H  14.82100 -0.27400 31.83100
H  17.80400 1.71600 34.12800
H  16.39700 2.13000 34.97300
H  16.96700 3.06000 33.51500
Mg 26.81500 -1.28800 29.39800
C  28.70000 -1.13500 32.24900
C  23.91800 -1.19500 31.29300
C  25.14500 -1.29500 26.48200
C  29.79800 -1.81400 27.53400
N  26.46600 -1.17800 31.53800
C  27.33200 -1.05700 32.57700
C  26.60400 -0.87800 34.00200
C  25.11900 -0.87400 33.56000
C  25.12700 -1.07600 32.00800
C  24.29400 -1.89700 34.40800
C  27.08900 0.33600 34.95500
C  26.65900 0.01900 36.41800
H  27.12900 0.91800 37.58400
N  24.88500 -1.25100 28.97800
C  23.78400 -1.32200 29.88400
C  22.63900 -1.39400 29.17100
C  22.93600 -1.29800 27.76700
C  24.38400 -1.20400 27.65800
C  21.32100 -1.67700 29.84400
C  22.01600 -1.32200 26.54500
O  22.39300 -1.01500 25.43200
C  20.46900 -1.66000 26.73700
N  27.41300 -1.56500 27.25500
C  26.52700 -1.42000 26.25600
C  27.25700 -1.45200 24.87600
C  28.70900 -1.35700 25.27200
C  28.71300 -1.55500 26.76800
C  26.83600 -2.61800 23.89600
C  29.35200 0.01100 25.03700
C  28.64100 1.29700 25.60700
N  28.78900 -1.65400 29.83600
C  29.86000 -1.87100 28.96600
C  31.08400 -1.89100 29.71400
C  30.67900 -1.58700 31.02400
C  29.29400 -1.44300 30.99000
C  32.51800 -2.03300 29.20600
C  31.09700 -1.34800 32.40700
O  32.22800 -1.42900 32.81300
C  29.85800 -0.92700 33.21700
C  29.78800 -1.84800 34.39900
O  29.52800 -3.05600 34.25200
O  30.10700 -1.13300 35.51600
C  30.23000 -1.93000 36.72700
H  23.01400 -1.01600 31.87800
H  24.65500 -1.26300 25.50600
H  30.68800 -1.91400 26.91000
H  26.79400 -1.77400 34.59200
H  24.68500 0.09000 33.82600
H  24.00300 -2.58400 33.61300
H  23.37600 -1.46700 34.80800
H  24.83600 -2.46000 35.16900
H  26.38700 1.16400 34.85200
H  28.14600 0.60000 34.92400
H  26.93500 -0.99800 36.69700
H  25.58000 0.17800 36.40600
H  20.66000 -0.91200 29.43600
H  21.33000 -1.59900 30.93200
H  21.02300 -2.66300 29.49000
H  20.07100 -2.03200 25.79300
H  20.03800 -0.74100 27.13400
H  20.23300 -2.47700 27.41900
H  26.96800 -0.55900 24.32100
H  29.31600 -2.20700 24.96200
H  26.08300 -3.23700 24.38300
H  27.70400 -3.24100 23.68100
H  26.37400 -2.20300 23.00100
H  29.49300 0.09400 23.96000
H  30.39600 0.00400 25.35400
H  29.40000 1.71200 26.27000
H  27.81800 0.96200 26.23900
H  28.32600 1.97200 24.81200
H  32.87100 -2.99900 29.56700
H  33.14500 -1.22800 29.58800
H  32.64800 -1.86400 28.13700
H  30.07500 0.12300 33.41500
H  30.08800 -3.00300 36.60400
H  29.48800 -1.57400 37.44100
H  31.27500 -1.80000 37.00900

