158

Mg 42.70700 42.28300 26.19200
C  41.73100 44.45600 28.75200
C  43.89600 40.21200 28.71800
C  43.83900 40.15600 23.78400
C  42.13000 44.76900 23.86600
N  42.60900 42.22300 28.47800
C  42.19400 43.26200 29.25900
C  42.22600 42.84400 30.75000
C  42.92100 41.46400 30.69800
C  43.12200 41.25400 29.17000
C  44.07900 41.08200 31.75600
C  40.84900 42.87800 31.46900
C  40.89600 43.66800 32.80900
H  40.08600 43.08900 33.92300
N  43.59400 40.43300 26.20800
C  44.13000 39.82600 27.33400
C  44.78600 38.60300 26.87600
C  44.78100 38.53800 25.46100
C  44.05200 39.78200 25.05600
C  45.26300 37.54000 27.90300
C  45.34000 37.47500 24.55600
O  45.24800 37.53400 23.36000
C  46.06700 36.25500 25.18400
N  42.90600 42.41600 24.11400
C  43.27100 41.40700 23.31200
C  43.23000 41.76000 21.85000
C  42.50300 43.18100 21.91600
C  42.49700 43.49300 23.41400
C  44.58100 41.75300 21.13900
C  41.12600 43.11700 21.39100
C  40.23700 41.97100 21.98100
N  42.13100 44.23700 26.26000
C  41.87900 45.07500 25.22200
C  41.45200 46.34100 25.68300
C  41.32200 46.21500 27.12100
C  41.73900 44.86100 27.40300
C  41.33600 47.53300 24.82700
C  41.00900 46.89800 28.42200
O  40.65300 48.05200 28.70300
C  41.38400 45.76500 29.52200
C  42.49900 46.29400 30.31400
O  43.71400 46.10200 30.19600
O  41.95200 47.03600 31.31700
C  42.78100 47.61100 32.30100
H  44.38000 39.63900 29.51100
H  44.14400 39.48000 22.98300
H  41.98800 45.50900 23.07600
H  42.84600 43.64700 31.14700
H  42.17400 40.69500 30.89200
H  43.85100 41.77700 32.56400
H  45.07600 41.14500 31.31800
H  43.97000 40.04700 32.07900
H  40.58000 41.86600 31.77400
H  40.04000 43.25700 30.84400
H  40.52400 44.67400 32.61400
H  41.90600 43.81900 33.19100
H  44.74900 36.63400 27.58100
H  44.94000 37.77600 28.91700
H  46.34600 37.42800 27.96100
H  45.26100 35.77600 25.73900
H  46.79000 36.68600 25.87800
H  46.42900 35.63700 24.36300
H  42.64300 40.95500 21.40800
H  43.05400 43.85800 21.26300
H  45.33900 41.89500 21.90900
H  44.57100 42.54900 20.39500
H  44.77800 40.83400 20.58700
H  41.19800 42.84400 20.33900
H  40.60800 44.07500 21.43100
H  39.96200 41.28600 21.17900
H  39.28000 42.32400 22.36500
H  40.78900 41.37000 22.70300
H  40.43700 47.59500 24.21300
H  42.30100 47.58700 24.32400
H  41.23100 48.40300 25.47500
H  40.50100 45.69000 30.15600
H  43.09400 48.60500 31.98400
H  43.62200 46.97700 32.58000
H  42.19900 47.76200 33.21000
Mg -11.91900 38.05700 42.33500
C  -9.85700 35.47400 41.05200
C  -9.90300 40.28400 40.48600
C  -14.34800 40.48500 42.50900
C  -14.06500 35.78300 43.57000
N  -10.09300 37.90700 40.92700
C  -9.48400 36.71500 40.56400
C  -8.27500 36.97400 39.63700
C  -8.07900 38.48300 39.87600
C  -9.41000 38.95000 40.39300
C  -6.78900 38.91500 40.78900
C  -8.49100 36.52600 38.19600
C  -7.50600 35.57600 37.46100
H  -6.64000 36.06600 36.28000
N  -12.05900 40.11400 41.77100
C  -11.12800 40.82800 41.02500
C  -11.47600 42.24400 41.00100
C  -12.74600 42.34500 41.57200
C  -13.17500 40.94900 41.96900
C  -10.64300 43.43600 40.38600
C  -13.57900 43.58800 41.68200
O  -13.14800 44.63900 41.19900
C  -14.93000 43.55700 42.26300
N  -13.91000 38.11300 42.81100
C  -14.74000 39.20200 42.93100
C  -16.04400 39.02900 43.57800
C  -15.84900 37.51900 43.95300
C  -14.48400 37.08600 43.39000
C  -16.34100 39.96900 44.78500
C  -17.09800 36.63700 43.41000
C  -17.61600 35.82500 44.59200
N  -12.02500 36.02600 42.31600
C  -12.92200 35.19100 42.92700
C  -12.48600 33.87200 42.88700
C  -11.34000 33.95000 42.06300
C  -11.04300 35.28100 41.74800
C  -13.17000 32.67200 43.67800
C  -10.29800 33.12900 41.41400
O  -10.13000 31.91800 41.38800
C  -9.30900 34.11800 40.73900
C  -7.96600 33.77500 41.21800
O  -7.16800 33.09200 40.56300
O  -7.70700 34.33500 42.49300
C  -6.42200 34.12400 43.15300
H  -9.29100 40.99100 39.92200
H  -15.18100 41.18900 42.57600
H  -14.75600 35.12300 44.09700
H  -7.38700 36.44800 39.98800
H  -7.86800 38.93900 38.90900
H  -6.18100 38.01300 40.73100
H  -7.10200 39.19600 41.79500
H  -6.19600 39.73600 40.38600
H  -8.60700 37.41800 37.58000
H  -9.46900 36.04400 38.18100
H  -8.00400 34.62600 37.26600
H  -6.68900 35.47800 38.17600
H  -11.16000 43.77100 39.48700
H  -9.64100 43.06300 40.17000
H  -10.51000 44.23200 41.11800
H  -15.35200 44.54900 42.42400
H  -14.93500 42.95600 43.17300
H  -15.53900 42.97300 41.57400
H  -16.75200 39.18600 42.76400
H  -15.65600 37.51600 45.02600
H  -16.74500 39.38000 45.60900
H  -16.96900 40.83100 44.56200
H  -15.42600 40.39600 45.19600
H  -16.76600 35.92600 42.65300
H  -17.90100 37.16900 42.90100
H  -18.56900 36.19100 44.97400
H  -16.90400 35.79600 45.41700
H  -17.76100 34.79200 44.27700
H  -14.18000 32.88200 44.03000
H  -12.48100 32.34100 44.45500
H  -13.40600 31.80400 43.06300
H  -9.38200 33.77700 39.70600
H  -6.04100 33.10300 43.14800
H  -6.45000 34.32800 44.22400
H  -5.82700 34.87100 42.62800

