158

Mg 9.10100 3.40100 27.59600
C  10.33400 1.58400 30.31900
C  7.37000 5.32400 29.84200
C  7.52900 4.84600 24.91300
C  10.18200 0.80800 25.40900
N  8.88300 3.41100 29.79800
C  9.58300 2.68000 30.73200
C  9.58500 3.28400 32.17900
C  8.42600 4.45900 31.95200
C  8.15500 4.36400 30.47600
C  7.15800 4.26800 32.83600
C  10.94900 3.69800 32.79100
C  10.76800 4.67400 33.94600
H  11.55800 4.36100 35.23100
N  7.60400 4.86400 27.41900
C  7.08900 5.58900 28.42600
C  6.29200 6.65300 27.91200
C  6.18300 6.48100 26.50100
C  7.15700 5.35000 26.22800
C  5.56800 7.65800 28.91900
C  5.46300 7.28000 25.46700
O  5.63500 7.12000 24.24800
C  4.53500 8.43000 25.96300
N  9.00200 2.96600 25.45400
C  8.32900 3.73900 24.57000
C  8.28100 3.08500 23.12500
C  9.21900 1.84000 23.31900
C  9.42400 1.81200 24.83100
C  6.90600 2.70200 22.44400
C  10.61600 2.04300 22.66300
C  11.16900 0.78200 22.06200
N  9.99700 1.56000 27.78100
C  10.44900 0.68900 26.79100
C  11.17900 -0.32600 27.51100
C  11.21700 -0.00300 28.86000
C  10.48400 1.18700 28.97000
C  11.88200 -1.55800 26.87100
C  11.68800 -0.38900 30.15000
O  12.30400 -1.40300 30.48600
C  11.14200 0.62200 31.22800
C  10.25900 0.06000 32.24100
O  9.09400 -0.32600 32.03000
O  10.84600 0.17200 33.46700
C  9.94800 -0.16500 34.60400
H  6.79600 5.83900 30.61600
H  6.99200 5.21500 24.03700
H  10.67300 0.08500 24.75500
H  9.18300 2.51000 32.83100
H  8.83500 5.46900 31.91900
H  6.26900 4.10200 32.22700
H  6.92000 5.01600 33.59200
H  7.27400 3.31500 33.35300
H  11.69500 4.14900 32.13800
H  11.45100 2.79200 33.13200
H  9.69600 4.65000 34.14000
H  11.07000 5.66400 33.60300
H  5.40100 7.31600 29.94100
H  4.56600 7.86900 28.54400
H  6.19900 8.54300 28.99700
H  5.19300 9.00600 26.61400
H  3.70100 8.17800 26.61800
H  4.16000 9.02500 25.13100
H  8.77800 3.79100 22.46000
H  8.78600 0.86700 23.08500
H  6.17700 2.99300 23.20100
H  6.79100 1.62500 22.32500
H  6.71400 3.14900 21.46900
H  11.39200 2.27000 23.39400
H  10.58700 2.81600 21.89400
H  10.32800 0.25000 21.61900
H  11.71200 0.29500 22.87200
H  11.90500 0.96500 21.27900
H  11.28800 -1.79400 25.98800
H  11.78500 -2.36600 27.59600
H  12.91100 -1.28100 26.64400
H  11.90500 1.15900 31.79100
H  9.66800 0.81300 34.99600
H  10.44400 -0.77400 35.35900
H  9.01700 -0.68800 34.38700
Mg 43.47800 4.30300 48.51000
C  40.95900 6.68900 47.47700
C  41.06700 1.93100 48.07600
C  46.03800 2.11400 48.45100
C  45.73000 6.85300 48.29500
N  41.29300 4.32500 47.70500
C  40.43600 5.37900 47.34000
C  39.02100 4.87400 47.12300
C  39.03700 3.31900 47.56000
C  40.55100 3.15800 47.76200
C  38.29800 2.99800 48.92200
C  38.53500 5.05000 45.66000
C  37.54300 6.15200 45.20700
H  37.90200 6.91200 43.89000
N  43.51700 2.25000 48.46800
C  42.40800 1.47800 48.34200
C  42.88600 0.07400 48.35200
C  44.27000 0.11600 48.48000
C  44.71000 1.52400 48.39300
C  41.94500 -1.13800 48.36900
C  45.06600 -1.10200 48.76100
O  44.54400 -2.18200 48.85000
C  46.51600 -1.09100 49.05400
N  45.61300 4.46400 48.27000
C  46.43000 3.41700 48.36700
C  47.92100 3.89800 48.53900
C  47.83800 5.45300 48.43600
C  46.34700 5.63700 48.34300
C  48.52700 3.35500 49.87400
C  48.67300 6.14400 47.22000
C  50.12600 6.69400 47.54000
N  43.43400 6.30800 48.02700
C  44.40400 7.26200 48.03800
C  43.90200 8.61400 47.78700
C  42.54500 8.36900 47.69500
C  42.32400 7.03800 47.75200
C  44.66600 9.84000 47.75700
C  41.25400 9.08400 47.49000
O  40.99700 10.25900 47.40900
C  40.19700 7.95400 47.35900
C  39.29400 8.12300 48.48600
O  39.08200 7.37000 49.44300
O  38.46400 9.18300 48.19800
C  37.38700 9.39200 49.13500
H  40.33000 1.17400 47.80200
H  46.83700 1.37000 48.48200
H  46.55400 7.56900 48.26000
H  38.31700 5.39400 47.77300
H  38.69800 2.60700 46.80700
H  38.98700 2.82000 49.74700
H  37.62400 2.15600 48.76300
H  37.62000 3.80000 49.21200
H  38.14100 4.12900 45.23000
H  39.36500 5.20400 44.97000
H  37.45100 6.94500 45.95000
H  36.55500 5.72900 45.02500
H  40.94900 -0.69700 48.32400
H  42.15800 -1.66500 49.29900
H  42.21200 -1.86300 47.59900
H  46.92900 -1.11500 48.04500
H  46.81500 -1.93500 49.67500
H  46.79800 -0.24300 49.67800
H  48.55800 3.46000 47.77100
H  48.11600 5.95800 49.36200
H  48.84900 4.09900 50.60300
H  49.35600 2.73500 49.52900
H  47.82100 2.77500 50.46800
H  48.15700 7.01400 46.81400
H  48.72500 5.45600 46.37600
H  50.90300 6.18200 46.97100
H  50.21300 6.51300 48.61100
H  50.13200 7.76300 47.32700
H  44.46300 10.31700 46.79800
H  45.72600 9.58900 47.73000
H  44.40800 10.50800 48.57800
H  39.71300 8.07600 46.39000
H  36.68800 8.56400 49.25200
H  36.70500 10.21600 48.92500
H  37.80900 9.57200 50.12400

