158

Mg 23.85200 -4.76400 45.10300
C  26.23900 -2.38400 43.68500
C  21.36400 -3.18100 43.31100
C  21.88900 -7.33900 45.87100
C  26.71500 -6.38300 46.47300
N  23.89600 -3.08800 43.65800
C  24.91700 -2.33100 43.20800
C  24.43100 -1.24000 42.24000
C  22.88300 -1.34800 42.22500
C  22.70200 -2.61600 43.10400
C  22.12100 -0.17200 42.90200
C  25.16100 -1.41200 40.92200
C  25.20200 -0.25100 39.97300
H  24.85400 -0.51000 38.45500
N  21.88800 -5.21300 44.67700
C  21.03700 -4.37300 44.06400
C  19.73000 -5.00100 44.08500
C  19.76700 -6.21800 44.74200
C  21.19300 -6.29000 45.16900
C  18.51100 -4.42800 43.25900
C  18.64300 -7.25200 45.00900
O  17.53400 -7.12500 44.54600
C  18.90500 -8.53200 45.73600
N  24.34100 -6.70400 45.75900
C  23.25900 -7.48500 46.19900
C  23.83900 -8.76700 46.95000
C  25.34300 -8.38400 47.25000
C  25.50200 -7.07500 46.41500
C  23.08800 -9.25800 48.19500
C  26.42100 -9.44200 47.08500
C  27.41900 -9.61200 48.26600
N  26.01000 -4.38100 45.22200
C  26.99300 -5.12600 45.93900
C  28.31600 -4.52300 45.67700
C  28.08500 -3.47500 44.82300
C  26.64100 -3.33400 44.66700
C  29.59000 -4.93600 46.37100
C  28.70800 -2.38900 44.08000
O  29.83400 -2.01500 44.03800
C  27.51100 -1.73500 43.28000
C  27.39700 -0.30300 43.57200
O  26.95100 0.16300 44.60200
O  27.90300 0.46900 42.55500
C  27.73900 1.90700 42.62300
H  20.61300 -2.67900 42.69900
H  21.32000 -8.21000 46.20300
H  27.50900 -6.90500 47.01100
H  24.79600 -0.30800 42.67300
H  22.43500 -1.47000 41.23900
H  21.25400 -0.44900 43.50300
H  21.61500 0.45700 42.17000
H  22.70600 0.43900 43.58900
H  24.75700 -2.33000 40.49500
H  26.19300 -1.75900 40.96600
H  26.17200 0.21700 40.14300
H  24.47400 0.49600 40.28700
H  18.85000 -3.73000 42.49400
H  17.74600 -4.01500 43.91700
H  18.01500 -5.26600 42.77000
H  18.05700 -9.19600 45.90900
H  19.30400 -8.26800 46.71600
H  19.56200 -9.14000 45.11300
H  23.94000 -9.61900 46.27800
H  25.37400 -7.97100 48.25800
H  22.67300 -10.23500 47.94700
H  22.17000 -8.69800 48.37100
H  23.67400 -9.40400 49.10200
H  26.90600 -9.32600 46.11600
H  25.88400 -10.38700 47.01100
H  27.09500 -10.41600 48.92700
H  27.54200 -8.77400 48.95200
H  28.40200 -9.74100 47.81400
H  29.55700 -6.02400 46.32400
H  29.65700 -4.60700 47.40800
H  30.45600 -4.61100 45.79400
H  27.74700 -1.78300 42.21700
H  27.10800 2.26100 43.43800
H  27.22700 2.21500 41.71200
H  28.73200 2.35300 42.68900
Mg 24.67100 1.84700 29.45600
C  26.95900 1.61900 32.16100
C  22.10600 1.88400 31.69700
C  22.65000 2.00200 26.85800
C  27.38800 1.31400 27.32800
N  24.58900 1.74200 31.68100
C  25.63700 1.89300 32.56800
C  25.12200 2.11500 34.00600
C  23.57200 1.94300 33.89200
C  23.39500 1.89000 32.35300
C  22.81200 0.78200 34.73500
C  25.59500 3.36400 34.80100
C  24.97400 3.63800 36.20100
H  25.90300 3.40600 37.35700
N  22.69200 1.96000 29.34100
C  21.75600 1.90800 30.35100
C  20.41600 1.82300 29.77600
C  20.58100 1.80300 28.35000
C  22.03200 1.98000 28.12400
C  19.18600 1.80500 30.60600
C  19.48100 1.54300 27.30800
O  19.74900 1.57100 26.07600
C  18.00200 1.17700 27.78300
N  25.01300 1.80400 27.43900
C  23.99700 1.98000 26.49900
C  24.49100 1.87300 24.99900
C  26.10200 1.88900 25.24600
C  26.20100 1.59900 26.73500
C  23.98800 0.73000 24.22500
C  26.91000 3.16800 24.75900
C  26.68300 4.43500 25.53400
N  26.80300 1.53900 29.65700
C  27.71400 1.24700 28.67300
C  29.04500 1.04900 29.29500
C  28.78900 1.20600 30.73100
C  27.36600 1.43100 30.82800
C  30.37300 0.66900 28.62900
C  29.39900 1.20500 32.04200
O  30.57600 0.98500 32.30300
C  28.25300 1.57500 33.02000
C  28.19000 0.60200 34.11000
O  27.50400 -0.38600 34.20900
O  29.01600 0.95300 35.10800
C  29.19400 -0.02800 36.20400
H  21.31100 1.87300 32.44700
H  21.94900 1.98700 26.02100
H  28.18900 1.02300 26.64600
H  25.44600 1.22300 34.54300
H  23.04300 2.82500 34.25400
H  21.93900 0.96800 35.36100
H  23.57700 0.23600 35.28600
H  22.43800 0.14500 33.93400
H  25.33000 4.20000 34.15400
H  26.67900 3.24800 34.79200
H  24.09300 3.02000 36.37300
H  24.61100 4.66500 36.14700
H  18.83200 2.82900 30.48800
H  19.37100 1.79200 31.68000
H  18.51200 0.98800 30.34500
H  17.51700 1.92200 28.41300
H  18.14900 0.18200 28.20400
H  17.53700 0.83900 26.85600
H  24.21900 2.75400 24.41700
H  26.62300 1.11500 24.68400
H  23.00300 0.38900 24.54400
H  24.62100 -0.15700 24.27100
H  23.83500 0.92100 23.16300
H  26.47100 3.42700 23.79500
H  27.90900 2.88900 24.42600
H  26.37800 4.40700 26.58000
H  25.98900 5.08300 24.99700
H  27.67000 4.89600 25.54500
H  30.55100 1.33300 27.78400
H  30.44000 -0.33200 28.20400
H  31.12900 0.90600 29.37800
H  28.53200 2.54800 33.42600
H  28.49800 0.15300 37.02400
H  30.14600 0.09900 36.71900
H  29.15800 -1.03200 35.78000

