158

Mg 1.70900 -1.29700 43.39800
C  5.10600 -0.25400 43.32200
C  0.96800 1.57900 41.72200
C  -1.42900 -2.42500 42.97700
C  2.82400 -4.47800 44.18400
N  2.88300 0.27400 42.53100
C  4.18700 0.59800 42.61700
C  4.62800 1.94300 42.00300
C  3.18600 2.56300 42.03000
C  2.27200 1.38000 42.07900
C  2.94200 3.73900 43.04500
C  5.15800 1.63600 40.52300
C  6.12700 2.72100 39.80000
H  5.52800 3.62000 38.65700
N  -0.02800 -0.48900 42.59100
C  -0.12400 0.71200 41.91700
C  -1.49000 0.91100 41.49200
C  -2.25400 -0.17900 41.98800
C  -1.25000 -1.08900 42.58100
C  -2.04800 2.20500 40.90300
C  -3.77100 -0.22800 42.13100
O  -4.50900 0.66100 41.70500
C  -4.49100 -1.34700 42.75800
N  0.84100 -3.18700 43.53500
C  -0.49700 -3.40200 43.31400
C  -0.80200 -4.92400 43.40400
C  0.48400 -5.45100 44.09700
C  1.46900 -4.29700 43.90500
C  -2.03300 -5.32600 44.16100
C  1.01300 -6.82900 43.66200
C  1.79300 -7.71800 44.71200
N  3.52700 -2.22400 43.71200
C  3.82100 -3.55400 43.98200
C  5.28800 -3.74300 44.04300
C  5.81400 -2.49400 43.88400
C  4.74200 -1.59400 43.61900
C  6.07100 -4.95500 44.47900
C  6.98800 -1.80300 43.90000
O  8.16200 -2.13500 44.11200
C  6.59500 -0.25000 43.42400
C  6.99000 0.57600 44.56300
O  6.77000 0.39400 45.71500
O  7.87100 1.50800 44.08500
C  8.66400 2.24700 45.10700
H  0.77400 2.56800 41.30000
H  -2.39500 -2.88000 42.74900
H  3.15600 -5.50800 44.32500
H  5.31900 2.61200 42.51400
H  3.11400 3.03200 41.04800
H  3.77200 4.43800 42.94700
H  2.86700 3.53900 44.11300
H  2.05600 4.32000 42.78600
H  4.34800 1.23500 39.91300
H  5.75500 0.73700 40.67100
H  7.04500 2.20700 39.51500
H  6.27900 3.44500 40.60100
H  -1.28700 2.97600 40.78200
H  -2.72000 2.59600 41.66700
H  -2.52500 1.91100 39.96800
H  -5.54500 -1.10000 42.88500
H  -4.02200 -1.43100 43.73800
H  -4.27900 -2.28400 42.24400
H  -0.73600 -5.31900 42.39000
H  0.32800 -5.47600 45.17500
H  -1.85300 -5.81200 45.12000
H  -2.55500 -6.19400 43.75600
H  -2.75300 -4.51300 44.24400
H  1.52200 -6.76500 42.70100
H  0.11600 -7.40400 43.43200
H  1.14000 -8.45700 45.17600
H  2.30000 -7.20800 45.53200
H  2.49700 -8.27200 44.09100
H  5.37400 -5.50200 45.11300
H  6.90900 -4.52200 45.02600
H  6.44800 -5.46600 43.59300
H  7.26700 -0.02300 42.59700
H  8.68700 3.32500 44.94700
H  9.64700 1.77900 45.05500
H  8.41900 2.12300 46.16200
Mg 24.50500 -5.74000 45.75700
C  27.00900 -3.49900 44.27600
C  22.28600 -4.41700 43.60100
C  22.69900 -8.48000 46.14000
C  27.30900 -7.34400 47.20900
N  24.70500 -4.26600 44.02600
C  25.76000 -3.43900 43.64200
C  25.32500 -2.42500 42.53100
C  23.75100 -2.61000 42.56400
C  23.57600 -3.91700 43.36400
C  22.98100 -1.39300 43.12000
C  26.00500 -2.76800 41.18800
C  26.32400 -1.46500 40.36900
H  25.78100 -1.37100 38.95000
N  22.63100 -6.28300 45.17000
C  21.81100 -5.52600 44.31600
C  20.55700 -6.23900 44.08100
C  20.72900 -7.52300 44.71900
C  22.09600 -7.48600 45.34300
C  19.41900 -5.71600 43.26300
C  19.70700 -8.65000 44.67700
O  18.59700 -8.52300 44.18500
C  20.05800 -10.08100 44.93500
N  24.99100 -7.66000 46.57200
C  24.01900 -8.55500 46.69300
C  24.48600 -9.79000 47.55900
C  25.92500 -9.36400 48.02000
C  26.13300 -8.04200 47.24100
C  23.56200 -10.22900 48.70000
C  27.07900 -10.39300 47.72900
C  27.75500 -10.90400 48.95800
N  26.68800 -5.40500 45.98700
C  27.64700 -6.15400 46.63200
C  28.92300 -5.40100 46.68700
C  28.63900 -4.34300 45.74500
C  27.30300 -4.47800 45.26900
C  30.30500 -5.74500 47.28500
C  29.31500 -3.32000 45.05100
O  30.50200 -3.04800 45.11600
C  28.22500 -2.61100 44.08700
C  27.98600 -1.17100 44.58900
O  27.88700 -0.79500 45.75300
O  28.06200 -0.31100 43.50600
C  27.99600 1.12000 43.82700
H  21.48600 -3.95500 43.01800
H  22.01300 -9.28700 46.40300
H  28.15800 -7.68700 47.80300
H  25.48600 -1.38400 42.81400
H  23.41700 -2.94200 41.58200
H  23.59500 -0.50200 42.99300
H  22.77300 -1.57400 44.17500
H  22.05000 -1.11800 42.62400
H  25.36600 -3.41500 40.58800
H  26.87300 -3.41200 41.32900
H  27.39500 -1.27100 40.43400
H  25.94000 -0.60800 40.92300
H  19.64900 -6.14600 42.28800
H  19.41100 -4.62700 43.21400
H  18.45300 -6.05100 43.64200
H  19.44300 -10.74900 44.33100
H  19.89400 -10.31900 45.98600
H  21.08600 -10.21700 44.59900
H  24.57700 -10.62900 46.87000
H  26.03300 -9.02900 49.05100
H  22.86600 -11.03100 48.45400
H  22.88200 -9.38700 48.82600
H  24.16000 -10.43500 49.58700
H  27.75100 -9.93900 47.00100
H  26.69700 -11.24500 47.16800
H  27.57200 -10.30000 49.84700
H  28.80900 -10.94900 48.68200
H  27.47500 -11.88600 49.33800
H  30.14100 -5.95100 48.34300
H  30.99300 -4.91800 47.11000
H  30.68900 -6.65700 46.82800
H  28.60800 -2.56200 43.06800
H  27.98300 1.78800 42.96600
H  28.91200 1.45200 44.31600
H  27.13800 1.46500 44.40400

