158

Mg 17.25300 -1.35400 27.54600
C  16.24700 0.79900 30.18500
C  19.25400 -3.04200 29.78200
C  18.73000 -2.77800 24.95600
C  15.80800 0.96700 25.38000
N  17.76200 -1.12900 29.70400
C  17.12100 -0.26200 30.54300
C  17.69900 -0.47100 32.06200
C  18.64700 -1.71900 31.88000
C  18.59100 -1.95300 30.35600
C  20.04200 -1.63200 32.50500
C  16.58000 -0.64100 33.24100
C  16.97100 0.13400 34.57500
H  18.43700 0.36500 34.87800
N  18.74200 -2.81200 27.35800
C  19.31800 -3.47500 28.38900
C  20.19500 -4.51400 27.84800
C  20.05100 -4.45600 26.43100
C  19.12700 -3.37500 26.18500
C  20.89500 -5.47900 28.78900
C  20.73200 -5.29200 25.37400
O  20.49200 -5.21800 24.16600
C  21.90300 -6.11200 25.76300
N  17.27000 -0.97100 25.40900
C  17.99300 -1.67700 24.57200
C  17.79800 -1.22900 23.10300
C  16.67700 -0.17700 23.27800
C  16.56800 -0.04700 24.76500
C  19.00900 -0.67800 22.26600
C  15.31500 -0.41700 22.58100
C  15.20100 0.09700 21.09100
N  16.04000 0.41100 27.70700
C  15.56900 1.26800 26.76700
C  14.79500 2.36100 27.28400
C  15.00100 2.19300 28.65700
C  15.86600 1.02900 28.87000
C  14.02100 3.51100 26.49600
C  14.67900 2.72800 29.93000
O  13.93400 3.62800 30.34900
C  15.53600 1.81800 30.96200
C  16.52900 2.80900 31.69300
O  17.68100 3.06800 31.29700
O  15.95600 3.22200 32.91000
C  16.80700 4.09200 33.79500
H  19.79600 -3.60600 30.54400
H  19.11100 -3.30900 24.08200
H  15.26900 1.75600 24.85000
H  18.24900 0.45500 32.23100
H  18.16900 -2.51900 32.44400
H  20.11800 -0.89400 33.30400
H  20.61600 -1.39400 31.60900
H  20.34400 -2.60800 32.88500
H  16.54600 -1.71300 33.43600
H  15.59300 -0.32000 32.91000
H  16.39800 -0.35500 35.36200
H  16.56500 1.14200 34.66300
H  21.94900 -5.65000 28.57200
H  20.32100 -6.39400 28.64300
H  20.74300 -5.30800 29.85400
H  22.31800 -6.62400 24.89500
H  21.65200 -6.88600 26.48800
H  22.74700 -5.50900 26.09900
H  17.31400 -1.98600 22.48600
H  16.98400 0.79100 22.88100
H  19.84500 -1.12200 22.80700
H  19.06800 0.41000 22.28900
H  19.06500 -0.98000 21.22000
H  14.52200 0.05600 23.15900
H  15.10800 -1.48400 22.66000
H  14.33900 0.76100 21.03300
H  15.01500 -0.76600 20.45300
H  16.07100 0.66900 20.76800
H  14.01600 3.22700 25.44400
H  14.52000 4.47700 26.58000
H  13.03300 3.67400 26.92600
H  14.86900 1.55700 31.78400
H  17.77100 4.45300 33.43600
H  17.07500 3.47000 34.64800
H  16.21400 4.89100 34.24200
Mg 47.24500 33.64300 26.58300
C  45.63900 32.76100 29.45500
C  47.64200 37.01200 27.99000
C  48.50900 34.86100 23.61300
C  46.54900 30.71900 25.10000
N  46.87800 34.76900 28.55300
C  46.17100 34.11500 29.53800
C  46.14700 34.98600 30.74600
C  46.60000 36.34700 30.20800
C  47.10400 36.07800 28.82500
C  45.46000 37.38400 30.41600
C  47.01300 34.33700 31.96200
C  46.32300 34.57900 33.36000
H  45.10600 35.56800 33.45000
N  47.95900 35.63000 25.90300
C  48.07900 36.82900 26.60400
C  48.74200 37.81600 25.79500
C  49.15700 37.22400 24.57900
C  48.54200 35.87500 24.68100
C  49.03800 39.26300 26.31900
C  49.90400 37.73900 23.34200
O  50.32300 37.00200 22.41200
C  50.22100 39.14400 23.19200
N  47.54200 32.92800 24.58500
C  48.08600 33.57400 23.57900
C  48.20700 32.68800 22.32900
C  47.51900 31.40400 22.77600
C  47.19200 31.65100 24.29000
C  47.66400 33.30200 21.04700
C  48.32100 30.08300 22.62000
C  49.69300 29.96300 23.37000
N  46.42600 31.90600 27.19700
C  46.07900 30.83500 26.43200
C  45.19400 30.00300 27.22900
C  44.93700 30.69000 28.40600
C  45.74600 31.81100 28.38000
C  44.53800 28.81200 26.72300
C  44.17700 30.71900 29.63100
O  43.38500 29.94800 30.07000
C  44.67500 32.02200 30.38000
C  45.01800 31.49800 31.80300
O  46.15200 31.11200 32.18000
O  43.97100 31.68100 32.68700
C  44.19600 31.04800 33.99600
H  47.68900 38.01700 28.41400
H  49.04200 35.08600 22.68700
H  46.33200 29.70600 24.75400
H  45.10700 34.95400 31.07100
H  47.48700 36.72600 30.71600
H  45.66700 38.15400 31.15900
H  44.49900 36.97900 30.73400
H  45.22100 37.96800 29.52800
H  47.91900 34.93200 32.08100
H  47.39300 33.32500 31.81800
H  47.11900 35.02300 33.95600
H  46.11500 33.56100 33.69000
H  48.71400 40.08300 25.67800
H  50.12200 39.36400 26.37700
H  48.59500 39.50600 27.28500
H  49.26700 39.66600 23.11200
H  50.89800 39.28300 22.35000
H  50.83000 39.46300 24.03700
H  49.24400 32.39200 22.17300
H  46.58000 31.20600 22.26000
H  46.85600 32.69200 20.64400
H  48.50300 33.42600 20.36200
H  47.25900 34.30600 21.17100
H  48.58500 30.10900 21.56300
H  47.64500 29.24500 22.78900
H  50.01500 28.94100 23.57300
H  49.60700 30.38300 24.37100
H  50.59200 30.38100 22.91600
H  44.13900 29.02900 25.73300
H  43.84000 28.44500 27.47600
H  45.26400 28.01700 26.54900
H  43.84600 32.70800 30.55600
H  44.96400 31.61000 34.52800
H  44.53800 30.01300 33.98900
H  43.32900 31.01500 34.65600

