158

Mg 8.86100 3.81000 28.48000
C  10.30900 2.10700 31.24600
C  7.37600 5.88000 30.44800
C  7.55900 5.18600 25.63000
C  9.92300 0.88300 26.48300
N  8.92000 3.96000 30.64200
C  9.57800 3.26200 31.57800
C  9.22500 3.84700 32.96400
C  8.30700 5.09000 32.59700
C  8.22500 4.97600 31.10000
C  6.93700 5.09000 33.34900
C  10.47900 4.16500 33.84800
C  10.37800 5.42000 34.89700
H  10.94500 5.21100 36.26300
N  7.67900 5.38500 28.08200
C  7.05900 6.09900 29.10700
C  6.42500 7.18800 28.47600
C  6.41100 6.99200 27.06100
C  7.27900 5.83300 26.86600
C  5.81700 8.38200 29.27800
C  5.66500 7.76100 25.96900
O  5.75600 7.51900 24.75100
C  4.77200 8.87500 26.29200
N  8.77700 3.07900 26.35300
C  8.22200 3.86000 25.40300
C  8.05500 3.05700 24.10700
C  9.00000 1.78800 24.37600
C  9.26400 1.92500 25.86300
C  6.65200 2.61300 23.61700
C  10.30100 1.67600 23.44700
C  10.61200 0.37200 22.66800
N  9.98200 2.00200 28.72200
C  10.36500 0.95900 27.85900
C  11.16800 0.00400 28.52800
C  11.31000 0.45300 29.81700
C  10.53900 1.66100 29.92300
C  11.83600 -1.21500 27.90300
C  11.86100 0.20200 31.16000
O  12.66500 -0.61500 31.61400
C  11.14000 1.20800 32.11900
C  10.27700 0.32400 32.96500
O  9.38100 -0.37400 32.53200
O  10.53900 0.40000 34.27900
C  9.61500 -0.22700 35.21400
H  6.93300 6.62800 31.10900
H  7.23200 5.67200 24.70800
H  10.07900 -0.01700 25.88500
H  8.62200 3.04700 33.39300
H  8.81700 6.03700 32.77100
H  6.02900 4.94300 32.76400
H  6.73700 6.03300 33.85700
H  6.87700 4.40100 34.19100
H  11.38200 4.36900 33.27100
H  10.76000 3.25900 34.38500
H  9.32400 5.69400 34.93000
H  10.97900 6.23200 34.48800
H  4.75400 8.18900 29.42400
H  5.95500 9.34600 28.78800
H  6.03400 8.47700 30.34200
H  4.33500 8.86700 27.29000
H  3.98800 8.75800 25.54300
H  5.33600 9.79200 26.12300
H  8.54200 3.62700 23.31600
H  8.43000 0.86800 24.24900
H  6.00700 3.32600 24.13100
H  6.38000 1.64600 24.04000
H  6.81400 2.85100 22.56600
H  11.20200 1.88000 24.02600
H  10.40000 2.46000 22.69500
H  9.91800 -0.36400 23.07400
H  11.61400 0.06100 22.96400
H  10.51300 0.58000 21.60300
H  11.23900 -1.59200 27.07200
H  11.89500 -1.94700 28.70900
H  12.84700 -0.90100 27.64400
H  11.80900 1.84500 32.69700
H  9.55400 0.29500 36.16900
H  9.91700 -1.22200 35.54000
H  8.56900 -0.22700 34.91000
Mg 30.69800 59.41800 39.11500
C  27.75100 57.78300 37.63400
C  32.45500 56.70500 37.85900
C  33.49400 61.29600 39.34400
C  28.71500 62.38300 39.25500
N  30.16900 57.51000 37.74800
C  28.89300 57.02600 37.43400
C  28.97400 55.61300 36.81700
C  30.46200 55.21900 37.10000
C  31.09600 56.56700 37.53500
C  30.67500 54.00100 38.09900
C  28.65500 55.61400 35.29500
C  27.66200 54.67300 34.75300
H  26.72200 55.26900 33.68100
N  32.74400 58.98400 38.80100
C  33.25600 57.76900 38.39600
C  34.71000 57.84800 38.53000
C  35.02500 59.16900 38.95300
C  33.72800 59.89600 39.08600
C  35.62500 56.72500 38.18000
C  36.44800 59.64500 39.15000
O  37.39800 58.92900 38.95300
C  36.71200 61.00500 39.69700
N  31.03500 61.52600 39.36000
C  32.33400 62.07000 39.53100
C  32.22900 63.61700 39.57200
C  30.66500 63.91700 39.65900
C  30.06600 62.54100 39.36600
C  33.07700 64.21600 40.73100
C  30.04200 65.01900 38.69300
C  29.12700 65.98200 39.38700
N  28.64100 59.99000 38.79500
C  28.00100 61.21100 38.97200
C  26.59400 61.05600 38.65800
C  26.48400 59.73400 38.13900
C  27.71700 59.09400 38.22600
C  25.53600 62.17800 38.61700
C  25.55900 58.80300 37.54700
O  24.34000 58.93200 37.28600
C  26.30200 57.51100 37.25600
C  25.71600 56.43900 38.12300
O  25.73200 56.33900 39.36600
O  25.16100 55.54100 37.29200
C  24.57500 54.41600 37.99700
H  32.91900 55.72200 37.75800
H  34.32100 62.00500 39.41100
H  28.17900 63.32700 39.37400
H  28.28100 55.00500 37.39800
H  31.01000 54.96300 36.19300
H  31.08200 54.32900 39.05500
H  31.35700 53.31800 37.59300
H  29.74900 53.44100 38.22800
H  29.58700 55.43100 34.76000
H  28.37200 56.63800 35.05500
H  27.03700 54.27900 35.55400
H  28.23200 53.86900 34.28800
H  36.40700 56.57000 38.92300
H  36.09600 57.10100 37.27200
H  35.11700 55.76600 38.08800
H  37.77000 61.12600 39.92600
H  36.07000 61.19700 40.55600
H  36.53100 61.75800 38.93000
H  32.64100 63.87000 38.59500
H  30.33300 64.04300 40.68900
H  32.65300 64.91200 41.45500
H  33.84000 64.81600 40.23700
H  33.58600 63.47200 41.34400
H  29.44500 64.45400 37.97700
H  30.80200 65.55300 38.12300
H  29.53200 66.99400 39.36800
H  28.96100 65.72600 40.43400
H  28.10600 65.95200 39.00900
H  24.95700 62.18600 37.69400
H  25.91600 63.16700 38.87300
H  24.87000 62.03600 39.46800
H  26.22400 57.31200 36.18800
H  25.26700 53.57400 38.01300
H  23.63600 54.21500 37.48100
H  24.35000 54.53200 39.05700

