158

Mg 4.65300 54.20000 41.41700
C  3.57600 50.88600 41.13500
C  7.33500 53.23100 39.29700
C  5.57500 57.43200 41.12400
C  1.66400 55.00900 42.88400
N  5.30700 52.26600 40.23800
C  4.72000 51.10000 40.37300
C  5.47000 50.07800 39.55000
C  6.78100 50.74000 39.25800
C  6.48000 52.23600 39.58900
C  7.98600 50.06700 40.00800
C  4.64800 49.86800 38.13800
C  4.71700 48.42900 37.62800
H  5.38400 48.23200 36.31000
N  6.20900 55.18700 40.41700
C  7.25000 54.59000 39.65800
C  8.17400 55.56100 39.30800
C  7.78000 56.83800 39.80700
C  6.48800 56.58600 40.46500
C  9.38400 55.19900 38.50300
C  8.50100 58.20000 39.70500
O  9.57400 58.19300 39.14500
C  7.96700 59.39200 40.34300
N  3.75200 55.99500 41.85300
C  4.32100 57.17700 41.69900
C  3.45900 58.29700 42.41700
C  2.20500 57.50600 42.96800
C  2.55700 56.07900 42.49700
C  4.12900 59.23500 43.43200
C  0.75700 57.95700 42.55900
C  0.37700 57.35500 41.21600
N  2.97900 53.18800 42.01400
C  1.82000 53.60400 42.64500
C  1.00700 52.52900 43.01200
C  1.66600 51.37300 42.51100
C  2.80700 51.87500 41.84400
C  -0.28800 52.63600 43.70000
C  1.64900 49.90700 42.34700
O  0.81500 49.08200 42.69900
C  2.90200 49.51400 41.47900
C  2.53900 48.66100 40.40300
O  1.75500 48.94400 39.52700
O  3.05700 47.43300 40.61200
C  2.48600 46.29500 39.94000
H  8.24400 52.98300 38.74500
H  5.80800 58.49200 41.23900
H  0.75400 55.21500 43.45100
H  5.64300 49.12200 40.04400
H  7.15900 50.63200 38.24100
H  8.56700 50.82000 40.53900
H  8.70800 49.59100 39.34400
H  7.61500 49.41300 40.79700
H  5.02000 50.59200 37.41300
H  3.63200 50.24500 38.26000
H  3.66200 48.15800 37.59500
H  5.28000 47.79000 38.30800
H  9.94400 54.38600 38.96300
H  10.05900 55.98900 38.17300
H  9.03700 54.80300 37.54800
H  7.03100 59.72400 39.89300
H  8.65800 60.22000 40.18500
H  7.97200 59.21700 41.41900
H  3.04200 58.91700 41.62300
H  2.32900 57.48800 44.05100
H  5.10600 58.83400 43.70300
H  3.46200 59.43400 44.27100
H  4.41000 60.12700 42.87200
H  0.72700 59.03100 42.37500
H  0.07100 57.71600 43.37000
H  -0.28600 58.06400 40.72100
H  -0.34000 56.53600 41.27300
H  1.05100 57.10700 40.39600
H  -0.10200 52.24200 44.69900
H  -1.04900 52.15000 43.08900
H  -0.53500 53.67300 43.92500
H  3.56300 48.93600 42.12400
H  2.79400 46.24700 38.89500
H  1.41600 46.39700 40.11800
H  2.74200 45.31800 40.34900
Mg -11.64900 39.36100 41.32400
C  -10.21000 36.17400 40.72600
C  -9.01500 40.83400 39.69900
C  -13.32400 42.28600 41.27100
C  -14.50800 37.68100 42.44500
N  -9.90500 38.59100 40.28600
C  -9.55100 37.29100 40.20300
C  -8.23400 37.16100 39.40800
C  -7.77600 38.64300 39.23600
C  -8.93200 39.42900 39.83300
C  -6.39600 39.02800 39.74000
C  -8.36000 36.30600 38.08500
C  -7.26800 35.28500 37.81400
H  -6.10300 35.70800 36.97300
N  -11.15100 41.36900 40.67300
C  -10.05700 41.67400 40.00200
C  -10.03800 43.13300 39.83700
C  -11.27900 43.62500 40.16300
C  -11.99100 42.41300 40.71000
C  -8.91000 43.89400 39.18700
C  -11.90100 45.04000 40.00900
O  -11.17700 45.94100 39.59400
C  -13.26200 45.42800 40.39000
N  -13.69400 39.86700 41.55100
C  -14.10200 41.15600 41.64700
C  -15.44200 41.26500 42.24900
C  -15.65600 39.85400 42.85700
C  -14.57400 39.07300 42.16300
C  -15.57600 42.33500 43.29000
C  -17.20300 39.40400 42.76400
C  -17.63000 38.84900 41.40800
N  -12.26500 37.29700 41.70900
C  -13.45200 36.77900 42.15300
C  -13.30300 35.34700 42.27900
C  -12.03300 35.04600 41.72900
C  -11.45400 36.28400 41.42200
C  -14.32400 34.42400 42.83400
C  -11.06700 34.00500 41.48300
O  -11.00800 32.76500 41.69400
C  -9.88000 34.72200 40.81400
C  -8.57300 34.37500 41.56000
O  -7.78500 33.45900 41.40100
O  -8.36300 35.33900 42.49300
C  -7.22800 35.13600 43.37900
H  -8.07600 41.29000 39.37800
H  -13.82400 43.23200 41.48800
H  -15.32900 37.19700 42.97800
H  -7.49200 36.71300 40.06900
H  -7.85100 38.85300 38.16900
H  -5.88300 39.68100 39.03400
H  -5.78200 38.13900 39.88800
H  -6.60800 39.67700 40.58900
H  -8.19300 36.92700 37.20500
H  -9.30600 35.76700 38.13500
H  -7.79800 34.47300 37.31600
H  -6.84400 34.94000 38.75700
H  -9.01500 43.71500 38.11700
H  -7.97400 43.53400 39.61400
H  -8.84300 44.96300 39.39100
H  -13.48100 45.22800 41.43900
H  -13.85300 44.87900 39.65800
H  -13.42600 46.49100 40.21000
H  -16.11900 41.55800 41.44700
H  -15.44900 39.71800 43.91800
H  -14.67800 42.37600 43.90700
H  -16.50200 42.27000 43.86100
H  -15.59400 43.31900 42.82100
H  -17.84700 40.23800 43.04100
H  -17.34600 38.58100 43.46400
H  -17.37700 37.78900 41.41800
H  -17.07000 39.37600 40.63600
H  -18.70900 38.98100 41.32100
H  -13.81700 33.46000 42.88400
H  -15.12300 34.35800 42.09600
H  -14.60200 34.73900 43.84000
H  -9.76200 34.28200 39.82400
H  -6.37900 34.93500 42.72600
H  -7.32300 34.21500 43.95500
H  -6.97500 36.00400 43.98800

