158

Mg 47.47000 25.13100 28.60300
C  47.96400 27.41500 31.22200
C  46.22600 22.88000 30.87900
C  47.32200 22.95500 26.13200
C  48.76200 27.50200 26.45900
N  47.13300 25.16300 30.76800
C  47.37000 26.24100 31.60100
C  46.83600 25.98100 33.08400
C  46.71900 24.38100 33.01600
C  46.72000 24.06700 31.47700
C  47.60500 23.41200 33.82200
C  45.57200 26.81400 33.42900
C  44.90300 26.40000 34.70100
H  45.12600 27.16400 36.02300
N  46.95000 23.20000 28.58800
C  46.31700 22.46600 29.58300
C  46.02200 21.13300 29.06400
C  46.37000 21.10800 27.66500
C  46.91400 22.44100 27.38800
C  45.33700 20.08100 29.94600
C  46.31100 19.87200 26.69800
O  46.81100 19.90100 25.56500
C  45.60800 18.65400 27.12400
N  48.02800 25.17000 26.57000
C  47.82700 24.17500 25.72500
C  48.01700 24.57000 24.22300
C  48.32800 26.04300 24.33600
C  48.40800 26.23900 25.86600
C  49.09600 23.65100 23.54800
C  47.30900 27.00900 23.73400
C  45.78100 27.04900 24.07700
N  48.17600 27.06100 28.76600
C  48.70500 27.87200 27.78200
C  49.13500 29.18600 28.31800
C  48.81100 29.00600 29.71300
C  48.29000 27.70700 29.88500
C  49.77900 30.34100 27.73800
C  48.75300 29.72700 30.96700
O  49.16000 30.86000 31.25000
C  48.19700 28.72900 31.95400
C  49.03800 28.63700 33.12500
O  50.02200 27.94300 33.33900
O  48.49400 29.49100 34.09800
C  49.15400 29.53800 35.42100
H  45.86800 22.14400 31.60200
H  47.13700 22.27000 25.30200
H  49.10000 28.32200 25.82200
H  47.62600 26.31000 33.75900
H  45.74700 24.08000 33.40700
H  46.84500 22.88400 34.39700
H  48.36700 23.94700 34.38900
H  47.95500 22.68500 33.08900
H  44.85800 26.81000 32.60500
H  45.84600 27.82600 33.72700
H  45.08600 25.35200 34.93500
H  43.83600 26.51400 34.51300
H  44.44800 19.69600 29.44500
H  45.05700 20.37900 30.95600
H  45.94500 19.25300 30.31100
H  46.18900 18.11200 27.87000
H  45.64300 18.01600 26.24100
H  44.55800 18.84300 27.34400
H  47.12900 24.42600 23.60700
H  49.31300 26.32700 23.96600
H  50.08500 24.11000 23.52200
H  48.94300 23.56600 22.47200
H  49.03800 22.71000 24.09500
H  47.39500 26.72600 22.68500
H  47.79800 27.98100 23.68800
H  45.53400 26.40800 24.92300
H  45.12400 26.74100 23.26300
H  45.50900 28.05100 24.41100
H  49.40800 30.56400 26.73800
H  50.86300 30.37400 27.84600
H  49.41300 31.15000 28.37000
H  47.23800 29.20500 32.16000
H  50.22200 29.35400 35.29900
H  48.70200 28.80600 36.09000
H  48.98800 30.53500 35.82900
Mg 31.23600 58.78400 41.29700
C  28.22100 57.41500 40.01000
C  32.88000 56.10600 39.97000
C  33.99400 60.50800 41.82800
C  29.25100 61.73900 42.02400
N  30.63100 57.06900 39.94300
C  29.31800 56.64900 39.63100
C  29.37600 55.23500 39.00800
C  30.86700 54.75700 39.33200
C  31.55400 56.06700 39.79000
C  30.98200 53.62200 40.37500
C  28.96800 55.38900 37.49900
C  27.63900 54.74400 36.98900
H  27.50400 54.48900 35.49900
N  33.15300 58.33500 41.05100
C  33.59400 57.17600 40.43800
C  35.02100 57.23700 40.46400
C  35.44100 58.50000 40.97400
C  34.14800 59.17500 41.25800
C  35.80800 56.08600 39.83300
C  36.87000 59.00800 41.16700
O  37.76100 58.19200 40.95000
C  37.20100 60.28000 41.74600
N  31.59800 60.85700 41.91400
C  32.86500 61.29100 42.13200
C  32.84100 62.81200 42.37800
C  31.32600 63.18100 42.63000
C  30.67300 61.84500 42.19100
C  33.74200 63.36000 43.44600
C  30.80800 64.36600 41.79900
C  29.87800 65.33500 42.55200
N  29.18100 59.53000 41.17300
C  28.51400 60.66800 41.52800
C  27.09800 60.54700 41.33900
C  26.94800 59.28700 40.85200
C  28.22300 58.66100 40.70400
C  26.00700 61.49200 41.78100
C  25.95500 58.42100 40.39400
O  24.73400 58.55600 40.31100
C  26.69000 57.10400 39.85800
C  26.29500 55.88800 40.53300
O  26.87600 55.30900 41.48300
O  25.16300 55.32500 40.01100
C  24.61000 54.01200 40.54300
H  33.45100 55.29500 39.51500
H  34.88400 61.13800 41.89200
H  28.67400 62.59400 42.38400
H  28.62200 54.67100 39.55700
H  31.31500 54.37900 38.41300
H  30.07300 53.36500 40.91900
H  31.82600 53.82500 41.03400
H  31.31100 52.78200 39.76300
H  29.81300 55.35700 36.81100
H  28.74900 56.45000 37.37900
H  26.95400 55.57000 37.17500
H  27.20000 53.92400 37.55800
H  35.62200 56.00300 38.76200
H  35.44200 55.18300 40.32100
H  36.83900 56.21800 40.16100
H  36.70600 60.48000 42.69600
H  36.84600 61.05900 41.07100
H  38.24400 60.39400 42.04100
H  33.12700 63.33000 41.46300
H  30.99100 63.32700 43.65700
H  34.11700 62.61400 44.14600
H  33.22200 64.08800 44.06800
H  34.56400 63.82400 42.90000
H  30.25900 64.01200 40.92700
H  31.66600 64.89900 41.38900
H  28.91500 64.82400 42.56400
H  29.72300 66.30400 42.07800
H  30.32800 65.53400 43.52500
H  25.83400 62.19800 40.96900
H  26.32900 61.93400 42.72400
H  25.08900 60.96800 42.04600
H  26.47400 56.90800 38.80800
H  23.91300 54.13700 41.37200
H  25.36500 53.28700 40.84700
H  24.08200 53.54600 39.71100

