158

Mg 1.89700 -2.52100 45.17400
C  5.29300 -1.70700 44.49300
C  0.82700 0.10500 43.41900
C  -1.16400 -3.82100 45.50700
C  3.27800 -5.57700 46.52500
N  2.98700 -1.21900 43.89700
C  4.34900 -0.95300 43.82300
C  4.62000 0.22000 42.92500
C  3.25400 0.94600 42.93100
C  2.23600 -0.18100 43.39000
C  3.31300 2.19400 43.85800
C  5.26100 -0.08300 41.53900
C  6.25800 1.02400 40.99700
H  5.74400 1.77200 39.82300
N  0.01400 -1.85800 44.62400
C  -0.20000 -0.72500 43.92000
C  -1.65100 -0.58700 43.73300
C  -2.22400 -1.80700 44.25500
C  -1.15000 -2.54100 44.82600
C  -2.31400 0.60400 43.09600
C  -3.63500 -2.11300 44.21500
O  -4.41800 -1.36200 43.64800
C  -4.16300 -3.39400 44.62300
N  1.22300 -4.41300 45.85800
C  -0.12500 -4.65400 45.98600
C  -0.44300 -5.96200 46.79900
C  0.98700 -6.61500 46.78100
C  1.90800 -5.41600 46.45500
C  -0.93600 -5.66100 48.24500
C  1.13100 -7.81800 45.77700
C  2.15700 -8.84800 46.23000
N  3.95600 -3.43900 45.65600
C  4.28400 -4.66700 46.18500
C  5.74400 -4.77200 46.14900
C  6.18700 -3.54800 45.63500
C  5.07400 -2.80400 45.26800
C  6.61300 -5.87400 46.65800
C  7.34800 -2.76500 45.24000
O  8.52300 -2.95600 45.41600
C  6.78900 -1.49600 44.44000
C  7.31100 -0.34800 45.24300
O  8.39100 0.19700 45.10300
O  6.37600 0.09300 46.07500
C  6.52000 1.43500 46.70000
H  0.58400 0.94100 42.75900
H  -2.16400 -4.23000 45.67000
H  3.66300 -6.50000 46.96300
H  5.32500 0.84400 43.47500
H  2.88400 1.22200 41.94400
H  4.27200 2.70500 43.94400
H  3.09900 1.85300 44.87100
H  2.62400 2.97700 43.53900
H  4.46600 -0.11200 40.79300
H  5.63300 -1.10700 41.57300
H  7.17200 0.49200 40.73100
H  6.44400 1.76200 41.77700
H  -2.64400 0.31800 42.09800
H  -1.62900 1.45200 43.10500
H  -3.27500 0.83200 43.55900
H  -4.13200 -3.47100 45.71000
H  -3.53800 -4.14300 44.13700
H  -5.15000 -3.63600 44.22800
H  -1.20000 -6.55900 46.29100
H  1.35100 -6.90200 47.76700
H  -0.16100 -5.52100 48.99900
H  -1.72700 -6.34400 48.55400
H  -1.48000 -4.71900 48.18300
H  1.37700 -7.40600 44.79800
H  0.16400 -8.31900 45.73400
H  2.72500 -8.37800 47.03300
H  2.88700 -9.07200 45.45300
H  1.68200 -9.75100 46.61300
H  6.01500 -6.78500 46.63400
H  7.03500 -5.78800 47.65900
H  7.41500 -6.05700 45.94300
H  7.26900 -1.34900 43.47300
H  5.52200 1.83800 46.87000
H  6.97100 2.09000 45.95400
H  7.06400 1.37600 47.64200
Mg 17.32900 51.13400 25.96000
C  19.23800 50.27500 28.75100
C  14.80000 52.10900 28.20600
C  15.59100 52.16800 23.38700
C  19.66500 49.72200 23.84500
N  17.22300 51.32900 28.27600
C  18.07600 50.88800 29.17500
C  17.54000 51.14700 30.64800
C  16.02100 51.42500 30.46700
C  15.98300 51.64800 28.84200
C  15.09400 50.28900 30.82600
C  18.27400 52.20800 31.41300
C  17.72400 52.57200 32.83700
H  16.77900 51.65800 33.61700
N  15.41500 51.91400 25.84800
C  14.62800 52.36000 26.83200
C  13.67500 53.25000 26.32900
C  13.79700 53.28900 24.87800
C  14.99100 52.43100 24.63800
C  12.60600 53.98100 27.16200
C  13.05000 54.05500 23.78100
O  13.31700 53.87800 22.60200
C  11.78400 54.84500 24.07600
N  17.48600 50.68800 23.87900
C  16.73200 51.49500 23.06000
C  17.28500 51.35400 21.60200
C  18.79800 50.81900 21.83000
C  18.64500 50.34200 23.29100
C  16.46300 50.59600 20.55600
C  19.97300 51.86000 21.62200
C  21.18300 51.35300 20.87600
N  19.13600 50.12500 26.18100
C  19.94400 49.54000 25.27700
C  21.12000 48.97500 25.97100
C  20.88600 49.12700 27.33200
C  19.65100 49.95800 27.40600
C  22.26200 48.41700 25.29000
C  21.37000 48.92900 28.66300
O  22.37800 48.37600 29.10000
C  20.27200 49.60000 29.65600
C  19.62100 48.60400 30.57600
O  18.73600 47.84400 30.30100
O  20.06300 48.83200 31.88700
C  19.31900 48.14500 32.92500
H  13.97000 52.29300 28.89100
H  15.19500 52.66100 22.49700
H  20.44700 49.43600 23.13900
H  17.73400 50.21100 31.17200
H  15.75400 52.36700 30.94500
H  14.17100 50.64800 31.28100
H  15.63600 49.60500 31.47900
H  14.68400 49.75700 29.96800
H  18.37200 53.12800 30.83700
H  19.29100 51.81800 31.46100
H  17.24200 53.52300 32.60900
H  18.55800 52.76300 33.51200
H  12.92600 55.01200 27.30900
H  12.39800 53.48400 28.10900
H  11.62900 53.97400 26.67900
H  11.94900 55.66600 24.77400
H  11.21400 54.11600 24.65200
H  11.06100 54.92900 23.26500
H  17.37200 52.39000 21.27700
H  18.86700 49.92600 21.20900
H  16.55600 51.00900 19.55200
H  15.40200 50.64500 20.80100
H  16.83400 49.57100 20.52800
H  20.17100 52.32900 22.58600
H  19.58000 52.68300 21.02500
H  21.32500 52.01900 20.02500
H  21.24200 50.31600 20.54400
H  22.07500 51.60100 21.45100
H  22.12800 48.38600 24.20900
H  22.32200 47.38900 25.64500
H  23.21000 48.88600 25.55500
H  20.69900 50.36700 30.30200
H  19.14200 48.90700 33.68400
H  20.11800 47.52800 33.33800
H  18.42100 47.56000 32.72900

