158

Mg 43.16600 42.01200 26.05900
C  42.40500 44.30200 28.58300
C  43.85600 39.67700 28.37500
C  44.14000 39.93200 23.55900
C  42.88900 44.55100 23.69900
N  43.32200 42.09400 28.25900
C  42.68900 43.07000 29.04300
C  42.59000 42.65400 30.49700
C  43.20200 41.15000 30.45300
C  43.47100 40.92700 28.91600
C  44.54300 41.08300 31.28800
C  41.16900 42.61000 31.11500
C  41.20100 42.12200 32.51700
H  41.10700 43.24500 33.61500
N  43.82900 40.05500 25.98700
C  44.12500 39.28900 27.07400
C  44.53300 37.96900 26.65100
C  44.46700 37.98400 25.20500
C  44.17100 39.38500 24.85300
C  44.98800 36.77100 27.57300
C  44.57700 36.85500 24.29900
O  44.49300 37.08900 23.08100
C  44.77700 35.43400 24.74600
N  43.61200 42.19600 23.96400
C  43.89400 41.22200 23.13200
C  44.14700 41.67300 21.72500
C  43.49200 43.03300 21.72000
C  43.37800 43.29900 23.20400
C  45.64500 41.85300 21.30100
C  42.12300 43.08800 21.01200
C  40.87600 42.29000 21.61800
N  42.72100 43.99300 26.09900
C  42.61800 44.88400 25.04500
C  42.12100 46.15600 25.57400
C  41.95400 45.93400 26.96400
C  42.46500 44.64000 27.20100
C  41.92000 47.45300 24.96100
C  41.51500 46.56200 28.16200
O  41.06500 47.70800 28.33100
C  41.90000 45.61700 29.34500
C  42.95500 46.19000 30.13700
O  44.13600 46.11500 29.92100
O  42.34600 46.75500 31.26600
C  43.17900 47.29400 32.31100
H  43.89400 38.99500 29.22700
H  44.61400 39.38800 22.74000
H  42.54100 45.38700 23.08800
H  43.17400 43.29600 31.15600
H  42.45300 40.44100 30.80500
H  45.21900 41.86200 30.93400
H  44.96600 40.07900 31.24500
H  44.41000 41.29400 32.34900
H  40.51800 41.99400 30.49500
H  40.75300 43.61500 31.03800
H  42.12400 41.66300 32.87100
H  40.45100 41.34700 32.67000
H  44.28300 35.94200 27.50300
H  44.99100 37.20100 28.57400
H  46.03900 36.48500 27.52400
H  45.03000 34.81900 23.88200
H  43.82200 35.15300 25.19100
H  45.66400 35.37800 25.37700
H  43.56700 40.97500 21.12100
H  44.12100 43.83500 21.33300
H  45.71400 41.50500 20.27000
H  46.21000 41.25700 22.01800
H  46.02300 42.86900 21.41900
H  42.29300 42.59200 20.05700
H  41.73400 44.10700 21.01500
H  41.20200 41.54000 22.33900
H  40.38600 41.74800 20.81000
H  40.17000 42.90100 22.18100
H  41.03600 47.32900 24.33500
H  42.72200 47.47800 24.22300
H  42.09200 48.39100 25.48800
H  40.98200 45.46200 29.91200
H  44.24400 47.37200 32.09400
H  43.21600 46.56100 33.11700
H  42.70200 48.15600 32.77700
Mg -0.97400 33.73500 26.94000
C  -2.89500 32.09200 29.10400
C  0.21700 35.82500 29.51800
C  0.82400 35.43200 24.68400
C  -2.75800 32.32200 24.21200
N  -1.43500 34.04300 28.99700
C  -2.09100 33.02600 29.73200
C  -1.99500 33.29600 31.23000
C  -1.46900 34.80200 31.15600
C  -0.82700 34.91700 29.80800
C  -2.58200 35.85400 31.36500
C  -1.10500 32.23800 31.98100
C  -0.76100 32.57000 33.40000
H  -1.24300 31.46200 34.45100
N  0.53900 35.19000 27.09300
C  0.86600 35.92100 28.22400
C  1.94000 36.79500 27.91300
C  2.01900 36.82000 26.53900
C  1.11300 35.77700 26.05500
C  2.55500 37.71400 28.95400
C  2.77000 37.74400 25.51500
O  2.40700 37.84800 24.33500
C  3.85000 38.62900 25.97000
N  -0.98600 34.00600 24.73400
C  -0.07700 34.64900 24.01600
C  -0.27100 34.43900 22.50400
C  -1.20800 33.14700 22.45400
C  -1.74600 33.18900 23.86500
C  -0.59000 35.72200 21.65900
C  -0.55100 31.78800 22.02700
C  0.55000 31.33400 22.93700
N  -2.53600 32.59600 26.67800
C  -3.12900 31.99600 25.56000
C  -4.05800 31.03700 25.97500
C  -4.04300 31.06100 27.38500
C  -3.10000 31.99200 27.72100
C  -4.85800 30.25400 25.10600
C  -4.62000 30.44700 28.56800
O  -5.43900 29.56900 28.70700
C  -3.80100 31.08900 29.77500
C  -4.80500 31.81200 30.55100
O  -5.37900 32.89400 30.14500
O  -5.04600 31.26400 31.75400
C  -6.03600 31.85500 32.65200
H  0.53500 36.49300 30.32100
H  1.52400 35.85100 23.95800
H  -3.18000 31.79800 23.35200
H  -2.99600 33.39400 31.65000
H  -0.74400 35.05600 31.93000
H  -2.76700 36.08500 32.41400
H  -3.50900 35.46600 30.94300
H  -2.22200 36.76300 30.88300
H  -0.17700 32.09400 31.42700
H  -1.63200 31.28600 31.92000
H  -1.15200 33.51700 33.77300
H  0.32800 32.62600 33.37300
H  2.58900 37.20700 29.91900
H  1.96400 38.63000 28.98100
H  3.58600 37.81600 28.61600
H  4.51000 38.97300 25.17300
H  4.41200 38.25500 26.82500
H  3.20800 39.46900 26.23600
H  0.69500 34.14100 22.09800
H  -1.96400 33.38700 21.70600
H  -1.17400 35.45600 20.77900
H  0.35700 36.03200 21.21700
H  -1.14700 36.36400 22.34200
H  -0.04000 31.97100 21.08200
H  -1.33900 31.05000 21.87500
H  0.55200 31.82500 23.91000
H  1.53200 31.52400 22.50300
H  0.53600 30.25400 23.08500
H  -4.89900 29.25200 25.53300
H  -4.38200 30.14400 24.13200
H  -5.88700 30.58000 24.95200
H  -3.32900 30.26800 30.31500
H  -5.63200 32.59800 33.33900
H  -6.56900 31.07500 33.19400
H  -6.76200 32.50100 32.15700

