158

Mg 25.47100 1.35700 29.38400
C  27.59700 0.82900 32.24000
C  22.77300 1.53700 31.60100
C  23.46000 1.34400 26.70900
C  28.21800 0.62500 27.37100
N  25.30100 1.20800 31.68400
C  26.23700 1.14200 32.63900
C  25.66000 1.24800 33.98500
C  24.10300 1.26900 33.76400
C  24.04200 1.35900 32.26800
C  23.37700 0.07100 34.39600
C  26.10500 2.43600 34.81900
C  26.66100 2.19000 36.18600
H  26.21900 3.10500 37.35400
N  23.37900 1.55700 29.15400
C  22.48500 1.57400 30.19700
C  21.16900 1.72700 29.57700
C  21.23700 1.70900 28.15900
C  22.75800 1.55500 27.93800
C  19.89000 1.65300 30.43400
C  20.14600 1.79200 27.04200
O  20.48100 1.74300 25.85400
C  18.74900 1.84100 27.44800
N  25.81400 0.94900 27.36900
C  24.82900 1.06300 26.44600
C  25.38000 0.59900 25.07800
C  26.98200 0.72400 25.20100
C  26.99000 0.76100 26.74700
C  24.84700 -0.70300 24.67200
C  27.60700 1.92900 24.55300
C  28.58000 1.68500 23.40800
N  27.54800 0.83800 29.68700
C  28.47100 0.56700 28.74700
C  29.78100 0.40600 29.42700
C  29.49600 0.42200 30.76100
C  28.10400 0.65900 30.91100
C  31.03700 0.14800 28.79500
C  30.06000 0.33000 32.12700
O  31.18300 0.09300 32.48200
C  28.83400 0.59200 33.07900
C  28.79100 -0.54400 34.03400
O  28.74800 -1.75800 33.76800
O  28.88200 -0.08000 35.36600
C  28.98700 -1.00800 36.48500
H  21.98300 1.78700 32.31200
H  22.83300 1.34900 25.81600
H  28.95700 0.48500 26.57900
H  25.97500 0.32800 34.47800
H  23.57800 2.16200 34.10300
H  23.90200 -0.53600 35.13300
H  23.02800 -0.57100 33.58700
H  22.39500 0.35600 34.77600
H  25.26400 3.11600 34.95500
H  26.81300 2.96100 34.17800
H  27.71000 2.48600 36.16100
H  26.54700 1.13900 36.45400
H  20.04700 1.38900 31.48000
H  19.16900 0.95700 30.00500
H  19.36700 2.60400 30.53400
H  18.04000 1.86500 26.62000
H  18.56700 2.62700 28.18100
H  18.59100 0.91900 28.00800
H  25.11000 1.27600 24.26700
H  27.47400 -0.19400 24.87800
H  25.64300 -1.41700 24.46100
H  24.32600 -0.73800 23.71500
H  24.19800 -1.11100 25.44700
H  28.17600 2.39200 25.35900
H  26.86700 2.68100 24.28200
H  29.61400 1.86900 23.69800
H  28.43700 2.28200 22.50800
H  28.46300 0.68300 22.99500
H  31.19900 0.89900 28.02300
H  30.91700 -0.82300 28.31400
H  31.80300 0.19600 29.56900
H  29.04400 1.49700 33.64800
H  28.03500 -1.53800 36.52000
H  28.96200 -0.55900 37.47800
H  29.81900 -1.71000 36.42200
Mg -4.64800 25.20800 25.92900
C  -3.95100 26.70400 28.89200
C  -6.69700 22.82400 27.56700
C  -5.11200 23.52000 23.12500
C  -2.18800 27.24900 24.35800
N  -5.29000 24.91200 27.95000
C  -4.88900 25.65900 29.02200
C  -5.73400 25.26100 30.29300
C  -6.48100 23.98300 29.90200
C  -6.11700 23.81700 28.36400
C  -6.26600 22.67200 30.71100
C  -6.67100 26.40800 30.85400
C  -6.47000 26.69300 32.31500
H  -6.17100 25.56400 33.34800
N  -5.92300 23.59500 25.33100
C  -6.55700 22.70000 26.15900
C  -7.30700 21.75600 25.32100
C  -6.91200 21.92900 24.00600
C  -5.95000 23.07200 24.13800
C  -8.35900 20.79500 25.92400
C  -7.34200 21.27200 22.67300
O  -6.87600 21.69100 21.66300
C  -8.40400 20.15300 22.69900
N  -3.90700 25.45200 24.04400
C  -4.18100 24.54900 23.06900
C  -3.26800 24.76600 21.87300
C  -2.60700 26.07800 22.11200
C  -2.87700 26.34000 23.59500
C  -2.29900 23.57000 21.64600
C  -3.04100 27.16700 21.16300
C  -4.54800 27.45400 21.02800
N  -3.34700 26.75600 26.43700
C  -2.45900 27.54200 25.73600
C  -1.79700 28.47300 26.66000
C  -2.38200 28.20700 27.93700
C  -3.28900 27.15100 27.74700
C  -0.86200 29.55700 26.31500
C  -2.29000 28.49500 29.37200
O  -1.49000 29.27800 29.93200
C  -3.42200 27.56900 30.06200
C  -2.76900 26.92200 31.23300
O  -2.28000 25.76400 31.14100
O  -2.55300 27.76400 32.26200
C  -1.86700 27.07800 33.37700
H  -7.43800 22.22200 28.09700
H  -5.06400 23.20500 22.08100
H  -1.57300 27.92600 23.76100
H  -4.93200 24.92900 30.95200
H  -7.54200 24.22900 29.88700
H  -6.31100 22.94400 31.76600
H  -5.27300 22.29900 30.46300
H  -7.05100 21.94500 30.50400
H  -7.67500 26.01500 30.69800
H  -6.53000 27.32600 30.28300
H  -7.45900 27.04100 32.61200
H  -5.75600 27.49200 32.51600
H  -7.70500 20.03600 26.35400
H  -8.94300 20.16800 25.25000
H  -9.02400 21.27300 26.64400
H  -8.59400 19.66200 21.74500
H  -9.32900 20.57600 23.09300
H  -7.99300 19.37800 23.34600
H  -3.97600 24.80000 21.04400
H  -1.55300 25.84700 21.95800
H  -1.26700 23.92100 21.64500
H  -2.50100 23.18600 20.64600
H  -2.55100 22.79600 22.37100
H  -2.64700 26.88100 20.18800
H  -2.55200 28.08600 21.48900
H  -5.23600 26.61500 21.12900
H  -4.66100 27.84100 20.01500
H  -4.84200 28.17200 21.79400
H  -1.28300 30.56200 26.33800
H  -0.56600 29.53400 25.26600
H  -0.04700 29.45600 27.03100
H  -4.26400 28.18300 30.38300
H  -1.81700 27.85000 34.14600
H  -0.87600 26.72700 33.08700
H  -2.57700 26.30700 33.67600

