158

Mg 8.96600 2.83900 27.29400
C  10.36500 1.50600 30.32800
C  7.12800 4.97800 29.29000
C  7.35700 3.90800 24.55300
C  10.50600 0.25000 25.53600
N  8.69200 3.09700 29.64800
C  9.54200 2.60100 30.55400
C  9.23600 3.24100 31.94000
C  8.13000 4.33200 31.53700
C  7.95000 4.11000 30.05600
C  6.87700 4.23600 32.42100
C  10.54800 3.80700 32.60400
C  11.14600 3.10300 33.85000
H  11.48400 4.04600 35.07700
N  7.51300 4.30700 26.91700
C  6.91700 5.11600 27.88000
C  6.02800 6.02800 27.18200
C  6.10000 5.78800 25.75300
C  7.03300 4.62000 25.72000
C  5.07100 7.07500 27.90400
C  5.37700 6.55800 24.62100
O  5.53800 6.25900 23.38500
C  4.56900 7.73400 24.92100
N  8.81000 2.14100 25.43500
C  8.23900 2.85400 24.40700
C  8.62100 2.34300 23.01200
C  9.54600 1.08500 23.37400
C  9.64200 1.15200 24.89000
C  7.35800 1.99800 22.13400
C  10.88300 1.02200 22.61500
C  10.83700 1.11200 21.07300
N  10.21700 1.17700 27.75200
C  10.71600 0.16700 26.95900
C  11.47500 -0.67800 27.81600
C  11.46400 -0.18000 29.12100
C  10.62800 0.92700 29.01900
C  12.21700 -1.89900 27.48900
C  11.99100 -0.37800 30.43000
O  12.65100 -1.30400 30.90000
C  11.21500 0.69800 31.30200
C  10.43400 0.03300 32.35200
O  9.33600 -0.39900 32.18700
O  11.15800 -0.07600 33.49500
C  10.42300 -0.66300 34.62800
H  6.60500 5.70500 29.91500
H  6.85200 4.27100 23.65500
H  11.08200 -0.53600 25.04400
H  8.67800 2.50500 32.51900
H  8.58800 5.28000 31.82000
H  6.49600 5.23900 32.61200
H  7.05800 3.78900 33.39900
H  6.16400 3.58800 31.91100
H  10.40700 4.81600 32.99100
H  11.26500 3.86700 31.78600
H  12.10100 2.62700 33.62500
H  10.55900 2.22500 34.12100
H  5.50800 8.05500 27.71200
H  4.94300 6.84300 28.96100
H  4.08300 7.22700 27.47000
H  5.21000 8.36200 25.54000
H  3.58200 7.45600 25.29100
H  4.39600 8.28800 23.99900
H  9.27300 3.08700 22.55500
H  9.11700 0.10200 23.17800
H  7.41300 1.14600 21.45600
H  7.24500 2.82000 21.42700
H  6.47300 1.92800 22.76700
H  11.36500 0.06000 22.79600
H  11.46500 1.86200 22.99400
H  11.39600 1.98100 20.72600
H  9.83900 0.98100 20.65400
H  11.38200 0.23600 20.72200
H  13.28600 -1.69200 27.44300
H  11.82800 -2.23800 26.52800
H  12.04300 -2.69400 28.21500
H  12.07900 1.20500 31.73200
H  9.89600 -1.54100 34.25600
H  9.66400 -0.01400 35.06500
H  11.25900 -0.92000 35.27900
Mg 0.42000 43.29600 25.08700
C  2.85900 42.74200 27.69500
C  -1.92300 42.35000 27.32600
C  -1.53700 42.97700 22.43200
C  3.19500 43.85800 22.85800
N  0.45600 42.70300 27.29200
C  1.53800 42.47100 28.08000
C  1.00800 42.15600 29.46600
C  -0.49000 41.90800 29.33700
C  -0.66600 42.37300 27.87700
C  -0.95400 40.38300 29.62100
C  1.24900 43.38400 30.34200
C  0.92800 43.30200 31.82900
H  0.32000 41.92900 32.39600
N  -1.52500 42.75900 24.93000
C  -2.38700 42.43400 25.96300
C  -3.67800 42.03800 25.42900
C  -3.58800 42.23900 24.00500
C  -2.15500 42.66300 23.70100
C  -4.84400 41.58900 26.18000
C  -4.63700 42.02900 22.95100
O  -4.35700 42.16900 21.76800
C  -5.99900 41.55800 23.31900
N  0.76900 43.30100 23.01600
C  -0.24900 43.41300 22.12200
C  0.17700 43.82800 20.73200
C  1.64800 44.14000 20.91900
C  1.91000 43.68300 22.34300
C  -0.22700 42.87400 19.61500
C  2.10000 45.54800 20.54800
C  2.19300 46.65000 21.62100
N  2.57900 43.39600 25.20300
C  3.52000 43.66300 24.21300
C  4.83300 43.66000 24.81900
C  4.65900 43.31300 26.17000
C  3.24700 43.11400 26.36400
C  6.12300 43.84000 24.06100
C  5.36100 43.06400 27.43100
O  6.58000 43.07700 27.72100
C  4.15600 42.78200 28.47500
C  4.44800 41.63400 29.41100
O  4.53200 40.44900 29.12000
O  4.48600 42.16100 30.67700
C  4.64400 41.23900 31.72000
H  -2.70600 42.16600 28.06500
H  -2.20100 42.89500 21.56900
H  4.06200 44.25800 22.32800
H  1.46700 41.25300 29.86700
H  -1.03000 42.68500 29.87700
H  -0.22600 39.87700 30.25400
H  -1.08300 39.89200 28.65600
H  -1.80400 40.37300 30.30400
H  0.82100 44.33000 30.00900
H  2.31000 43.63500 30.35300
H  0.21400 44.07000 32.12800
H  1.83500 43.59300 32.36100
H  -5.25900 40.68600 25.73200
H  -5.55700 42.40400 26.30300
H  -4.52700 41.34200 27.19300
H  -6.48400 42.23100 24.02600
H  -5.90000 40.52100 23.63900
H  -6.61600 41.53000 22.42100
H  -0.38700 44.74700 20.57200
H  2.19800 43.36900 20.38100
H  -0.31100 41.84900 19.97500
H  0.57900 42.92800 18.88200
H  -1.15100 43.17700 19.12200
H  1.42100 45.95100 19.79600
H  3.08100 45.32900 20.12700
H  1.37200 46.42000 22.30000
H  2.22300 47.70100 21.33300
H  3.09300 46.56800 22.23000
H  6.92900 43.27300 24.52500
H  6.36000 44.89300 24.21700
H  5.96600 43.57600 23.01500
H  4.17800 43.64100 29.14600
H  4.04600 41.60700 32.55400
H  5.69100 41.19500 32.02000
H  4.28700 40.23300 31.49600

