158

Mg 53.76800 25.07700 43.71100
C  51.05000 27.15100 42.95200
C  52.01000 22.46200 42.68100
C  56.69400 23.42000 43.53000
C  55.51000 28.08400 44.49000
N  51.77300 24.91400 42.75100
C  50.81400 25.84900 42.65000
C  49.42500 25.22600 42.11900
C  49.76200 23.68300 42.39200
C  51.32100 23.68500 42.67100
C  48.98400 23.07300 43.61600
C  49.08400 25.33700 40.60400
C  50.24200 25.54800 39.68000
H  49.90500 25.90200 38.18900
N  54.27600 23.15300 43.19900
C  53.34500 22.18700 42.93800
C  54.05700 20.92700 42.77200
C  55.46100 21.18100 42.87000
C  55.57400 22.67100 43.22000
C  53.36500 19.70200 42.52500
C  56.44500 20.16700 42.70400
O  56.11500 19.00000 42.69500
C  57.95600 20.47000 42.63300
N  55.79800 25.67600 43.84800
C  56.87200 24.76400 43.81200
C  58.18000 25.43200 44.25100
C  57.73600 26.91100 44.38900
C  56.26800 26.92200 44.18500
C  58.86100 24.80600 45.53200
C  58.41900 27.91300 43.37300
C  59.13200 29.11600 43.92800
N  53.43900 27.16400 43.83000
C  54.18000 28.20900 44.23600
C  53.37200 29.38400 44.40100
C  52.16700 29.05200 43.77900
C  52.24800 27.68700 43.45500
C  53.84800 30.63300 45.06400
C  50.85600 29.55300 43.38500
O  50.40500 30.65700 43.51600
C  50.09800 28.28200 42.83900
C  49.56700 28.57200 41.46300
O  50.23500 29.00100 40.57200
O  48.18800 28.51300 41.43800
C  47.51900 29.19700 40.32000
H  51.37300 21.61000 42.43500
H  57.63900 22.88300 43.42900
H  56.02200 28.93600 44.94100
H  48.60200 25.60700 42.72300
H  49.64300 23.11900 41.46700
H  49.72100 22.64500 44.29600
H  48.44200 22.19700 43.26100
H  48.36800 23.83500 44.09300
H  48.32000 26.09900 40.45500
H  48.59100 24.38600 40.40000
H  50.57300 24.52400 39.50300
H  51.18700 25.97100 40.02200
H  53.34900 19.11400 43.44300
H  53.85700 19.25100 41.66300
H  52.32300 19.79100 42.21900
H  58.49000 19.56800 42.33100
H  58.18800 20.76900 43.65500
H  58.15700 21.25300 41.90300
H  58.80600 25.06200 43.43900
H  58.03500 27.26400 45.37600
H  59.54800 23.99600 45.28900
H  58.06800 24.43700 46.18300
H  59.47500 25.54400 46.04800
H  57.67800 28.21500 42.63300
H  59.14900 27.40600 42.74100
H  58.71800 29.46200 44.87500
H  59.03100 29.87800 43.15600
H  60.17600 28.88700 44.14600
H  53.28900 31.54200 44.84100
H  54.79300 30.88800 44.58500
H  54.04500 30.49800 46.12700
H  49.24900 28.18200 43.51600
H  46.45700 29.11400 40.55100
H  47.58700 28.59700 39.41300
H  47.84200 30.21900 40.11800
Mg 45.98100 25.81300 27.78200
C  47.12800 28.11500 30.27600
C  45.32900 23.64700 30.17100
C  45.73300 23.51100 25.35300
C  47.55100 27.91100 25.38200
N  46.11000 25.96100 30.01900
C  46.42100 27.00200 30.77800
C  46.01300 26.75600 32.30400
C  45.52700 25.19300 32.25100
C  45.61100 24.92500 30.73400
C  46.41000 24.14400 33.03600
C  44.85700 27.65600 32.80300
C  45.28500 28.65000 33.89500
H  44.41600 28.77200 35.17100
N  45.39400 23.93100 27.82000
C  45.15400 23.17600 28.86900
C  44.57400 21.90600 28.51400
C  44.70200 21.84200 27.08600
C  45.26900 23.15700 26.67000
C  44.06100 20.86700 29.51500
C  44.18400 20.73800 26.15600
O  44.18400 20.85800 24.94500
C  43.74400 19.39400 26.71500
N  46.55800 25.80100 25.54900
C  46.33200 24.64000 24.80400
C  46.57300 24.99400 23.29200
C  47.10600 26.44700 23.34000
C  47.04200 26.76200 24.81500
C  47.45700 24.09200 22.56100
C  46.36200 27.46600 22.41400
C  47.33300 28.13400 21.40600
N  47.00700 27.72300 27.78000
C  47.57600 28.41500 26.74700
C  48.28200 29.51200 27.27800
C  48.14100 29.47400 28.65500
C  47.37200 28.32400 28.92600
C  49.13700 30.55200 26.50200
C  48.35200 30.16500 29.89700
O  48.90400 31.23500 30.13200
C  47.78000 29.24700 31.02500
C  48.85600 28.90800 31.95600
O  49.82300 28.17900 31.75800
O  48.61400 29.62400 33.11400
C  49.50700 29.30200 34.23400
H  45.32200 22.86300 30.93000
H  45.55800 22.80300 24.54000
H  48.07000 28.51700 24.63600
H  46.92500 26.91000 32.88100
H  44.49500 25.18900 32.60000
H  45.70600 23.73300 33.76000
H  47.22600 24.61200 33.58700
H  46.91700 23.40000 32.42200
H  44.08400 26.98300 33.17300
H  44.39700 28.21400 31.98700
H  45.30900 29.67600 33.52800
H  46.32200 28.45000 34.16200
H  44.71500 19.99500 29.54000
H  43.07500 20.53600 29.18800
H  43.88300 21.34300 30.47900
H  44.38400 19.03100 27.51800
H  43.79000 18.66400 25.90700
H  42.72500 19.42600 27.10200
H  45.55500 24.80900 22.94700
H  48.17000 26.31100 23.14800
H  48.18500 23.63200 23.23000
H  47.91300 24.66000 21.75000
H  46.89700 23.27900 22.09800
H  45.87900 28.16500 23.09800
H  45.57900 26.85900 21.95800
H  46.86800 28.15400 20.42000
H  48.24300 27.53800 21.47500
H  47.51800 29.19000 21.60100
H  48.79900 30.52000 25.46600
H  50.12600 30.09300 26.50200
H  49.12900 31.58100 26.86200
H  47.00200 29.81200 31.53800
H  50.54100 29.30100 33.88900
H  49.38800 28.35200 34.75600
H  49.43300 30.18100 34.87500

