158

Mg 0.27900 43.28900 26.55600
C  2.76100 42.85300 28.89000
C  -1.94000 41.99100 28.73400
C  -1.97700 43.34600 24.08400
C  2.88900 43.62100 24.07700
N  0.38800 42.58300 28.61600
C  1.50100 42.70900 29.37700
C  1.12900 42.45600 30.87900
C  -0.35900 42.01600 30.80100
C  -0.67700 42.11000 29.26300
C  -0.69000 40.53300 31.17500
C  1.28400 43.74300 31.74300
C  0.57400 43.82400 33.15100
H  0.12500 42.49900 33.77000
N  -1.70800 42.73600 26.43900
C  -2.50200 42.28000 27.44600
C  -3.80000 42.16300 26.95700
C  -3.86100 42.58600 25.64800
C  -2.46600 42.93300 25.35300
C  -4.92200 41.66400 27.96000
C  -5.03100 42.60300 24.74100
O  -4.91600 42.86800 23.53000
C  -6.43400 42.38300 25.18500
N  0.39200 43.61500 24.36000
C  -0.66300 43.56000 23.60000
C  -0.33000 43.68700 22.12400
C  1.22100 43.93100 22.15100
C  1.53700 43.73600 23.62900
C  -0.78800 42.48200 21.29800
C  1.78300 45.26900 21.66300
C  1.49300 46.55200 22.57700
N  2.38600 43.30700 26.44300
C  3.23600 43.44800 25.39800
C  4.60100 43.25500 25.93900
C  4.44000 42.96100 27.29500
C  3.09500 43.04200 27.55800
C  5.91500 43.19600 25.17600
C  5.15100 42.76600 28.56700
O  6.36100 42.72200 28.84700
C  4.08400 42.70900 29.64100
C  4.13300 41.41700 30.42900
O  3.84800 40.29500 29.97200
O  4.71000 41.65400 31.66000
C  4.55300 40.43800 32.50600
H  -2.70300 41.58500 29.40200
H  -2.67800 43.45000 23.25300
H  3.65200 43.56300 23.29900
H  1.72100 41.57900 31.14000
H  -1.00500 42.71200 31.33700
H  -1.60900 40.53200 31.76100
H  0.14200 40.17700 31.78300
H  -0.72700 39.84800 30.32800
H  0.99200 44.63100 31.18100
H  2.36300 43.86900 31.83400
H  -0.27900 44.48000 32.98100
H  1.24900 44.30700 33.85700
H  -5.88900 42.09400 27.69700
H  -4.77100 42.11600 28.94000
H  -4.99500 40.58500 28.10100
H  -6.50300 41.33800 25.48400
H  -7.11800 42.67300 24.38700
H  -6.69500 43.04700 26.00900
H  -0.73900 44.61400 21.72200
H  1.75900 43.07700 21.73900
H  -1.49500 41.78800 21.75400
H  -0.01200 41.72000 21.23200
H  -1.17400 42.87300 20.35600
H  1.33200 45.40000 20.67900
H  2.86900 45.25700 21.56500
H  1.04400 47.26200 21.88200
H  2.46700 46.90600 22.91300
H  0.93500 46.31400 23.48300
H  6.72200 42.67200 25.68700
H  6.27000 44.22700 25.16300
H  5.82100 42.90300 24.13000
H  4.26800 43.53600 30.32700
H  3.51000 40.39800 32.82100
H  5.20600 40.45700 33.37900
H  4.87400 39.46600 32.13100
Mg -6.49900 25.91100 24.63700
C  -4.68900 27.18900 27.42100
C  -8.26100 24.03600 26.83200
C  -7.76900 24.34400 21.99900
C  -4.36800 27.77000 22.65600
N  -6.40300 25.60500 26.84000
C  -5.60600 26.24800 27.79100
C  -6.03700 25.78300 29.20200
C  -7.01200 24.58700 28.91000
C  -7.30200 24.81200 27.45900
C  -6.42600 23.15200 29.24000
C  -6.70300 26.86300 30.10000
C  -6.13900 26.74000 31.54800
H  -6.07300 25.39300 32.27900
N  -7.76100 24.35000 24.46000
C  -8.52800 23.82100 25.45200
C  -9.64100 23.03100 24.86400
C  -9.43900 23.06200 23.47500
C  -8.26700 23.96000 23.30100
C  -10.63200 22.17600 25.78200
C  -10.20400 22.42700 22.40600
O  -9.96300 22.50700 21.17300
C  -11.40200 21.72300 22.87600
N  -6.27800 26.16700 22.57100
C  -6.79200 25.26900 21.61000
C  -6.24400 25.53200 20.20600
C  -5.24400 26.77300 20.44600
C  -5.30800 26.96100 22.04100
C  -5.61800 24.30600 19.50600
C  -5.64600 28.08500 19.70700
C  -4.53700 28.73500 18.99200
N  -4.87500 27.23800 24.86800
C  -4.15300 27.96600 24.00300
C  -3.19000 28.67900 24.67100
C  -3.34500 28.45000 26.04900
C  -4.40700 27.54200 26.14100
C  -2.24300 29.65400 24.06500
C  -2.85900 28.76300 27.39900
O  -1.90500 29.48600 27.75200
C  -3.76700 27.93400 28.37800
C  -2.85600 27.13400 29.25500
O  -2.38100 26.01500 28.99500
O  -2.71400 27.76200 30.40900
C  -1.87800 27.10700 31.44900
H  -8.95300 23.57000 27.53700
H  -8.26300 23.88200 21.14200
H  -3.73400 28.35400 21.98500
H  -5.14300 25.41900 29.71000
H  -7.89600 24.65600 29.54500
H  -6.25500 22.60700 28.31100
H  -6.86500 22.71100 30.13500
H  -5.39300 23.36000 29.51700
H  -7.77200 26.73700 30.27300
H  -6.35700 27.82200 29.71600
H  -6.97300 27.19000 32.08800
H  -5.19900 27.26700 31.71000
H  -11.62400 22.61400 25.67200
H  -10.44600 22.26000 26.85300
H  -10.58800 21.11400 25.54100
H  -11.15400 20.82600 23.44300
H  -11.96200 21.38900 22.00300
H  -11.90300 22.56900 23.34700
H  -7.07700 25.95200 19.64100
H  -4.21400 26.47700 20.24500
H  -4.57400 24.53700 19.29500
H  -6.24700 24.03600 18.65700
H  -5.55500 23.47900 20.21200
H  -6.20700 28.71100 20.40200
H  -6.44900 27.92100 18.98800
H  -4.47600 29.75700 19.36700
H  -4.74000 28.72200 17.92100
H  -3.59100 28.21800 19.14900
H  -2.37900 29.62400 22.98400
H  -1.23000 29.42600 24.39700
H  -2.62300 30.60100 24.44900
H  -4.31200 28.53300 29.10800
H  -0.85800 27.46300 31.29900
H  -1.99900 26.02400 31.47800
H  -2.15100 27.35600 32.47500

