158

Mg -1.66000 17.12400 26.15300
C  -1.95400 14.89600 28.72900
C  -2.10700 19.77200 28.37200
C  -1.50800 19.34800 23.49400
C  -1.63600 14.60100 23.85300
N  -2.01200 17.29700 28.35600
C  -2.07200 16.24500 29.23000
C  -2.50700 16.77800 30.68400
C  -2.16300 18.31300 30.52300
C  -2.09800 18.48500 28.98900
C  -3.21200 19.20900 31.32200
C  -1.64600 16.03600 31.74800
C  -1.26400 16.61400 33.15600
H  -1.22900 15.73600 34.40400
N  -1.84100 19.21000 26.01900
C  -1.96100 20.15500 27.01900
C  -1.96700 21.52500 26.51600
C  -1.96400 21.43800 25.15200
C  -1.82900 19.92800 24.81000
C  -2.19200 22.68900 27.40800
C  -2.01400 22.55300 24.09200
O  -2.09300 22.25300 22.90300
C  -1.91500 23.99000 24.53500
N  -1.67300 17.00500 23.97000
C  -1.53200 18.03000 23.09000
C  -1.10600 17.58400 21.70100
C  -0.93100 15.97600 21.89600
C  -1.46400 15.87000 23.32300
C  -2.02200 18.11200 20.57900
C  0.50200 15.39500 21.68200
C  0.57000 14.28300 20.66500
N  -1.90200 15.15300 26.19400
C  -1.91900 14.24400 25.17900
C  -2.04300 12.93400 25.70700
C  -1.98000 13.12800 27.14700
C  -1.97500 14.52900 27.34200
C  -2.15600 11.68200 24.91700
C  -1.94600 12.43700 28.38800
O  -1.93800 11.26500 28.60800
C  -2.06900 13.51600 29.44300
C  -0.96800 13.33700 30.40600
O  0.17500 13.70000 30.23200
O  -1.46400 12.63500 31.54000
C  -0.55500 12.37300 32.61000
H  -2.18600 20.57200 29.11100
H  -1.46300 20.05600 22.66400
H  -1.33100 13.83400 23.13700
H  -3.54800 16.46200 30.73500
H  -1.19500 18.63000 30.91100
H  -3.81500 19.84600 30.67600
H  -2.67100 19.79600 32.06400
H  -3.90700 18.62300 31.92200
H  -0.66700 15.89100 31.29000
H  -2.19400 15.10900 31.91800
H  -1.90500 17.44300 33.45700
H  -0.25500 17.01300 33.05300
H  -3.01800 23.33600 27.11100
H  -1.25400 23.24100 27.44800
H  -2.54800 22.47500 28.41600
H  -1.02400 24.05900 25.15800
H  -2.86000 24.26800 25.00300
H  -1.78700 24.38200 23.52600
H  -0.17900 18.13500 21.54200
H  -1.64000 15.52700 21.20100
H  -2.80700 18.71500 21.03500
H  -2.32200 17.15000 20.16300
H  -1.57200 18.63000 19.73200
H  0.78100 14.92000 22.62200
H  1.17900 16.19000 21.37100
H  -0.38700 13.91800 20.29200
H  1.05600 13.42000 21.12000
H  1.26200 14.47800 19.84600
H  -1.28600 11.06500 25.14100
H  -2.33600 11.84400 23.85400
H  -3.06100 11.28100 25.37400
H  -3.02700 13.41600 29.95400
H  -1.21200 12.27300 33.47300
H  0.29500 13.05400 32.66600
H  -0.16700 11.37200 32.42300
Mg 35.82000 2.06900 29.69400
C  33.43700 3.13500 32.19200
C  38.10800 2.23400 32.27100
C  38.19600 1.75400 27.38900
C  33.25700 2.16600 27.30100
N  35.73000 2.40100 31.92100
C  34.60100 2.67700 32.75600
C  35.04000 2.79700 34.22400
C  36.57400 2.86700 34.13000
C  36.83600 2.42700 32.74200
C  37.29100 4.19600 34.52600
C  34.42500 1.61300 34.99700
C  34.29200 1.58200 36.52200
H  34.70700 2.86100 37.30700
N  37.91700 1.88700 29.82200
C  38.67600 2.01600 30.97200
C  40.03900 1.74200 30.69000
C  40.13000 1.70600 29.22700
C  38.71500 1.82900 28.71300
C  41.17400 1.58700 31.69300
C  41.39900 1.52900 28.34700
O  41.35000 1.45700 27.11300
C  42.78200 1.32400 29.04500
N  35.72900 1.89600 27.67100
C  36.85600 1.72800 26.94600
C  36.51800 1.45500 25.45600
C  34.99500 1.28700 25.52100
C  34.55000 1.73300 26.93200
C  37.00700 2.51300 24.32700
C  34.42700 -0.13500 25.19200
C  33.91500 -0.45100 23.79400
N  33.77200 2.59300 29.61500
C  32.85600 2.60400 28.60500
C  31.56500 3.16800 29.12400
C  31.75000 3.40000 30.44900
C  33.10100 2.97100 30.75300
C  30.38600 3.50100 28.31100
C  31.18200 3.82600 31.70800
O  30.00700 4.18700 31.91700
C  32.18400 3.75300 32.86400
C  32.44400 5.08500 33.42300
O  33.16500 5.92400 32.92200
O  31.73100 5.23000 34.64400
C  31.66100 6.49200 35.38600
H  38.91000 2.26400 33.01200
H  38.85000 1.47400 26.56100
H  32.45100 2.10800 26.56600
H  34.63000 3.75100 34.55700
H  36.91000 2.07600 34.80100
H  37.08900 5.01500 33.83600
H  38.34000 3.90900 34.58700
H  37.03200 4.65800 35.47900
H  34.79600 0.69600 34.54000
H  33.35200 1.52700 34.82700
H  34.87800 0.74200 36.89500
H  33.28900 1.24000 36.77700
H  41.75400 2.48500 31.48100
H  41.79600 0.70900 31.51800
H  40.70700 1.52800 32.67600
H  43.62800 1.37500 28.35900
H  42.83700 0.46900 29.71800
H  42.79800 2.20700 29.68400
H  36.92600 0.49800 25.13300
H  34.46200 2.00900 24.90200
H  37.68500 3.23700 24.77900
H  36.14800 3.04400 23.91800
H  37.67100 2.04700 23.59900
H  33.66400 -0.27900 25.95600
H  35.15100 -0.84200 25.59600
H  33.90500 0.49500 23.25400
H  32.91400 -0.87800 23.72500
H  34.57300 -1.09800 23.21400
H  30.68300 3.37400 27.27000
H  30.02100 4.50900 28.50800
H  29.51400 2.87700 28.50800
H  31.79900 3.05300 33.60500
H  30.68500 6.81200 35.75000
H  31.96200 7.30500 34.72600
H  32.26400 6.38400 36.28800

