158

Mg 16.18000 -1.99100 28.16200
C  15.14100 0.22900 30.70400
C  18.06400 -3.50700 30.52000
C  17.41100 -3.76600 25.63200
C  14.46700 0.16800 25.76900
N  16.50200 -1.69600 30.42900
C  15.90600 -0.78000 31.26800
C  16.26700 -1.05500 32.76800
C  17.35800 -2.10100 32.62400
C  17.37800 -2.44300 31.10300
C  18.82300 -1.74200 33.16800
C  15.07700 -1.45900 33.65700
C  14.78400 -1.00600 35.06800
H  16.00000 -0.47400 35.76000
N  17.46900 -3.60100 28.09600
C  18.11100 -4.07200 29.20600
C  18.91400 -5.18900 28.80500
C  18.65500 -5.42700 27.43700
C  17.76900 -4.26600 26.96900
C  19.67200 -6.11300 29.71900
C  19.13600 -6.47200 26.47100
O  18.77600 -6.50700 25.28600
C  20.15100 -7.46500 26.85200
N  15.98800 -1.76900 26.05900
C  16.61000 -2.66200 25.25700
C  16.31700 -2.34800 23.80800
C  15.05900 -1.40700 23.93200
C  15.23700 -0.91800 25.33700
C  17.60100 -1.76500 23.13000
C  13.61600 -1.89100 23.56500
C  12.85100 -1.00600 22.56100
N  15.02700 -0.21000 28.19700
C  14.36400 0.48300 27.16800
C  13.57900 1.55300 27.79800
C  13.93900 1.54600 29.15300
C  14.75600 0.42500 29.35000
C  12.64100 2.45800 26.94100
C  13.73300 2.22000 30.44000
O  13.12800 3.26000 30.71200
C  14.51300 1.35800 31.45800
C  15.56300 2.16400 32.12100
O  16.73700 2.21000 31.85800
O  14.97600 2.95100 33.08500
C  15.78100 3.89200 33.89800
H  18.49700 -4.14300 31.29500
H  17.77100 -4.41300 24.82900
H  13.81400 0.74200 25.10900
H  16.61800 -0.11700 33.20100
H  17.02600 -3.01200 33.12200
H  18.69000 -0.82400 33.74100
H  19.62000 -1.68900 32.42700
H  19.07100 -2.49800 33.91400
H  15.04400 -2.54300 33.54000
H  14.23700 -1.15700 33.03100
H  14.26100 -1.69000 35.73700
H  14.13700 -0.12900 35.08700
H  20.70900 -6.20200 29.39300
H  19.20400 -7.07000 29.94700
H  19.87200 -5.63200 30.67700
H  21.00500 -6.84500 27.12300
H  20.38400 -8.19900 26.08000
H  19.72500 -7.94500 27.73300
H  16.10800 -3.28900 23.29800
H  15.27200 -0.57300 23.26300
H  18.22600 -1.25400 23.86300
H  17.23900 -1.05700 22.38400
H  18.21700 -2.47500 22.57900
H  13.04100 -1.91700 24.49100
H  13.64100 -2.94500 23.28600
H  12.00400 -0.49600 23.02000
H  12.51400 -1.65900 21.75600
H  13.42800 -0.16200 22.18100
H  11.86600 1.75400 26.63500
H  13.11500 3.00300 26.12500
H  12.31300 3.26500 27.59500
H  13.93000 0.86000 32.23300
H  16.09000 4.74500 33.29400
H  16.55500 3.33500 34.42700
H  15.15400 4.36100 34.65700
Mg 1.18600 41.85300 25.29300
C  1.86500 42.11900 28.70400
C  -1.74900 40.31000 26.16400
C  0.77100 41.00200 22.03600
C  4.52500 42.59200 24.64700
N  0.16500 41.26000 27.21900
C  0.61900 41.59700 28.46700
C  -0.52800 41.47500 29.46300
C  -1.55700 40.63500 28.68600
C  -1.04100 40.72800 27.28500
C  -1.67300 39.14000 29.11000
C  -0.96800 42.88100 29.96700
C  -2.40400 42.81700 30.53400
H  -2.70000 41.81100 31.52800
N  -0.40700 40.92100 24.19200
C  -1.51900 40.34900 24.76500
C  -2.36100 39.94900 23.62100
C  -1.57500 40.04100 22.41900
C  -0.35500 40.67400 22.85100
C  -3.74400 39.36500 23.90000
C  -1.96500 39.66800 21.00600
O  -1.23500 39.86300 20.05900
C  -3.26400 39.08600 20.71800
N  2.45700 41.77700 23.65000
C  2.02700 41.40600 22.41700
C  3.12300 41.67700 21.28500
C  4.25300 42.35400 22.15100
C  3.70000 42.18600 23.59600
C  3.68400 40.41500 20.57500
C  4.50600 43.84100 21.64200
C  3.53300 44.88300 22.14800
N  2.86700 42.43500 26.41300
C  4.15800 42.70600 25.98900
C  4.92800 43.11100 27.18000
C  4.05000 42.90300 28.28000
C  2.85200 42.40300 27.72700
C  6.40600 43.47900 27.24600
C  3.89700 42.96300 29.76800
O  4.67500 43.26900 30.70600
C  2.46900 42.45200 30.06100
C  2.62400 41.30800 30.94400
O  3.34200 40.31700 30.66300
O  1.89800 41.42000 32.08600
C  1.82800 40.17100 32.86400
H  -2.71700 39.85800 26.38500
H  0.80000 40.76400 20.97100
H  5.55800 42.78700 24.35000
H  -0.30300 40.91000 30.36800
H  -2.57800 41.01600 28.69000
H  -0.77300 38.59100 28.83200
H  -2.54700 38.83800 28.53200
H  -1.90000 39.11500 30.17500
H  -0.92500 43.71700 29.26900
H  -0.44500 43.10700 30.89600
H  -3.16300 42.68200 29.76300
H  -2.58700 43.77100 31.02800
H  -4.56200 39.78200 23.31300
H  -4.02500 39.63000 24.91900
H  -3.70900 38.28000 23.80100
H  -3.50300 38.19500 21.29800
H  -3.35100 38.81400 19.66600
H  -4.00900 39.83400 20.98900
H  2.77800 42.42000 20.56700
H  5.17600 41.78000 22.06600
H  4.76000 40.49100 20.42000
H  3.22100 40.23800 19.60400
H  3.42400 39.57200 21.21500
H  4.50600 43.79600 20.55300
H  5.51900 44.03600 21.99400
H  2.76400 44.43500 22.77700
H  3.09400 45.29200 21.23900
H  4.04000 45.69500 22.66900
H  6.66800 43.81200 26.24100
H  6.97800 42.56500 27.40600
H  6.59500 44.21200 28.02900
H  1.87700 43.11000 30.69700
H  1.71600 39.30100 32.21600
H  0.89200 40.17100 33.42200
H  2.73600 40.08800 33.46100

