158

Mg 53.27900 23.57400 44.51900
C  50.55600 25.65600 43.72500
C  51.86600 21.04300 42.86500
C  56.30100 22.17900 44.46200
C  54.80300 26.70900 45.55600
N  51.54800 23.47500 43.23300
C  50.52800 24.36900 43.12500
C  49.44300 23.86600 42.17000
C  49.68200 22.23400 42.29900
C  51.14600 22.24200 42.77100
C  48.69900 21.41100 43.17500
C  49.63700 24.42300 40.72500
C  48.37400 24.79600 39.95300
H  47.88300 23.72600 38.88600
N  53.95900 21.77600 43.88900
C  53.18900 20.88400 43.26000
C  54.02200 19.70300 43.07500
C  55.31400 19.97000 43.44000
C  55.28400 21.38200 43.90700
C  53.46600 18.39300 42.53000
C  56.56800 19.03900 43.42700
O  56.56200 17.89500 43.00500
C  57.85600 19.42100 43.96800
N  55.25000 24.34400 44.84700
C  56.29500 23.45400 44.95700
C  57.59600 24.11100 45.70300
C  57.11100 25.57700 45.85500
C  55.63600 25.56400 45.41500
C  57.96200 23.46600 47.08000
C  57.88000 26.70500 45.06100
C  58.54700 27.80200 45.82400
N  52.81300 25.74300 44.71900
C  53.49100 26.83000 45.28100
C  52.56800 27.89800 45.50400
C  51.42800 27.50600 44.87900
C  51.63400 26.20900 44.38500
C  53.01000 29.12600 46.31400
C  50.07100 27.84200 44.64800
O  49.47900 28.85400 44.99500
C  49.44600 26.71800 43.80400
C  49.04100 27.31000 42.47700
O  49.70200 27.59800 41.53000
O  47.66000 27.46200 42.53500
C  47.12200 27.89800 41.31700
H  51.37000 20.12800 42.53600
H  57.26400 21.74400 44.73700
H  55.24200 27.61100 45.98900
H  48.46100 24.08100 42.59300
H  49.70600 21.71500 41.34100
H  48.69900 21.55400 44.25500
H  48.77200 20.34500 42.96000
H  47.66300 21.54800 42.86400
H  50.26100 23.77200 40.11200
H  50.29800 25.27700 40.87200
H  48.60900 25.73400 39.44900
H  47.59500 25.00700 40.68600
H  53.92000 17.55200 43.05600
H  53.60300 18.42700 41.45000
H  52.39100 18.32000 42.69500
H  58.34700 20.10000 43.27100
H  58.55800 18.58900 44.00800
H  57.76500 19.81000 44.98200
H  58.41300 24.09200 44.98000
H  57.13400 25.75400 46.93000
H  58.09800 24.12000 47.94200
H  58.97700 23.08400 46.97300
H  57.37900 22.57100 47.29300
H  57.19400 27.20100 44.37400
H  58.67800 26.24000 44.48200
H  58.18000 28.68700 45.30300
H  59.62500 27.63900 45.84300
H  58.18200 27.80100 46.85100
H  52.14100 29.76400 46.47100
H  53.65300 29.71100 45.65700
H  53.61200 28.93800 47.20300
H  48.53600 26.32400 44.25500
H  47.49500 28.88500 41.04200
H  46.06000 27.78300 41.52900
H  47.37400 27.24300 40.48200
Mg 9.21600 47.21900 27.55500
C  7.41800 46.80200 30.57200
C  12.13200 47.70400 29.42600
C  10.91800 48.53300 24.89600
C  6.26900 47.51100 25.79100
N  9.67200 47.24700 29.75200
C  8.77400 46.97300 30.80400
C  9.49300 47.07700 32.12400
C  10.95100 47.51200 31.71600
C  10.96900 47.48700 30.15700
C  11.45500 48.87100 32.27500
C  9.47900 45.76200 32.90900
C  10.42500 45.44700 34.00300
H  9.83900 45.21800 35.42700
N  11.28000 47.78000 27.11500
C  12.33300 47.82900 28.04700
C  13.61900 48.09500 27.36200
C  13.22700 48.41800 25.98500
C  11.72800 48.28100 25.97200
C  15.04700 48.17100 28.04000
C  14.08600 48.80400 24.83200
O  13.65400 49.18300 23.77000
C  15.57000 48.83200 24.95300
N  8.68000 48.11900 25.67700
C  9.53000 48.42300 24.65800
C  8.88300 48.74500 23.36900
C  7.39200 48.37900 23.68500
C  7.41100 47.84300 25.09900
C  9.02100 50.26100 22.86500
C  6.95600 47.35200 22.56200
C  7.08500 47.85800 21.04100
N  7.29400 47.05400 27.97100
C  6.24100 47.15600 27.11900
C  5.02000 46.86400 27.90200
C  5.42800 46.73000 29.25900
C  6.86000 46.73900 29.24000
C  3.60200 47.06700 27.40300
C  4.96600 46.57800 30.65000
O  3.81000 46.48200 31.08800
C  6.26000 46.58800 31.55200
C  6.37800 45.15900 32.12200
O  6.97100 44.22500 31.64600
O  5.75700 45.20200 33.33300
C  5.83000 43.88700 33.98000
H  13.00800 47.72500 30.07700
H  11.39700 48.93900 24.00200
H  5.43200 47.60200 25.09500
H  8.99700 47.83800 32.72500
H  11.61400 46.68000 31.95200
H  10.71400 49.18200 33.01000
H  11.41200 49.64800 31.51200
H  12.44800 48.66600 32.67600
H  9.78800 45.06100 32.13400
H  8.45700 45.51100 33.19600
H  11.03300 46.34700 34.09800
H  11.09200 44.61300 33.78600
H  15.67600 47.40000 27.59500
H  15.00900 47.76000 29.04900
H  15.52200 49.14700 28.13800
H  16.10400 49.03000 24.02400
H  15.79900 47.79100 25.18200
H  15.89100 49.33700 25.86400
H  9.23400 48.16400 22.51600
H  6.81000 49.29100 23.55000
H  8.08000 50.80600 22.79400
H  9.46700 50.25800 21.87000
H  9.61800 50.79900 23.60100
H  5.88900 47.14300 22.63700
H  7.53800 46.44800 22.74400
H  6.42900 47.26600 20.40300
H  8.10500 47.87500 20.65800
H  6.56000 48.80700 21.15300
H  3.00700 47.52300 28.19400
H  3.30100 46.04100 27.18900
H  3.54500 47.82100 26.61800
H  6.26500 47.28900 32.38700
H  5.32900 43.16900 33.33000
H  5.40300 44.01200 34.97400
H  6.88900 43.63800 34.04700

