158

Mg 44.36600 4.31800 46.77800
C  42.15700 7.06500 46.62700
C  41.39200 2.23700 46.58400
C  46.26000 1.67500 46.47700
C  47.09100 6.45300 46.56600
N  42.14000 4.62000 46.40300
C  41.47900 5.83400 46.43800
C  39.95700 5.66000 46.29700
C  39.78900 4.14200 46.50900
C  41.18000 3.64100 46.50900
C  38.89800 3.80000 47.71500
C  39.52800 6.22700 44.85300
C  38.11100 6.74200 44.55600
H  37.62600 6.79900 43.11000
N  43.95100 2.28600 46.57600
C  42.71300 1.62300 46.56700
C  42.93000 0.23100 46.48800
C  44.35900 0.01200 46.51200
C  44.93600 1.37700 46.53600
C  41.72000 -0.81000 46.60200
C  45.09200 -1.37200 46.44300
O  44.35400 -2.32500 46.45100
C  46.56900 -1.54300 46.21900
N  46.44900 4.14400 46.53300
C  46.97100 2.91700 46.46700
C  48.54000 3.09100 46.45300
C  48.83200 4.63200 46.66800
C  47.42100 5.15500 46.61700
C  49.31900 2.09500 47.40700
C  49.94600 5.33300 45.75800
C  51.29700 4.55400 45.67300
N  44.58700 6.33500 46.69900
C  45.78800 7.07000 46.64600
C  45.47100 8.45600 46.73900
C  44.06700 8.52300 46.74800
C  43.56400 7.17200 46.72900
C  46.45700 9.63900 46.61500
C  42.95400 9.37800 46.84900
O  43.02300 10.58700 46.88500
C  41.70000 8.50100 46.78100
C  40.91700 8.64500 48.04800
O  40.81500 7.74400 48.86200
O  40.10300 9.80300 48.07000
C  39.02200 9.69000 49.06800
H  40.47000 1.65100 46.59200
H  46.99700 0.87000 46.48300
H  47.94600 7.12500 46.47100
H  39.39200 6.21500 47.04700
H  39.33600 3.67300 45.63600
H  38.12500 3.07600 47.45700
H  38.33000 4.67700 48.02500
H  39.47100 3.44900 48.57300
H  39.60600 5.33100 44.23800
H  40.25100 6.97400 44.52600
H  37.87200 7.69800 45.02200
H  37.44700 6.13400 45.17100
H  41.88300 -1.43900 47.47700
H  41.84900 -1.44100 45.72300
H  40.75900 -0.30000 46.53100
H  47.12000 -1.20300 47.09600
H  46.75100 -0.96100 45.31600
H  46.67400 -2.62500 46.14500
H  48.71100 2.77700 45.42400
H  49.25000 4.86600 47.64700
H  50.07100 2.64700 47.97000
H  49.79100 1.24500 46.91300
H  48.60000 1.87100 48.19400
H  50.07600 6.30500 46.23200
H  49.56200 5.55000 44.76100
H  51.34300 3.55400 46.10400
H  52.06900 5.20500 46.08400
H  51.50300 4.63400 44.60500
H  46.91400 9.64600 45.62600
H  47.34400 9.52300 47.23800
H  46.01500 10.62900 46.72900
H  41.11900 8.84800 45.92700
H  39.42500 9.63600 50.07900
H  38.33900 8.89800 48.75900
H  38.40800 10.58200 48.94500
Mg 36.02300 49.37600 25.91800
C  36.03400 47.60700 28.85900
C  34.81200 52.13600 27.69900
C  35.53200 50.96600 22.95700
C  36.81500 46.56500 24.15600
N  35.25400 49.78400 28.11000
C  35.71400 48.94500 29.11000
C  35.64800 49.63000 30.44600
C  35.12300 51.05800 30.03400
C  35.03300 51.00500 28.54500
C  33.85800 51.48300 30.82700
C  37.00200 49.62500 31.18900
C  36.87900 49.27500 32.65700
H  35.62400 49.64300 33.46800
N  35.27000 51.25000 25.40200
C  34.82600 52.20900 26.24300
C  34.33000 53.33600 25.50000
C  34.59100 53.04800 24.11700
C  35.13300 51.68200 24.03800
C  33.78600 54.57100 26.21700
C  34.33100 53.98100 22.80400
O  34.48700 53.64700 21.63800
C  34.00200 55.41300 23.13800
N  35.97600 48.80200 23.82200
C  35.99500 49.70500 22.86100
C  36.34600 49.04400 21.49800
C  37.06200 47.75100 21.97100
C  36.59700 47.67600 23.41000
C  35.21800 48.67700 20.44600
C  38.61500 47.83700 21.90600
C  39.40700 46.46100 21.78100
N  36.32100 47.40500 26.34700
C  36.70900 46.38700 25.55900
C  37.03500 45.26200 26.42800
C  36.73400 45.68400 27.71400
C  36.32200 46.99500 27.56700
C  37.31300 43.92600 25.96400
C  36.60700 45.22000 29.06900
O  36.71600 44.12700 29.59100
C  36.35400 46.51900 29.88200
C  35.24600 46.21000 30.83100
O  34.08400 46.11200 30.54500
O  35.76700 45.99300 32.04900
C  34.80100 45.79600 33.17000
H  34.43900 52.96400 28.30400
H  35.49000 51.47800 21.99400
H  37.15800 45.62900 23.70900
H  34.86500 49.05800 30.94400
H  35.83500 51.84700 30.27800
H  34.03300 52.36700 31.44000
H  33.49800 50.78000 31.57800
H  33.08900 51.65300 30.07300
H  37.53400 50.57200 31.09900
H  37.65200 48.94500 30.63800
H  37.75100 49.74000 33.11700
H  37.18400 48.23100 32.59300
H  33.04800 55.13700 25.64800
H  34.59000 55.19600 26.60600
H  33.22500 54.39100 27.13500
H  33.97600 56.11900 22.30800
H  34.81500 55.69000 23.80900
H  33.03500 55.54100 23.62400
H  37.02700 49.69900 20.95500
H  36.64000 46.87700 21.47500
H  34.21100 48.98200 20.73200
H  35.02500 47.62600 20.22900
H  35.46700 49.13200 19.48700
H  39.07800 48.15400 22.84000
H  38.95200 48.41500 21.04500
H  38.77400 45.57700 21.70100
H  40.09800 46.28200 22.60400
H  40.04800 46.42400 20.90000
H  38.32400 44.01300 25.56600
H  36.56800 43.62100 25.22900
H  37.30800 43.18800 26.76500
H  37.30700 46.81200 30.32200
H  35.16800 46.31200 34.05800
H  34.69500 44.75100 33.45900
H  33.86200 46.32700 33.01600

