158

Mg 52.83400 23.97000 45.01300
C  50.18500 25.96400 43.85000
C  50.89300 21.28100 43.86500
C  55.62500 22.12400 45.03000
C  54.48900 26.72200 45.92400
N  50.88100 23.72600 43.68300
C  49.95800 24.69000 43.35600
C  48.77000 24.09200 42.67300
C  48.95200 22.58900 42.84500
C  50.33600 22.48500 43.44400
C  47.81000 21.80700 43.56500
C  48.76600 24.46200 41.13600
C  50.10200 24.69000 40.34100
H  50.17600 25.31400 38.90600
N  53.19300 21.90800 44.64100
C  52.24100 20.96000 44.27600
C  52.88900 19.66300 44.22800
C  54.28000 19.84900 44.58000
C  54.45500 21.34800 44.79700
C  52.21500 18.34100 43.96800
C  55.29700 18.76600 44.73000
O  54.89200 17.58000 44.54900
C  56.71700 19.08400 45.08700
N  54.81600 24.40700 45.25300
C  55.75900 23.48700 45.31100
C  57.16500 24.08200 45.48900
C  56.83700 25.58400 45.91800
C  55.32300 25.62800 45.66900
C  58.04200 23.44700 46.61600
C  57.61000 26.71500 45.18600
C  58.90000 27.25600 45.80100
N  52.45100 26.04300 44.88500
C  53.16300 26.99000 45.51100
C  52.40500 28.24600 45.57800
C  51.18200 27.85100 44.90500
C  51.26900 26.52700 44.54000
C  52.69900 29.38600 46.34300
C  49.80000 28.26900 44.51200
O  49.18200 29.31500 44.56200
C  49.12000 27.00900 43.79700
C  48.90400 27.51100 42.38800
O  49.80600 27.77300 41.65600
O  47.58100 27.69800 42.07500
C  47.42900 28.50300 40.88200
H  50.27500 20.39200 43.72300
H  56.56300 21.58900 45.18900
H  55.11800 27.51500 46.33300
H  47.88800 24.42400 43.22000
H  48.99000 22.06500 41.89000
H  48.33000 21.29500 44.37400
H  47.32600 21.05400 42.94200
H  47.04400 22.43100 44.02600
H  48.12000 25.33700 41.06700
H  48.18800 23.72600 40.57700
H  50.51500 23.68200 40.29200
H  50.83200 25.26900 40.90700
H  52.59500 17.89100 43.05100
H  51.14400 18.41300 43.78100
H  52.37200 17.69200 44.83000
H  57.27000 18.14900 45.17700
H  56.81100 19.60800 46.03700
H  57.06500 19.64100 44.21700
H  57.74500 23.98500 44.57100
H  56.92600 25.68000 47.00000
H  57.45300 22.93000 47.37400
H  58.55100 24.17800 47.24500
H  58.79700 22.79700 46.17300
H  57.08800 27.65600 45.01000
H  57.84500 26.27700 44.21600
H  59.76100 26.93300 45.21600
H  59.16100 26.94500 46.81300
H  58.83800 28.33000 45.97500
H  53.42800 29.18200 47.12700
H  51.72700 29.55100 46.80800
H  52.96900 30.24000 45.72100
H  48.14600 26.73900 44.20500
H  46.35400 28.54100 40.70800
H  47.72500 27.97100 39.97800
H  47.78100 29.53200 40.95900
Mg 6.98100 53.63600 41.58400
C  6.74400 50.14600 41.52900
C  10.26700 53.19500 40.16700
C  7.15700 56.86200 40.61600
C  3.77800 53.85000 42.50100
N  8.32900 51.89100 41.12100
C  7.96500 50.61700 41.08200
C  9.15800 49.70000 40.74300
C  10.39700 50.71700 40.81100
C  9.64100 52.05700 40.73700
C  11.31200 50.44700 42.13400
C  9.17100 48.84700 39.44100
C  8.96500 49.66600 38.20400
H  7.76600 49.27600 37.24000
N  8.49700 54.82200 40.54700
C  9.73000 54.45200 40.02600
C  10.47700 55.65500 39.69400
C  9.66800 56.79600 39.92400
C  8.37500 56.18000 40.37800
C  11.93500 55.63200 39.28100
C  10.09300 58.24600 39.80900
O  11.15600 58.65300 39.36500
C  9.22600 59.33700 40.32900
N  5.64700 55.02900 41.55000
C  5.99000 56.28900 41.13500
C  4.72200 57.13100 41.17300
C  3.65200 56.27800 41.95500
C  4.41300 54.92400 42.03800
C  4.64100 58.56100 41.81200
C  2.30500 56.14800 41.29100
C  1.10800 56.07100 42.28200
N  5.52200 52.31200 42.12400
C  4.26900 52.52800 42.60800
C  3.68300 51.24800 42.93700
C  4.57800 50.25100 42.57100
C  5.68800 51.01100 41.99300
C  2.36000 50.98500 43.55000
C  4.75500 48.87900 42.52400
O  4.03700 47.94500 42.77700
C  6.18000 48.76500 41.68200
C  5.72800 48.14100 40.34300
O  4.97000 48.66500 39.49300
O  6.04800 46.79100 40.36500
C  5.43400 45.94700 39.38200
H  11.29200 52.99100 39.85200
H  7.05400 57.92800 40.40300
H  2.75300 53.85100 42.87800
H  9.19200 48.92000 41.50400
H  11.06800 50.59000 39.96100
H  12.36400 50.57500 41.87900
H  11.18900 49.41800 42.47400
H  11.13600 51.20200 42.90000
H  8.43600 48.04200 39.46400
H  10.18400 48.47500 39.28800
H  9.83800 49.48700 37.57600
H  8.88000 50.73400 38.40100
H  12.13600 54.66700 38.81600
H  12.63500 55.81500 40.09600
H  12.13100 56.39700 38.53000
H  8.45700 59.63200 39.61500
H  9.78800 60.25700 40.48800
H  8.88900 58.99600 41.30800
H  4.49800 57.25600 40.11400
H  3.59000 56.54000 43.01100
H  5.66500 58.81800 42.08700
H  3.96400 58.89200 42.60000
H  4.36900 59.15900 40.94200
H  2.37800 55.21000 40.74100
H  2.14700 56.88900 40.50700
H  0.54600 57.00400 42.26000
H  1.51600 55.95800 43.28700
H  0.40200 55.26500 42.08200
H  1.57200 51.72600 43.41000
H  2.39000 50.69200 44.60000
H  1.99200 50.13600 42.97500
H  6.85100 48.06400 42.18000
H  6.22000 45.54100 38.74500
H  4.66700 46.30700 38.69600
H  4.99300 45.03600 39.78600

