158

Mg 40.55800 8.83700 29.48100
C  42.45800 9.97600 32.19100
C  38.35900 7.52900 31.78000
C  39.02000 7.48600 26.84300
C  43.27600 9.68900 27.32400
N  40.49300 8.55400 31.74000
C  41.30400 9.23100 32.64000
C  40.84300 8.99200 34.02900
C  39.64000 8.01300 33.87900
C  39.45900 8.02800 32.41100
C  39.75200 6.51900 34.51000
C  40.47700 10.33200 34.77500
C  40.17100 10.21000 36.19100
H  41.12000 11.04900 37.15100
N  38.96400 7.75000 29.35900
C  38.22200 7.29300 30.42200
C  36.95000 6.76200 29.84100
C  37.13500 6.68500 28.43100
C  38.41000 7.37100 28.11600
C  35.73300 6.24800 30.63300
C  36.15500 6.10800 27.44200
O  36.35300 6.08500 26.20700
C  34.79700 5.58900 27.84900
N  41.15900 8.61500 27.35000
C  40.25900 8.02900 26.47100
C  40.86200 7.84900 25.09300
C  42.30200 8.59900 25.26100
C  42.34300 8.96800 26.68700
C  40.90600 6.31400 24.60200
C  42.39100 9.66200 24.14000
C  41.67000 10.97300 24.42300
N  42.41300 9.80900 29.65100
C  43.35100 10.08800 28.67500
C  44.47900 10.67100 29.32400
C  44.12000 10.76400 30.68700
C  42.90500 10.13100 30.81000
C  45.76300 10.98900 28.74300
C  44.59400 11.15800 31.91900
O  45.65600 11.76600 32.22200
C  43.59800 10.75100 33.06400
C  44.37700 10.10400 34.21000
O  45.32700 9.29700 34.11100
O  43.85800 10.47000 35.38400
C  44.50900 9.84100 36.57700
H  37.58700 7.28200 32.51200
H  38.50500 7.08900 25.96600
H  44.14300 9.97800 26.72700
H  41.55300 8.46400 34.66500
H  38.71600 8.51600 34.16400
H  39.37100 5.77800 33.80800
H  39.17500 6.34900 35.41900
H  40.80200 6.22900 34.56700
H  39.60700 10.79800 34.31200
H  41.36300 10.96100 34.69100
H  40.23800 9.17700 36.53600
H  39.19800 10.66400 36.37700
H  35.77900 5.17000 30.78800
H  34.83300 6.64000 30.16000
H  35.80700 6.70800 31.61800
H  34.74900 4.80400 28.60400
H  34.38600 5.21600 26.91100
H  34.11000 6.38100 28.14500
H  40.28000 8.40300 24.35600
H  43.12800 7.89000 25.31100
H  40.48200 6.33100 23.59800
H  40.37400 5.64900 25.28300
H  41.95900 6.03900 24.54500
H  42.16300 9.21700 23.17100
H  43.44900 9.90700 24.04500
H  40.94100 10.91800 25.23200
H  41.14700 11.26800 23.51300
H  42.39100 11.77200 24.59300
H  45.63800 11.45800 27.76700
H  46.42600 10.13200 28.62900
H  46.20800 11.72800 29.41000
H  43.06400 11.65000 33.37500
H  43.98600 10.08600 37.50200
H  45.52500 10.13500 36.84000
H  44.50400 8.76300 36.41700
Mg 8.61100 48.31400 26.12200
C  6.43900 48.75200 28.86600
C  11.25800 49.20900 28.14100
C  10.60100 47.91900 23.52200
C  5.79500 47.66500 24.06300
N  8.83300 48.75800 28.26600
C  7.77000 48.91900 29.18400
C  8.36000 49.37100 30.54200
C  9.89400 49.60400 30.28600
C  10.02200 49.16300 28.77700
C  10.44400 51.06600 30.48700
C  7.90200 48.47300 31.76100
C  8.90800 48.40600 32.96200
H  8.31200 47.75800 34.23300
N  10.65300 48.74400 25.84000
C  11.62000 49.04300 26.80600
C  12.91100 49.05600 26.14700
C  12.69100 48.74600 24.77900
C  11.24400 48.42300 24.68200
C  14.18500 49.41400 26.90100
C  13.71400 48.60100 23.68300
O  13.38200 48.25100 22.58400
C  15.20000 48.73300 24.02800
N  8.15600 48.11300 23.92400
C  9.22700 47.76600 23.13400
C  8.76800 47.14900 21.82000
C  7.23800 47.03000 22.03300
C  7.03200 47.72900 23.37700
C  9.15600 48.02000 20.56400
C  6.76600 45.60600 21.97600
C  7.32100 44.62600 23.04000
N  6.55200 48.13600 26.36600
C  5.55700 47.86800 25.48000
C  4.30100 47.87200 26.16700
C  4.57000 48.27100 27.46300
C  5.97300 48.44900 27.53400
C  2.88500 47.43500 25.55100
C  3.97700 48.58600 28.71900
O  2.85000 48.56300 29.10500
C  5.16000 49.00200 29.65900
C  4.87200 48.28800 30.93800
O  4.74300 47.10700 31.13600
O  4.41900 49.20600 31.84300
C  4.16400 48.66800 33.17000
H  12.10700 49.61900 28.69200
H  11.25100 47.60600 22.70200
H  5.04200 47.06300 23.55000
H  7.78100 50.28900 30.44400
H  10.48000 48.91200 30.89000
H  9.74900 51.63000 31.10900
H  10.54900 51.57800 29.53100
H  11.39000 51.08600 31.02800
H  7.87800 47.43700 31.42500
H  6.93500 48.63100 32.23900
H  9.34600 49.31600 33.37100
H  9.71900 47.73500 32.67900
H  14.02400 49.57900 27.96600
H  14.52700 50.37900 26.52700
H  14.97300 48.66600 26.81700
H  15.54400 47.82700 24.52600
H  15.23900 49.62300 24.65700
H  15.87500 48.83500 23.17800
H  9.23500 46.18100 21.63900
H  6.70300 47.59700 21.27200
H  8.30600 48.43100 20.02000
H  9.72100 47.43500 19.83800
H  9.75500 48.89900 20.80000
H  6.83600 45.21000 20.96300
H  5.69000 45.58800 22.15300
H  6.56300 43.89200 23.31500
H  7.56000 45.12500 23.97900
H  8.16300 44.12000 22.56800
H  3.15400 46.71300 24.78000
H  2.34100 48.36600 25.38900
H  2.41300 46.85500 26.34400
H  4.99000 50.07400 29.75000
H  4.18800 49.56900 33.78300
H  4.87200 47.88800 33.45100
H  3.15200 48.26200 33.16600

