158

Mg 1.65700 8.18400 25.97000
C  2.15200 10.26900 28.81400
C  2.09500 5.44800 28.23300
C  1.64400 6.09000 23.32200
C  1.52600 10.92000 23.97600
N  2.12700 7.90200 28.42400
C  2.21000 8.97200 29.28000
C  2.04200 8.38900 30.69200
C  2.24600 6.83800 30.47700
C  2.06300 6.66200 28.94100
C  3.70000 6.31600 30.92100
C  0.62500 8.66600 31.36900
C  0.62200 9.01900 32.85800
H  1.63000 8.53400 33.82100
N  1.81400 6.10900 25.80600
C  1.96500 5.18600 26.83000
C  2.13800 3.88600 26.25900
C  1.98700 4.00500 24.86800
C  1.80000 5.46600 24.60100
C  2.44500 2.64100 27.13900
C  2.01900 2.78700 23.89100
O  1.93800 3.02200 22.68800
C  2.07500 1.32900 24.22600
N  1.66400 8.49100 23.93800
C  1.54000 7.46200 23.02400
C  1.17500 7.99600 21.62700
C  1.18500 9.52800 21.78800
C  1.38700 9.71800 23.34500
C  2.05200 7.46400 20.45200
C  -0.07800 10.25400 21.28000
C  0.18000 11.45400 20.33500
N  1.84100 10.19900 26.28800
C  1.78000 11.21300 25.36200
C  2.01300 12.53600 26.01400
C  2.13400 12.16300 27.33500
C  2.11700 10.72900 27.47900
C  1.88200 13.93800 25.40600
C  2.32800 12.76300 28.70600
O  2.56000 13.92200 28.98100
C  2.13000 11.51200 29.67300
C  3.30900 11.62700 30.67200
O  4.49400 11.32300 30.44100
O  2.87900 12.03400 31.86900
C  3.99900 12.14900 32.86000
H  2.17800 4.63800 28.96100
H  1.44100 5.49200 22.43200
H  1.50400 11.82800 23.37000
H  2.83300 8.80000 31.31900
H  1.54200 6.30200 31.11400
H  4.47200 7.07900 31.02600
H  4.14000 5.74000 30.10700
H  3.84100 5.60300 31.73400
H  -0.01800 7.78800 31.31100
H  0.14000 9.41000 30.73700
H  -0.24000 8.53400 33.31700
H  0.45200 10.07800 33.05400
H  3.00000 1.88900 26.57800
H  1.47000 2.26500 27.45000
H  3.12700 2.98900 27.91400
H  3.09000 1.28700 24.62000
H  2.02800 0.67400 23.35600
H  1.34000 0.88900 24.90000
H  0.18000 7.58200 21.46300
H  2.08200 9.98200 21.36700
H  1.66400 6.49200 20.14600
H  3.08100 7.38000 20.80000
H  2.09400 8.12000 19.58300
H  -0.78700 10.52800 22.06100
H  -0.58500 9.52800 20.64400
H  0.00700 11.01900 19.35000
H  1.19200 11.85000 20.42000
H  -0.56200 12.22700 20.53200
H  1.01300 14.42400 25.84900
H  1.67700 13.74200 24.35300
H  2.81500 14.48000 25.55500
H  1.11700 11.53200 30.07400
H  4.79200 12.82600 32.54400
H  4.39700 11.14700 33.02400
H  3.72800 12.49500 33.85800
Mg 47.45600 45.13800 43.29600
C  43.98400 44.90100 43.18400
C  47.73900 41.74500 42.89200
C  50.66000 45.57200 41.98400
C  47.00600 48.78100 43.11600
N  46.08500 43.59100 43.17900
C  44.67000 43.66900 43.18900
C  44.06900 42.23200 43.19000
C  45.28900 41.38300 43.54300
C  46.50600 42.30000 43.18400
C  45.41600 40.80100 45.03800
C  43.24400 41.84000 41.94200
C  43.59700 42.49900 40.59600
H  43.43200 41.73300 39.25000
N  49.04100 43.82400 42.67300
C  48.97400 42.40100 42.59500
C  50.29800 41.88900 42.22300
C  51.13700 42.97100 42.02200
C  50.27900 44.21700 42.25400
C  50.71500 40.41000 42.27100
C  52.63600 42.85500 41.65000
O  53.10300 41.78500 41.34500
C  53.49200 44.07500 41.63600
N  48.62400 46.95100 42.78700
C  50.00100 46.78300 42.36700
C  50.67600 48.21700 42.19900
C  49.41700 49.16900 42.42500
C  48.29400 48.25200 42.87400
C  51.97100 48.51900 43.14500
C  49.18300 50.18700 41.34900
C  48.55800 51.49500 41.73800
N  45.87000 46.61400 43.26400
C  45.83800 47.98900 43.27200
C  44.45400 48.46900 43.37600
C  43.62900 47.30700 43.24800
C  44.57300 46.20500 43.27900
C  43.96200 49.82300 43.38900
C  42.27700 46.75400 43.24300
O  41.16400 47.31900 43.27300
C  42.49400 45.16800 43.21300
C  41.73500 44.56200 44.41300
O  40.91100 43.67900 44.41800
O  42.18000 45.15600 45.60600
C  41.30000 44.78000 46.82100
H  47.78200 40.65500 42.95800
H  51.64700 45.75400 41.55300
H  47.02700 49.86100 43.27200
H  43.25300 42.22700 43.91100
H  45.42000 40.52500 42.88400
H  45.73000 39.76200 44.94300
H  44.42700 40.96100 45.46700
H  46.21600 41.33700 45.54900
H  42.22800 42.19900 42.10900
H  43.11700 40.77000 41.77500
H  44.67400 42.55100 40.76100
H  43.23700 43.52700 40.55400
H  50.62800 40.00800 41.26200
H  49.95900 39.85000 42.82200
H  51.67300 40.30300 42.77900
H  53.29200 44.68700 42.51500
H  53.43000 44.70300 40.74700
H  54.48800 43.66200 41.79700
H  51.03300 48.12000 41.17400
H  49.60200 49.77100 43.31400
H  51.73300 49.26900 43.89900
H  52.79600 48.85000 42.51400
H  52.28700 47.61000 43.65700
H  48.51400 49.69100 40.64600
H  50.12500 50.38800 40.83900
H  48.58600 51.61800 42.82100
H  47.59300 51.71400 41.28200
H  49.13000 52.36700 41.42200
H  44.29400 50.38300 44.26300
H  42.87400 49.84500 43.44900
H  44.21800 50.19300 42.39600
H  42.01100 44.83700 42.29300
H  41.71100 45.13100 47.76800
H  41.24900 43.69200 46.86200
H  40.27500 45.13700 46.71500

