158

Mg 43.27900 3.88700 47.09900
C  41.36000 6.84900 47.09400
C  40.29000 2.11600 46.74700
C  45.01600 1.20800 46.25400
C  46.08400 6.00600 46.50100
N  41.09000 4.49800 46.94500
C  40.51400 5.72300 47.06200
C  38.96800 5.66400 47.08200
C  38.79900 4.10500 47.11800
C  40.15700 3.47400 46.88300
C  38.15300 3.58800 48.43200
C  38.26200 6.36800 45.86300
C  39.19600 6.92100 44.76000
H  38.80600 6.38900 43.36100
N  42.75300 1.87000 46.85600
C  41.49000 1.31400 46.69700
C  41.54600 -0.04300 46.42700
C  42.95200 -0.39800 46.32500
C  43.63800 0.86800 46.53400
C  40.34200 -0.89300 46.22500
C  43.44100 -1.89200 46.07400
O  42.63500 -2.82800 45.86200
C  44.85500 -2.29600 46.03300
N  45.21600 3.65600 46.36100
C  45.71800 2.39400 46.16400
C  47.15400 2.49400 45.68000
C  47.54700 3.97800 45.98200
C  46.18400 4.64600 46.29800
C  48.02500 1.46500 46.39800
C  48.53500 4.71300 44.99000
C  49.87800 4.95600 45.62300
N  43.70400 6.04600 46.75800
C  44.94500 6.72300 46.65300
C  44.65300 8.18700 46.75000
C  43.26800 8.26400 46.97000
C  42.74300 6.94700 46.97300
C  45.75600 9.23800 46.65800
C  42.19700 9.17100 47.29600
O  42.22400 10.39100 47.34900
C  40.91600 8.28900 47.31200
C  40.08900 8.54100 48.49600
O  40.10800 7.81700 49.46000
O  39.28000 9.59700 48.33200
C  38.28800 10.07800 49.27000
H  39.28800 1.70900 46.59900
H  45.53400 0.30400 45.92900
H  47.03300 6.53400 46.61600
H  38.65800 6.13000 48.01800
H  38.21500 3.64000 46.32400
H  37.72500 4.40900 49.00600
H  38.93200 3.14500 49.05300
H  37.39100 2.85400 48.17100
H  37.72200 7.23800 46.23700
H  37.52700 5.73500 45.36600
H  40.23600 6.60600 44.84300
H  39.06500 8.00300 44.77700
H  39.85000 -0.80100 45.25700
H  39.55800 -0.62800 46.93500
H  40.46400 -1.94800 46.46800
H  45.44600 -1.88200 46.85000
H  45.16400 -1.94400 45.04900
H  44.99100 -3.37700 46.03700
H  47.16700 2.30400 44.60700
H  48.02600 3.81400 46.94700
H  48.90400 1.91400 46.86000
H  48.26900 0.79300 45.57500
H  47.51000 0.99800 47.23700
H  48.16800 5.71100 44.75000
H  48.52700 4.20900 44.02300
H  50.62000 4.47900 44.98200
H  49.95400 4.49100 46.60500
H  49.98000 6.03300 45.75500
H  46.13200 9.48600 47.65000
H  45.39900 10.20500 46.30400
H  46.58600 8.89600 46.04000
H  40.30000 8.64100 46.48400
H  38.28200 9.43100 50.14700
H  37.38300 10.03500 48.66400
H  38.58200 11.10000 49.51200
Mg 47.34100 25.07800 29.67600
C  48.07600 27.58200 31.99300
C  45.88700 23.29800 32.04600
C  46.66400 22.76300 27.29600
C  49.10300 27.00500 27.16400
N  47.15000 25.27800 31.75900
C  47.35300 26.49800 32.54400
C  46.92300 26.31500 34.03900
C  46.48800 24.74200 34.07200
C  46.52000 24.39800 32.54600
C  47.33300 23.89200 35.09200
C  45.85700 27.33100 34.50600
C  45.94300 27.99800 35.90100
H  46.39700 27.08200 37.07400
N  46.38200 23.28800 29.72200
C  45.81500 22.71500 30.78500
C  45.07400 21.52200 30.46800
C  45.23900 21.36600 29.05700
C  46.07800 22.45600 28.59100
C  44.23300 20.67900 31.41100
C  44.72100 20.27000 28.18000
O  45.03400 20.18900 27.03100
C  43.76900 19.26100 28.75200
N  47.96800 24.85100 27.55900
C  47.57400 23.78700 26.81000
C  48.15700 23.86600 25.33900
C  48.76500 25.32000 25.33400
C  48.62300 25.76100 26.77600
C  49.12700 22.69700 25.04400
C  48.24700 26.39100 24.36900
C  49.24800 27.14900 23.45500
N  48.41300 26.84900 29.50100
C  48.97300 27.57500 28.44300
C  49.49800 28.75300 28.95500
C  49.25000 28.78900 30.35700
C  48.49900 27.65000 30.66600
C  50.15700 29.84400 28.18200
C  49.38600 29.55400 31.58700
O  49.93600 30.68700 31.74200
C  48.51000 28.85900 32.65600
C  49.31400 28.64900 33.88300
O  50.04600 27.66800 34.02800
O  49.10000 29.67400 34.71700
C  49.61500 29.55500 36.08100
H  45.36300 22.69100 32.78700
H  46.35800 22.03500 26.54200
H  49.44200 27.65100 26.35200
H  47.73500 26.47400 34.74900
H  45.42900 24.65600 34.31600
H  48.20300 23.62000 34.49300
H  46.87600 22.91700 35.26300
H  47.66500 24.52700 35.91300
H  44.92800 26.76100 34.49500
H  45.77000 28.21000 33.86800
H  45.07800 28.59200 36.19500
H  46.78000 28.69100 35.82000
H  43.19100 20.77500 31.10700
H  44.32900 21.10300 32.41100
H  44.81400 19.77000 31.56700
H  44.30600 18.76900 29.56300
H  43.63700 18.52000 27.96400
H  42.78000 19.57400 29.08700
H  47.32100 23.93700 24.64300
H  49.85000 25.31400 25.23400
H  49.99600 23.23500 24.66600
H  48.70900 22.09600 24.23600
H  49.26700 22.16600 25.98500
H  47.73800 27.15000 24.96200
H  47.45500 25.97000 23.75000
H  50.28200 26.84900 23.62600
H  49.30200 28.23400 23.54600
H  49.09200 27.04200 22.38200
H  49.65400 30.70700 28.61700
H  49.92400 29.68400 27.12900
H  51.23700 29.97400 28.25100
H  47.64500 29.50300 32.81200
H  49.95000 30.54600 36.39000
H  50.38800 28.79200 35.99100
H  48.81100 29.15900 36.70100

