158

Mg -2.37300 17.06300 26.43000
C  -2.76300 14.70500 28.95600
C  -3.22300 19.49500 28.66200
C  -2.60500 19.15500 23.85300
C  -1.78100 14.40600 24.14500
N  -2.69100 17.02800 28.57800
C  -2.65100 16.01200 29.45100
C  -2.90400 16.44900 30.94200
C  -3.03700 18.00400 30.73200
C  -3.09700 18.16800 29.24400
C  -4.11400 18.78800 31.53500
C  -1.93300 15.94900 32.04200
C  -1.61500 16.90800 33.23100
H  -0.95700 16.33200 34.51600
N  -2.75600 19.06600 26.27100
C  -3.10200 19.91500 27.28700
C  -3.28000 21.31100 26.77500
C  -3.07200 21.22300 25.35000
C  -2.89500 19.75800 25.09800
C  -3.59900 22.52000 27.64000
C  -3.18000 22.30700 24.37200
O  -2.85500 22.13600 23.16300
C  -3.39000 23.75800 24.76700
N  -2.45600 16.71900 24.20800
C  -2.37700 17.81600 23.43900
C  -1.91800 17.44400 22.02000
C  -1.61900 15.92000 22.11900
C  -1.93700 15.65300 23.59600
C  -2.79500 17.94300 20.90200
C  -0.16800 15.49900 21.72800
C  1.05800 16.29700 22.32600
N  -2.34900 14.94700 26.47200
C  -2.09600 14.02900 25.46100
C  -2.24300 12.69000 26.00300
C  -2.56000 12.91400 27.38500
C  -2.59300 14.29300 27.59700
C  -2.07500 11.43700 25.25400
C  -2.74100 12.20000 28.63900
O  -2.66500 10.99800 28.91300
C  -3.05700 13.35700 29.67300
C  -2.12300 13.19300 30.83400
O  -0.85900 13.28800 30.71800
O  -2.78900 12.68500 31.94400
C  -1.98800 12.10700 33.01600
H  -3.36000 20.28900 29.39800
H  -2.69800 19.80300 22.97800
H  -1.41900 13.64900 23.44700
H  -3.84900 16.05700 31.31600
H  -2.10600 18.48500 31.03400
H  -3.64600 19.66200 31.98900
H  -4.53100 18.14300 32.30800
H  -4.95800 19.16500 30.95600
H  -0.99900 15.82000 31.49600
H  -2.31200 15.04200 32.51500
H  -2.59500 17.36500 33.37100
H  -0.93600 17.72200 32.98000
H  -2.77400 23.20000 27.42700
H  -3.56200 22.26100 28.69800
H  -4.61900 22.88700 27.53200
H  -4.36600 23.75200 25.25200
H  -3.49900 24.31400 23.83600
H  -2.55600 23.94600 25.44300
H  -0.97300 17.98400 21.95900
H  -2.33600 15.42400 21.46500
H  -2.54900 18.96600 20.61600
H  -3.86600 17.79000 21.02900
H  -2.61400 17.31700 20.02800
H  -0.12700 15.45500 20.64000
H  -0.14300 14.44700 22.01200
H  0.77900 17.24000 22.79700
H  1.76400 16.64000 21.57000
H  1.51100 15.73900 23.14600
H  -1.37400 11.58200 24.43200
H  -3.05100 11.13900 24.87000
H  -1.68400 10.64600 25.89500
H  -4.08500 13.07300 29.89700
H  -1.01100 11.75900 32.68000
H  -2.57400 11.23900 33.31900
H  -1.98400 12.79800 33.85900
Mg 0.55700 43.44100 26.47200
C  2.94100 43.31800 29.06800
C  -1.91500 42.68000 28.70600
C  -1.47100 43.04600 23.85300
C  3.37800 43.89400 24.21500
N  0.58800 43.14500 28.61100
C  1.66600 43.14500 29.49100
C  1.09900 43.35200 30.92700
C  -0.34700 42.73600 30.83100
C  -0.64500 42.82400 29.28900
C  -0.40700 41.28000 31.30900
C  1.08900 44.82600 31.45300
C  1.08900 44.95900 32.99200
H  0.73300 43.75100 33.81300
N  -1.49200 43.02700 26.33900
C  -2.37800 42.81700 27.36000
C  -3.68500 42.69800 26.87000
C  -3.59900 42.64700 25.42200
C  -2.16000 42.97800 25.10100
C  -4.94100 42.49600 27.77400
C  -4.68500 42.49300 24.35000
O  -4.37600 42.63000 23.16600
C  -6.13000 42.26000 24.69200
N  0.85000 43.68700 24.33100
C  -0.17000 43.34600 23.47800
C  0.33000 43.31400 22.03700
C  1.77300 43.80700 22.15100
C  2.05100 43.76500 23.66800
C  0.15800 41.92800 21.26400
C  2.10600 45.12900 21.39000
C  2.08800 46.44700 22.19600
N  2.73000 43.56400 26.51000
C  3.74900 43.78000 25.54000
C  5.01700 43.67800 26.15500
C  4.76000 43.52400 27.52500
C  3.37300 43.42200 27.68200
C  6.33100 43.82700 25.30900
C  5.41600 43.33700 28.85000
O  6.54800 43.15000 29.11400
C  4.22800 43.39300 29.90800
C  4.25900 42.36900 30.96300
O  4.31500 41.13500 30.76000
O  4.37800 42.92900 32.23600
C  4.55500 42.08300 33.38700
H  -2.74600 42.42100 29.36500
H  -2.00000 42.56300 23.02800
H  4.15600 43.93500 23.45000
H  1.74700 42.70000 31.51300
H  -1.09300 43.33800 31.35000
H  0.43700 41.04500 31.95700
H  -0.47200 40.62300 30.44100
H  -1.31300 41.10800 31.88900
H  0.18300 45.24000 31.01100
H  1.86900 45.49000 31.08100
H  0.31000 45.70500 33.15300
H  2.06100 45.32600 33.32000
H  -4.95100 41.48800 28.19000
H  -5.82400 42.71700 27.17500
H  -4.82000 43.24300 28.55900
H  -6.06900 41.41900 25.38400
H  -6.64500 42.05100 23.75500
H  -6.50300 43.15200 25.19600
H  -0.20300 44.11400 21.52300
H  2.46200 43.05400 21.77000
H  1.11100 41.40400 21.18900
H  -0.18700 42.15700 20.25600
H  -0.52200 41.23800 21.76300
H  1.35400 45.26200 20.61200
H  3.09500 44.96900 20.95900
H  3.06600 46.91500 22.31000
H  1.48600 46.37000 23.10100
H  1.65300 47.15000 21.48600
H  6.48200 44.90200 25.41100
H  6.21000 43.47800 24.28400
H  7.20300 43.43300 25.83100
H  4.21700 44.37900 30.37400
H  4.40200 42.63000 34.31700
H  5.52400 41.59100 33.30300
H  3.82900 41.27000 33.42600

