158

Mg 40.62900 9.69000 29.71000
C  42.39200 11.10000 32.34400
C  38.40500 8.45000 31.96800
C  38.89000 8.30000 27.08600
C  42.99200 10.99400 27.44500
N  40.48800 9.76700 31.99200
C  41.23000 10.45400 32.83200
C  40.60400 10.38700 34.24000
C  39.48300 9.34000 34.17000
C  39.45900 9.15400 32.60000
C  39.66200 8.11000 35.01100
C  40.16400 11.76500 34.80700
C  39.89700 11.83400 36.36800
H  40.73100 12.70300 37.28000
N  38.91500 8.63900 29.52400
C  38.17000 8.19900 30.61400
C  37.00100 7.42200 30.17500
C  37.04200 7.55600 28.75100
C  38.32800 8.12000 28.40500
C  35.96800 6.80100 31.09200
C  36.00700 7.16800 27.65500
O  36.18000 7.31800 26.42000
C  34.67000 6.72300 28.16200
N  40.96700 9.57300 27.62900
C  39.99200 9.08100 26.77200
C  40.38200 9.33500 25.28200
C  41.70800 10.18700 25.39200
C  41.87100 10.29600 26.90900
C  40.41900 8.15100 24.32000
C  41.69300 11.55800 24.72400
C  40.57200 12.63100 25.10900
N  42.36500 10.62100 29.81000
C  43.18600 11.16600 28.85400
C  44.28200 11.89400 29.43300
C  43.97200 11.91800 30.77100
C  42.79700 11.16200 30.96500
C  45.42100 12.47100 28.64100
C  44.44300 12.38300 32.02600
O  45.37100 13.03600 32.35200
C  43.44500 11.83500 33.08400
C  44.03300 10.82000 34.01700
O  44.35700 9.68300 33.68600
O  44.14900 11.30500 35.33200
C  44.31700 10.33400 36.41300
H  37.64400 8.18500 32.70600
H  38.34900 7.89700 26.22700
H  43.64600 11.51300 26.74100
H  41.42600 10.07700 34.88600
H  38.56100 9.79900 34.52400
H  39.47200 7.20900 34.42700
H  38.97000 8.21800 35.84700
H  40.66400 8.06800 35.43800
H  39.24000 12.01400 34.28700
H  40.94700 12.48800 34.57700
H  39.93200 10.80600 36.73000
H  38.85500 12.09400 36.55500
H  35.22800 7.57500 31.29400
H  36.45700 6.39400 31.97700
H  35.52200 5.89700 30.67500
H  34.68000 5.63600 28.24000
H  34.06500 6.98300 27.29300
H  34.30500 7.15200 29.09500
H  39.65300 10.07600 24.95200
H  42.54200 9.63700 24.95500
H  40.31800 7.27200 24.95700
H  41.37600 8.07800 23.80400
H  39.66800 8.24100 23.53500
H  41.51400 11.23900 23.69700
H  42.68000 12.01900 24.75200
H  40.01100 12.24100 25.95900
H  39.86900 12.69600 24.27800
H  40.93700 13.60600 25.43200
H  45.44000 13.49600 29.01300
H  45.32500 12.43200 27.55600
H  46.29000 11.93200 29.01800
H  43.21600 12.74700 33.63500
H  45.37000 10.05300 36.41200
H  43.79800 9.37800 36.34000
H  43.82800 10.78200 37.27800
Mg -12.13700 16.29500 41.51200
C  -9.07600 14.54700 41.20500
C  -10.69300 18.92100 39.78400
C  -15.07800 17.73400 41.42600
C  -13.62300 13.30800 42.85000
N  -10.06500 16.69200 40.71600
C  -8.98800 15.82100 40.72200
C  -7.83000 16.34400 39.95600
C  -8.33100 17.81900 39.70700
C  -9.77000 17.82600 40.01300
C  -7.60600 18.92100 40.58400
C  -7.62600 15.49000 38.73500
C  -6.19600 15.20400 38.37400
H  -5.49700 15.99300 37.37500
N  -12.75400 18.11900 40.86600
C  -12.05900 19.08700 40.12800
C  -12.84300 20.22100 39.78300
C  -14.05300 19.92500 40.29900
C  -14.00600 18.57900 40.98400
C  -12.32800 21.42800 39.02100
C  -15.27200 20.81100 40.18800
O  -15.28600 21.88800 39.63400
C  -16.57100 20.61600 40.95900
N  -14.12200 15.60200 41.93500
C  -15.17300 16.41100 41.85900
C  -16.45100 15.63300 42.20300
C  -15.99100 14.35400 42.85400
C  -14.45700 14.42100 42.57100
C  -17.48200 16.34800 43.06900
C  -16.55900 12.99700 42.28900
C  -16.79900 12.04000 43.38500
N  -11.64200 14.31900 41.89200
C  -12.27000 13.24800 42.48900
C  -11.33000 12.18600 42.58500
C  -10.12800 12.65400 42.14600
C  -10.28500 13.96800 41.80300
C  -11.67500 10.79400 43.00000
C  -8.72200 12.21600 42.01900
O  -8.07300 11.24200 42.33600
C  -8.07900 13.45300 41.39400
C  -6.97000 13.81500 42.22800
O  -7.09500 14.00400 43.45700
O  -5.75400 13.75300 41.58800
C  -4.45300 14.09500 42.20300
H  -10.28000 19.75200 39.20800
H  -16.05400 18.17800 41.22000
H  -14.00000 12.36800 43.25900
H  -6.91200 16.34000 40.54300
H  -8.26700 18.17000 38.67700
H  -8.28600 19.22500 41.38000
H  -7.34500 19.75400 39.93100
H  -6.62100 18.65400 40.96600
H  -7.96600 16.02200 37.84600
H  -8.15500 14.53900 38.67700
H  -6.23100 14.20200 37.94700
H  -5.55700 15.16600 39.25600
H  -12.79000 22.36300 39.33800
H  -12.54800 21.33400 37.95700
H  -11.26700 21.48500 39.26200
H  -17.04000 19.78900 40.42500
H  -17.29500 21.43000 40.93400
H  -16.27400 20.47600 41.99900
H  -16.88700 15.52400 41.21000
H  -16.19400 14.36800 43.92500
H  -17.77900 15.97700 44.05000
H  -18.38600 16.46400 42.47200
H  -17.18300 17.38300 43.23500
H  -15.73400 12.59700 41.69900
H  -17.39600 13.13900 41.60500
H  -16.46200 12.38800 44.36100
H  -16.29700 11.09600 43.17600
H  -17.83700 11.71500 43.45600
H  -11.83200 10.20500 42.09700
H  -12.61600 10.74800 43.54800
H  -10.97600 10.28100 43.66100
H  -7.68800 13.09500 40.44200
H  -4.33200 15.16700 42.36100
H  -3.65000 13.93700 41.48300
H  -4.32600 13.50600 43.11100

