158

Mg 25.42000 52.03200 26.64400
C  23.31800 53.14200 29.34700
C  27.94800 51.58600 28.80400
C  27.48600 51.81900 23.84000
C  22.86400 53.17400 24.42200
N  25.60900 52.29400 28.78600
C  24.63000 52.70100 29.73200
C  25.11700 52.53900 31.20400
C  26.64800 52.15900 30.96400
C  26.75800 52.01500 29.39400
C  27.72000 53.11000 31.61500
C  24.28500 51.46900 32.05100
C  24.00800 51.75300 33.53800
H  25.01200 52.25900 34.45900
N  27.35400 51.73700 26.35400
C  28.28100 51.47900 27.40000
C  29.59100 51.26400 26.75400
C  29.54300 51.40000 25.35000
C  28.07500 51.62500 25.12900
C  30.78900 51.13700 27.71000
C  30.65900 51.34300 24.28300
O  30.51300 51.45800 23.06800
C  32.06400 51.03000 24.87200
N  25.17000 52.24500 24.49300
C  26.18000 52.11400 23.54000
C  25.72800 52.46700 22.13600
C  24.20300 52.58200 22.24300
C  24.05300 52.64600 23.83300
C  26.49500 53.59100 21.48000
C  23.36500 51.50800 21.62400
C  23.17800 51.69200 20.07700
N  23.45900 52.93600 26.76500
C  22.54100 53.28900 25.80900
C  21.32500 53.67900 26.46200
C  21.65000 53.66400 27.80600
C  22.89300 53.18900 28.00100
C  20.00600 54.23600 25.83300
C  21.01200 53.86300 29.07200
O  19.85800 54.20100 29.39100
C  22.10600 53.44500 30.14200
C  22.39200 54.68100 30.96500
O  22.63200 55.78600 30.54000
O  22.39700 54.39300 32.26800
C  22.49500 55.56200 33.14800
H  28.59200 51.29500 29.63700
H  28.15600 51.68800 22.98800
H  22.12100 53.53300 23.70600
H  25.10200 53.49000 31.73500
H  26.87500 51.21400 31.45800
H  28.36600 52.57900 32.31400
H  27.21200 53.92800 32.12700
H  28.40900 53.43800 30.83700
H  24.80600 50.51200 32.03600
H  23.30700 51.29200 31.60500
H  23.72700 50.81100 34.00800
H  23.12300 52.37800 33.65900
H  30.54900 50.99100 28.76300
H  31.33600 52.08000 27.69700
H  31.38300 50.25100 27.48800
H  32.80300 50.96100 24.07300
H  32.11000 50.08500 25.41300
H  32.34700 51.82900 25.55700
H  25.92100 51.55600 21.56900
H  23.98800 53.56000 21.81300
H  27.53900 53.41400 21.73700
H  26.18200 54.62100 21.64900
H  26.40400 53.61100 20.39400
H  22.34700 51.42800 22.00600
H  23.88600 50.59900 21.92500
H  23.66100 50.81500 19.64400
H  23.75500 52.56400 19.77100
H  22.12300 51.73800 19.80900
H  20.01300 54.01700 24.76500
H  20.01300 55.32300 25.91500
H  19.11400 53.88700 26.35400
H  21.76000 52.58400 30.71400
H  21.67000 56.24200 32.93600
H  23.52500 55.91800 33.16700
H  22.34000 55.22800 34.17400
Mg -1.67400 34.37500 26.09800
C  -2.59000 32.49100 29.00100
C  0.26000 36.26500 28.14200
C  -1.23100 36.31800 23.53900
C  -3.35000 32.01000 24.14000
N  -1.21800 34.29600 28.32700
C  -1.64800 33.42800 29.35000
C  -1.18700 33.84900 30.71200
C  -0.28700 35.13800 30.40500
C  -0.44300 35.27300 28.88500
C  -0.58200 36.43500 31.22700
C  -0.49300 32.69400 31.55600
C  -1.01600 32.32900 32.92700
H  0.11000 32.38400 34.02200
N  -0.63100 36.11800 25.87600
C  0.25900 36.66100 26.73200
C  0.89700 37.86300 26.15400
C  0.31900 37.96900 24.82700
C  -0.53400 36.77400 24.70200
C  1.95700 38.65600 26.96300
C  0.50700 39.10300 23.78000
O  -0.08500 39.15300 22.70400
C  1.56600 40.10400 24.10700
N  -2.29500 34.29400 24.18600
C  -1.95000 35.19100 23.22600
C  -2.42400 34.77400 21.82900
C  -2.71900 33.26700 22.03200
C  -2.78200 33.18300 23.54900
C  -3.76500 35.60300 21.47200
C  -1.65300 32.29400 21.43500
C  -0.30600 32.26700 22.18800
N  -2.89100 32.75200 26.43100
C  -3.47600 31.85600 25.53400
C  -4.19700 30.89700 26.29200
C  -3.95800 31.12600 27.63300
C  -3.16200 32.26100 27.70000
C  -4.97100 29.74700 25.64300
C  -4.16100 30.58100 28.96800
O  -4.87800 29.63500 29.30400
C  -3.27600 31.46400 29.91600
C  -4.17900 31.94100 31.08500
O  -4.82100 32.98400 31.07000
O  -4.17200 31.04600 32.10100
C  -4.80200 31.52300 33.39000
H  0.84800 36.94100 28.76600
H  -1.13500 37.01100 22.70000
H  -3.70800 31.24700 23.44600
H  -1.96400 34.26600 31.35300
H  0.69300 34.79900 30.73900
H  -0.99500 37.24600 30.62600
H  0.37100 36.76200 31.64300
H  -1.30000 36.29200 32.03500
H  0.57900 32.88500 31.61800
H  -0.48900 31.74900 31.01300
H  -1.53500 31.37100 32.91800
H  -1.70300 33.09500 33.28600
H  1.58500 39.67200 27.10000
H  2.95500 38.71700 26.52700
H  2.10300 38.22500 27.95300
H  1.67800 40.88200 23.35200
H  2.47400 39.50200 24.10800
H  1.18000 40.53700 25.03000
H  -1.61800 34.89100 21.10500
H  -3.72700 32.93400 21.78600
H  -4.44800 34.91700 20.97000
H  -3.52300 36.45100 20.83100
H  -4.21300 35.91200 22.41700
H  -1.51500 32.74300 20.45200
H  -1.96300 31.24900 21.40700
H  0.47500 32.45500 21.45000
H  -0.14100 31.27400 22.60700
H  -0.18600 32.94000 23.03700
H  -6.00400 30.07800 25.53700
H  -4.81700 28.86000 26.25700
H  -4.72700 29.52700 24.60300
H  -2.63100 30.76900 30.45200
H  -5.51800 32.34000 33.29200
H  -4.04600 31.97300 34.03300
H  -5.46300 30.80500 33.87500

