158

Mg 0.57500 7.72100 25.53300
C  1.30700 9.76200 28.29800
C  0.51600 5.09000 27.62200
C  0.27900 5.76300 22.71100
C  1.16600 10.59000 23.42200
N  0.97300 7.47300 27.61200
C  1.17600 8.42100 28.60300
C  1.18900 7.84700 30.05300
C  1.07100 6.32000 29.82400
C  0.74300 6.29200 28.25100
C  2.36700 5.37400 30.18400
C  0.07900 8.32800 30.98000
C  0.43200 8.46300 32.44500
H  1.70300 7.62200 32.83900
N  0.35200 5.69900 25.20300
C  0.42400 4.76500 26.24300
C  0.34300 3.43200 25.62100
C  0.19900 3.65000 24.16400
C  0.34200 5.06800 23.99900
C  0.27400 2.15900 26.44500
C  0.05700 2.54700 23.09800
O  0.08200 2.82800 21.89700
C  -0.06900 1.12900 23.48700
N  0.84800 8.04700 23.41100
C  0.47300 7.12700 22.50400
C  0.27800 7.71600 21.09600
C  0.33600 9.29400 21.44000
C  0.83100 9.38200 22.83100
C  1.29200 7.26400 20.06000
C  -1.04200 10.03100 21.49100
C  -1.16500 11.24100 20.59800
N  1.12700 9.73700 25.76700
C  1.25100 10.80700 24.85200
C  1.48900 12.04800 25.51300
C  1.40200 11.69800 26.84100
C  1.24400 10.29700 27.00100
C  1.80100 13.28600 24.90000
C  1.63300 12.28800 28.18900
O  1.87000 13.43800 28.53300
C  1.40300 11.07700 29.17400
C  2.66200 11.08400 30.03800
O  3.83400 10.94700 29.60400
O  2.31700 11.36500 31.38000
C  3.42200 11.19000 32.24400
H  0.29700 4.22800 28.25600
H  0.08200 5.25700 21.76400
H  1.20900 11.51100 22.83800
H  2.17900 8.11800 30.41900
H  0.25400 5.81700 30.34200
H  2.10400 4.58200 30.88600
H  3.12300 6.06600 30.55400
H  2.83400 4.86500 29.34200
H  -0.78600 7.68300 30.83000
H  -0.06900 9.33500 30.59000
H  -0.38900 8.33500 33.15000
H  0.81400 9.48400 32.48300
H  0.96700 1.37000 26.15300
H  -0.77400 1.86500 26.38400
H  0.60400 2.27100 27.47800
H  -0.21500 0.52300 22.59300
H  -0.94200 1.16200 24.13800
H  0.81400 0.70700 23.96800
H  -0.72000 7.51900 20.70500
H  1.00600 9.84800 20.78200
H  1.69800 6.26700 20.22600
H  2.15400 7.91100 19.89400
H  0.75900 7.24000 19.11000
H  -1.38000 10.19500 22.51400
H  -1.81700 9.30600 21.24500
H  -0.25300 11.47400 20.04800
H  -1.38900 12.09700 21.23500
H  -1.97100 11.13300 19.87300
H  1.37100 13.53200 23.92900
H  2.86800 13.31900 24.67900
H  1.44500 14.04400 25.59800
H  0.53300 11.37300 29.76100
H  3.93800 10.24500 32.07600
H  3.04100 11.13200 33.26300
H  4.21300 11.91000 32.03200
Mg 0.55700 43.44100 26.47200
C  2.94100 43.31800 29.06800
C  -1.91500 42.68000 28.70600
C  -1.47100 43.04600 23.85300
C  3.37800 43.89400 24.21500
N  0.58800 43.14500 28.61100
C  1.66600 43.14500 29.49100
C  1.09900 43.35200 30.92700
C  -0.34700 42.73600 30.83100
C  -0.64500 42.82400 29.28900
C  -0.40700 41.28000 31.30900
C  1.08900 44.82600 31.45300
C  1.08900 44.95900 32.99200
H  0.73300 43.75100 33.81300
N  -1.49200 43.02700 26.33900
C  -2.37800 42.81700 27.36000
C  -3.68500 42.69800 26.87000
C  -3.59900 42.64700 25.42200
C  -2.16000 42.97800 25.10100
C  -4.94100 42.49600 27.77400
C  -4.68500 42.49300 24.35000
O  -4.37600 42.63000 23.16600
C  -6.13000 42.26000 24.69200
N  0.85000 43.68700 24.33100
C  -0.17000 43.34600 23.47800
C  0.33000 43.31400 22.03700
C  1.77300 43.80700 22.15100
C  2.05100 43.76500 23.66800
C  0.15800 41.92800 21.26400
C  2.10600 45.12900 21.39000
C  2.08800 46.44700 22.19600
N  2.73000 43.56400 26.51000
C  3.74900 43.78000 25.54000
C  5.01700 43.67800 26.15500
C  4.76000 43.52400 27.52500
C  3.37300 43.42200 27.68200
C  6.33100 43.82700 25.30900
C  5.41600 43.33700 28.85000
O  6.54800 43.15000 29.11400
C  4.22800 43.39300 29.90800
C  4.25900 42.36900 30.96300
O  4.31500 41.13500 30.76000
O  4.37800 42.92900 32.23600
C  4.55500 42.08300 33.38700
H  -2.74600 42.42100 29.36500
H  -2.00000 42.56300 23.02800
H  4.15600 43.93500 23.45000
H  1.74700 42.70000 31.51300
H  -1.09300 43.33800 31.35000
H  0.43700 41.04500 31.95700
H  -0.47200 40.62300 30.44100
H  -1.31300 41.10800 31.88900
H  0.18300 45.24000 31.01100
H  1.86900 45.49000 31.08100
H  0.31000 45.70500 33.15300
H  2.06100 45.32600 33.32000
H  -4.95100 41.48800 28.19000
H  -5.82400 42.71700 27.17500
H  -4.82000 43.24300 28.55900
H  -6.06900 41.41900 25.38400
H  -6.64500 42.05100 23.75500
H  -6.50300 43.15200 25.19600
H  -0.20300 44.11400 21.52300
H  2.46200 43.05400 21.77000
H  1.11100 41.40400 21.18900
H  -0.18700 42.15700 20.25600
H  -0.52200 41.23800 21.76300
H  1.35400 45.26200 20.61200
H  3.09500 44.96900 20.95900
H  3.06600 46.91500 22.31000
H  1.48600 46.37000 23.10100
H  1.65300 47.15000 21.48600
H  6.48200 44.90200 25.41100
H  6.21000 43.47800 24.28400
H  7.20300 43.43300 25.83100
H  4.21700 44.37900 30.37400
H  4.40200 42.63000 34.31700
H  5.52400 41.59100 33.30300
H  3.82900 41.27000 33.42600

