158

Mg 8.02500 2.77300 27.51600
C  9.54600 1.09700 30.25100
C  6.32500 4.51700 29.59100
C  6.30500 3.56300 24.80300
C  9.93100 0.33300 25.43500
N  7.98500 2.71000 29.66600
C  8.71600 2.06700 30.62500
C  8.65900 2.81100 31.99500
C  7.47800 3.77400 31.76300
C  7.23300 3.65800 30.23400
C  6.20800 3.27200 32.56200
C  10.04400 3.52600 32.44300
C  10.75100 3.09300 33.71200
H  10.68000 4.05100 34.92400
N  6.55200 4.04000 27.20900
C  5.87900 4.68600 28.25000
C  4.83500 5.54500 27.68400
C  4.79200 5.19100 26.28100
C  5.95600 4.24500 25.98300
C  3.93200 6.52900 28.62000
C  3.79200 5.69300 25.30000
O  3.78600 5.39800 24.09400
C  2.63200 6.59900 25.82100
N  8.22700 2.11900 25.38200
C  7.32800 2.59800 24.50800
C  7.65600 1.96400 23.11500
C  9.00600 1.26400 23.25000
C  9.06400 1.23700 24.74600
C  6.40400 1.15500 22.70500
C  10.23800 2.06300 22.56100
C  11.41400 1.13800 22.20900
N  9.40900 1.05700 27.72500
C  10.05300 0.20000 26.84200
C  10.78000 -0.81400 27.53000
C  10.70200 -0.45300 28.87800
C  9.82700 0.63400 28.94100
C  11.69000 -1.92300 26.92100
C  11.20500 -0.80700 30.16900
O  11.94300 -1.64000 30.64900
C  10.47900 0.20300 31.15300
C  9.56200 -0.48800 32.12400
O  8.46000 -1.06000 31.89500
O  10.13200 -0.41400 33.39000
C  9.42200 -0.92100 34.66000
H  5.93700 5.34400 30.18900
H  5.71700 3.91900 23.95500
H  10.48200 -0.33800 24.77300
H  8.37200 2.00000 32.66400
H  7.72100 4.77800 32.11200
H  5.40200 2.83500 31.97400
H  5.83700 4.14200 33.10400
H  6.44800 2.61500 33.39900
H  9.77300 4.55400 32.68400
H  10.74500 3.50100 31.60800
H  11.78300 2.80700 33.51200
H  10.15900 2.22300 33.99700
H  4.03600 7.50500 28.14500
H  4.20200 6.60900 29.67300
H  2.90600 6.17100 28.54200
H  1.93200 6.71300 24.99300
H  2.96400 7.47000 26.38500
H  2.09100 5.94600 26.50600
H  7.80100 2.76500 22.38900
H  8.86400 0.22900 22.93800
H  5.66600 1.12400 23.50700
H  6.63700 0.12100 22.45000
H  5.92800 1.59700 21.83000
H  10.49600 2.83600 23.28400
H  9.88700 2.50900 21.63000
H  11.46600 0.98600 21.13000
H  11.33400 0.22200 22.79400
H  12.33400 1.70600 22.34600
H  11.19700 -2.33800 26.04200
H  11.73300 -2.68200 27.70300
H  12.68300 -1.52700 26.70600
H  11.14600 0.80400 31.77200
H  8.68500 -1.68100 34.39800
H  9.06800 0.01000 35.10200
H  10.15400 -1.31700 35.36300
Mg 16.89500 51.29200 26.68600
C  18.87600 49.92700 29.21500
C  14.54200 52.03200 29.22700
C  14.84500 52.46200 24.32700
C  19.22100 50.17800 24.33700
N  16.68000 50.95000 28.95100
C  17.66600 50.41900 29.73200
C  17.42900 50.77300 31.19700
C  15.92400 51.04700 31.18200
C  15.70200 51.37800 29.73900
C  14.98800 49.86600 31.84500
C  18.35000 51.83500 31.69800
C  18.86900 51.48300 33.11900
H  18.03400 52.01500 34.30500
N  15.04700 52.24400 26.77900
C  14.26900 52.47000 27.89300
C  13.05500 53.18500 27.45400
C  13.14200 53.41200 26.06500
C  14.37500 52.64200 25.68800
C  12.03100 53.61000 28.45700
C  12.24500 54.27600 25.09200
O  12.57200 54.46700 23.94500
C  11.10100 55.02800 25.68100
N  16.91600 51.14900 24.63600
C  15.97200 51.75800 23.84700
C  16.49300 51.85100 22.45900
C  17.90300 51.16700 22.38200
C  18.00700 50.78900 23.91100
C  15.47200 51.27500 21.43500
C  19.09900 51.99800 21.80400
C  19.81500 51.30000 20.59300
N  18.67700 50.20900 26.63200
C  19.57200 49.87300 25.62900
C  20.65700 49.11000 26.21100
C  20.45700 49.19100 27.56300
C  19.19200 49.80200 27.86200
C  21.83100 48.56000 25.39100
C  21.03900 48.76000 28.87300
O  22.02200 48.04600 29.08400
C  20.04700 49.32600 29.96000
C  19.59700 48.21100 30.88900
O  18.64700 47.49300 30.73300
O  20.40800 48.20500 32.01600
C  20.08900 47.31400 33.11700
H  13.90800 52.44100 30.01500
H  14.39400 53.11100 23.57400
H  19.89700 49.95100 23.51000
H  17.59500 49.81100 31.68100
H  15.77100 51.89500 31.84900
H  14.36300 50.18600 32.67900
H  15.62100 49.04400 32.17900
H  14.30600 49.44700 31.10500
H  17.89200 52.82000 31.78200
H  19.16600 52.01100 30.99700
H  19.91800 51.76400 33.20900
H  18.88300 50.40200 33.26300
H  12.07100 54.68000 28.66000
H  12.03400 53.01800 29.37200
H  11.07300 53.56500 27.93900
H  10.42200 54.45600 26.31500
H  10.56400 55.50000 24.85800
H  11.47200 55.87700 26.25500
H  16.64200 52.92100 22.31200
H  17.79200 50.26200 21.78500
H  15.89000 50.45300 20.85400
H  15.14200 52.08300 20.78200
H  14.60900 51.00400 22.04200
H  19.76900 52.24300 22.62800
H  18.71600 52.91100 21.34800
H  19.59200 50.24000 20.46800
H  20.88500 51.49200 20.67600
H  19.55500 51.82700 19.67500
H  21.46800 48.74800 24.38000
H  22.02400 47.53800 25.71600
H  22.71200 49.18900 25.52000
H  20.50300 50.14200 30.52100
H  20.74900 47.70200 33.89300
H  20.46000 46.29100 33.04500
H  19.06100 47.44200 33.45500

