158

Mg 48.10600 17.13800 29.45300
C  45.80700 17.06100 32.01800
C  50.21700 19.11300 31.23900
C  50.04800 17.46900 26.72900
C  45.42900 15.84800 27.32000
N  48.10800 17.76200 31.48000
C  47.03500 17.69100 32.33600
C  47.49100 18.16500 33.79400
C  48.92600 18.80200 33.50700
C  49.16700 18.55800 31.96200
C  49.12700 20.22700 33.96200
C  47.43200 16.94500 34.80100
C  47.36300 17.21800 36.34200
H  47.44100 18.61600 37.02100
N  49.90800 18.21100 29.02100
C  50.58900 18.93100 29.93600
C  51.87700 19.30500 29.35700
C  51.87700 18.84000 28.01500
C  50.58900 18.13600 27.82500
C  52.91700 20.07500 30.03000
C  52.85600 19.06000 26.91900
O  52.74400 18.74500 25.73700
C  54.20100 19.64100 27.31300
N  47.77900 16.65200 27.38600
C  48.80800 16.89800 26.46000
C  48.41000 16.39700 25.07500
C  47.02100 15.66300 25.27700
C  46.71900 16.02700 26.74000
C  48.23300 17.44500 23.92800
C  47.16400 14.17300 25.06000
C  45.86000 13.38500 25.06400
N  46.08300 16.40200 29.61900
C  45.12000 16.07400 28.68600
C  43.86900 15.74800 29.28500
C  44.08100 16.17800 30.63000
C  45.46900 16.60500 30.76900
C  42.60300 15.29700 28.67400
C  43.46700 16.40900 31.82000
O  42.32300 16.13600 32.15000
C  44.50900 16.80800 32.82200
C  43.91500 17.92200 33.65200
O  43.89800 19.12000 33.38400
O  43.51000 17.36600 34.82800
C  42.86100 18.24200 35.77000
H  50.86100 19.71100 31.88700
H  50.67500 17.61000 25.84600
H  44.65100 15.32100 26.76300
H  46.91400 18.99100 34.21100
H  49.76700 18.34700 34.03100
H  49.20900 20.84800 33.07000
H  49.99200 20.41000 34.59800
H  48.25300 20.55700 34.52400
H  48.29600 16.31000 34.60100
H  46.66700 16.22400 34.51300
H  48.12700 16.55000 36.73800
H  46.41800 16.80000 36.68900
H  53.29600 20.99500 29.58500
H  53.72900 19.41100 30.32600
H  52.60700 20.40700 31.02000
H  54.33500 20.63500 27.74000
H  54.76500 19.63900 26.38000
H  54.76900 18.98500 27.97200
H  49.14700 15.72300 24.63900
H  46.24800 16.04600 24.61100
H  49.16100 17.40100 23.35800
H  48.19500 18.45000 24.34800
H  47.38900 17.28200 23.25800
H  47.66800 13.77300 25.94000
H  47.69200 13.90600 24.14400
H  44.95200 13.96500 24.90000
H  45.75500 12.92600 26.04700
H  45.91600 12.63900 24.27100
H  42.90000 14.50500 27.98700
H  42.15900 16.15400 28.16800
H  41.83200 14.81200 29.27200
H  44.71400 16.02300 33.55100
H  41.79500 18.22200 35.54200
H  43.07700 19.31000 35.79300
H  42.93700 17.87500 36.79400
Mg 35.88400 48.93900 24.54500
C  36.32700 47.08200 27.56400
C  34.47500 51.46700 26.38300
C  35.31100 50.58000 21.64200
C  37.09000 46.08600 22.68100
N  35.31700 49.18500 26.69400
C  35.72200 48.38900 27.74800
C  35.35300 49.06000 29.12800
C  34.62500 50.38500 28.63000
C  34.85700 50.40600 27.14900
C  33.12100 50.50100 29.07800
C  36.61700 49.37400 30.06000
C  36.20700 49.05900 31.52200
H  35.01500 49.85800 32.20000
N  35.10500 50.71400 24.07300
C  34.49200 51.57900 24.98900
C  34.15700 52.82000 24.30400
C  34.40900 52.64500 22.92200
C  34.95200 51.31600 22.83600
C  33.74500 54.10900 25.00000
C  34.22700 53.66500 21.72200
O  34.50500 53.35300 20.53100
C  33.96200 55.13300 22.00800
N  36.13300 48.41300 22.47500
C  35.85100 49.30200 21.46600
C  35.83900 48.56700 20.11300
C  36.78600 47.31900 20.47600
C  36.64000 47.21000 21.99800
C  34.37700 48.26300 19.61100
C  38.24800 47.51000 20.26900
C  38.92500 46.59200 19.24300
N  36.41200 46.94700 24.94600
C  37.03900 45.94400 24.13000
C  37.48900 44.79300 24.94500
C  37.21200 45.25300 26.25200
C  36.63400 46.58200 26.23400
C  38.18600 43.48100 24.56600
C  37.32100 44.78000 27.58800
O  37.83200 43.72200 28.05700
C  36.78200 45.98800 28.47400
C  35.65100 45.52400 29.31200
O  34.62700 45.13600 28.86800
O  35.99100 45.46800 30.61700
C  35.03000 44.84300 31.56100
H  34.08900 52.27100 27.01300
H  35.14900 51.13300 20.71400
H  37.51700 45.19900 22.20800
H  34.67200 48.38500 29.64800
H  35.18400 51.26100 28.95900
H  32.99200 50.18700 30.11300
H  32.57800 49.94000 28.31800
H  32.87600 51.56300 29.05500
H  36.98100 50.38900 29.90000
H  37.44500 48.72000 29.78500
H  37.17100 49.09100 32.03100
H  35.78800 48.05400 31.48100
H  33.36000 53.82300 25.97900
H  32.97900 54.74900 24.56400
H  34.64800 54.69300 25.17900
H  32.92300 55.29000 22.29800
H  34.22100 55.71900 21.12600
H  34.57500 55.31700 22.89100
H  36.30200 49.21600 19.37000
H  36.28400 46.40600 20.15500
H  33.63700 48.54300 20.36000
H  34.32700 47.23000 19.26600
H  34.26400 48.79900 18.66900
H  38.84000 47.37200 21.17400
H  38.36100 48.52300 19.88200
H  38.18500 46.03300 18.66900
H  39.58100 45.85800 19.71000
H  39.41700 47.27300 18.54800
H  39.20100 43.60900 24.18800
H  37.59400 43.04100 23.76400
H  38.16900 42.83000 25.43900
H  37.56100 46.40300 29.11300
H  35.72400 44.32900 32.22500
H  34.46100 44.09600 31.00600
H  34.36500 45.59300 31.98800

