158

Mg 16.55500 51.21500 25.16700
C  18.45200 50.17300 27.87300
C  14.26100 52.37200 27.39200
C  15.09400 52.71700 22.61700
C  19.07900 49.96800 23.01400
N  16.30000 51.13600 27.35600
C  17.23200 50.74500 28.28800
C  16.85300 51.16800 29.68200
C  15.37400 51.50200 29.54900
C  15.21100 51.60100 28.03000
C  14.36800 50.54600 30.25100
C  17.76000 52.14900 30.41800
C  17.90800 51.88400 31.86400
H  17.01500 52.64300 32.83500
N  14.86300 52.29400 25.02000
C  14.11600 52.73600 26.03700
C  13.23000 53.77900 25.54800
C  13.33700 53.81600 24.12400
C  14.50800 52.97500 23.84300
C  12.17100 54.42900 26.41100
C  12.51600 54.55300 23.16000
O  12.71700 54.40500 21.96700
C  11.26500 55.36800 23.50600
N  16.94600 51.24600 23.09800
C  16.19500 51.98800 22.24400
C  16.80000 51.97400 20.76100
C  18.17800 51.19400 21.02000
C  18.04800 50.73500 22.48200
C  15.92000 51.06700 19.77600
C  19.31800 52.15600 20.62700
C  20.49800 51.52000 19.82400
N  18.36100 50.10200 25.31000
C  19.23800 49.68100 24.35900
C  20.45600 49.10900 25.05400
C  20.16700 49.32700 26.41800
C  18.88200 49.93200 26.54000
C  21.50300 48.52300 24.35000
C  20.65500 49.02300 27.77500
O  21.65900 48.47400 28.21600
C  19.63400 49.70500 28.70400
C  19.23900 48.78200 29.89000
O  18.84700 47.63000 29.81300
O  19.52600 49.37100 31.03600
C  19.58400 48.49000 32.19700
H  13.53600 52.71100 28.13600
H  14.66200 53.20700 21.74200
H  19.95000 49.71600 22.40600
H  16.99200 50.16900 30.09500
H  15.18500 52.51400 29.90700
H  14.77300 50.11500 31.16600
H  14.05900 49.78400 29.53600
H  13.47800 51.14000 30.45900
H  17.26200 53.11200 30.29900
H  18.75500 52.16200 29.97400
H  18.95600 51.83800 32.16300
H  17.60800 50.84200 31.97700
H  12.05600 55.49500 26.20900
H  12.36200 54.29600 27.47500
H  11.22300 53.94600 26.17300
H  10.54500 54.75000 24.04200
H  11.09200 55.72000 22.48900
H  11.39900 56.21800 24.17400
H  16.81700 53.01200 20.43100
H  18.21800 50.21600 20.54000
H  16.52400 50.76700 18.92000
H  15.11500 51.73700 19.47500
H  15.48100 50.15100 20.17100
H  19.75300 52.51800 21.55900
H  19.02300 53.08400 20.13800
H  21.42100 51.79500 20.33400
H  20.45100 52.02400 18.85900
H  20.49100 50.46100 19.56600
H  22.28300 49.28300 24.31700
H  21.11700 48.22900 23.37500
H  21.84400 47.59800 24.81500
H  20.06500 50.58900 29.17400
H  19.97500 48.89200 33.13200
H  20.23200 47.62800 32.04100
H  18.56800 48.13400 32.37000
Mg 9.13300 48.61100 25.02000
C  7.37600 48.82700 27.99900
C  12.01000 49.47000 26.64000
C  10.71300 47.82600 22.29500
C  5.97600 48.25500 23.41100
N  9.57400 49.15400 27.04000
C  8.75800 49.13600 28.15300
C  9.59300 49.55600 29.41900
C  10.83500 50.25300 28.77300
C  10.87000 49.59300 27.38400
C  10.64900 51.82700 28.62200
C  9.89500 48.36900 30.40600
C  9.79200 48.61600 31.86100
H  9.24200 47.40000 32.69700
N  11.13100 48.52300 24.55000
C  12.22300 48.94700 25.31300
C  13.42900 48.66400 24.54100
C  13.00800 48.28700 23.24800
C  11.56100 48.16800 23.31700
C  14.80900 48.86600 25.17000
C  13.88100 47.86300 22.08900
O  13.39800 47.82400 20.97000
C  15.41600 47.62900 22.27900
N  8.43200 48.34100 23.09100
C  9.30600 47.92200 22.14300
C  8.55000 47.44000 20.87100
C  7.06600 47.41100 21.33400
C  7.14500 48.08800 22.68900
C  8.86900 48.39800 19.72200
C  6.38400 46.01700 21.38600
C  7.24400 44.92800 22.05800
N  7.10200 48.65400 25.52700
C  5.90300 48.52300 24.82100
C  4.71700 48.53900 25.67900
C  5.29400 48.57100 26.97500
C  6.71300 48.68500 26.81800
C  3.29200 48.35200 25.28900
C  4.98100 48.55800 28.37900
O  3.91300 48.36200 28.96100
C  6.26000 48.78000 29.08900
C  6.43400 47.62900 29.93300
O  6.70400 46.45200 29.54400
O  6.07100 48.07100 31.22100
C  5.84200 47.00400 32.20500
H  12.88800 49.83400 27.17800
H  11.10800 47.46500 21.34400
H  4.98400 48.11700 22.97600
H  9.03300 50.32400 29.95200
H  11.73500 50.02400 29.34400
H  10.96100 52.01900 27.59600
H  11.23700 52.39700 29.34100
H  9.63300 52.16400 28.82600
H  10.89900 47.96900 30.26200
H  9.26800 47.54200 30.07300
H  9.15200 49.47600 32.05500
H  10.84000 48.72800 32.13700
H  15.48700 48.03400 24.97700
H  14.76300 48.99400 26.25100
H  15.31500 49.79200 24.89500
H  15.80200 48.64300 22.37800
H  15.76400 47.14800 21.36500
H  15.63400 47.01300 23.15100
H  9.01700 46.49500 20.59300
H  6.53600 48.21500 20.82200
H  9.62700 49.14100 19.97100
H  8.00200 48.97900 19.40400
H  9.12500 47.75200 18.88200
H  6.25100 45.71200 20.34800
H  5.44700 46.09500 21.93900
H  7.92900 45.24400 22.84500
H  7.78700 44.47400 21.23000
H  6.57000 44.17900 22.47400
H  2.76500 49.11700 24.71800
H  2.77200 48.22100 26.23800
H  3.04000 47.52200 24.62900
H  6.13400 49.67800 29.69500
H  5.88300 46.00700 31.76700
H  4.89200 47.25700 32.67500
H  6.59700 47.15200 32.97800

