158

Mg -1.64200 17.20100 26.55500
C  -2.29300 15.15200 29.37700
C  -2.18000 19.95000 28.47400
C  -1.64500 19.18900 23.76200
C  -1.61800 14.34600 24.54800
N  -2.33900 17.53500 28.68800
C  -2.31900 16.55400 29.69000
C  -2.45000 17.20500 31.06400
C  -2.63900 18.74800 30.65500
C  -2.35900 18.71800 29.19700
C  -3.97500 19.42100 31.00700
C  -1.23000 16.78100 31.92100
C  -0.82600 17.73800 33.09000
H  -0.35100 17.09100 34.40900
N  -1.81400 19.30700 26.18600
C  -1.97600 20.33000 27.14700
C  -1.83000 21.64500 26.52200
C  -1.69500 21.39400 25.09600
C  -1.71700 19.93200 24.93700
C  -1.99600 22.97300 27.19100
C  -1.55600 22.41800 24.03700
O  -1.36000 22.00500 22.84400
C  -1.53700 23.96000 24.26200
N  -1.75800 16.84300 24.52100
C  -1.69800 17.76300 23.53600
C  -1.71100 17.14900 22.14100
C  -1.34100 15.67000 22.39600
C  -1.53600 15.58800 23.94200
C  -3.06200 17.25500 21.40700
C  0.11800 15.37800 21.85600
C  1.31000 15.77700 22.69100
N  -1.77900 15.23200 26.88600
C  -1.82500 14.16300 25.94100
C  -1.93100 12.97800 26.67700
C  -2.16200 13.29100 27.97300
C  -2.07100 14.67500 28.06300
C  -2.00900 11.63300 26.07000
C  -2.45300 12.76800 29.27100
O  -2.68300 11.62800 29.68500
C  -2.41800 13.98300 30.21100
C  -1.24600 13.76200 31.14700
O  -0.08700 14.05300 30.93400
O  -1.72900 13.22100 32.32200
C  -0.74700 12.86900 33.32500
H  -2.20300 20.78800 29.17400
H  -1.59200 19.70700 22.80200
H  -1.36700 13.51100 23.89100
H  -3.30500 16.69600 31.51000
H  -1.76300 19.21300 31.10800
H  -4.51200 18.76000 31.68600
H  -4.40600 19.89200 30.12300
H  -3.54300 20.23500 31.58900
H  -0.31200 16.75000 31.33500
H  -1.48000 15.84100 32.41500
H  -1.70200 18.37900 33.18700
H  -0.01700 18.32900 32.66200
H  -1.18700 23.67600 26.99500
H  -1.96700 22.78200 28.26400
H  -3.01000 23.34700 27.04900
H  -0.73200 24.43000 24.82700
H  -2.42000 24.21200 24.84900
H  -1.73100 24.45900 23.31200
H  -0.96000 17.64500 21.52600
H  -1.97500 14.96300 21.86100
H  -3.91700 17.25400 22.08300
H  -3.20500 16.45300 20.68400
H  -3.00500 18.21400 20.89100
H  0.27200 15.83500 20.87800
H  0.44000 14.34500 21.72700
H  1.27300 16.81300 23.02500
H  2.25700 15.69900 22.15700
H  1.29100 15.22000 23.62800
H  -1.59800 11.64500 25.06100
H  -3.07000 11.40100 25.97800
H  -1.45500 10.94600 26.70800
H  -3.31200 13.99000 30.83500
H  -0.61500 13.74700 33.95700
H  0.22900 12.63000 32.90100
H  -1.07700 12.00900 33.90700
Mg 16.38100 -2.24200 27.64100
C  15.23100 -0.26700 30.24300
C  18.43500 -3.84800 29.78400
C  17.48300 -3.97600 24.98500
C  14.46300 -0.14500 25.50100
N  16.86900 -2.00300 29.76800
C  16.24100 -1.17200 30.62300
C  16.75100 -1.40300 32.08300
C  17.78900 -2.59900 31.89500
C  17.67600 -2.89500 30.39700
C  19.15500 -2.28100 32.34900
C  15.61600 -1.83900 33.02300
C  15.45700 -1.07800 34.31700
H  16.68600 -0.45400 34.96200
N  17.75100 -3.75000 27.47900
C  18.46600 -4.37500 28.46600
C  19.38700 -5.28800 27.89800
C  19.01100 -5.43500 26.52300
C  18.04500 -4.32100 26.27000
C  20.51300 -5.98400 28.58400
C  19.45400 -6.45800 25.44400
O  19.03000 -6.47500 24.31500
C  20.48100 -7.47900 25.84200
N  16.10400 -2.01900 25.50200
C  16.58000 -2.89200 24.60700
C  16.20600 -2.50700 23.08800
C  15.17000 -1.39900 23.30300
C  15.22400 -1.11100 24.85100
C  17.51100 -2.04900 22.35600
C  13.77300 -1.78700 22.79100
C  13.16800 -1.04200 21.59100
N  15.07900 -0.69800 27.79300
C  14.40800 0.08600 26.85200
C  13.71100 1.11100 27.47600
C  14.01100 1.00400 28.77800
C  14.81000 -0.07900 28.96700
C  12.69600 2.09200 26.81700
C  13.84600 1.71900 30.03200
O  13.20400 2.71800 30.24600
C  14.63400 0.82300 31.09300
C  15.50400 1.94300 31.53900
O  16.31700 2.52300 30.77600
O  15.23800 2.43600 32.80700
C  16.09500 3.50200 33.30200
H  19.12300 -4.41000 30.41800
H  17.79900 -4.50900 24.08600
H  13.74200 0.51300 25.01200
H  17.35500 -0.59800 32.50100
H  17.33100 -3.50900 32.28100
H  19.86600 -2.09700 31.54300
H  19.50200 -3.20000 32.82000
H  19.10400 -1.51800 33.12600
H  15.73200 -2.88000 33.32600
H  14.63700 -1.82400 32.54300
H  14.86600 -1.71700 34.97300
H  14.75700 -0.29500 34.02400
H  20.06300 -6.96300 28.75200
H  20.65700 -5.52200 29.56100
H  21.41800 -5.98600 27.97600
H  20.24200 -8.08600 26.71600
H  21.47500 -7.05400 25.98000
H  20.51500 -8.12400 24.96400
H  15.88700 -3.43500 22.61300
H  15.40600 -0.50300 22.72800
H  18.30900 -1.88300 23.08000
H  17.35000 -1.15800 21.75000
H  17.86400 -2.84800 21.70200
H  13.03100 -1.68100 23.58300
H  13.79600 -2.85900 22.59500
H  13.89200 -1.05800 20.77600
H  12.93400 -0.05900 21.99800
H  12.26600 -1.57700 21.29200
H  13.25000 2.83900 26.24800
H  11.97500 2.55200 27.49300
H  12.17100 1.49400 26.07200
H  14.04600 0.49000 31.94900
H  17.10000 3.43500 32.88600
H  16.13800 3.33700 34.37800
H  15.76300 4.51900 33.09200

