158

Mg -1.73100 17.00400 26.79400
C  -2.33600 14.91500 29.57800
C  -2.13900 19.67900 28.86800
C  -1.15900 19.01100 24.10200
C  -2.28500 14.29100 24.82500
N  -2.31300 17.26300 28.97900
C  -2.40400 16.29000 29.95400
C  -2.51300 16.90000 31.34000
C  -2.55300 18.44100 31.11300
C  -2.32700 18.50700 29.56000
C  -3.91500 19.11800 31.65200
C  -1.38400 16.31600 32.35400
C  -0.89800 17.25200 33.48900
H  -0.38300 16.58700 34.76900
N  -1.56100 19.02400 26.52400
C  -1.81000 20.02100 27.53600
C  -1.52500 21.32600 26.97600
C  -1.21800 21.11900 25.58800
C  -1.26800 19.63100 25.34200
C  -1.74400 22.60400 27.76300
C  -0.94900 22.20800 24.55600
O  -0.79700 22.05100 23.37200
C  -0.82800 23.58700 24.99800
N  -1.84600 16.74100 24.78000
C  -1.52200 17.63700 23.85000
C  -1.67500 17.13200 22.44300
C  -2.16300 15.70400 22.74000
C  -2.01900 15.50900 24.16100
C  -2.72600 17.98800 21.63000
C  -1.64900 14.57800 21.78700
C  -0.40500 13.75700 22.05200
N  -1.99000 14.91900 27.10800
C  -2.18200 13.94800 26.17500
C  -2.44000 12.64200 26.74700
C  -2.39200 12.97500 28.10900
C  -2.25000 14.38400 28.26500
C  -2.93100 11.33200 26.11400
C  -2.63100 12.52700 29.52500
O  -2.96100 11.41900 29.90500
C  -2.41200 13.70000 30.52300
C  -1.16200 13.41000 31.32100
O  -0.00700 13.60000 30.99900
O  -1.52100 12.75300 32.46800
C  -0.51700 12.24200 33.37500
H  -2.27200 20.53300 29.53600
H  -0.98900 19.62400 23.21500
H  -2.54300 13.45800 24.16700
H  -3.39600 16.44300 31.78800
H  -1.64600 18.94600 31.44700
H  -4.46200 19.50800 30.79400
H  -3.68000 19.97700 32.28000
H  -4.57900 18.42100 32.16500
H  -0.46400 16.13800 31.79700
H  -1.69600 15.41800 32.88600
H  -1.73800 17.91900 33.68400
H  -0.05000 17.75800 33.02700
H  -1.93300 22.44700 28.82500
H  -2.63200 23.14900 27.44400
H  -0.82000 23.17500 27.67800
H  -0.09700 23.76800 25.78700
H  -1.81100 23.95600 25.29200
H  -0.56000 24.23900 24.16600
H  -0.65100 17.09500 22.07100
H  -3.21700 15.59100 22.48400
H  -3.01000 18.88500 22.18000
H  -3.68700 17.47100 21.63200
H  -2.49600 18.21500 20.59000
H  -1.53100 15.03900 20.80600
H  -2.46800 13.85900 21.77100
H  -0.24200 13.58700 23.11700
H  0.44900 14.18600 21.52800
H  -0.60300 12.81600 21.53900
H  -3.76800 11.60700 25.47100
H  -3.16700 10.64800 26.92900
H  -2.14400 10.91200 25.48700
H  -3.30000 13.78200 31.15000
H  -0.38300 11.21700 33.02900
H  -0.94600 12.14500 34.37300
H  0.42200 12.79100 33.29600
Mg 44.29800 4.88900 47.36400
C  41.88600 7.41800 46.90200
C  41.67800 2.59200 47.06600
C  46.64600 2.45500 47.14500
C  46.83000 7.40500 46.68500
N  42.01900 5.00800 47.03100
C  41.27600 6.12100 46.79600
C  39.77300 5.71000 46.46800
C  39.77700 4.19300 46.78300
C  41.22900 3.92000 47.03100
C  38.89300 3.80900 47.94900
C  39.46200 6.14500 45.07000
C  38.23100 6.95700 44.84900
H  38.15700 8.04800 43.75500
N  44.17500 2.81400 47.19800
C  42.99500 2.05500 47.16300
C  43.44800 0.67100 47.18200
C  44.84700 0.66400 47.36200
C  45.29900 2.02700 47.20900
C  42.47400 -0.48800 47.15700
C  45.58100 -0.63300 47.40600
O  44.99900 -1.73000 47.56700
C  47.02700 -0.66500 47.37300
N  46.42800 4.94100 46.84100
C  47.13500 3.77000 47.01900
C  48.65100 4.08600 46.83700
C  48.78200 5.65900 46.74600
C  47.27400 6.03700 46.73000
C  49.55500 3.50900 47.97000
C  49.68600 6.04900 45.50900
C  49.05200 6.14800 44.19600
N  44.46600 7.03700 47.16300
C  45.51500 7.88700 46.93700
C  45.01600 9.19900 46.89300
C  43.59900 9.09700 46.96000
C  43.31800 7.71400 46.97100
C  45.82900 10.45400 46.74600
C  42.33000 9.87200 46.89100
O  42.10300 11.08000 46.92000
C  41.11700 8.77900 46.70300
C  40.14200 9.00300 47.82500
O  40.29000 8.59500 48.96500
O  39.05500 9.72300 47.38200
C  38.05700 10.11700 48.42000
H  40.85200 1.88700 46.94700
H  47.46900 1.73700 47.18200
H  47.63400 8.03700 46.30200
H  39.16800 6.27600 47.17700
H  39.41800 3.52000 46.00400
H  38.39700 4.72400 48.27600
H  39.61000 3.45800 48.69100
H  38.24700 3.01200 47.58200
H  39.20300 5.21300 44.56700
H  40.26700 6.71200 44.60200
H  37.99300 7.50300 45.76200
H  37.38400 6.27500 44.77200
H  42.78300 -1.34300 46.55500
H  41.59700 -0.11400 46.62700
H  42.32200 -0.89800 48.15600
H  47.51000 -0.17300 46.52900
H  47.43200 -1.67100 47.48900
H  47.30900 -0.15100 48.29200
H  49.00500 3.72900 45.87000
H  49.28400 5.99200 47.65500
H  50.34700 4.19400 48.27200
H  49.91800 2.55600 47.58500
H  48.92300 3.43900 48.85500
H  50.62200 5.49300 45.44200
H  49.89000 7.08600 45.77500
H  49.77900 5.70400 43.51600
H  49.02600 7.18700 43.86800
H  48.16800 5.51000 44.18400
H  45.73200 10.63200 45.67400
H  46.79600 10.30100 47.22500
H  45.39300 11.27200 47.31800
H  40.60400 8.92600 45.75300
H  38.06000 9.65800 49.40900
H  37.06700 10.00500 47.97900
H  37.96200 11.19400 48.56000

