158

Mg 5.46900 53.74700 40.83800
C  4.96700 50.21800 40.42300
C  8.73500 53.38300 40.14600
C  5.55800 57.05400 40.45900
C  2.06100 53.96000 41.77400
N  6.64900 51.96100 40.30700
C  6.32900 50.64600 40.32900
C  7.57000 49.78700 40.13100
C  8.75400 50.85600 40.39100
C  7.96600 52.14000 40.30500
C  9.57900 50.75700 41.70600
C  7.72300 49.07600 38.72100
C  7.58200 49.99800 37.55600
H  6.56100 49.57300 36.45700
N  6.95600 55.07400 40.36000
C  8.26800 54.73100 40.13000
C  9.07700 55.87800 39.79400
C  8.13700 56.98900 39.87800
C  6.80200 56.44600 40.13500
C  10.57700 55.84500 39.47300
C  8.52700 58.51400 39.70100
O  9.68700 58.85200 39.59600
C  7.53200 59.65500 39.66300
N  3.98400 55.28300 40.93900
C  4.31300 56.57300 40.79500
C  3.11800 57.45500 41.15600
C  1.96600 56.43300 41.29400
C  2.72300 55.14700 41.42600
C  3.30700 58.38000 42.28000
C  0.81400 56.57600 40.25200
C  -0.48400 57.12600 40.85500
N  3.76000 52.42800 41.05800
C  2.52000 52.64300 41.50300
C  1.79300 51.35200 41.65900
C  2.65300 50.35100 41.18400
C  3.87100 51.07900 40.89600
C  0.47500 51.09500 42.45100
C  2.88000 48.94300 41.01000
O  2.08800 48.00800 41.16000
C  4.42100 48.79300 40.52700
C  4.45000 48.13500 39.21600
O  3.99600 48.66000 38.21900
O  5.02300 46.88900 39.30100
C  5.16200 46.13100 38.04000
H  9.82100 53.27500 40.15100
H  5.34700 58.09400 40.20500
H  1.00400 54.09000 42.01700
H  7.65100 48.99600 40.87700
H  9.52000 50.87200 39.61500
H  9.52900 49.69200 41.93500
H  9.20700 51.35400 42.53900
H  10.63300 50.98400 41.54800
H  6.94200 48.32000 38.64300
H  8.73400 48.67100 38.76200
H  8.49200 49.78000 36.99600
H  7.55100 51.06200 37.79000
H  10.92300 54.82200 39.32600
H  11.10800 56.28100 40.32000
H  10.87500 56.22600 38.49600
H  7.23900 59.76700 40.70700
H  6.67600 59.32600 39.07500
H  7.85600 60.60300 39.23200
H  2.96000 57.99600 40.22300
H  1.49400 56.46600 42.27600
H  4.28700 58.37900 42.75700
H  2.63100 58.19200 43.11400
H  3.08300 59.39800 41.96100
H  0.68800 55.68500 39.63800
H  1.14400 57.28600 39.49400
H  -0.53800 57.46200 41.89000
H  -1.14600 56.30000 40.59500
H  -0.79900 58.03100 40.33500
H  0.54900 50.78300 43.49300
H  -0.13700 50.27400 42.07700
H  -0.07300 52.03500 42.51900
H  4.81700 48.22000 41.36600
H  4.27800 45.50600 37.92200
H  6.00700 45.44400 38.07300
H  5.23900 46.78700 37.17200
Mg -5.45600 25.27300 26.02600
C  -4.02200 26.48500 28.99900
C  -7.25600 22.92200 27.96300
C  -6.42000 23.77400 23.13200
C  -3.69300 27.60100 24.20700
N  -5.72500 24.83900 28.29200
C  -4.97900 25.47700 29.26400
C  -5.38600 24.91300 30.63000
C  -6.36500 23.71700 30.24100
C  -6.50600 23.78200 28.70800
C  -5.88800 22.34000 30.78800
C  -5.83000 26.05900 31.70900
C  -6.75600 25.50800 32.80200
H  -6.19800 24.78500 33.96700
N  -6.70300 23.63200 25.64100
C  -7.34900 22.77500 26.53500
C  -8.16100 21.83500 25.76800
C  -7.91600 22.15200 24.42000
C  -6.98700 23.22400 24.33100
C  -9.01500 20.71200 26.37800
C  -8.55000 21.44300 23.16400
O  -8.32700 21.79500 22.04500
C  -9.41500 20.29600 23.32800
N  -4.90600 25.55300 23.89400
C  -5.55100 24.83400 22.89800
C  -5.20400 25.38200 21.50900
C  -4.51100 26.73400 21.86000
C  -4.35800 26.70000 23.38600
C  -4.37300 24.33900 20.71100
C  -5.39300 27.94000 21.31200
C  -4.82000 28.64500 20.00400
N  -4.10900 26.71700 26.44400
C  -3.44500 27.61800 25.59900
C  -2.51300 28.46600 26.31700
C  -2.74400 28.02800 27.64600
C  -3.73500 27.01500 27.67500
C  -1.56700 29.49500 25.84800
C  -2.26800 28.24600 29.01500
O  -1.38800 28.98100 29.52200
C  -3.18400 27.38500 29.92100
C  -2.36100 26.50900 30.80800
O  -1.66500 25.51100 30.52700
O  -2.46200 26.94400 32.01700
C  -1.70100 26.27400 33.06000
H  -7.83600 22.23400 28.58200
H  -6.76000 23.38600 22.17000
H  -3.17000 28.33800 23.59300
H  -4.44600 24.46100 30.94900
H  -7.39000 23.84900 30.58900
H  -4.89200 22.28600 31.22700
H  -5.66900 21.51600 30.10900
H  -6.50400 22.02700 31.63100
H  -6.25800 26.96600 31.28100
H  -4.91100 26.44300 32.15000
H  -7.46500 24.80100 32.37100
H  -7.32800 26.32400 33.24300
H  -10.01800 20.88500 25.98700
H  -9.05500 20.68900 27.46700
H  -8.68800 19.69900 26.14800
H  -8.82200 19.52800 23.82400
H  -9.83300 19.88400 22.40900
H  -10.27700 20.60500 23.91900
H  -6.11400 25.51300 20.92500
H  -3.55600 26.70700 21.33500
H  -5.01300 23.56300 20.29100
H  -3.62500 23.85000 21.33500
H  -3.94600 24.94300 19.91100
H  -5.44200 28.70800 22.08300
H  -6.38300 27.65000 20.95900
H  -4.99400 27.93700 19.19300
H  -3.73400 28.74500 19.97800
H  -5.18700 29.65100 19.79700
H  -1.04400 29.98000 26.67200
H  -2.15700 30.33100 25.47100
H  -0.78600 29.25500 25.12700
H  -3.80300 28.03000 30.54500
H  -1.07200 27.11700 33.34800
H  -1.02400 25.43500 32.90000
H  -2.30000 26.04700 33.94100

