158

Mg 47.09000 16.31800 28.48500
C  45.22700 15.47500 31.26200
C  48.74500 18.61600 30.27700
C  48.86300 17.19500 25.69000
C  45.05700 14.31900 26.53700
N  46.91700 16.96600 30.52700
C  46.22900 16.39000 31.52800
C  46.68900 16.90300 32.92400
C  47.63200 18.08000 32.55300
C  47.81300 17.82100 31.04100
C  47.13100 19.51900 32.92500
C  47.37800 15.83100 33.77600
C  47.12600 15.80100 35.31900
H  48.38200 15.81900 36.26400
N  48.67400 17.59700 28.07200
C  49.28200 18.39900 28.99400
C  50.44500 19.02800 28.41100
C  50.49700 18.66100 27.09700
C  49.34100 17.73600 26.87600
C  51.53100 19.64700 29.35000
C  51.47300 19.09300 25.93600
O  51.43200 18.69600 24.77300
C  52.63900 19.88400 26.36400
N  47.06300 15.69400 26.41600
C  47.90500 16.15400 25.45700
C  47.41600 15.71300 24.03400
C  46.42100 14.58900 24.44200
C  46.14500 14.84800 25.86300
C  46.67400 16.80000 23.26300
C  47.01800 13.19100 24.40700
C  47.03700 12.39600 23.07000
N  45.38700 15.24000 28.74400
C  44.68000 14.44900 27.88400
C  43.57500 13.73700 28.49600
C  43.79700 14.09600 29.86800
C  44.87700 14.99900 29.92900
C  42.46300 12.88100 27.93900
C  43.33500 13.95000 31.30500
O  42.40200 13.27800 31.72500
C  44.28200 14.74900 32.27700
C  43.46600 15.82900 32.97600
O  42.79100 16.69900 32.46400
O  43.41600 15.57300 34.36500
C  42.50300 16.27600 35.19300
H  49.39200 19.29000 30.84200
H  49.44800 17.51600 24.82600
H  44.31500 13.80900 25.92000
H  45.79300 17.28800 33.41300
H  48.63800 17.90400 32.93400
H  46.27700 19.80300 32.31000
H  47.96600 20.21000 32.81500
H  46.74100 19.47900 33.94200
H  48.46100 15.94800 33.74500
H  47.12300 14.83000 33.42700
H  46.46000 14.99400 35.62400
H  46.58400 16.74300 35.40100
H  51.35800 20.72300 29.36000
H  52.55400 19.42600 29.04600
H  51.41400 19.34400 30.39100
H  52.28800 20.78100 26.87400
H  53.23700 20.18700 25.50500
H  53.25400 19.26700 27.02000
H  48.25500 15.38500 23.42000
H  45.47200 14.55300 23.90900
H  45.65800 16.59300 22.92900
H  47.34400 16.91500 22.41100
H  46.59400 17.78200 23.72800
H  46.38800 12.57000 25.04300
H  47.99700 13.25100 24.88300
H  46.61700 11.43500 23.36900
H  48.09300 12.30100 22.81700
H  46.56400 12.86200 22.20600
H  41.86200 13.47300 27.25000
H  41.73600 12.64900 28.71700
H  42.86400 12.00000 27.43600
H  44.65300 14.03700 33.01500
H  41.67400 16.65400 34.59500
H  43.05300 17.13300 35.58200
H  42.19900 15.59600 35.98800
Mg 25.36900 50.44800 26.87900
C  23.11100 51.15900 29.58900
C  27.64800 49.35700 29.05700
C  27.57700 50.50400 24.32400
C  23.03200 52.04400 24.73300
N  25.34900 50.35400 29.03900
C  24.38100 50.70000 29.98100
C  24.95100 50.48100 31.39300
C  26.28000 49.77800 31.17000
C  26.50700 49.92100 29.66100
C  27.40900 50.25000 31.98900
C  23.95200 49.69600 32.35900
C  24.43800 49.37700 33.81300
H  24.13000 50.28600 34.99500
N  27.27400 50.00600 26.72200
C  28.11200 49.50000 27.73400
C  29.35900 49.11000 27.19200
C  29.35100 49.56900 25.84300
C  28.00900 50.09900 25.62100
C  30.35100 48.25700 28.00300
C  30.52300 49.53200 24.85900
O  30.49500 49.93200 23.70000
C  31.81900 49.05500 25.40200
N  25.24500 51.01500 24.74800
C  26.34200 50.95900 23.90600
C  26.11100 51.79100 22.59900
C  24.56600 51.93900 22.62400
C  24.21400 51.58600 24.06900
C  26.92600 53.05600 22.41200
C  23.77000 51.08100 21.67100
C  23.43500 49.64600 22.15100
N  23.43100 51.34600 27.06200
C  22.62000 51.89700 26.08200
C  21.32500 52.26400 26.65500
C  21.53300 52.09400 27.98500
C  22.77100 51.46000 28.24800
C  20.20000 52.79900 25.89000
C  20.85300 52.33700 29.23000
O  19.79000 52.88800 29.53600
C  21.86900 51.70100 30.31800
C  22.22300 52.78400 31.23200
O  23.12600 53.58200 31.19600
O  21.30300 52.77200 32.27100
C  21.46600 53.95900 33.12000
H  28.28100 48.90400 29.82300
H  28.40600 50.57500 23.61700
H  22.32100 52.50800 24.04600
H  25.24100 51.44100 31.82100
H  26.19800 48.69700 31.28500
H  28.09000 49.47500 32.34100
H  26.99600 50.86500 32.78900
H  28.01700 50.98600 31.46400
H  23.36200 48.96400 31.80700
H  23.22900 50.46200 32.63900
H  25.47200 49.03600 33.85200
H  23.87300 48.50200 34.13500
H  30.36300 47.22500 27.65300
H  30.12400 48.28100 29.06900
H  31.36600 48.65400 27.98500
H  31.87300 48.04500 25.80800
H  31.95400 49.73500 26.24400
H  32.63400 49.16800 24.68800
H  26.34400 51.10600 21.78300
H  24.11100 52.91400 22.45100
H  27.43900 53.22000 23.35900
H  26.39500 53.96900 22.14400
H  27.69600 53.01400 21.64100
H  24.20300 50.99000 20.67500
H  22.80800 51.59300 21.70200
H  24.00300 49.30700 23.01700
H  23.53400 49.01900 21.26500
H  22.37400 49.56900 22.39100
H  20.22200 52.43500 24.86200
H  20.32800 53.87700 25.98600
H  19.35700 52.55200 26.53500
H  21.43000 50.90500 30.92000
H  22.38100 53.87600 33.70700
H  20.61200 53.98600 33.79600
H  21.40400 54.91700 32.60400

