158

Mg 27.23900 50.39600 26.10000
C  25.07700 51.26400 28.89900
C  29.44900 49.27900 28.45700
C  29.37200 50.07200 23.63200
C  24.85200 51.82600 23.90000
N  27.31800 50.46600 28.39600
C  26.27200 50.69200 29.27600
C  26.59500 50.29100 30.70000
C  28.03100 49.71200 30.54100
C  28.27100 49.79300 29.03200
C  29.18700 50.38200 31.38300
C  25.59700 49.28400 31.29400
C  24.88100 49.74100 32.50900
H  25.78900 50.26200 33.74500
N  29.19500 49.72600 26.04700
C  29.96000 49.29700 27.16500
C  31.23000 48.87000 26.55200
C  31.22600 49.09100 25.18100
C  29.90300 49.61000 24.91800
C  32.29900 48.20400 27.41400
C  32.36900 48.86200 24.17900
O  32.27500 49.30100 23.04700
C  33.66400 48.21700 24.63000
N  27.24700 51.20700 24.09000
C  28.19100 50.70400 23.31400
C  27.71400 50.80400 21.77500
C  26.21400 51.15000 21.88200
C  26.09700 51.41400 23.36000
C  28.54700 51.74000 20.81900
C  25.25600 49.97700 21.48800
C  24.33200 50.46600 20.33300
N  25.39200 51.38600 26.33300
C  24.50100 51.85900 25.33700
C  23.28200 52.33800 25.98400
C  23.48500 52.18700 27.39500
C  24.73900 51.57300 27.57500
C  22.08600 52.98400 25.37000
C  22.90900 52.36200 28.65900
O  21.86300 52.97100 28.92900
C  23.94000 51.83200 29.75200
C  24.38600 52.90800 30.69100
O  25.42100 53.60600 30.61900
O  23.41900 53.07600 31.60200
C  23.86400 53.73300 32.85100
H  30.02100 48.71200 29.19500
H  29.84700 49.70300 22.72100
H  23.99100 52.06400 23.27200
H  26.55800 51.19900 31.30200
H  28.04500 48.66600 30.84900
H  28.81900 50.94100 32.24300
H  29.90600 51.04600 30.90400
H  29.81700 49.55200 31.70300
H  26.02300 48.28800 31.41600
H  24.83600 49.16300 30.52400
H  24.30600 48.94100 32.97600
H  24.16600 50.52300 32.25500
H  32.54600 47.18800 27.10700
H  31.92100 47.98200 28.41200
H  33.16300 48.86700 27.38900
H  33.38500 47.25500 25.05800
H  34.17500 48.82200 25.38000
H  34.21500 47.93700 23.73200
H  27.71800 49.80200 21.34400
H  26.19700 52.13100 21.40900
H  29.53500 51.90800 21.24800
H  27.98600 52.66800 20.70600
H  28.69300 51.21000 19.87800
H  24.65400 49.72200 22.36000
H  25.93600 49.13900 21.33800
H  24.82100 50.40100 19.36100
H  24.05900 51.50500 20.52100
H  23.34900 49.99800 20.27900
H  21.95400 52.80100 24.30400
H  22.09300 54.02400 25.69700
H  21.20300 52.64100 25.91000
H  23.47100 50.97900 30.24300
H  24.40400 54.64800 32.60900
H  24.56700 53.14800 33.44300
H  23.00800 53.97200 33.48200
Mg -12.37900 17.03100 42.24100
C  -9.24900 15.36700 42.08400
C  -10.73200 19.77000 40.90700
C  -15.34200 18.07300 41.42700
C  -13.73400 13.99100 43.46500
N  -10.20600 17.48000 41.58600
C  -9.09400 16.66000 41.53100
C  -7.80300 17.40600 41.15700
C  -8.36200 18.89700 41.11500
C  -9.86100 18.78800 41.15500
C  -7.80800 19.72600 42.22900
C  -7.23100 16.88600 39.84400
C  -5.72900 16.63700 39.86000
H  -5.25100 15.34600 39.18700
N  -12.95500 18.77600 41.39200
C  -12.12600 19.79500 40.97100
C  -13.05300 20.79200 40.36500
C  -14.36400 20.42200 40.58800
C  -14.30500 19.06600 41.21700
C  -12.59200 22.06700 39.55500
C  -15.58100 21.10400 40.08000
O  -15.54800 22.21800 39.49200
C  -16.93900 20.59000 40.37000
N  -14.21800 16.20300 42.54500
C  -15.34500 16.87700 42.14000
C  -16.64400 16.21300 42.58900
C  -16.16100 14.82300 43.17500
C  -14.58600 15.01600 43.05100
C  -17.46900 17.01100 43.56800
C  -16.66800 13.55200 42.47600
C  -17.67100 12.60800 43.20200
N  -11.69700 15.14600 42.70700
C  -12.33500 14.03800 43.25300
C  -11.34200 13.00700 43.61500
C  -10.15800 13.53700 43.18800
C  -10.42200 14.79100 42.61600
C  -11.63800 11.61600 44.17100
C  -8.81800 13.25000 43.09400
O  -8.18500 12.25400 43.45300
C  -8.16100 14.38300 42.36900
C  -7.08100 14.96300 43.31700
O  -7.41800 15.52800 44.31800
O  -5.86900 14.82300 42.81100
C  -4.77000 15.41400 43.65300
H  -10.29000 20.69500 40.53200
H  -16.33000 18.26200 41.00100
H  -14.07800 13.04900 43.89800
H  -7.00600 17.19500 41.87000
H  -8.14300 19.52200 40.24900
H  -7.35100 19.11200 43.00500
H  -8.65900 20.16100 42.75300
H  -7.13900 20.50100 41.85300
H  -7.41000 17.59800 39.03900
H  -7.76900 15.97100 39.59400
H  -5.36000 16.57900 40.88300
H  -5.31400 17.50900 39.35500
H  -13.04500 22.10700 38.56400
H  -11.50600 22.06600 39.46100
H  -12.76500 22.99200 40.10500
H  -17.73300 21.33600 40.33200
H  -16.80200 20.32100 41.41700
H  -17.13500 19.78600 39.66000
H  -17.23500 15.99000 41.70100
H  -16.39400 14.72300 44.23500
H  -17.55600 16.58500 44.56700
H  -18.43800 17.11700 43.07900
H  -17.05800 18.01200 43.70100
H  -15.75700 12.98700 42.27900
H  -17.10800 13.86500 41.53000
H  -17.14900 11.65600 43.28900
H  -18.51800 12.55300 42.51800
H  -17.84000 13.11700 44.15200
H  -11.96900 11.80400 45.19300
H  -10.71200 11.04200 44.14100
H  -12.41800 11.04600 43.66700
H  -7.74500 13.93100 41.46900
H  -5.16000 15.73300 44.62000
H  -4.34100 16.29200 43.17100
H  -3.96400 14.68500 43.73800

