158

Mg -2.35400 34.80200 26.60700
C  -3.55000 33.07900 29.26200
C  -0.91800 37.17800 28.75600
C  -1.39200 36.66000 23.95100
C  -4.31600 32.86600 24.42700
N  -2.25900 35.07300 28.73000
C  -2.73900 34.16500 29.65200
C  -2.29900 34.46600 31.10400
C  -1.47800 35.80700 30.83200
C  -1.53200 36.06700 29.31700
C  -1.85400 37.10000 31.64200
C  -1.53100 33.28300 31.76700
C  -2.05400 32.61200 33.05700
H  -1.18700 32.84000 34.33600
N  -1.30300 36.65500 26.38800
C  -0.72600 37.40200 27.38600
C  0.21200 38.28900 26.74100
C  0.19000 38.04300 25.40500
C  -0.89500 37.07500 25.17900
C  0.89800 39.44000 27.58400
C  1.05300 38.59300 24.31100
O  0.86000 38.39300 23.13200
C  2.26900 39.36800 24.59500
N  -3.05700 34.89300 24.53400
C  -2.39400 35.76400 23.68500
C  -2.86500 35.58100 22.26400
C  -3.78100 34.28000 22.39000
C  -3.78000 34.00700 23.87700
C  -3.60000 36.81700 21.63300
C  -3.00100 33.17400 21.63400
C  -1.56100 32.81800 22.09000
N  -3.60600 33.22600 26.77000
C  -4.26100 32.46300 25.75200
C  -4.81600 31.27900 26.45400
C  -4.61800 31.54500 27.83100
C  -3.85000 32.69400 27.99500
C  -5.49100 30.11700 25.80900
C  -4.89200 31.03300 29.18000
O  -5.49000 30.03600 29.61800
C  -4.20600 32.02900 30.13200
C  -5.32900 32.61300 30.93600
O  -5.95100 33.61700 30.67900
O  -5.49500 31.84900 32.08100
C  -6.64200 32.24500 32.94300
H  -0.42400 37.87200 29.44000
H  -1.02600 37.31100 23.15400
H  -4.73400 32.12100 23.74600
H  -3.14600 34.61400 31.77300
H  -0.41800 35.58100 30.94900
H  -1.07000 37.56700 32.23900
H  -2.73200 36.95300 32.27000
H  -2.23100 37.82300 30.91900
H  -0.51400 33.58200 32.02200
H  -1.40300 32.52400 30.99400
H  -2.20400 31.55000 32.86600
H  -3.07700 32.94500 33.23400
H  0.37500 39.61500 28.52400
H  0.77400 40.37200 27.03300
H  1.93700 39.28800 27.87400
H  2.66600 39.83000 23.69100
H  3.00000 38.71300 25.06900
H  1.89300 40.07200 25.33800
H  -1.94800 35.41600 21.69900
H  -4.78400 34.47100 22.00900
H  -3.24900 36.88700 20.60300
H  -3.42300 37.71400 22.22700
H  -4.68500 36.82100 21.52900
H  -3.00900 33.32800 20.55500
H  -3.57800 32.25400 21.53800
H  -1.27800 33.20900 23.06700
H  -0.83500 33.22700 21.38700
H  -1.52100 31.72900 22.10500
H  -5.05200 29.81500 24.85800
H  -6.49700 30.41300 25.51100
H  -5.53300 29.30100 26.53000
H  -3.54300 31.44900 30.77400
H  -7.41700 32.72900 32.34900
H  -6.25400 32.75600 33.82500
H  -7.04900 31.35600 33.42400
Mg -10.61300 16.87600 41.09300
C  -7.97600 14.55400 40.97700
C  -8.77700 18.95500 39.09600
C  -13.33000 18.62200 40.50000
C  -12.60400 14.23000 42.40600
N  -8.62000 16.76600 40.29200
C  -7.69400 15.78700 40.39500
C  -6.44900 16.16400 39.50100
C  -6.64000 17.63000 39.28600
C  -8.09200 17.85300 39.61900
C  -5.71700 18.52100 40.18400
C  -6.34900 15.42700 38.16600
C  -5.34600 14.22800 38.11800
H  -4.19500 14.09400 37.00300
N  -10.93500 18.62400 40.07100
C  -10.05200 19.35500 39.36800
C  -10.70500 20.54000 38.88800
C  -12.07900 20.47300 39.33500
C  -12.14800 19.20800 40.05000
C  -9.99100 21.67900 38.22000
C  -13.18600 21.63900 39.03600
O  -12.86100 22.62800 38.36700
C  -14.62600 21.46800 39.47900
N  -12.67300 16.52100 41.47300
C  -13.61000 17.43100 41.17600
C  -15.11600 16.93800 41.61900
C  -14.77100 15.56900 42.37500
C  -13.30200 15.39400 41.99400
C  -15.89700 17.93400 42.59900
C  -15.67700 14.40100 41.99200
C  -16.80100 13.92900 43.01500
N  -10.38900 14.87400 41.85300
C  -11.23100 13.91900 42.31400
C  -10.56600 12.76300 42.64600
C  -9.27400 12.98800 42.20100
C  -9.23600 14.30300 41.63300
C  -11.03900 11.52300 43.24000
C  -7.90500 12.41000 42.11000
O  -7.42900 11.30300 42.44800
C  -7.04300 13.35900 41.32600
C  -5.84000 13.74300 42.16500
O  -5.89300 13.91400 43.37800
O  -4.66000 13.94300 41.39700
C  -3.61400 14.71900 42.13000
H  -8.08700 19.63100 38.58600
H  -14.27600 19.08300 40.20800
H  -13.20300 13.48100 42.92800
H  -5.63900 15.84100 40.15600
H  -6.40500 17.87700 38.25100
H  -6.36300 19.02200 40.90400
H  -5.13600 19.18800 39.54600
H  -5.03200 17.93400 40.79600
H  -6.14000 16.05800 37.30200
H  -7.33200 15.02900 37.91900
H  -5.91200 13.29800 38.06400
H  -4.84700 14.17200 39.08500
H  -9.60400 21.36700 37.25100
H  -9.15600 21.97000 38.85700
H  -10.61100 22.57500 38.18300
H  -15.10200 22.44700 39.53000
H  -14.59500 21.13900 40.51700
H  -15.20800 20.85500 38.79100
H  -15.72100 16.85800 40.71600
H  -14.75900 15.65600 43.46100
H  -16.41700 17.32400 43.33800
H  -16.69300 18.35600 41.98500
H  -15.28200 18.76500 42.94400
H  -15.07900 13.53100 41.72000
H  -16.28500 14.64600 41.12200
H  -16.91400 14.59900 43.86700
H  -16.59900 12.89700 43.30000
H  -17.75800 13.89500 42.49300
H  -10.18000 10.97600 43.63000
H  -11.51000 10.91400 42.46800
H  -11.75700 11.88000 43.97800
H  -6.79800 12.70600 40.48900
H  -3.32000 14.21200 43.04900
H  -3.99000 15.74100 42.09200
H  -2.80600 14.66600 41.40000

