158

Mg 2.05700 -0.64600 44.58300
C  5.45200 0.14400 44.05900
C  1.21500 2.27800 42.89600
C  -1.08600 -1.86100 44.27100
C  3.06300 -3.45500 46.23800
N  3.23400 0.89800 43.47800
C  4.58900 1.09300 43.46800
C  4.97200 2.22800 42.55800
C  3.63600 3.09100 42.59400
C  2.62800 1.97900 42.99700
C  3.63700 4.19700 43.64400
C  5.37900 1.70900 41.14500
C  6.68500 2.46700 40.57000
H  6.94200 2.31700 39.03000
N  0.26600 0.00700 43.67700
C  0.15100 1.28500 43.08100
C  -1.22000 1.39400 42.56600
C  -1.91100 0.17000 42.88200
C  -0.97700 -0.63300 43.64100
C  -1.66100 2.50400 41.67400
C  -3.36600 -0.14500 42.41700
O  -4.06900 0.79500 42.02100
C  -3.93500 -1.47000 42.58300
N  1.15300 -2.55500 44.98100
C  -0.15600 -2.66300 44.96700
C  -0.56700 -3.96900 45.64900
C  0.63600 -4.34400 46.47200
C  1.71400 -3.45500 45.87400
C  -1.94600 -3.90300 46.42000
C  1.09400 -5.87100 46.24800
C  1.66500 -6.67700 47.51500
N  3.87800 -1.55400 45.10400
C  4.16800 -2.68700 45.83700
C  5.54500 -2.94700 45.87700
C  6.17400 -1.81800 45.25000
C  5.05500 -1.06800 44.71500
C  6.15600 -4.06500 46.63300
C  7.48300 -1.10800 44.98100
O  8.57700 -1.31000 45.43000
C  6.96900 0.16800 44.13800
C  7.48000 1.34300 44.75400
O  7.45300 1.58500 45.95100
O  8.06400 2.15200 43.72200
C  8.46300 3.46400 44.15900
H  0.86400 3.28800 42.67500
H  -2.06400 -2.34700 44.25100
H  3.37100 -4.32600 46.82000
H  5.76300 2.82500 43.01100
H  3.37800 3.51800 41.62500
H  4.45100 4.29500 44.36200
H  2.69800 4.32000 44.18200
H  3.71300 5.08600 43.01800
H  4.59400 1.64600 40.39200
H  5.68000 0.66800 41.26400
H  7.55800 1.98000 41.00500
H  6.47800 3.51000 40.81100
H  -1.31300 2.24300 40.67500
H  -1.33700 3.53200 41.83700
H  -2.74900 2.53200 41.61400
H  -4.80600 -1.60000 41.94000
H  -4.04300 -1.80300 43.61500
H  -3.25800 -2.19900 42.13900
H  -0.67600 -4.67800 44.82800
H  0.49400 -4.07700 47.51900
H  -2.02700 -4.64200 47.21700
H  -2.77200 -4.21800 45.78200
H  -2.14400 -2.89200 46.77600
H  1.88700 -5.98700 45.51000
H  0.22800 -6.35700 45.79900
H  1.31300 -6.25300 48.45600
H  2.73900 -6.49300 47.48100
H  1.58500 -7.75300 47.36700
H  7.24600 -4.08100 46.60800
H  5.77200 -4.87800 46.01700
H  5.83600 -4.19400 47.66700
H  7.50100 0.09600 43.18900
H  9.08100 3.97300 43.42000
H  9.09100 3.45600 45.05100
H  7.65700 4.18500 44.29500
Mg 25.66000 0.92700 29.64500
C  27.73900 0.63900 32.42900
C  22.98800 1.25800 31.73100
C  23.78000 0.95200 26.88800
C  28.44300 -0.00400 27.71100
N  25.48600 0.90600 31.82200
C  26.45000 0.91000 32.80300
C  25.87400 1.26600 34.21600
C  24.33000 1.32600 33.92800
C  24.25800 1.15200 32.35900
C  23.44900 0.22400 34.60200
C  26.53000 2.53900 34.92000
C  27.23700 2.48000 36.23300
H  26.73600 3.39700 37.32600
N  23.66600 1.22900 29.32500
C  22.66600 1.30800 30.29700
C  21.39200 1.43800 29.71500
C  21.60100 1.38200 28.32200
C  23.06900 1.22200 28.09400
C  20.14900 1.59000 30.42000
C  20.65500 1.39200 27.13900
O  21.03200 1.22200 25.97900
C  19.18500 1.48300 27.42800
N  26.11700 0.75100 27.47200
C  25.10900 0.71800 26.55200
C  25.71500 0.58600 25.12100
C  27.22900 0.26100 25.45100
C  27.28600 0.38500 26.98500
C  25.09000 -0.41300 24.22700
C  28.28200 1.07500 24.63300
C  29.23100 0.14900 23.75900
N  27.60400 0.34900 30.02500
C  28.62900 0.03700 29.08800
C  29.85700 -0.19200 29.72400
C  29.62300 0.11700 31.09200
C  28.18800 0.38800 31.18900
C  31.10900 -0.50100 29.13100
C  30.16100 0.16300 32.47400
O  31.33900 0.00100 32.89500
C  28.96700 0.46100 33.33000
C  28.83100 -0.59900 34.39600
O  28.21500 -1.63200 34.34700
O  29.45100 -0.17100 35.53900
C  29.32800 -1.05200 36.62800
H  22.14100 1.32700 32.41700
H  23.26500 0.78800 25.93900
H  29.24700 -0.45700 27.12800
H  26.18500 0.49100 34.91600
H  24.05700 2.35100 34.18000
H  23.32500 -0.66000 33.97700
H  22.46700 0.59000 34.90300
H  23.99400 -0.03000 35.51100
H  25.75500 3.29100 35.06700
H  27.23100 2.97500 34.20900
H  28.22300 2.93300 36.12900
H  27.25800 1.42400 36.50000
H  19.72400 2.49000 29.97500
H  20.27200 1.73800 31.49300
H  19.50100 0.71400 30.41300
H  18.99600 0.54800 27.95600
H  18.64600 1.64800 26.49500
H  18.99600 2.35500 28.05500
H  25.62200 1.58400 24.69200
H  27.36000 -0.81400 25.32700
H  24.42100 -1.13200 24.70100
H  25.77400 -0.98300 23.59800
H  24.33000 0.05500 23.60200
H  28.87400 1.74100 25.26100
H  27.79100 1.72400 23.90800
H  30.28000 0.20900 24.05000
H  29.13300 0.40100 22.70300
H  28.85100 -0.86900 23.85100
H  31.43400 0.23900 28.40000
H  31.01400 -1.48500 28.67200
H  31.82100 -0.54500 29.95500
H  29.14100 1.39000 33.87400
H  30.25300 -1.16600 37.19200
H  29.05400 -2.08400 36.40700
H  28.61300 -0.58600 37.30600

