158

Mg -0.40100 7.87700 26.39400
C  0.51500 10.17900 28.87600
C  -0.20400 5.43200 28.85300
C  -1.20000 5.78300 24.04700
C  -0.22900 10.63500 24.08100
N  -0.02100 7.93600 28.62000
C  0.17100 8.93600 29.47200
C  0.28600 8.50200 30.91600
C  0.30300 6.97000 30.80700
C  0.03100 6.74000 29.29300
C  1.59200 6.23600 31.29200
C  -0.79000 9.09900 31.94000
C  -0.18700 9.33200 33.39000
H  0.74400 8.36900 34.09600
N  -0.70300 5.83900 26.46600
C  -0.57900 5.01100 27.54700
C  -0.75300 3.65200 27.11500
C  -0.96100 3.63600 25.69300
C  -1.03700 5.10600 25.29700
C  -0.58500 2.35300 28.00900
C  -1.18100 2.49900 24.72900
O  -1.60200 2.83000 23.61600
C  -0.97100 1.06300 25.06500
N  -0.48300 8.08000 24.29600
C  -0.96600 7.10100 23.58000
C  -1.36800 7.60800 22.14000
C  -1.10400 9.14900 22.13400
C  -0.62800 9.31600 23.60800
C  -0.74100 6.83300 20.94900
C  -2.28800 10.01800 21.63700
C  -3.38300 10.45400 22.58400
N  0.23000 9.92800 26.37700
C  0.10800 10.92200 25.46200
C  0.54600 12.19700 26.02100
C  0.81600 11.90200 27.34000
C  0.58800 10.53200 27.48500
C  0.65500 13.53300 25.34800
C  1.30700 12.44000 28.56400
O  1.80600 13.53100 28.74500
C  1.02800 11.42900 29.65500
C  2.33500 11.15700 30.32700
O  3.22600 10.56800 29.77100
O  2.36100 11.58000 31.66700
C  3.55300 11.31500 32.50200
H  -0.21900 4.70800 29.67000
H  -1.58300 5.21700 23.19500
H  -0.16500 11.47600 23.38700
H  1.24000 8.93500 31.21500
H  -0.47800 6.50500 31.40800
H  1.31600 5.55700 32.09900
H  2.28600 7.01700 31.60100
H  2.01100 5.55000 30.55600
H  -1.66400 8.45100 31.99700
H  -1.14600 10.03000 31.49800
H  -1.06200 9.34900 34.04000
H  0.35800 10.27300 33.47000
H  -1.47500 1.91800 28.46400
H  0.01300 2.63200 28.87600
H  0.05500 1.69900 27.41700
H  -1.71400 0.75800 25.80200
H  0.05700 1.00000 25.42000
H  -1.23700 0.50600 24.16600
H  -2.40000 7.38100 21.87100
H  -0.19800 9.38600 21.57600
H  -0.45600 7.31100 20.01200
H  -1.46700 6.11400 20.57100
H  0.09100 6.22000 21.29600
H  -2.81300 9.40400 20.90500
H  -1.96100 10.95000 21.17500
H  -4.36000 10.24500 22.14900
H  -3.27600 11.47900 22.93900
H  -3.25300 9.84400 23.47700
H  -0.35700 13.92600 25.25600
H  1.12800 13.43500 24.37000
H  1.25800 14.20500 25.95800
H  0.35700 11.90400 30.37200
H  4.18000 10.45100 32.28300
H  3.29400 11.30000 33.56100
H  4.13700 12.22100 32.33900
Mg 36.19600 48.95300 26.18400
C  36.86700 46.66500 28.84900
C  34.54000 50.87600 28.37000
C  35.29800 50.86700 23.62500
C  37.34200 46.55300 23.99000
N  35.90000 48.81900 28.35400
C  36.40500 47.94400 29.21300
C  36.05900 48.33400 30.63200
C  35.18500 49.51200 30.42000
C  35.13600 49.72700 28.92700
C  33.67100 49.39300 30.90300
C  37.37900 48.70100 31.36200
C  37.27700 48.79000 32.92000
H  35.94500 48.76200 33.56600
N  35.26400 50.70200 26.02300
C  34.58300 51.37500 27.00700
C  34.10100 52.66800 26.52800
C  34.44300 52.72900 25.11000
C  35.00600 51.42800 24.85300
C  33.55500 53.78600 27.44800
C  34.18400 53.86000 24.06600
O  34.53900 53.80400 22.85700
C  33.47600 55.14800 24.45300
N  36.27300 48.71900 24.11800
C  35.86000 49.60500 23.23100
C  36.00700 49.23700 21.74200
C  36.68200 47.84500 21.87400
C  36.83300 47.73300 23.44000
C  34.63100 49.20200 20.97000
C  37.92700 47.63800 20.95300
C  39.41300 47.94400 21.51700
N  36.94900 46.92800 26.35800
C  37.40100 46.14800 25.35000
C  37.90100 44.86200 25.91400
C  37.71800 44.96200 27.36100
C  37.14100 46.26200 27.56200
C  38.51800 43.85100 25.00700
C  37.76300 44.31700 28.65000
O  38.20800 43.21800 29.04900
C  37.34000 45.51800 29.62600
C  36.23900 44.85000 30.45600
O  35.09300 44.73200 30.02100
O  36.72900 44.52400 31.72900
C  35.63500 44.24200 32.63000
H  33.87100 51.44200 29.02200
H  35.02500 51.48700 22.76800
H  37.71000 45.90000 23.19600
H  35.58900 47.54200 31.21600
H  35.60800 50.38600 30.91600
H  32.97100 49.79200 30.16900
H  33.58400 49.94400 31.83900
H  33.51900 48.32400 31.05000
H  37.73000 49.66500 30.99300
H  38.09400 47.95700 31.01200
H  37.94100 49.61000 33.19000
H  37.90100 47.92500 33.14300
H  33.90400 54.76400 27.11700
H  33.97500 53.59900 28.43700
H  32.49400 53.86500 27.68400
H  32.52700 54.75000 24.81400
H  33.23400 55.73700 23.56800
H  34.13300 55.57900 25.20800
H  36.65900 49.93100 21.21100
H  36.04100 47.00700 21.59900
H  34.66300 49.99900 20.22700
H  33.73400 49.49900 21.51300
H  34.43300 48.27700 20.42800
H  37.73100 48.10200 19.98600
H  38.04000 46.56500 20.79700
H  39.85100 48.57200 20.74100
H  39.95300 47.05800 21.85400
H  39.29700 48.62100 22.36300
H  38.93600 44.17800 24.05500
H  37.69000 43.18500 24.76300
H  39.29000 43.40100 25.63100
H  38.17700 45.82900 30.25200
H  35.07800 45.16200 32.81100
H  36.12700 43.86800 33.52800
H  35.03700 43.41400 32.24900

