158

Mg 24.04000 -5.57500 45.31800
C  26.40300 -3.19400 43.80800
C  21.71500 -4.20400 43.42200
C  22.32800 -8.31400 46.09100
C  26.86200 -6.73900 47.15100
N  24.09500 -3.85000 43.89500
C  25.12500 -3.13700 43.36300
C  24.61500 -2.19200 42.26600
C  23.09000 -2.27600 42.39300
C  22.92100 -3.49300 43.33400
C  22.39500 -1.05800 42.86600
C  25.24300 -2.44800 40.89800
C  25.95600 -1.21100 40.30800
H  25.42200 -0.74500 38.97500
N  22.12400 -6.10500 44.97000
C  21.30100 -5.43900 44.11200
C  20.02000 -6.09800 44.10500
C  20.13000 -7.28700 44.87300
C  21.56800 -7.30900 45.32700
C  18.79200 -5.69800 43.26200
C  18.98400 -8.26200 45.15400
O  17.87700 -8.17700 44.74900
C  19.28200 -9.51100 45.96400
N  24.58500 -7.35500 46.34600
C  23.66300 -8.32300 46.54900
C  24.23200 -9.46900 47.39600
C  25.76100 -9.00500 47.70200
C  25.79200 -7.61500 47.00500
C  23.41800 -9.89600 48.62000
C  26.88000 -9.97200 47.13000
C  27.62300 -10.97700 48.14200
N  26.30000 -5.06800 45.53500
C  27.23300 -5.59100 46.34600
C  28.48700 -4.90700 46.25700
C  28.25600 -4.03400 45.17800
C  26.89200 -4.14800 44.82000
C  29.72600 -5.22600 47.08500
C  28.82500 -2.95100 44.30600
O  29.95100 -2.56300 44.14900
C  27.65400 -2.38700 43.44400
C  27.42000 -1.00100 43.77900
O  26.47600 -0.53300 44.42200
O  28.57000 -0.24500 43.48000
C  28.68900 1.07600 43.92800
H  20.94000 -3.63200 42.90800
H  21.76500 -9.20500 46.37500
H  27.79800 -6.97700 47.66000
H  24.86500 -1.17800 42.57800
H  22.66600 -2.54400 41.42600
H  22.52500 -0.15700 42.26700
H  22.53800 -0.70800 43.88800
H  21.33500 -1.30600 42.80200
H  24.43000 -2.60100 40.18800
H  25.93700 -3.28600 40.83900
H  26.99600 -1.45100 40.08800
H  25.96400 -0.37100 41.00200
H  18.04100 -5.20100 43.87600
H  18.44900 -6.58200 42.72600
H  19.07700 -4.96300 42.50900
H  18.34400 -10.02400 46.17800
H  19.68900 -9.08700 46.88200
H  19.89600 -10.20800 45.39300
H  24.27900 -10.29800 46.69000
H  25.95800 -8.90700 48.77000
H  22.91300 -9.02400 49.03600
H  24.00400 -10.38700 49.39700
H  22.80000 -10.71300 48.24900
H  27.63400 -9.38900 46.60200
H  26.42300 -10.50900 46.29800
H  28.68600 -10.80000 48.30500
H  27.52400 -11.99500 47.76600
H  27.07900 -10.85000 49.07800
H  30.39800 -5.98900 46.69200
H  29.65300 -5.55100 48.12200
H  30.39300 -4.36400 47.08800
H  27.93300 -2.53900 42.40100
H  28.94700 1.75300 43.11400
H  29.59000 1.19200 44.53000
H  27.76500 1.50800 44.31200
Mg 1.47700 43.10100 25.78700
C  3.07800 42.96600 28.89100
C  -1.52400 42.72100 27.35900
C  0.09300 42.82100 22.78800
C  4.69000 43.13100 24.36400
N  0.83300 42.88700 27.82100
C  1.65800 42.99800 28.96500
C  0.82700 42.89800 30.30300
C  -0.57100 42.65900 29.73100
C  -0.42100 42.75600 28.24400
C  -1.20700 41.36800 30.26500
C  0.98700 44.26400 31.12500
C  0.90100 44.26400 32.64500
H  0.59900 43.00300 33.38000
N  -0.52300 42.89000 25.11900
C  -1.60800 42.72700 25.92200
C  -2.71100 42.53900 25.06700
C  -2.33000 42.71600 23.67600
C  -0.86400 42.80300 23.81000
C  -4.03200 42.34000 25.74200
C  -3.13600 42.76200 22.36600
O  -2.60500 42.80700 21.30100
C  -4.60100 42.40500 22.44400
N  2.29900 42.88300 23.94800
C  1.51300 42.89300 22.83300
C  2.29800 42.83600 21.51900
C  3.70100 43.30000 22.01200
C  3.54500 43.11400 23.59800
C  2.21900 41.40400 20.82600
C  4.36100 44.73900 21.66100
C  3.42400 45.95700 21.36900
N  3.51400 43.13000 26.40500
C  4.71000 43.08800 25.76600
C  5.82200 43.11500 26.67900
C  5.24600 42.99300 27.91800
C  3.81600 43.04000 27.74000
C  7.24900 43.17800 26.30400
C  5.55400 43.06600 29.32000
O  6.63500 43.15300 29.91500
C  4.15800 42.95000 30.05000
C  4.09500 41.71700 30.91200
O  3.49500 40.65700 30.67100
O  4.75700 41.87300 32.14500
C  4.48600 40.73500 33.06500
H  -2.51900 42.58500 27.78900
H  -0.36100 42.83600 21.79500
H  5.65800 43.25200 23.87500
H  1.25400 42.11200 30.92500
H  -1.33400 43.36500 30.05800
H  -2.29400 41.40500 30.32900
H  -0.85100 41.13400 31.26800
H  -0.84800 40.49000 29.72700
H  0.31100 45.00000 30.68900
H  1.92000 44.66600 30.72900
H  0.08100 44.95600 32.83600
H  1.77700 44.65800 33.15900
H  -4.74300 41.95600 25.01000
H  -4.42100 43.25800 26.18100
H  -3.98000 41.62500 26.56300
H  -5.10100 42.37800 21.47600
H  -5.04400 43.16300 23.09000
H  -4.63400 41.43500 22.94000
H  1.95100 43.67700 20.91800
H  4.52300 42.66800 21.67600
H  1.68200 40.76200 21.52400
H  3.16200 40.91300 20.58600
H  1.50900 41.53200 20.00900
H  4.84000 44.57700 20.69500
H  5.06800 44.95600 22.46200
H  3.54700 46.31800 20.34700
H  3.80200 46.70400 22.06800
H  2.37400 45.79700 21.61000
H  7.49400 44.22100 26.10600
H  7.38800 42.71200 25.32800
H  7.90700 42.69300 27.02500
H  3.92100 43.70300 30.80100
H  4.38000 39.74700 32.61800
H  3.65000 40.88100 33.75000
H  5.40300 40.67900 33.65200

