158

Mg 44.88600 4.07000 46.33600
C  42.93100 7.09000 46.18900
C  41.73700 2.40600 45.72900
C  46.48200 1.43000 45.86600
C  47.68400 6.07800 45.99500
N  42.57500 4.73600 45.63000
C  42.10200 5.98700 45.81700
C  40.58400 6.04700 45.54700
C  40.17100 4.49100 45.61300
C  41.57300 3.80500 45.65500
C  39.27800 4.00300 46.76600
C  40.00800 6.93500 44.37500
C  40.65000 6.78100 42.93300
H  39.85700 6.86000 41.64400
N  44.20300 2.15500 45.82700
C  42.93100 1.62800 45.79600
C  43.07900 0.16500 45.73500
C  44.43100 -0.13700 45.49300
C  45.09300 1.16800 45.74200
C  41.79600 -0.72900 45.59700
C  45.04400 -1.46400 45.20800
O  44.37900 -2.44400 45.03000
C  46.49700 -1.67900 45.03600
N  46.78700 3.89900 45.69000
C  47.28000 2.63100 45.94500
C  48.81000 2.58300 45.99200
C  49.22600 4.10400 45.88900
C  47.77900 4.79200 45.76700
C  49.44600 1.76200 47.12900
C  50.10400 4.32300 44.67100
C  51.55500 4.53700 45.03400
N  45.26800 6.14500 46.38700
C  46.48600 6.78200 46.24700
C  46.33700 8.14300 46.52200
C  44.97100 8.33800 46.53200
C  44.34000 7.03400 46.41100
C  47.46700 9.11000 46.47000
C  43.96500 9.35000 46.72700
O  44.05500 10.57100 46.83100
C  42.57700 8.56700 46.47400
C  41.87500 8.85100 47.70300
O  41.88100 8.20000 48.71400
O  41.16500 9.99200 47.53300
C  40.57800 10.59900 48.69300
H  40.82300 1.82200 45.60000
H  47.18000 0.59100 45.83600
H  48.56500 6.69700 46.17700
H  40.02800 6.47500 46.38200
H  39.81400 4.16900 44.63400
H  38.55600 3.21200 46.56500
H  38.73800 4.72100 47.38300
H  39.96400 3.47300 47.42700
H  40.02700 8.00100 44.60300
H  38.97400 6.68500 44.13900
H  41.14400 5.81000 42.95600
H  41.35300 7.60900 42.84300
H  41.82100 -1.64700 46.18600
H  41.91300 -1.10600 44.58100
H  40.84100 -0.22700 45.74700
H  46.76600 -2.69600 44.75100
H  46.94000 -1.52900 46.02100
H  46.96900 -1.08200 44.25600
H  49.18700 2.02300 45.13600
H  49.69800 4.45700 46.80600
H  50.27100 1.13600 46.79000
H  48.70200 1.13000 47.61300
H  49.77600 2.40200 47.94700
H  49.58700 5.19200 44.26500
H  50.11900 3.44000 44.03200
H  51.78600 3.99700 45.95300
H  51.70100 5.61000 45.15800
H  52.16200 4.15100 44.21500
H  47.19700 10.06300 46.92400
H  47.78500 9.21000 45.43200
H  48.33700 8.76100 47.02800
H  41.94200 8.99200 45.69700
H  39.65700 10.07200 48.94300
H  40.39300 11.62600 48.37900
H  41.28700 10.62400 49.52100
Mg -12.04400 38.10100 41.35500
C  -9.79400 35.53000 40.55200
C  -9.92400 40.31600 39.73300
C  -14.60500 40.28600 41.29200
C  -14.33900 35.73800 42.58000
N  -10.19200 37.94900 40.10700
C  -9.39800 36.78100 40.06300
C  -8.05400 37.01800 39.34800
C  -8.02800 38.66100 39.38700
C  -9.49300 39.00700 39.76900
C  -6.97700 39.07200 40.50500
C  -8.02600 36.31600 37.93300
C  -6.76400 35.39500 37.68900
H  -5.69400 35.90300 36.70400
N  -12.25100 40.06300 40.68600
C  -11.23200 40.81800 40.12400
C  -11.66600 42.18100 40.18900
C  -13.09600 42.17100 40.45900
C  -13.34500 40.83400 40.81400
C  -10.79600 43.41400 39.67300
C  -14.10200 43.33100 40.43300
O  -13.73200 44.49300 40.36100
C  -15.61400 43.20400 40.60100
N  -14.10500 38.08700 41.97100
C  -14.93100 39.08800 41.84700
C  -16.36300 38.86100 42.35800
C  -16.22600 37.39500 42.88200
C  -14.81500 37.04000 42.49300
C  -16.90800 39.83800 43.47000
C  -17.30400 36.40000 42.25000
C  -17.91800 35.38700 43.20500
N  -12.09300 35.98800 41.65200
C  -13.06600 35.19300 42.21600
C  -12.59100 33.81500 42.21900
C  -11.26600 33.89800 41.65200
C  -11.04000 35.22200 41.27500
C  -13.31400 32.68000 42.80500
C  -10.00700 33.22100 41.22500
O  -9.66800 32.06800 41.32800
C  -9.09200 34.20400 40.51300
C  -7.76500 34.24900 41.18600
O  -6.89400 33.47000 40.86700
O  -7.65300 35.25400 42.08100
C  -6.39400 35.25400 42.85700
H  -9.22200 41.05600 39.34500
H  -15.51000 40.88100 41.42900
H  -15.14500 35.12900 42.99200
H  -7.26600 36.55700 39.94400
H  -7.78100 39.09500 38.41800
H  -6.78000 38.24500 41.18800
H  -7.39200 39.88700 41.09800
H  -6.03500 39.44800 40.10500
H  -7.90900 37.03300 37.12000
H  -8.96200 35.79900 37.72100
H  -6.98200 34.39100 37.32300
H  -6.31200 35.12100 38.64200
H  -11.03100 43.51500 38.61400
H  -9.73400 43.20100 39.79300
H  -11.19200 44.30200 40.16600
H  -16.05400 44.14400 40.26600
H  -15.79700 42.98400 41.65300
H  -15.86200 42.35900 39.95900
H  -17.06500 38.92100 41.52600
H  -16.31300 37.21000 43.95200
H  -16.11800 40.45700 43.89400
H  -17.33800 39.28400 44.30400
H  -17.66200 40.45000 42.97300
H  -16.92700 35.95100 41.33200
H  -18.12000 36.98900 41.83100
H  -17.35400 35.34500 44.13700
H  -17.95200 34.36100 42.84000
H  -18.90400 35.80200 43.41600
H  -13.25300 31.79100 42.17800
H  -14.36400 32.93800 42.94700
H  -12.77200 32.53400 43.73900
H  -8.81000 33.91900 39.49900
H  -6.47800 35.89000 43.73800
H  -5.56300 35.62600 42.25700
H  -6.28400 34.26300 43.29800

