158

Mg 26.47200 51.17500 26.88800
C  24.20100 52.22800 29.37700
C  28.55800 50.11400 29.45200
C  28.69400 49.91700 24.63400
C  24.35100 52.19700 24.42700
N  26.33400 51.19700 29.19100
C  25.26600 51.55800 29.96200
C  25.50100 51.32500 31.46700
C  26.99300 50.74900 31.43200
C  27.37400 50.77600 29.96500
C  27.90500 51.35800 32.49300
C  24.46400 50.43000 32.24300
C  23.94200 51.01900 33.62500
H  25.02000 51.55900 34.67200
N  28.39300 50.18100 27.01800
C  29.05100 49.89000 28.18500
C  30.34000 49.31700 27.86500
C  30.42900 49.21600 26.39100
C  29.07800 49.69100 25.92300
C  31.40600 49.04500 28.89500
C  31.56700 48.73900 25.43400
O  31.58400 48.83800 24.21500
C  32.82400 48.08300 26.12600
N  26.49500 50.99700 24.76900
C  27.57300 50.48000 24.11900
C  27.27300 50.49900 22.59300
C  25.79700 51.07600 22.57800
C  25.49500 51.48300 24.00200
C  28.27900 51.49600 21.79900
C  24.65000 50.07300 22.00200
C  24.11800 50.55700 20.67600
N  24.79000 52.15700 26.86500
C  24.01300 52.55300 25.80300
C  22.79400 53.29600 26.23100
C  22.88600 53.18000 27.64600
C  24.05800 52.43100 28.00000
C  21.74500 54.04600 25.46800
C  22.28700 53.59300 28.90800
O  21.34200 54.35100 29.14900
C  23.08400 52.97800 30.09800
C  23.49200 54.04800 31.09000
O  24.17600 55.03100 30.88600
O  22.86100 53.81900 32.30500
C  23.01000 54.77800 33.41600
H  29.23500 49.71700 30.21100
H  29.27500 49.37200 23.88700
H  23.62300 52.45300 23.65400
H  25.43300 52.30900 31.93100
H  26.97600 49.66100 31.50000
H  28.72800 51.80700 31.93800
H  28.31700 50.69500 33.25300
H  27.41600 52.18100 33.01400
H  24.89600 49.44300 32.40800
H  23.59900 50.30200 31.59200
H  23.26000 50.33800 34.13400
H  23.31900 51.81900 33.22600
H  31.04300 49.42600 29.85000
H  32.36000 49.45000 28.55800
H  31.49400 47.96400 29.00800
H  33.39900 47.52800 25.38300
H  32.57600 47.43500 26.96700
H  33.59600 48.78500 26.44200
H  27.32000 49.41900 22.45000
H  25.72700 52.03100 22.05700
H  28.58000 51.00600 20.87200
H  29.07500 51.87100 22.44200
H  27.79900 52.46000 21.63300
H  23.83700 49.93400 22.71500
H  25.13400 49.09900 21.92100
H  24.50000 51.51400 20.32100
H  23.05200 50.68900 20.86300
H  24.26300 49.84400 19.86500
H  22.13200 54.14500 24.45400
H  21.45600 54.97200 25.96500
H  20.95700 53.29400 25.42700
H  22.40300 52.32600 30.64400
H  21.94200 54.97600 33.51500
H  23.56400 55.70100 33.24800
H  23.31400 54.44600 34.40900
Mg -5.23700 24.99100 25.79600
C  -3.53600 26.41800 28.49100
C  -6.49700 22.61900 27.93900
C  -6.28900 23.19200 23.10300
C  -3.12300 26.89000 23.57400
N  -4.83500 24.41000 28.02400
C  -4.25600 25.21700 28.89900
C  -4.61700 24.87500 30.34500
C  -5.39400 23.50900 30.12100
C  -5.62900 23.49600 28.59200
C  -4.54900 22.31000 30.53500
C  -5.54800 25.97200 31.02500
C  -5.47100 26.08300 32.55700
H  -4.88800 24.91700 33.41200
N  -6.35300 23.29500 25.53300
C  -6.80100 22.46900 26.57100
C  -7.71500 21.55600 26.01100
C  -7.66900 21.65900 24.59900
C  -6.72400 22.78000 24.37900
C  -8.57500 20.59700 26.84400
C  -8.33500 20.80300 23.44000
O  -8.27700 21.24300 22.33500
C  -9.27700 19.52600 23.69700
N  -4.70900 25.00200 23.61500
C  -5.38600 24.18700 22.70900
C  -4.93400 24.47400 21.25300
C  -3.98200 25.71900 21.42400
C  -3.92000 25.91500 22.94600
C  -4.29500 23.15800 20.70600
C  -4.57900 27.04800 20.78200
C  -3.60700 28.20500 20.37700
N  -3.81400 26.49600 25.93400
C  -3.02400 27.14400 25.00300
C  -2.22800 28.17100 25.69800
C  -2.44800 27.95400 27.07700
C  -3.30900 26.89100 27.16600
C  -1.41400 29.28100 25.09700
C  -1.97200 28.34800 28.41500
O  -1.15300 29.15500 28.86600
C  -2.78700 27.41300 29.45300
C  -1.76500 26.69500 30.29900
O  -0.89300 25.90400 29.95100
O  -2.04600 27.09600 31.55900
C  -0.98600 26.64000 32.51200
H  -7.08300 22.09800 28.69900
H  -6.65800 22.76900 22.16600
H  -2.59700 27.66100 23.00600
H  -3.66600 24.82600 30.87400
H  -6.37500 23.48400 30.59400
H  -5.11300 21.66400 31.20700
H  -3.60900 22.61300 30.99700
H  -4.26100 21.64200 29.72300
H  -6.58600 25.76700 30.76600
H  -5.32300 26.95600 30.61400
H  -6.39700 26.43800 33.00900
H  -4.83300 26.94800 32.73600
H  -9.58300 21.00000 26.74500
H  -8.41000 20.52000 27.91900
H  -8.61000 19.59500 26.41700
H  -9.46600 19.17500 22.68300
H  -10.25500 19.86400 24.03900
H  -8.73800 18.84400 24.35600
H  -5.83700 24.71900 20.69200
H  -3.01800 25.48600 20.97000
H  -4.26300 22.41900 21.50600
H  -3.29400 23.38800 20.34200
H  -4.89100 22.68200 19.92700
H  -5.27200 27.58000 21.43400
H  -5.18300 26.68700 19.95000
H  -4.03200 28.49100 19.41500
H  -2.59400 27.80600 20.31900
H  -3.70300 29.02500 21.08900
H  -1.57800 30.20200 25.65700
H  -1.67200 29.53300 24.06900
H  -0.34000 29.09400 25.08300
H  -3.40600 28.15500 29.95600
H  -0.36300 27.46700 32.85200
H  -0.33800 25.80800 32.23500
H  -1.51500 26.21900 33.36700

