158

Mg 46.09400 44.87000 42.56900
C  42.63200 44.03300 42.36000
C  46.92600 41.67100 41.78100
C  49.30200 45.74400 42.35000
C  45.10900 48.15800 42.65600
N  44.86300 43.09400 42.04000
C  43.49100 42.93700 42.02200
C  43.08600 41.47100 41.97000
C  44.49700 40.78100 41.76700
C  45.51900 41.93100 41.84300
C  44.75800 39.63500 42.80700
C  42.00000 41.12000 40.85900
C  42.04400 41.93000 39.52700
H  41.81800 41.19600 38.11200
N  47.86600 43.89500 42.23000
C  48.00800 42.52600 41.97300
C  49.40400 42.11800 41.90400
C  50.18300 43.34400 42.02800
C  49.13700 44.43300 42.17200
C  49.95500 40.69000 41.83000
C  51.71400 43.40300 41.96700
O  52.40500 42.39700 41.87700
C  52.39200 44.73700 42.07300
N  47.05000 46.73400 42.22700
C  48.40500 46.82600 42.41600
C  48.85000 48.30400 42.55900
C  47.39400 49.00600 42.56500
C  46.47900 47.87200 42.57800
C  49.83600 48.72900 43.73300
C  47.11900 49.97600 41.40000
C  46.97200 51.47300 41.82500
N  44.25700 45.95600 42.67800
C  44.00000 47.29100 42.70500
C  42.63700 47.60100 42.77400
C  42.00300 46.37700 42.64700
C  43.06800 45.39200 42.55500
C  41.96800 48.97600 43.17100
C  40.75500 45.65500 42.56700
O  39.59400 46.02000 42.51900
C  41.12800 44.10200 42.42100
C  40.68600 43.40800 43.64900
O  40.40300 42.24300 43.68200
O  40.71200 44.11900 44.84200
C  40.90000 43.38200 46.15700
H  47.19100 40.63300 41.57100
H  50.31900 46.13200 42.43900
H  44.81800 49.19000 42.85800
H  42.76400 41.33800 43.00300
H  44.61800 40.34400 40.77600
H  45.51300 39.92300 43.53900
H  45.06300 38.77800 42.20600
H  43.87300 39.36700 43.38400
H  41.00600 41.13600 41.30700
H  42.31200 40.08600 40.71100
H  43.01400 42.42300 39.46500
H  41.31500 42.73400 39.42500
H  50.70900 40.67600 41.04300
H  49.19200 39.94600 41.60200
H  50.47400 40.50200 42.77000
H  51.98300 45.34300 41.26400
H  53.47300 44.68500 41.94100
H  52.13000 45.13100 43.05500
H  49.34600 48.74200 41.69300
H  47.28900 49.48100 43.54000
H  49.29000 49.37900 44.41600
H  50.72600 49.17800 43.29200
H  50.20900 47.77600 44.10800
H  46.23000 49.62700 40.87500
H  47.95100 50.01000 40.69700
H  47.63500 52.06100 41.19100
H  47.38700 51.56800 42.82800
H  45.96900 51.88300 41.70200
H  41.30300 48.82400 44.02200
H  41.33700 49.31700 42.35100
H  42.68200 49.77200 43.38500
H  40.64900 43.67400 41.54000
H  40.67200 44.04100 46.99500
H  41.98200 43.25300 46.13300
H  40.27800 42.48700 46.17900
Mg -1.59900 34.46900 26.99800
C  -2.70200 32.63700 29.84400
C  0.09500 36.55900 28.96600
C  -0.99900 36.27200 24.20300
C  -3.38800 32.14000 24.93800
N  -1.36900 34.61500 29.17800
C  -1.90600 33.75400 30.16800
C  -1.36300 34.18100 31.55200
C  -0.62900 35.51100 31.22800
C  -0.58000 35.56000 29.68500
C  -1.15400 36.84100 31.92500
C  -0.61700 33.06400 32.35500
C  0.13800 33.43300 33.65900
H  -0.02000 32.73800 35.00500
N  -0.62300 36.24000 26.66600
C  0.18600 36.89400 27.62500
C  0.74000 38.02500 27.07300
C  0.39000 38.01200 25.62600
C  -0.51800 36.87600 25.43900
C  1.65300 38.96500 27.82800
C  0.75600 39.01700 24.46600
O  0.20800 38.98000 23.37600
C  1.68800 40.19700 24.77300
N  -2.25500 34.31800 24.87100
C  -1.71200 35.13700 23.96200
C  -2.19000 34.84400 22.51100
C  -2.73300 33.37200 22.68300
C  -2.86200 33.21600 24.23600
C  -3.30600 35.82200 21.95400
C  -1.86600 32.23800 22.08500
C  -0.36000 32.08800 22.46400
N  -2.75300 32.76500 27.27200
C  -3.36200 31.91700 26.30400
C  -4.15000 30.94000 26.99900
C  -3.82400 31.11000 28.34900
C  -3.06800 32.30900 28.49800
C  -4.94300 29.85900 26.40800
C  -4.10000 30.60100 29.67000
O  -4.79700 29.70400 30.05900
C  -3.24700 31.48600 30.70800
C  -4.33600 31.90200 31.74000
O  -5.21500 32.66300 31.49600
O  -4.08900 31.32200 33.03600
C  -5.11700 31.56100 34.04300
H  0.72400 37.12800 29.65300
H  -0.74600 36.90000 23.34600
H  -3.88600 31.38600 24.32500
H  -2.31100 34.28700 32.07900
H  0.37400 35.40600 31.64200
H  -1.35700 37.61900 31.19000
H  -0.40400 37.10000 32.67300
H  -2.06300 36.69600 32.50900
H  0.14900 32.65400 31.69700
H  -1.41000 32.33400 32.51600
H  0.01300 34.49900 33.84700
H  1.18600 33.31200 33.38500
H  2.01900 38.68000 28.81400
H  0.95900 39.77400 28.05800
H  2.42800 39.15300 27.08600
H  2.65200 39.68800 24.80100
H  1.30800 40.54100 25.73500
H  1.46600 40.83000 23.91400
H  -1.30400 34.81800 21.87700
H  -3.71700 33.35300 22.21400
H  -3.99000 36.15400 22.73500
H  -3.81000 35.36100 21.10400
H  -2.84800 36.69200 21.48300
H  -1.93700 32.09200 21.00700
H  -2.25800 31.35100 22.58300
H  -0.32300 31.24100 23.14800
H  0.13500 32.91000 22.98100
H  0.19600 31.97600 21.53300
H  -4.80800 29.91700 25.32800
H  -5.99800 29.86100 26.68000
H  -4.54500 28.86200 26.59400
H  -2.46600 30.84700 31.12000
H  -5.45700 30.62300 34.48200
H  -5.90400 32.23100 33.69700
H  -4.62800 32.10800 34.85000

