158

Mg 9.56200 48.01900 24.86500
C  7.55800 47.93500 27.68300
C  12.18800 49.18600 26.74600
C  11.47500 47.76600 22.08000
C  6.77700 47.13800 23.02700
N  9.84000 48.42700 26.95600
C  8.88000 48.32900 27.90700
C  9.39900 48.85000 29.19500
C  10.74100 49.58400 28.78600
C  11.00200 48.98800 27.38600
C  10.57300 51.12500 28.88300
C  9.71500 47.77600 30.27900
C  9.06500 47.94700 31.64000
H  9.05700 46.88600 32.65300
N  11.54200 48.33000 24.49400
C  12.51500 48.77200 25.41100
C  13.82900 48.73200 24.82600
C  13.59000 48.33800 23.41000
C  12.19900 48.13200 23.26400
C  15.08000 48.99900 25.62200
C  14.56200 48.42500 22.32500
O  14.28900 48.05000 21.17200
C  15.90300 48.95200 22.58700
N  9.17700 47.68400 22.86600
C  10.11500 47.51400 21.88100
C  9.50700 47.18700 20.51100
C  8.00400 47.15100 20.83800
C  7.95800 47.34700 22.31200
C  9.93600 48.15100 19.40500
C  7.38800 45.81800 20.32300
C  7.84900 44.54700 20.95200
N  7.49300 47.68400 25.17200
C  6.46000 47.33600 24.36100
C  5.24600 47.11100 25.10200
C  5.61700 47.32400 26.41000
C  6.98300 47.66000 26.40000
C  3.91500 46.64000 24.50100
C  5.20600 47.35300 27.80600
O  4.12000 47.07200 28.21400
C  6.45400 47.70000 28.68700
C  6.70800 46.57800 29.60300
O  7.48900 45.66800 29.37100
O  5.95000 46.75800 30.75600
C  6.02100 45.72800 31.83100
H  12.98200 49.72300 27.26700
H  11.96300 47.64400 21.11000
H  5.85800 46.83100 22.52300
H  8.63300 49.58600 29.43900
H  11.62100 49.40200 29.40300
H  10.82200 51.72600 28.00800
H  11.27000 51.37100 29.68400
H  9.56800 51.37100 29.22500
H  10.77800 47.85200 30.51100
H  9.61100 46.75800 29.90400
H  8.05500 48.34800 31.55800
H  9.65300 48.70100 32.16400
H  14.92600 48.85900 26.69200
H  15.47700 50.01000 25.53800
H  15.92200 48.31800 25.49800
H  16.46300 49.00500 21.65300
H  16.48500 48.20900 23.13200
H  15.82900 49.92800 23.06800
H  9.82100 46.21400 20.13000
H  7.55600 48.02900 20.37400
H  10.57400 48.95600 19.77000
H  9.09500 48.58800 18.86600
H  10.43900 47.62300 18.59500
H  7.65700 45.80900 19.26700
H  6.30100 45.89700 20.34400
H  8.85700 44.71500 21.33300
H  7.87900 43.78500 20.17400
H  7.15400 44.23700 21.73200
H  3.49400 47.17400 23.64900
H  3.20000 46.67500 25.32300
H  4.05000 45.63500 24.10200
H  6.39500 48.54600 29.37200
H  6.72400 44.90700 31.68700
H  5.05900 45.22400 31.92200
H  6.19100 46.40200 32.67100
Mg -11.68100 38.99300 41.89400
C  -9.55400 36.28800 41.02900
C  -9.76700 41.01900 39.96600
C  -14.07200 41.33400 42.19500
C  -13.91100 36.54600 43.19200
N  -9.93400 38.67100 40.59200
C  -9.20500 37.58100 40.43900
C  -7.90800 37.80100 39.62200
C  -7.93600 39.38900 39.31900
C  -9.30400 39.72400 40.00700
C  -6.65700 40.04500 39.90400
C  -7.92100 36.91400 38.27900
C  -6.82900 35.88400 38.28300
H  -5.68300 36.05700 37.32200
N  -11.81400 40.97300 41.38300
C  -10.91800 41.62300 40.60900
C  -11.28600 43.05000 40.58300
C  -12.47200 43.16500 41.30300
C  -12.84000 41.80200 41.65000
C  -10.39300 44.14700 39.98800
C  -13.28300 44.40300 41.68200
O  -12.93400 45.51100 41.35100
C  -14.59800 44.27000 42.59900
N  -13.61800 39.00000 42.65700
C  -14.44100 40.11400 42.63900
C  -15.91600 39.74800 42.96000
C  -15.79500 38.22700 43.39400
C  -14.37500 37.88000 43.07700
C  -16.53800 40.60000 44.05700
C  -16.85700 37.22700 42.73500
C  -18.06900 36.91800 43.69200
N  -11.65700 36.79400 42.21000
C  -12.66500 36.02200 42.76400
C  -12.16000 34.62500 42.73900
C  -10.91900 34.68900 42.17000
C  -10.72800 36.03000 41.74400
C  -12.83100 33.40200 43.24900
C  -9.79300 33.95100 41.79400
O  -9.47400 32.79400 41.98200
C  -8.95100 34.90200 40.88200
C  -7.56800 34.72600 41.53800
O  -6.79800 33.76200 41.39200
O  -7.21900 35.91200 42.09200
C  -5.95000 35.90700 42.77800
H  -9.15700 41.57800 39.25400
H  -14.94900 41.98500 42.20900
H  -14.66300 35.92600 43.68400
H  -7.07000 37.52900 40.26400
H  -7.99200 39.81800 38.31900
H  -5.87900 39.87900 39.15900
H  -6.45500 39.53800 40.84700
H  -6.86400 41.10000 40.08400
H  -7.70200 37.73100 37.59200
H  -8.83700 36.45100 37.91300
H  -7.32500 34.91900 38.17200
H  -6.39700 35.83900 39.28300
H  -10.86300 44.93300 39.39700
H  -9.75200 43.67100 39.24600
H  -9.73300 44.60000 40.72700
H  -14.86000 45.22200 43.06000
H  -14.44100 43.64100 43.47600
H  -15.46900 43.89200 42.06400
H  -16.54500 39.73500 42.06900
H  -15.88500 38.26600 44.48000
H  -16.95600 39.96900 44.84100
H  -17.29000 41.19300 43.53600
H  -15.92200 41.37300 44.51600
H  -16.33300 36.31500 42.45000
H  -17.37100 37.49300 41.81100
H  -18.19400 37.70700 44.43400
H  -17.85300 35.95800 44.16000
H  -19.02300 36.89600 43.16400
H  -12.59300 32.53300 42.63500
H  -13.91400 33.49900 43.16700
H  -12.41500 33.18500 44.23300
H  -9.02700 34.54200 39.85600
H  -6.12000 36.74000 43.45900
H  -5.10900 36.08000 42.10600
H  -5.78400 34.95600 43.28500

