158

Mg 2.41600 -1.01500 44.42000
C  5.64500 -0.09200 43.37500
C  1.17300 1.61900 42.65500
C  -0.68500 -2.34400 44.68400
C  3.89000 -3.87000 45.80700
N  3.34100 0.57500 43.26800
C  4.65200 0.76900 42.92500
C  4.81100 2.05300 42.14900
C  3.48500 2.78800 42.33700
C  2.56300 1.50800 42.69500
C  3.51500 3.90600 43.36800
C  5.10700 1.81700 40.59600
C  6.51100 2.16500 40.10100
H  6.58600 2.89000 38.74000
N  0.46400 -0.42000 43.76800
C  0.18700 0.79200 43.16800
C  -1.29400 0.95200 43.12700
C  -1.85700 -0.22600 43.72800
C  -0.68100 -1.03600 44.08900
C  -1.91200 2.11500 42.49000
C  -3.33100 -0.52600 43.82900
O  -4.18600 0.25000 43.40800
C  -3.90000 -1.72500 44.53900
N  1.72900 -2.85900 45.24600
C  0.43200 -3.15800 45.19100
C  0.21200 -4.53000 45.81700
C  1.60100 -4.98700 46.33600
C  2.48000 -3.87100 45.76500
C  -1.00900 -4.71000 46.77700
C  2.04900 -6.50900 46.10200
C  2.50400 -7.42100 47.24300
N  4.29700 -1.85300 44.59300
C  4.73800 -2.93800 45.29200
C  6.17300 -2.97300 45.35700
C  6.57100 -1.89000 44.57400
C  5.42300 -1.26800 44.07400
C  7.07900 -4.03900 45.98700
C  7.68900 -1.24200 44.07800
O  8.89100 -1.51300 44.14800
C  7.14500 0.04800 43.36600
C  7.63700 1.31700 43.96000
O  7.45600 1.69800 45.11700
O  8.45500 1.89300 43.10400
C  9.24500 3.05500 43.58600
H  0.73900 2.55400 42.29500
H  -1.64800 -2.84700 44.79000
H  4.37000 -4.78300 46.16500
H  5.54500 2.70400 42.62400
H  2.99600 3.28700 41.49900
H  4.51200 4.31200 43.54000
H  3.19800 3.47500 44.31800
H  2.99900 4.78000 42.97300
H  4.35100 2.36200 40.03100
H  5.01300 0.74900 40.39900
H  7.10400 1.25500 40.00800
H  7.06700 2.76200 40.82400
H  -2.34400 2.86200 43.15500
H  -2.74100 1.76900 41.87200
H  -1.18700 2.74900 41.98000
H  -3.63000 -2.58200 43.92100
H  -4.97700 -1.67300 44.70100
H  -3.52000 -1.74900 45.56100
H  -0.00200 -5.20800 44.99200
H  1.66900 -4.82600 47.41200
H  -1.69900 -3.86600 46.79500
H  -0.68800 -4.81100 47.81300
H  -1.62300 -5.53800 46.42100
H  2.94600 -6.44100 45.48700
H  1.13700 -6.85000 45.61200
H  2.66200 -6.91400 48.19400
H  3.46200 -7.90000 47.04100
H  1.80800 -8.25900 47.23100
H  6.43800 -4.51200 46.73100
H  7.89300 -3.51100 46.48300
H  7.57100 -4.62000 45.20700
H  7.59700 -0.05900 42.38000
H  8.60100 3.93400 43.56700
H  10.10900 3.10500 42.92300
H  9.54400 2.97100 44.63100
Mg 40.71800 7.36100 29.80600
C  42.66600 8.81900 32.70000
C  38.50600 6.38200 32.11400
C  39.37600 5.70100 27.33900
C  43.42800 8.12900 27.76900
N  40.69700 7.55200 32.22900
C  41.41000 8.29300 33.10500
C  40.80900 8.33600 34.42500
C  39.52100 7.46400 34.21000
C  39.57800 7.05800 32.75100
C  39.29800 6.25700 35.09400
C  40.54300 9.85000 34.75400
C  39.66300 10.14700 36.05300
H  40.17900 11.12500 37.06900
N  39.11400 6.21400 29.75500
C  38.29800 5.93300 30.82000
C  37.09600 5.25000 30.20000
C  37.22300 5.33800 28.77700
C  38.62500 5.78100 28.56300
C  35.90100 4.85700 31.01100
C  36.34000 5.01700 27.71700
O  36.56400 5.12100 26.52900
C  34.92600 4.48300 28.08200
N  41.47100 6.82100 27.84700
C  40.63000 6.20700 26.96400
C  41.07400 6.29300 25.53000
C  42.21700 7.39700 25.69000
C  42.44400 7.36800 27.17100
C  41.46900 4.89200 25.06900
C  41.86300 8.80100 25.02600
C  42.88500 9.31500 24.09400
N  42.66700 8.24800 30.15000
C  43.55500 8.55500 29.18900
C  44.59100 9.27300 29.67600
C  44.35500 9.32800 31.09500
C  43.13800 8.72300 31.29800
C  45.68900 9.92300 28.83600
C  44.89600 9.89000 32.34500
O  45.94800 10.51700 32.48900
C  43.84800 9.56500 33.44800
C  44.31800 8.73100 34.53300
O  45.03100 7.78400 34.47100
O  43.88200 9.27500 35.71200
C  44.03600 8.49000 36.97300
H  37.61000 6.33700 32.73700
H  38.91200 5.19200 26.49100
H  44.18900 8.61200 27.15300
H  41.57600 7.98100 35.11400
H  38.70100 8.14300 34.44100
H  39.17200 5.26900 34.65100
H  38.35800 6.46900 35.60300
H  39.98900 6.20200 35.93600
H  40.11500 10.40100 33.91700
H  41.46800 10.42400 34.80100
H  39.32100 9.20700 36.48600
H  38.83800 10.73700 35.65300
H  35.63900 3.80900 30.86700
H  34.99900 5.39200 30.71500
H  36.04100 5.24600 32.02000
H  34.99000 3.58700 28.69900
H  34.36800 4.20500 27.18800
H  34.47800 5.36000 28.55100
H  40.28500 6.69400 24.89300
H  43.12300 7.00600 25.22900
H  40.82600 4.21300 25.62900
H  42.49800 4.70500 25.37500
H  41.25300 4.72200 24.01400
H  41.79400 9.55600 25.81000
H  40.93800 8.75900 24.45100
H  43.62700 8.52700 23.96600
H  43.34100 10.19200 24.55400
H  42.65700 9.52200 23.04900
H  45.31000 10.35900 27.91100
H  46.37000 9.08600 28.68500
H  46.07800 10.77900 29.38800
H  43.50000 10.51100 33.86200
H  43.66400 9.09800 37.79700
H  45.11900 8.38300 37.04100
H  43.57500 7.50200 36.96300

