158

Mg 36.31900 48.71300 26.44400
C  36.09400 46.85700 29.30100
C  35.63700 51.57600 28.21400
C  36.16500 50.43700 23.51500
C  36.69600 45.67600 24.53600
N  35.89000 49.12300 28.48800
C  35.92300 48.22300 29.53600
C  35.94700 48.90400 30.87800
C  35.35700 50.38800 30.48300
C  35.59700 50.40500 28.94900
C  33.81600 50.62400 30.82700
C  37.36400 48.83800 31.59900
C  37.47200 48.88900 33.18900
H  36.13400 48.92000 33.96700
N  35.80400 50.76900 25.93900
C  35.73700 51.79000 26.81500
C  35.76900 53.02900 26.09200
C  35.92800 52.68700 24.73200
C  35.95600 51.28400 24.63800
C  35.60500 54.40600 26.76100
C  36.00100 53.58300 23.51600
O  36.06000 53.14200 22.34400
C  36.05300 55.13000 23.79900
N  36.23500 48.07200 24.33400
C  36.27100 49.06600 23.37900
C  36.58300 48.41100 21.92900
C  36.99900 46.98400 22.26500
C  36.63400 46.90900 23.80500
C  35.40000 48.60400 20.93300
C  38.51700 46.66400 21.97900
C  38.87800 46.10200 20.60700
N  36.56600 46.72200 26.79600
C  36.63300 45.56000 25.96200
C  36.68700 44.35400 26.80600
C  36.54500 44.83200 28.10900
C  36.39600 46.25400 28.04800
C  36.82300 42.95200 26.32400
C  36.39900 44.42500 29.51400
O  36.48000 43.32400 30.06900
C  36.09000 45.66800 30.37900
C  34.82000 45.42600 31.05800
O  33.74100 45.55000 30.45400
O  34.94800 45.06100 32.38700
C  33.68700 44.70600 33.10500
H  35.39200 52.44500 28.82800
H  36.39900 50.91400 22.56100
H  36.77900 44.74100 23.97800
H  35.22000 48.31500 31.43800
H  36.00000 51.07800 31.02900
H  33.26800 50.93200 29.93600
H  33.57800 51.47000 31.47200
H  33.38800 49.74100 31.30100
H  37.97300 49.68500 31.28200
H  37.86600 47.96900 31.17300
H  38.07500 49.72900 33.53700
H  37.98900 47.96700 33.45600
H  36.60800 54.83100 26.73600
H  35.29900 54.47100 27.80600
H  34.92300 54.89400 26.06400
H  35.08000 55.57300 24.01200
H  36.38100 55.57300 22.85800
H  36.84800 55.39900 24.49500
H  37.44400 48.95400 21.54000
H  36.33900 46.23400 21.83000
H  35.81200 48.82300 19.94800
H  34.79300 49.48400 21.14500
H  34.79500 47.69800 20.89600
H  38.79600 45.95100 22.75500
H  39.09500 47.58100 22.09100
H  39.51400 46.79500 20.05600
H  38.01700 45.66900 20.09700
H  39.59000 45.29400 20.77200
H  36.44200 42.80100 25.31300
H  36.34800 42.39100 27.12900
H  37.88800 42.73400 26.39400
H  36.84500 45.89700 31.13000
H  33.56700 43.64000 33.29500
H  32.85900 45.05600 32.49000
H  33.74100 45.27000 34.03600
Mg 26.09700 50.27600 27.03600
C  23.92800 51.68500 29.43500
C  28.29400 49.44700 29.65100
C  28.20900 49.13800 24.73100
C  23.92500 51.45400 24.58100
N  26.11500 50.57200 29.29800
C  25.08300 51.11000 30.00900
C  25.31000 50.76300 31.52500
C  26.76800 50.30500 31.59900
C  27.07500 50.11100 30.10000
C  27.83000 51.25900 32.30700
C  24.29000 49.64400 32.05900
C  23.70100 49.86600 33.46800
H  24.62500 50.55700 34.53400
N  28.01900 49.39100 27.13900
C  28.75000 49.15200 28.30900
C  30.04800 48.49500 27.94400
C  29.97500 48.29300 26.51900
C  28.70200 48.95600 26.06500
C  31.14200 48.08500 29.02200
C  30.89000 47.50300 25.61400
O  30.62500 47.30200 24.46400
C  32.27800 46.96000 26.13600
N  26.05400 50.23000 24.94000
C  27.00300 49.65000 24.24500
C  26.71400 49.80500 22.69300
C  25.22000 50.29800 22.66500
C  25.04800 50.72500 24.11600
C  27.81100 50.62000 21.93900
C  24.03400 49.28300 22.38200
C  22.98500 49.84200 21.45600
N  24.30900 51.46700 26.98700
C  23.59900 51.87100 25.88700
C  22.39700 52.50100 26.30800
C  22.49100 52.48000 27.75700
C  23.68200 51.83800 28.06600
C  21.31800 53.11300 25.39700
C  21.78800 52.82800 29.00900
O  20.65500 53.31600 29.21400
C  22.72500 52.22100 30.14900
C  23.03700 53.26600 31.16900
O  23.68400 54.22500 30.88000
O  22.46400 53.08900 32.36300
C  22.71500 54.00700 33.43300
H  29.02000 49.12700 30.40200
H  28.95100 48.94100 23.95500
H  23.33000 51.66900 23.69100
H  25.24900 51.67500 32.12000
H  26.78900 49.30800 32.03900
H  28.45100 51.69300 31.52300
H  28.35700 50.72000 33.09400
H  27.29400 52.04200 32.84400
H  24.62200 48.61200 32.17100
H  23.45900 49.62900 31.35500
H  23.44200 48.90000 33.90000
H  22.78400 50.45500 33.44000
H  31.33500 47.03100 28.82300
H  30.80100 48.00300 30.05500
H  31.99700 48.73000 28.81900
H  32.97400 46.53200 25.41500
H  32.04300 46.04000 26.67200
H  32.81600 47.59600 26.83800
H  26.75400 48.79100 22.29600
H  25.05000 51.21600 22.10200
H  27.35600 51.54900 21.59400
H  28.21000 50.03400 21.11100
H  28.59500 50.91800 22.63500
H  23.61100 48.90000 23.31100
H  24.47500 48.42000 21.88300
H  21.96700 49.53000 21.68900
H  23.13100 49.46300 20.44400
H  22.97800 50.93200 21.43200
H  20.50100 52.49600 25.77200
H  21.50300 52.83500 24.36000
H  21.14700 54.17000 25.60100
H  22.33400 51.36700 30.70100
H  22.69900 55.03700 33.07600
H  23.73700 53.99900 33.81200
H  21.90300 53.86800 34.14700

