158

Mg 40.15200 8.90300 29.04600
C  42.05900 9.90500 31.79100
C  38.29900 6.89700 31.20400
C  38.18200 8.00600 26.40200
C  42.49800 10.30900 26.89500
N  40.23600 8.37800 31.33300
C  40.91700 9.14400 32.22900
C  40.47200 8.85400 33.66000
C  39.42100 7.61400 33.41400
C  39.27200 7.59900 31.89100
C  39.92600 6.19700 34.06500
C  39.83200 10.03800 34.37800
C  39.31000 9.80900 35.82100
H  39.79300 10.82400 36.81000
N  38.36400 7.76600 28.84100
C  37.82500 7.01700 29.83800
C  36.60800 6.33600 29.30700
C  36.65700 6.64500 27.88100
C  37.73700 7.56300 27.65300
C  35.67000 5.48700 30.11600
C  35.80200 5.99000 26.79300
O  35.93600 6.18600 25.58800
C  34.93600 4.86600 27.20000
N  40.28000 9.00600 26.97000
C  39.36900 8.67100 26.10000
C  39.68600 9.14000 24.68300
C  40.95900 10.04700 24.83200
C  41.25900 9.80800 26.29700
C  39.67600 7.94600 23.57600
C  40.85400 11.58200 24.48200
C  39.59400 12.32700 24.83600
N  41.99700 9.70300 29.22500
C  42.83700 10.20100 28.22200
C  43.98900 10.79100 28.85800
C  43.64800 10.79600 30.23400
C  42.49300 10.10400 30.44400
C  45.23300 11.40500 28.26900
C  44.15400 11.23800 31.51500
O  45.15700 11.83900 31.81500
C  43.08500 10.70700 32.54300
C  43.72700 9.92200 33.60400
O  44.18700 8.81000 33.42800
O  43.62100 10.51000 34.84600
C  44.14700 9.77100 36.01500
H  37.57600 6.32300 31.78800
H  37.60700 7.72900 25.51500
H  43.15100 10.96800 26.31800
H  41.35300 8.50900 34.20200
H  38.42300 7.86700 33.77100
H  40.76900 6.30700 34.74700
H  40.06700 5.45100 33.28300
H  39.11500 5.87100 34.71600
H  38.93900 10.28900 33.80600
H  40.57600 10.83400 34.36300
H  39.66500 8.82500 36.12900
H  38.22700 9.73700 35.72200
H  34.63200 5.80600 30.02900
H  35.89100 5.71400 31.15900
H  35.97000 4.46200 29.89900
H  35.65300 4.15500 27.61100
H  34.54800 4.40000 26.29400
H  34.12700 5.11400 27.88600
H  38.92600 9.88100 24.43600
H  41.74300 9.74100 24.14000
H  38.82000 8.00100 22.90300
H  39.74000 6.92200 23.94500
H  40.52700 8.23200 22.95800
H  41.13600 11.69500 23.43500
H  41.59500 12.22900 24.95000
H  39.04000 12.67300 23.96200
H  39.81300 13.27900 25.32000
H  38.94900 11.69200 25.44400
H  46.08100 11.46300 28.95100
H  44.96500 12.38500 27.87400
H  45.48600 10.88100 27.34800
H  42.68900 11.58100 33.05900
H  44.92900 10.42700 36.39800
H  44.55000 8.77700 35.81900
H  43.50600 9.77400 36.89600
Mg 41.94200 41.26500 26.19000
C  41.05800 43.72600 28.57000
C  42.38400 39.02900 28.69500
C  43.11200 39.02800 23.91100
C  41.57900 43.57500 23.78600
N  41.78600 41.40800 28.37900
C  41.29100 42.45200 29.13900
C  41.31900 42.18000 30.71900
C  41.79300 40.65600 30.63700
C  42.04800 40.33200 29.15100
C  43.11900 40.38200 31.41000
C  39.94200 42.49200 31.43900
C  39.65700 41.73000 32.71800
H  39.15000 42.55700 33.97500
N  42.61900 39.26200 26.31400
C  42.66400 38.54500 27.43300
C  43.14700 37.16700 27.05200
C  43.38900 37.18900 25.66300
C  42.94000 38.51100 25.21700
C  43.49500 36.04200 28.06700
C  44.02900 36.13100 24.86500
O  44.28300 36.31400 23.69100
C  44.13000 34.70400 25.42900
N  42.39900 41.34100 24.22000
C  42.84100 40.30900 23.40600
C  42.82000 40.65900 21.91800
C  42.24200 42.15100 21.84300
C  42.05400 42.36700 23.36700
C  44.13800 40.61200 21.05500
C  40.91100 42.20400 21.11600
C  39.63000 41.79400 21.82900
N  41.55900 43.31500 26.16400
C  41.35700 44.10800 25.12000
C  40.85400 45.44500 25.52200
C  40.73300 45.28000 26.93600
C  41.20400 44.02200 27.22800
C  40.52000 46.62800 24.63200
C  40.29200 45.98300 28.10100
O  39.81500 47.09700 28.25700
C  40.52700 44.98800 29.24500
C  41.50700 45.68600 30.08000
O  42.61800 46.05500 29.84000
O  41.07500 45.90800 31.37500
C  42.07100 46.27400 32.38300
H  42.23200 38.33600 29.52500
H  43.42800 38.37000 23.09900
H  41.35700 44.25500 22.96000
H  42.07400 42.79500 31.20800
H  41.04400 39.99300 31.07100
H  43.78400 41.20300 31.13900
H  43.58900 39.43500 31.14700
H  43.01300 40.46500 32.49200
H  39.18400 42.42900 30.65800
H  39.95200 43.55900 31.66100
H  40.53100 41.22000 33.12200
H  38.88600 40.97100 32.58900
H  44.52400 35.72600 27.89700
H  42.74200 35.25500 28.05400
H  43.44500 36.51000 29.05000
H  44.99700 34.51400 26.06200
H  44.09900 34.01700 24.58300
H  43.15800 34.44300 25.84700
H  42.14100 40.01600 21.35900
H  43.00400 42.74600 21.33900
H  44.09000 41.26200 20.18100
H  44.35600 39.64700 20.59800
H  44.97800 40.82300 21.71800
H  41.07700 41.63200 20.20300
H  40.82600 43.22800 20.75200
H  39.31400 42.55800 22.53900
H  39.84300 40.88000 22.38300
H  39.01800 41.57900 20.95300
H  40.45000 46.32200 23.58800
H  41.26300 47.40300 24.82300
H  39.55800 46.98800 24.99800
H  39.59500 44.80500 29.78000
H  43.05000 45.83000 32.19800
H  41.69400 45.82900 33.30400
H  42.29200 47.33900 32.45900

