158

Mg 30.40500 58.08100 40.27900
C  28.11800 56.25400 38.35300
C  32.89100 56.03700 39.06900
C  32.66100 60.38600 41.27900
C  27.87600 60.55300 40.78000
N  30.49900 56.52600 38.75100
C  29.43000 55.79700 38.23600
C  29.87300 54.47900 37.35100
C  31.35700 54.37400 37.88100
C  31.62200 55.77300 38.56100
C  31.68700 53.06300 38.71000
C  29.79100 54.65500 35.79100
C  28.76800 53.72600 35.16900
H  27.70800 54.45600 34.36800
N  32.52600 58.09100 40.28500
C  33.36600 57.12400 39.78700
C  34.77100 57.50400 40.04500
C  34.70500 58.80500 40.70900
C  33.25000 59.15200 40.79200
C  35.96100 56.69400 39.53600
C  35.88600 59.56200 41.25000
O  37.01500 58.99300 41.19500
C  35.83100 60.93000 41.88800
N  30.26400 60.18600 40.96100
C  31.33300 60.86800 41.25700
C  31.02300 62.35100 41.59000
C  29.45200 62.31400 41.64300
C  29.17000 60.95700 41.10100
C  31.76400 62.93200 42.82800
C  28.67900 63.43500 40.82300
C  27.51400 64.10600 41.47100
N  28.34600 58.31500 39.89800
C  27.41500 59.33500 40.23200
C  26.13300 59.00900 39.63300
C  26.29300 57.75100 39.03400
C  27.68300 57.46500 39.09500
C  24.99300 59.85900 39.75400
C  25.62300 56.65200 38.27200
O  24.46500 56.59700 37.92300
C  26.77800 55.66000 37.88300
C  26.46800 54.38500 38.47800
O  26.65800 54.01900 39.61600
O  25.76000 53.62600 37.56500
C  25.09400 52.40900 38.01300
H  33.67500 55.29700 38.89400
H  33.30000 61.23100 41.54300
H  27.11600 61.31500 40.96600
H  29.25800 53.67100 37.74700
H  31.96800 54.25100 36.98700
H  32.30300 52.36600 38.14100
H  30.80800 52.51000 39.04200
H  32.16500 53.43200 39.61700
H  30.76100 54.40900 35.35900
H  29.66400 55.71400 35.56300
H  28.32400 53.04300 35.89300
H  29.30500 52.94500 34.63100
H  36.33000 56.16000 40.41200
H  36.61200 57.38300 38.99900
H  35.68200 55.93500 38.80600
H  35.76100 61.72800 41.14900
H  36.74500 60.99000 42.47900
H  35.03400 60.88300 42.63100
H  31.30900 62.88700 40.68600
H  29.07600 62.33100 42.66600
H  30.99700 62.99600 43.60000
H  32.02800 63.93900 42.50200
H  32.65400 62.43800 43.21700
H  28.46700 62.98400 39.85300
H  29.44300 64.20500 40.71800
H  27.33200 63.82200 42.50800
H  26.55100 63.82300 41.04600
H  27.61300 65.19100 41.50400
H  25.42000 60.83600 39.97900
H  24.34200 59.45900 40.53100
H  24.54200 60.04700 38.77900
H  26.92500 55.48400 36.81800
H  25.81900 51.84000 38.59500
H  24.76200 51.81800 37.15900
H  24.20000 52.61100 38.60300
Mg 16.63400 52.92500 26.24100
C  18.86600 51.00800 28.31400
C  14.76100 53.48500 29.20200
C  14.59800 54.72500 24.38300
C  18.65000 52.17700 23.61700
N  16.84500 52.32000 28.46100
C  17.82100 51.61800 29.06000
C  17.58000 51.45200 30.56200
C  16.01500 51.72300 30.65500
C  15.76000 52.51500 29.35600
C  15.04700 50.55000 30.95900
C  18.41100 52.52100 31.28600
C  18.61900 52.37700 32.81800
H  17.64000 51.56400 33.76000
N  14.95300 53.91700 26.67100
C  14.42200 54.15300 27.96600
C  13.30800 55.07600 27.75900
C  13.25500 55.49900 26.41100
C  14.28600 54.72300 25.77900
C  12.43800 55.44100 28.97500
C  12.37000 56.60800 25.78000
O  12.48900 56.95700 24.59600
C  11.34700 57.22600 26.64400
N  16.57200 53.26600 24.28100
C  15.60200 54.04600 23.68200
C  15.80100 54.08600 22.12500
C  17.23000 53.47200 21.96900
C  17.47900 52.93000 23.36100
C  14.68600 53.31600 21.33500
C  18.39000 54.42800 21.58700
C  19.37100 54.00400 20.45600
N  18.36600 51.80100 25.92400
C  19.00900 51.55000 24.78200
C  20.21700 50.73600 25.08600
C  20.23400 50.54300 26.43800
C  19.05000 51.13700 26.94200
C  21.32500 50.33100 24.11100
C  20.90500 49.81900 27.57100
O  21.99600 49.17600 27.65400
C  20.11200 50.30900 28.85700
C  19.92100 49.20700 29.85500
O  19.08000 48.31400 29.73100
O  20.67100 49.43200 30.91200
C  20.25900 48.60000 32.06200
H  14.19700 53.54400 30.13500
H  13.89400 55.27500 23.75400
H  19.24000 51.87900 22.74800
H  17.83200 50.46100 30.94000
H  15.85500 52.40700 31.48900
H  14.35100 50.77200 31.76800
H  15.56700 49.59300 30.99500
H  14.42200 50.43700 30.07400
H  18.05700 53.54400 31.16500
H  19.40100 52.49900 30.83000
H  18.65300 53.39200 33.21500
H  19.64900 52.04100 32.94100
H  12.64600 56.48700 29.20100
H  12.71400 54.98900 29.92800
H  11.39300 55.34400 28.68000
H  10.76400 57.71400 25.86300
H  11.82600 57.97100 27.27900
H  10.75000 56.55900 27.26700
H  15.77500 55.15100 21.89700
H  17.28500 52.59100 21.32900
H  13.84200 53.30500 22.02500
H  14.95900 52.32500 20.97200
H  14.46200 53.88600 20.43300
H  18.94900 54.84000 22.42700
H  17.87500 55.29800 21.18000
H  19.21200 54.60100 19.55800
H  19.41500 52.94100 20.21900
H  20.41100 54.17900 20.73100
H  20.86600 49.64100 23.40300
H  21.98100 49.70400 24.71600
H  21.77900 51.11500 23.50600
H  20.65200 51.01300 29.49100
H  20.41200 49.29600 32.88700
H  20.86500 47.69500 32.11000
H  19.19500 48.42800 32.22200

