158

Mg 24.83300 1.43500 29.54700
C  26.84900 0.97200 32.38200
C  22.08600 1.13500 31.58500
C  22.78400 1.50300 26.84200
C  27.63400 1.28900 27.57800
N  24.51000 0.81700 31.74900
C  25.47200 0.89900 32.73900
C  24.83400 0.95000 34.08100
C  23.30600 0.59300 33.80800
C  23.23200 0.97100 32.26800
C  22.90700 -0.84100 34.10400
C  25.04600 2.27300 34.85400
C  25.66300 2.04900 36.21800
H  25.68900 3.25200 37.22300
N  22.74900 1.34800 29.25400
C  21.78800 1.19200 30.23400
C  20.48800 1.18600 29.68300
C  20.71700 1.13800 28.29100
C  22.10200 1.30900 28.04100
C  19.22800 0.97100 30.53500
C  19.70300 0.86500 27.19500
O  20.08600 0.77400 26.06100
C  18.20600 0.59400 27.39200
N  25.17700 1.35400 27.51400
C  24.17000 1.55000 26.55200
C  24.78000 1.58400 25.08900
C  26.25400 1.86400 25.44800
C  26.39600 1.51200 26.91900
C  24.56200 0.25400 24.33500
C  26.78100 3.27400 24.99800
C  26.49000 4.44200 25.88200
N  26.85500 1.09300 29.87600
C  27.83900 1.04900 28.93000
C  29.13500 0.90900 29.64600
C  28.74300 0.89400 31.04100
C  27.36900 0.97900 31.07400
C  30.48500 0.91100 29.07800
C  29.30200 0.87400 32.35000
O  30.47800 0.84700 32.66400
C  28.09100 1.08600 33.28800
C  28.11300 0.17000 34.39800
O  27.61000 -0.97600 34.42600
O  28.94000 0.64800 35.39200
C  28.93600 -0.21100 36.60400
H  21.25400 1.20900 32.28800
H  22.14800 1.63100 25.96300
H  28.40800 1.37700 26.81300
H  25.13300 0.10900 34.70800
H  22.63400 1.28600 34.31400
H  22.72500 -1.35600 33.16000
H  21.95700 -0.74000 34.62800
H  23.53400 -1.50800 34.69500
H  24.09600 2.80500 34.90700
H  25.71400 2.89800 34.26200
H  26.63500 1.56000 36.28100
H  24.93000 1.35700 36.63100
H  18.39000 1.60000 30.23600
H  19.33300 1.09200 31.61400
H  18.84900 -0.03700 30.37400
H  18.08900 -0.41900 27.00500
H  17.59300 1.13800 26.67300
H  17.84900 0.69700 28.41600
H  24.42900 2.42300 24.48900
H  26.83300 1.06800 24.98000
H  23.95500 0.47900 23.45800
H  24.15900 -0.41400 25.09600
H  25.51700 -0.16300 24.01200
H  26.34000 3.49500 24.02600
H  27.85400 3.23800 24.80900
H  25.73900 5.09100 25.43200
H  27.42800 4.93200 26.14500
H  26.19700 4.07800 26.86700
H  30.72600 -0.12200 28.82600
H  31.27100 1.28900 29.73200
H  30.50000 1.48600 28.15300
H  28.08400 2.12700 33.61100
H  29.18900 -1.26600 36.49400
H  27.98700 -0.15500 37.13800
H  29.77400 0.19100 37.17400
Mg 39.99600 9.82400 29.88300
C  41.87600 11.04700 32.73400
C  37.55200 8.71900 32.06600
C  38.41800 8.49100 27.26200
C  42.72400 10.68600 27.89300
N  39.88800 9.63400 32.20300
C  40.65500 10.40900 33.14400
C  40.02200 10.32100 34.55900
C  38.70800 9.50500 34.26100
C  38.65100 9.31400 32.74100
C  38.58400 8.16800 35.01400
C  39.77000 11.79200 35.15400
C  40.67500 12.19500 36.35800
H  40.12100 12.60300 37.69800
N  38.14800 8.77300 29.66500
C  37.33900 8.43800 30.69300
C  36.21700 7.76900 30.14200
C  36.47100 7.64600 28.78300
C  37.67000 8.36000 28.45600
C  35.11200 7.24000 30.99000
C  35.60800 6.97100 27.69000
O  35.92500 6.78300 26.53100
C  34.32300 6.42200 28.05500
N  40.45800 9.71100 27.81400
C  39.68200 9.03000 26.93300
C  40.23000 9.02800 25.47800
C  41.64600 9.65700 25.74100
C  41.67600 9.99600 27.26800
C  40.40000 7.52500 24.99600
C  41.97500 10.90800 24.87100
C  41.18000 12.18400 25.25400
N  41.95700 10.69400 30.14400
C  42.90200 11.06100 29.20800
C  43.98600 11.74000 29.91400
C  43.60100 11.79800 31.29800
C  42.34100 11.06600 31.38400
C  45.18000 12.38400 29.30700
C  44.01800 12.31000 32.60100
O  45.12100 12.79300 32.91500
C  42.90800 11.78100 33.59500
C  43.63000 10.84100 34.59300
O  43.80700 9.63600 34.50300
O  44.14400 11.61600 35.59600
C  44.56600 10.98200 36.84500
H  36.72400 8.59100 32.76700
H  37.93900 8.06800 26.37700
H  43.71400 10.88900 27.48100
H  40.81500 9.87200 35.15800
H  37.79700 10.09100 34.38000
H  38.51500 7.37400 34.27000
H  37.62300 8.25500 35.52100
H  39.38000 7.98500 35.73500
H  38.73700 11.89000 35.48900
H  39.82500 12.55200 34.37500
H  41.36800 12.97300 36.03800
H  41.24000 11.28400 36.55400
H  34.21200 7.78100 30.69700
H  35.31400 7.23800 32.06100
H  35.07400 6.17600 30.75900
H  34.45900 5.72900 28.88600
H  33.83300 5.97000 27.19200
H  33.65200 7.20100 28.41800
H  39.57100 9.50300 24.75100
H  42.37100 8.86900 25.53700
H  39.98100 6.74800 25.63700
H  41.44900 7.25300 24.88000
H  39.88400 7.27400 24.06900
H  41.88700 10.49800 23.86400
H  43.04900 11.09200 24.85300
H  41.86000 12.97000 25.58400
H  40.50000 11.98500 26.08200
H  40.56200 12.47900 24.40700
H  44.99500 12.74900 28.29800
H  45.94400 11.60800 29.25700
H  45.43600 13.17400 30.01300
H  42.48200 12.65700 34.08400
H  44.21000 11.55600 37.70100
H  45.64300 11.15000 36.86800
H  44.32400 9.92000 36.88200

