158

Mg 43.91000 4.69800 46.66700
C  42.09800 7.63500 46.24300
C  41.09300 2.87400 45.85200
C  45.93500 2.20000 46.01300
C  46.79000 6.80400 47.20600
N  41.83800 5.23600 46.10500
C  41.36000 6.50000 46.13200
C  39.81600 6.51700 46.02600
C  39.44400 4.97400 45.90600
C  40.81700 4.29100 46.02100
C  38.44200 4.55700 46.97200
C  39.20500 7.35800 44.77900
C  40.06200 7.72900 43.59900
H  39.61600 7.23100 42.27800
N  43.57400 2.80500 46.26800
C  42.34700 2.21300 46.02100
C  42.68100 0.82400 45.73200
C  44.01300 0.55800 45.84200
C  44.58600 1.89200 46.03000
C  41.50000 -0.05600 45.37200
C  44.68600 -0.76200 45.81900
O  43.99300 -1.80500 45.67900
C  46.15600 -0.98700 46.23200
N  46.17600 4.57400 46.41300
C  46.67200 3.35200 46.28100
C  48.18400 3.35000 46.49800
C  48.55200 4.85600 46.89900
C  47.14100 5.44200 46.83800
C  48.69500 2.25400 47.58500
C  49.63500 5.58300 46.02000
C  50.88600 6.12600 46.74800
N  44.40800 6.82300 46.70200
C  45.53800 7.50400 46.91800
C  45.30000 8.98300 46.90400
C  43.92200 9.03100 46.68300
C  43.43600 7.72300 46.59400
C  46.25700 10.10100 47.00400
C  42.79900 9.94000 46.56800
O  42.67800 11.16400 46.55200
C  41.57100 9.04400 46.36400
C  40.76900 9.31600 47.56500
O  40.83800 8.64100 48.51100
O  39.98000 10.41300 47.33300
C  39.19000 10.86600 48.51400
H  40.17100 2.37000 45.55700
H  46.68000 1.42400 45.82600
H  47.53900 7.50200 47.58600
H  39.46200 6.98100 46.94700
H  39.08300 4.76600 44.89900
H  37.58800 4.11500 46.45900
H  38.03900 5.42600 47.49300
H  38.98500 4.04100 47.76400
H  38.99100 8.31200 45.25900
H  38.28000 6.86700 44.47900
H  41.04600 7.26800 43.67400
H  40.22700 8.80500 43.65800
H  41.52100 -1.08200 45.73900
H  41.33300 -0.05200 44.29500
H  40.64600 0.34800 45.91500
H  46.30400 -2.06700 46.23700
H  46.34500 -0.62500 47.24300
H  46.75800 -0.58400 45.41700
H  48.65200 3.12600 45.54000
H  48.81900 5.04800 47.93800
H  48.98400 2.72800 48.52300
H  49.53400 1.64100 47.25700
H  47.91300 1.54800 47.86600
H  49.23500 6.45700 45.50600
H  49.96400 4.88600 45.24900
H  50.85200 5.89800 47.81400
H  50.99600 7.19900 46.59500
H  51.81100 5.67600 46.38600
H  45.82500 11.09600 46.90200
H  46.95000 10.05600 46.16300
H  46.72000 10.12200 47.99000
H  41.03500 9.48600 45.52400
H  39.56100 11.80600 48.92300
H  38.97200 10.12700 49.28500
H  38.18200 11.04900 48.14100
Mg -9.93100 39.55300 39.97600
C  -9.14400 36.15600 39.42700
C  -6.69200 40.33200 38.86000
C  -10.53600 42.77400 40.37200
C  -13.23100 38.72200 40.46100
N  -8.14800 38.44600 39.30000
C  -8.10600 37.06500 39.12700
C  -6.65400 36.57700 38.80600
C  -5.89200 37.90500 38.94400
C  -6.97100 38.99800 39.05800
C  -4.83600 38.12200 40.16400
C  -6.33800 35.84200 37.41100
C  -6.84400 36.59000 36.15000
H  -8.07000 36.11900 35.37200
N  -8.79600 41.31000 39.65400
C  -7.54900 41.40200 39.12900
C  -7.18900 42.77400 38.91200
C  -8.29000 43.55900 39.40700
C  -9.29900 42.58100 39.83400
C  -5.90500 43.34100 38.32500
C  -8.39500 45.10400 39.51500
O  -7.52900 45.75800 38.99300
C  -9.53500 45.87600 40.15000
N  -11.66700 40.54900 40.43600
C  -11.62300 41.88600 40.60000
C  -13.05800 42.46100 40.77100
C  -13.92700 41.13000 40.88200
C  -12.89900 40.10000 40.50800
C  -13.12400 43.45000 42.03500
C  -15.22900 40.96300 40.06200
C  -16.48000 40.71400 40.88600
N  -11.04200 37.82100 40.03300
C  -12.36900 37.62900 40.33500
C  -12.63100 36.20300 40.24900
C  -11.37900 35.60300 39.94800
C  -10.45400 36.60100 39.82900
C  -14.06400 35.70200 40.44000
C  -10.70900 34.31900 39.66800
O  -11.19400 33.15900 39.58800
C  -9.19600 34.65300 39.25300
C  -8.27400 33.85000 40.15900
O  -8.47700 33.58700 41.28600
O  -7.11400 33.54700 39.58800
C  -5.99700 32.91600 40.34200
H  -5.71000 40.68500 38.53700
H  -10.67100 43.82600 40.63200
H  -14.25100 38.39800 40.67900
H  -6.44800 35.96800 39.68600
H  -5.36800 37.88900 37.98900
H  -3.86100 38.31900 39.71800
H  -4.64700 37.20700 40.72500
H  -5.05500 38.91900 40.87400
H  -6.90200 34.91400 37.50500
H  -5.26500 35.67400 37.32000
H  -5.97600 36.41000 35.51600
H  -6.98000 37.64000 36.40700
H  -6.02200 43.57500 37.26700
H  -5.03100 42.70400 38.45900
H  -5.54800 44.25200 38.80600
H  -9.68800 45.55200 41.17900
H  -10.50100 45.65600 39.69400
H  -9.28800 46.93500 40.22200
H  -13.39800 43.11600 39.96900
H  -14.29500 40.91900 41.88500
H  -12.16500 43.66200 42.51000
H  -13.89300 43.17200 42.75600
H  -13.50600 44.39200 41.64100
H  -15.18900 40.21400 39.27100
H  -15.38900 41.93900 39.60200
H  -16.33300 39.80400 41.46700
H  -17.37900 40.45300 40.32600
H  -16.76000 41.53800 41.54200
H  -14.58800 36.13800 41.29000
H  -13.85500 34.64700 40.61900
H  -14.60200 35.88800 39.51100
H  -9.05400 34.22600 38.26100
H  -5.24300 32.70900 39.58200
H  -6.37300 31.94900 40.67500
H  -5.58600 33.49700 41.16800

