158

Mg 23.80600 -5.35700 45.44100
C  26.00300 -2.94100 44.14700
C  21.31800 -4.05700 43.47500
C  22.18300 -8.07300 45.98800
C  26.63300 -6.70200 47.18900
N  23.70700 -3.61900 44.17600
C  24.71100 -2.79900 43.77600
C  24.09500 -1.77900 42.71300
C  22.57900 -1.94100 42.87400
C  22.49900 -3.28500 43.59900
C  21.77000 -0.87000 43.69900
C  24.68400 -2.09500 41.27800
C  25.16400 -0.86500 40.42500
H  24.67200 -0.78300 38.96600
N  21.85600 -5.99700 44.88400
C  21.06500 -5.35700 43.98900
C  19.94400 -6.23700 43.66400
C  20.13800 -7.43900 44.34000
C  21.43000 -7.24800 45.11400
C  18.83900 -5.89300 42.60200
C  19.11900 -8.57400 44.31600
O  18.06100 -8.44700 43.61300
C  19.39500 -9.87400 45.07700
N  24.41100 -7.17300 46.35800
C  23.45000 -8.12300 46.52300
C  23.96700 -9.42800 47.18800
C  25.26900 -8.79200 47.84400
C  25.48400 -7.48200 47.11700
C  23.03400 -10.09600 48.24400
C  26.54200 -9.80100 47.85500
C  27.39800 -9.65800 49.15700
N  25.96800 -4.92100 45.67500
C  26.86700 -5.52100 46.43300
C  28.05900 -4.84200 46.33000
C  27.82000 -3.78200 45.43200
C  26.48900 -3.88100 45.05700
C  29.27300 -5.12500 47.07700
C  28.35000 -2.57300 44.81500
O  29.50400 -2.09000 44.80700
C  27.23300 -2.07400 43.88400
C  26.86400 -0.66200 44.22600
O  26.60100 -0.28300 45.34800
O  27.03400 0.06400 43.07900
C  26.78500 1.55900 43.24000
H  20.54900 -3.55400 42.88400
H  21.52700 -8.94300 46.06200
H  27.34500 -7.05500 47.93700
H  24.27000 -0.72300 42.91700
H  22.14000 -1.97500 41.87700
H  22.38900 -0.15000 44.23500
H  21.13000 -1.37100 44.42600
H  21.22100 -0.27200 42.97100
H  23.81900 -2.45700 40.72300
H  25.29900 -2.99500 41.28800
H  26.20500 -1.09300 40.19400
H  25.09300 0.07200 40.97700
H  18.64700 -6.57300 41.77300
H  19.02500 -4.95400 42.07900
H  17.90200 -5.91800 43.15700
H  19.16000 -9.66700 46.12100
H  20.43500 -10.18600 44.97700
H  18.69300 -10.57600 44.62800
H  24.21500 -10.02400 46.31000
H  25.07700 -8.45100 48.86100
H  21.99700 -9.83300 48.03500
H  23.27600 -9.92100 49.29300
H  22.95200 -11.16900 48.07500
H  27.19800 -9.58500 47.01300
H  26.12800 -10.80700 47.77400
H  28.45300 -9.81500 48.93100
H  27.16800 -10.42900 49.89200
H  27.16900 -8.70300 49.63000
H  29.54800 -4.15800 47.49700
H  30.06400 -5.37700 46.36900
H  29.15800 -5.81500 47.91300
H  27.53300 -2.21400 42.84500
H  26.49300 1.81300 44.25900
H  25.93100 1.79300 42.60400
H  27.70300 1.99000 42.84200
Mg 35.47800 48.13200 24.78300
C  36.28000 46.55800 27.87200
C  34.48300 50.91400 26.57700
C  34.41600 49.46500 21.88200
C  36.65400 45.29100 23.20700
N  35.36100 48.63300 27.05600
C  35.74500 47.84700 28.08500
C  35.46700 48.61900 29.37400
C  34.76400 49.95300 29.00300
C  34.88600 49.86600 27.46000
C  33.23400 50.04400 29.40900
C  36.72900 48.88600 30.22700
C  36.73900 48.70500 31.85800
H  35.34800 48.66200 32.50400
N  34.61700 49.95200 24.30100
C  34.33700 51.00200 25.15500
C  33.69200 52.04000 24.47400
C  33.46500 51.61000 23.12700
C  34.20300 50.35300 22.99100
C  33.39300 53.34100 25.10400
C  32.63100 52.23200 22.05400
O  32.45600 51.78400 20.94700
C  31.88500 53.55100 22.37200
N  35.32000 47.42700 22.87200
C  34.98200 48.18400 21.76400
C  35.52200 47.59200 20.48200
C  36.40800 46.40800 20.86200
C  36.21200 46.37100 22.40800
C  34.35100 47.20600 19.48500
C  37.90400 46.30800 20.44800
C  39.09900 46.80700 21.30400
N  36.32300 46.24700 25.35500
C  36.69700 45.17600 24.67900
C  37.11500 44.15300 25.47800
C  36.91200 44.59800 26.83500
C  36.42900 45.91400 26.65600
C  37.73600 42.94500 24.94700
C  37.06300 44.27100 28.23200
O  37.41600 43.25400 28.83300
C  36.44300 45.52300 28.96400
C  35.17200 45.10000 29.59800
O  34.04300 45.34800 29.08300
O  35.42400 44.67900 30.80900
C  34.24800 44.44600 31.62900
H  34.37400 51.85700 27.11700
H  34.10800 49.89600 20.92700
H  37.14500 44.40500 22.79900
H  34.74500 47.96500 29.86400
H  35.22100 50.88700 29.33000
H  33.21400 50.89300 30.09200
H  32.95900 49.15300 29.97400
H  32.65500 50.21000 28.50100
H  37.16300 49.88600 30.19000
H  37.52900 48.22800 29.88900
H  37.22800 49.56700 32.31100
H  37.40400 47.84900 31.97300
H  33.76300 54.13800 24.45900
H  33.85900 53.55800 26.06500
H  32.33500 53.47100 25.32800
H  32.52400 54.42200 22.51600
H  31.27900 53.46800 23.27400
H  31.26600 53.79900 21.50900
H  36.13100 48.37500 20.02900
H  36.01600 45.44100 20.54800
H  34.19400 47.99300 18.74800
H  33.44600 47.14000 20.08800
H  34.67000 46.31900 18.93600
H  37.84100 46.88900 19.52800
H  38.14800 45.29800 20.11700
H  39.59500 47.65300 20.82800
H  39.87700 46.07200 21.51400
H  38.75400 47.25300 22.23700
H  37.86400 42.23900 25.76800
H  38.76300 43.19500 24.68200
H  37.13900 42.62800 24.09200
H  37.08400 45.86900 29.77500
H  33.66600 43.70800 31.07600
H  33.71300 45.39300 31.70200
H  34.47400 44.02700 32.60900

