158

Mg 47.32400 15.87000 28.06200
C  45.27900 15.26400 30.95100
C  49.34500 17.66600 29.95100
C  48.92300 16.92200 25.26600
C  44.72900 14.62100 26.09900
N  47.27100 16.46600 30.18800
C  46.46600 16.06000 31.15400
C  46.81900 16.65900 32.51400
C  48.13100 17.42400 32.27000
C  48.21400 17.25000 30.68200
C  48.27700 18.84400 32.77000
C  47.09600 15.49100 33.58700
C  47.68100 15.99900 34.91400
H  47.08400 17.34000 35.49600
N  49.07700 16.86600 27.69200
C  49.73300 17.54200 28.62900
C  50.96100 17.99300 28.10700
C  50.96400 17.66800 26.74300
C  49.60300 17.11900 26.47200
C  52.02000 18.55400 29.00800
C  52.09600 17.77300 25.76400
O  51.86400 17.81100 24.54400
C  53.49800 18.00000 26.35100
N  47.07800 15.54200 25.87900
C  47.74600 16.22800 24.96200
C  46.97300 16.32200 23.59200
C  45.72500 15.43000 23.95600
C  45.82500 15.18600 25.43800
C  46.51600 17.83000 23.22400
C  45.60900 14.12600 23.02200
C  44.51500 14.05600 21.93600
N  45.42400 14.97500 28.41500
C  44.48300 14.57300 27.49000
C  43.32600 14.06600 28.12200
C  43.55500 14.25000 29.49100
C  44.83600 14.85600 29.63800
C  42.03600 13.57700 27.47400
C  43.03600 14.09200 30.79800
O  41.91300 13.72200 31.18200
C  44.14200 14.72100 31.83900
C  43.41500 15.73100 32.58600
O  42.94300 16.81100 32.08800
O  43.24800 15.28100 33.84500
C  42.21300 15.95700 34.64800
H  50.01500 18.27500 30.56100
H  49.40300 17.29400 24.35800
H  43.79000 14.55000 25.54700
H  46.03200 17.34200 32.83300
H  48.95700 16.82000 32.64500
H  48.04100 19.54400 31.96900
H  49.31200 18.93300 33.10100
H  47.63200 19.12800 33.60200
H  47.89000 14.87300 33.16700
H  46.14900 14.95300 33.60400
H  48.76000 16.14900 34.88000
H  47.43400 15.25600 35.67200
H  52.36100 19.43800 28.46900
H  52.78300 17.79400 29.17900
H  51.70100 19.00800 29.94600
H  54.15900 18.07600 25.48700
H  53.81800 17.20400 27.02400
H  53.42900 18.92600 26.92200
H  47.57500 15.95000 22.76300
H  44.76300 15.89700 23.74100
H  45.44300 17.96600 23.35600
H  46.73000 18.04100 22.17600
H  47.00900 18.52600 23.90300
H  45.58600 13.24300 23.66100
H  46.55300 14.18600 22.47900
H  43.72500 14.80600 21.95900
H  43.85100 13.20700 22.09700
H  45.05700 13.89800 21.00300
H  41.96800 12.53000 27.17900
H  41.95200 14.27600 26.64100
H  41.14300 13.71400 28.08400
H  44.41400 13.94400 32.55300
H  42.85100 16.67600 35.16200
H  41.96600 15.05400 35.20700
H  41.39500 16.31100 34.02100
Mg -12.60200 38.05200 41.97700
C  -10.33900 35.50400 41.00500
C  -10.50400 40.38100 40.55100
C  -15.24800 40.10700 42.04000
C  -14.68400 35.27600 43.10800
N  -10.72500 37.96600 40.76400
C  -10.04800 36.83200 40.46900
C  -8.78300 37.20700 39.60100
C  -8.80100 38.77200 39.64400
C  -10.03600 39.08400 40.46100
C  -7.45600 39.37200 40.20000
C  -8.86500 36.58000 38.17700
C  -7.66300 35.71400 37.67600
H  -6.68400 36.54700 36.77700
N  -12.81400 40.01400 41.55400
C  -11.77600 40.87400 41.06200
C  -12.28500 42.16600 40.87900
C  -13.57700 42.17200 41.47500
C  -13.94500 40.71200 41.73200
C  -11.42500 43.24400 40.24200
C  -14.51200 43.37800 41.67000
O  -14.29100 44.45300 41.13900
C  -15.92100 43.25500 42.29600
N  -14.66900 37.68400 42.34600
C  -15.54800 38.67800 42.25900
C  -16.98900 38.24800 42.56000
C  -16.81900 36.67400 42.91800
C  -15.31200 36.51100 42.83200
C  -17.71000 39.21500 43.58100
C  -17.71300 35.61600 42.11000
C  -18.19800 34.39800 42.86700
N  -12.58500 35.88100 42.14200
C  -13.37700 34.97600 42.68300
C  -12.69100 33.70600 42.85100
C  -11.47500 33.86800 42.20800
C  -11.52200 35.16000 41.66400
C  -13.22600 32.57500 43.61000
C  -10.19000 33.18300 41.87800
O  -9.71200 32.17000 42.34400
C  -9.44400 34.28900 40.97500
C  -8.10500 34.64200 41.60600
O  -7.79800 35.58200 42.36700
O  -7.20600 33.75200 41.16800
C  -5.90800 33.69600 41.88800
H  -9.80500 41.15000 40.21400
H  -16.12700 40.74400 41.92000
H  -15.27600 34.38300 43.31800
H  -7.91400 36.92100 40.19500
H  -8.93300 39.16000 38.63400
H  -7.11000 40.11300 39.48000
H  -6.69000 38.61200 40.35800
H  -7.73900 39.93900 41.08700
H  -8.98200 37.44000 37.51700
H  -9.77600 35.98700 38.09400
H  -8.12500 34.88000 37.14700
H  -7.04700 35.31700 38.48200
H  -12.09100 43.91500 39.70000
H  -10.71300 42.79900 39.54600
H  -10.90700 43.76000 41.05100
H  -16.62300 43.01500 41.49700
H  -16.25900 44.18800 42.74600
H  -15.70800 42.51000 43.06300
H  -17.60800 38.33300 41.66700
H  -17.13300 36.57200 43.95700
H  -18.49900 39.81000 43.12000
H  -16.87500 39.62600 44.14800
H  -18.23000 38.61100 44.32400
H  -17.11200 35.30200 41.25600
H  -18.60200 36.09800 41.70200
H  -17.59700 33.56100 42.51100
H  -19.27200 34.29300 42.71000
H  -17.92600 34.51900 43.91500
H  -13.85000 32.86000 44.45700
H  -12.51400 31.79000 43.86400
H  -13.96100 32.10000 42.96200
H  -9.21700 34.02900 39.94100
H  -5.80300 34.40100 42.71300
H  -5.25100 33.90200 41.04300
H  -5.66800 32.70300 42.26900

