158

Mg 17.34700 -1.09000 27.76300
C  16.04000 1.01100 30.33300
C  18.96600 -2.81900 30.14800
C  19.05300 -2.61800 25.33000
C  15.99800 1.05100 25.40800
N  17.50400 -0.83400 29.91500
C  16.97900 0.08900 30.78200
C  17.42800 -0.21300 32.27200
C  18.51300 -1.29600 32.07800
C  18.28200 -1.68600 30.62800
C  19.98500 -0.98900 32.40700
C  16.35900 -0.62400 33.20100
C  16.41200 -0.07400 34.66800
H  17.73600 0.50100 35.28800
N  18.61900 -2.72600 27.76200
C  19.05300 -3.31600 28.85100
C  19.72100 -4.51200 28.44000
C  19.85600 -4.53100 26.99600
C  19.21000 -3.24400 26.64700
C  20.26100 -5.41100 29.45300
C  20.53100 -5.45900 25.97700
O  20.56800 -5.24800 24.76400
C  21.25400 -6.76200 26.46000
N  17.45400 -0.86000 25.68500
C  18.25600 -1.58200 24.88400
C  18.07000 -1.24300 23.39000
C  16.83400 -0.19600 23.45300
C  16.72400 -0.05100 24.92800
C  19.32900 -0.69400 22.71200
C  15.52800 -0.50300 22.65700
C  14.48200 -1.57600 23.16500
N  16.21100 0.72700 27.81700
C  15.69500 1.38300 26.78100
C  14.83400 2.45000 27.26400
C  14.87000 2.24800 28.65400
C  15.76700 1.24100 28.93400
C  14.02400 3.41600 26.54700
C  14.41100 2.79400 29.87200
O  13.62900 3.71500 30.13900
C  15.21800 2.02900 31.03400
C  15.97400 3.05700 31.74600
O  16.76500 3.84300 31.18000
O  15.60000 3.11300 33.07900
C  16.36300 3.99300 33.96200
H  19.50500 -3.40500 30.89600
H  19.58800 -3.14400 24.53700
H  15.71000 1.69700 24.57700
H  17.85800 0.70600 32.67000
H  18.22300 -2.10000 32.75500
H  20.54200 -0.82900 31.48400
H  20.48700 -1.88100 32.78100
H  20.14300 -0.21000 33.15200
H  16.21000 -1.69500 33.34100
H  15.40000 -0.22500 32.87000
H  16.10100 -0.95000 35.23700
H  15.61900 0.65100 34.85500
H  21.20300 -5.06100 29.87500
H  20.41100 -6.36000 28.93800
H  19.59700 -5.50300 30.31300
H  20.55900 -7.58000 26.64800
H  21.74300 -6.59600 27.41900
H  21.97700 -7.14000 25.73600
H  17.72300 -2.17800 22.95200
H  17.22200 0.75300 23.08300
H  19.16700 0.30400 22.30500
H  19.68800 -1.30500 21.88400
H  20.11300 -0.70400 23.46900
H  15.69500 -0.89900 21.65500
H  15.13000 0.49200 22.45900
H  13.68300 -0.98200 23.60700
H  14.83800 -2.31100 23.88800
H  14.02900 -2.04500 22.29100
H  13.82000 3.02900 25.54900
H  14.52800 4.37900 26.46800
H  13.06800 3.54400 27.05500
H  14.37400 1.62000 31.59000
H  17.30000 4.38800 33.56800
H  16.57400 3.66300 34.97900
H  15.78400 4.89700 34.14700
Mg -4.97400 25.83500 26.31600
C  -3.62300 27.69500 28.98500
C  -6.70900 23.91000 28.58600
C  -6.10700 24.00800 23.69600
C  -3.22600 27.82000 24.10500
N  -4.96700 25.72200 28.53000
C  -4.55500 26.70500 29.42400
C  -5.17200 26.44500 30.81700
C  -5.79400 24.98400 30.73200
C  -5.84100 24.86700 29.19100
C  -4.94300 23.86100 31.32000
C  -6.26100 27.48000 31.12100
C  -6.61200 27.56400 32.64300
H  -6.18600 26.49600 33.62900
N  -6.28700 24.26900 26.13600
C  -6.95700 23.67900 27.20000
C  -7.83000 22.65700 26.64900
C  -7.74500 22.71200 25.21400
C  -6.65900 23.68700 24.93800
C  -8.93100 22.04600 27.49800
C  -8.56800 21.90100 24.15800
O  -8.53500 22.15800 22.95900
C  -9.57000 20.80000 24.61800
N  -4.76100 25.89800 24.19200
C  -5.22000 25.02000 23.31500
C  -4.66700 25.22100 21.94300
C  -4.08200 26.64900 22.02600
C  -4.02000 26.82300 23.56600
C  -3.71000 24.11900 21.29000
C  -4.98300 27.87200 21.47800
C  -4.41600 28.50200 20.19700
N  -3.66500 27.35700 26.46100
C  -3.05900 28.13700 25.44600
C  -2.11300 29.10000 26.02800
C  -2.28700 28.97600 27.41500
C  -3.25300 27.92200 27.61100
C  -1.30400 30.12600 25.24200
C  -1.88900 29.52700 28.80000
O  -1.04300 30.28900 29.13200
C  -2.85700 28.75200 29.78200
C  -2.16300 28.07200 30.98800
O  -1.43100 27.06200 30.94600
O  -2.56600 28.74200 32.14500
C  -2.02200 28.05500 33.35600
H  -7.13900 23.26900 29.35900
H  -6.43500 23.36800 22.87400
H  -2.72800 28.55500 23.46800
H  -4.27500 26.48300 31.43400
H  -6.76000 24.89500 31.22900
H  -3.91900 24.23500 31.29700
H  -4.91200 22.95300 30.71900
H  -5.26600 23.56400 32.31700
H  -7.15400 27.12600 30.60500
H  -6.01100 28.39700 30.58700
H  -7.69100 27.64500 32.77200
H  -6.12200 28.49700 32.92400
H  -9.85300 22.53500 27.18200
H  -8.71600 22.19600 28.55600
H  -8.96800 20.97200 27.31600
H  -9.13500 20.10900 25.34100
H  -9.91600 20.24900 23.74300
H  -10.34500 21.34900 25.15200
H  -5.59700 25.39200 21.40100
H  -3.05300 26.76200 21.68300
H  -3.78800 23.14100 21.76500
H  -2.66700 24.39400 21.44700
H  -3.94900 24.11100 20.22700
H  -5.15100 28.66900 22.20300
H  -5.89900 27.47100 21.04400
H  -3.95900 27.68200 19.64300
H  -3.64800 29.22400 20.47100
H  -5.24300 29.05200 19.74900
H  -0.49400 29.59900 24.73800
H  -0.86800 31.01100 25.70400
H  -1.92600 30.39900 24.38900
H  -3.55600 29.41100 30.29600
H  -2.69100 28.36500 34.15900
H  -1.04100 28.46500 33.59300
H  -1.95500 26.96800 33.41500

