158

Mg 16.55800 -1.90800 27.64000
C  15.38300 0.18700 30.24900
C  18.39900 -3.58700 29.97900
C  17.91200 -3.55100 25.13000
C  14.81200 0.11900 25.37000
N  17.11300 -1.48000 29.87700
C  16.34200 -0.71300 30.72800
C  16.69900 -1.11300 32.15800
C  17.77700 -2.20700 32.09400
C  17.80500 -2.46100 30.57600
C  19.17300 -1.94500 32.65100
C  15.37100 -1.31300 33.02200
C  15.25000 -0.45600 34.29100
H  16.52000 0.10400 34.98000
N  17.92800 -3.35400 27.54100
C  18.56900 -3.92900 28.61600
C  19.31500 -5.03300 28.05500
C  19.28200 -4.96000 26.61400
C  18.37700 -3.92100 26.36700
C  20.11300 -6.01400 28.96000
C  19.89400 -5.94600 25.54900
O  19.72500 -5.86500 24.32900
C  20.66000 -7.14900 26.07000
N  16.39100 -1.73600 25.49700
C  17.07300 -2.50200 24.68300
C  16.84500 -2.10300 23.18600
C  15.55000 -1.18900 23.37500
C  15.49800 -0.92300 24.82100
C  18.09800 -1.39900 22.62900
C  14.23000 -1.81800 22.83400
C  13.40800 -0.87000 21.98200
N  15.23500 -0.17900 27.75600
C  14.59800 0.53400 26.76300
C  13.82600 1.53800 27.37900
C  14.03300 1.42700 28.79000
C  14.91400 0.37800 28.95400
C  12.81900 2.39200 26.64000
C  13.62300 1.99700 30.05000
O  12.82200 2.91100 30.27000
C  14.47200 1.21800 31.08800
C  15.29100 2.29700 31.70700
O  16.38800 2.57900 31.14600
O  14.65800 2.98600 32.73100
C  15.50900 4.06800 33.18900
H  18.85500 -4.26700 30.70200
H  18.28700 -4.04300 24.23000
H  14.24000 0.77900 24.71400
H  17.20800 -0.21900 32.51900
H  17.43600 -3.16500 32.48700
H  19.50500 -2.69700 33.36700
H  19.10100 -0.96100 33.11400
H  19.88000 -1.84300 31.82800
H  15.28700 -2.38500 33.20000
H  14.39300 -1.18700 32.55600
H  14.82200 -1.17200 34.99200
H  14.54500 0.33500 34.03700
H  19.71100 -6.99100 28.69400
H  19.87200 -5.88900 30.01500
H  21.20000 -5.96700 28.88200
H  21.13200 -7.55400 25.17500
H  20.07000 -7.95700 26.50400
H  21.42800 -6.80500 26.76400
H  16.72100 -3.06300 22.68500
H  15.65100 -0.29700 22.75700
H  17.89900 -0.73000 21.79300
H  18.81000 -2.16700 22.32600
H  18.68700 -0.82500 23.34500
H  13.63600 -2.19600 23.66600
H  14.41000 -2.72900 22.26200
H  12.98000 -0.16500 22.69400
H  12.54000 -1.35300 21.53200
H  13.91200 -0.31100 21.19300
H  12.81200 2.27000 25.55600
H  12.85400 3.46100 26.85100
H  11.78200 2.16900 26.89200
H  13.91200 0.67400 31.84900
H  15.64500 4.70200 32.31300
H  16.46700 3.69000 33.54500
H  15.09400 4.58500 34.05400
Mg 40.50500 9.53800 29.08000
C  42.03400 10.32600 31.99600
C  37.80000 8.28100 30.82000
C  39.26100 8.72400 26.09300
C  43.52700 10.54200 27.36100
N  39.96100 9.31600 31.14200
C  40.77900 9.75300 32.10200
C  40.10700 9.61400 33.47500
C  38.88600 8.71500 33.19000
C  38.80600 8.79000 31.61900
C  38.94500 7.26600 33.75000
C  39.87800 10.88200 34.31400
C  40.53900 10.70400 35.72800
H  40.97900 11.87300 36.62400
N  38.80200 8.65400 28.53700
C  37.79100 8.18200 29.39100
C  36.69100 7.62800 28.54700
C  37.21200 7.65500 27.21900
C  38.50600 8.43700 27.23700
C  35.34400 7.07300 29.11600
C  36.45400 7.25100 25.87100
O  36.88500 7.38400 24.72700
C  34.88800 6.90100 26.03900
N  41.19500 9.79500 26.93500
C  40.46800 9.34400 25.93600
C  41.26300 9.34100 24.61000
C  42.54400 10.13500 25.03300
C  42.40900 10.19000 26.58200
C  41.58100 7.84200 24.21100
C  42.63300 11.55900 24.40500
C  41.78200 12.77200 24.99100
N  42.42300 10.27700 29.46800
C  43.45700 10.67800 28.74100
C  44.43200 11.30200 29.63700
C  43.95800 11.15000 30.90600
C  42.71100 10.44200 30.78700
C  45.74200 11.92400 29.05900
C  44.12800 11.39300 32.35300
O  44.99000 11.97200 32.95700
C  42.96800 10.83000 33.08500
C  43.56000 9.74500 33.93600
O  43.83800 8.61600 33.47800
O  43.89900 10.09800 35.21000
C  44.79600 9.22600 36.00300
H  36.91100 7.93800 31.35300
H  38.94200 8.43500 25.08900
H  44.50700 10.65600 26.89300
H  40.85800 8.96700 33.93000
H  37.97400 9.11400 33.63300
H  38.05200 7.16600 34.36800
H  39.78400 6.99300 34.39000
H  38.92900 6.58100 32.90200
H  38.80600 11.06300 34.39700
H  40.25000 11.73600 33.74700
H  41.43400 10.11600 35.52400
H  39.83800 10.08800 36.29100
H  35.17200 7.40700 30.13900
H  35.40400 5.98900 29.21700
H  34.58800 7.44300 28.42300
H  34.80200 6.03600 26.69800
H  34.36300 6.66500 25.11400
H  34.43000 7.84000 26.34900
H  40.57400 9.78600 23.89300
H  43.45700 9.55700 24.89000
H  41.32200 7.17400 25.03200
H  42.63000 7.63200 24.00300
H  41.04200 7.51600 23.32100
H  42.42200 11.57900 23.33600
H  43.62300 11.95400 24.63300
H  41.31500 12.40100 25.90400
H  40.94500 13.11800 24.38500
H  42.44300 13.57900 25.30600
H  46.48000 11.14900 29.26300
H  46.15700 12.82500 29.51000
H  45.57900 12.17500 28.01100
H  42.46700 11.55400 33.72800
H  44.22600 8.46300 36.53300
H  45.25100 9.94800 36.68100
H  45.45100 8.63400 35.36400

