158

Mg 17.39600 -0.64200 27.58800
C  16.39500 1.01300 30.41900
C  19.61800 -2.50000 29.54800
C  19.08000 -1.85800 24.86400
C  15.69000 1.54700 25.61100
N  17.94900 -0.70800 29.77700
C  17.42600 0.08900 30.75700
C  18.11400 -0.19300 32.12400
C  19.18900 -1.32900 31.68700
C  18.94700 -1.51900 30.21800
C  20.63700 -0.95600 31.98100
C  17.18900 -0.69800 33.16100
C  16.96800 0.17200 34.41900
H  18.18100 0.66700 35.17100
N  19.01600 -2.06500 27.22500
C  19.73300 -2.80600 28.16400
C  20.48000 -3.89100 27.50400
C  20.18500 -3.80400 26.08900
C  19.37600 -2.57800 26.00600
C  21.26900 -4.96100 28.23400
C  20.57000 -4.69300 24.99900
O  20.18300 -4.58600 23.84500
C  21.49000 -5.89800 25.30500
N  17.38100 -0.20200 25.48900
C  18.15400 -0.86100 24.60200
C  17.90300 -0.23800 23.18200
C  16.65200 0.60500 23.50800
C  16.61000 0.78000 24.93500
C  19.14900 0.53600 22.58100
C  15.31500 0.01200 22.91000
C  14.35400 -0.95500 23.78200
N  16.11700 0.85000 27.88700
C  15.43200 1.66300 27.01300
C  14.63500 2.66100 27.72800
C  14.95900 2.35900 29.07400
C  15.88900 1.27200 29.14900
C  13.72600 3.66900 27.18400
C  14.71400 2.79700 30.43000
O  13.92300 3.67200 30.83200
C  15.72600 2.01200 31.32500
C  16.65800 2.89900 32.04700
O  17.83800 3.06600 31.74800
O  16.09000 3.50600 33.13000
C  16.85400 4.44600 33.92800
H  20.24500 -3.14300 30.17000
H  19.43600 -2.26100 23.91400
H  15.08200 2.08600 24.88200
H  18.63600 0.69500 32.48000
H  18.94400 -2.30400 32.10900
H  21.02700 -1.68400 32.69200
H  20.62000 -0.00200 32.50900
H  21.23100 -0.88600 31.07100
H  17.53300 -1.67000 33.51300
H  16.20600 -0.71000 32.68900
H  16.34700 -0.34500 35.15000
H  16.39600 1.04500 34.10400
H  22.16800 -5.14300 27.64400
H  20.78100 -5.91100 28.44900
H  21.60000 -4.52500 29.17700
H  21.20400 -6.55100 26.12900
H  22.47900 -5.47100 25.46800
H  21.55200 -6.48000 24.38500
H  17.55900 -1.02500 22.51100
H  16.79000 1.58700 23.05600
H  19.98500 0.63700 23.27200
H  18.96800 1.49200 22.08900
H  19.46800 -0.13700 21.78500
H  15.40800 -0.55200 21.98300
H  14.62900 0.81300 22.63500
H  13.64700 -0.39600 24.39500
H  14.90500 -1.53000 24.52600
H  13.70900 -1.58600 23.17200
H  13.76900 3.51900 26.10600
H  14.10100 4.66800 27.41000
H  12.79300 3.39800 27.67900
H  15.21100 1.41200 32.07600
H  16.76400 5.44600 33.50200
H  17.86700 4.06800 34.07000
H  16.44400 4.35700 34.93400
Mg 0.57400 43.47200 26.04400
C  2.87100 43.70300 28.66100
C  -1.94500 43.41000 28.16300
C  -1.42400 42.93500 23.35400
C  3.33000 43.39800 23.81200
N  0.48300 43.48600 28.20000
C  1.49700 43.78600 29.07600
C  0.94700 43.89800 30.48400
C  -0.64100 43.74300 30.27800
C  -0.71600 43.45600 28.78000
C  -1.23300 42.45700 30.95900
C  1.34300 45.20600 31.26800
C  1.62600 45.06300 32.75900
H  0.96500 43.84600 33.37100
N  -1.38800 43.25800 25.85600
C  -2.30500 43.22400 26.82900
C  -3.61400 42.90400 26.33800
C  -3.55100 42.80700 24.93500
C  -2.04300 43.00400 24.63800
C  -4.91200 42.91600 27.22900
C  -4.61600 42.39400 23.85300
O  -4.43300 42.33400 22.62500
C  -6.01600 41.93900 24.32900
N  0.92400 43.36500 23.87700
C  -0.14300 43.17300 22.99200
C  0.37300 43.07900 21.57600
C  1.89300 43.35700 21.70100
C  2.09600 43.43200 23.22200
C  0.05400 41.77900 20.83200
C  2.40400 44.62100 21.03700
C  3.64300 44.49200 20.19600
N  2.72900 43.53000 26.11100
C  3.69700 43.51500 25.13900
C  4.99100 43.47300 25.78400
C  4.71400 43.62300 27.15600
C  3.30600 43.58400 27.31600
C  6.28000 43.50400 25.14800
C  5.35000 43.78900 28.45000
O  6.48200 43.87800 28.85800
C  4.12900 43.71100 29.46900
C  4.35900 42.66700 30.45800
O  4.37800 41.44100 30.31800
O  4.66100 43.24700 31.67300
C  4.91600 42.29300 32.72100
H  -2.76000 43.71000 28.82400
H  -2.15800 42.87100 22.54800
H  4.17600 43.24300 23.13900
H  1.46000 43.09100 31.00800
H  -1.15700 44.66000 30.56300
H  -0.44100 41.78900 31.29800
H  -1.91600 41.81900 30.39800
H  -1.73500 42.76400 31.87700
H  0.53000 45.92900 31.19800
H  2.15100 45.67800 30.70800
H  1.28500 45.98200 33.23600
H  2.66900 44.89800 33.02700
H  -5.71700 43.52700 26.82200
H  -4.76200 43.35800 28.21400
H  -5.23000 41.88300 27.37200
H  -5.88300 41.33400 25.22500
H  -6.58100 41.44100 23.54000
H  -6.47800 42.87500 24.64200
H  -0.13500 43.93800 21.13700
H  2.48800 42.48800 21.42200
H  -0.81100 42.03800 20.22100
H  -0.41500 41.02800 21.46700
H  0.85700 41.40500 20.19600
H  2.68600 45.34900 21.79800
H  1.60700 45.05100 20.43000
H  3.80000 43.46400 19.86900
H  4.50500 44.60100 20.85400
H  3.73600 45.26300 19.43200
H  6.59100 44.47300 24.75800
H  6.15400 42.79700 24.32800
H  7.07600 43.20800 25.83200
H  4.07900 44.68200 29.96100
H  5.43200 42.86200 33.49400
H  5.47200 41.37600 32.52700
H  3.98400 41.81200 33.01700

