158

Mg 16.41700 51.97800 26.14800
C  18.36000 51.06600 28.99000
C  13.90200 52.74000 28.34600
C  14.67700 52.90000 23.52600
C  19.01800 50.79700 24.15700
N  16.18300 51.75200 28.44500
C  17.14800 51.65400 29.37800
C  16.76100 51.99200 30.76100
C  15.22300 52.26600 30.47600
C  15.07500 52.28300 28.99400
C  14.28400 51.32200 31.23400
C  17.57700 53.10900 31.41800
C  18.14500 52.84400 32.83600
H  17.39500 52.09900 33.81900
N  14.61300 52.66900 25.94900
C  13.71700 52.98500 26.96800
C  12.52000 53.63200 26.37100
C  12.77400 53.81800 25.01800
C  14.06800 53.05700 24.76600
C  11.36100 54.15600 27.20900
C  11.99500 54.53300 23.95700
O  12.37100 54.61200 22.80400
C  10.72900 55.19000 24.31700
N  16.75900 51.91500 24.08600
C  15.90000 52.34200 23.18500
C  16.40900 52.20500 21.73800
C  17.89500 51.86800 22.06000
C  17.94800 51.47000 23.53500
C  15.68900 51.14600 20.80500
C  18.91700 53.02500 21.77600
C  19.93900 52.76700 20.62700
N  18.24700 51.01400 26.39600
C  19.17200 50.58300 25.45400
C  20.24500 49.88900 26.18100
C  19.96000 50.11600 27.54000
C  18.73900 50.77200 27.64300
C  21.48300 49.24100 25.55100
C  20.44100 49.91600 28.85100
O  21.43900 49.29300 29.23800
C  19.45200 50.50900 29.85300
C  19.01800 49.39300 30.70300
O  18.36000 48.46000 30.36100
O  19.53400 49.54900 31.95200
C  19.11000 48.46200 32.86100
H  13.16600 52.99700 29.11000
H  14.25000 53.37000 22.63800
H  19.85200 50.48600 23.52400
H  16.85000 51.15500 31.45300
H  14.92800 53.23900 30.86800
H  13.89200 50.53000 30.59700
H  13.45500 51.91600 31.61900
H  14.76000 50.77800 32.05000
H  16.98600 54.02200 31.49600
H  18.47300 53.33000 30.83900
H  18.44600 53.81700 33.22500
H  19.10400 52.33500 32.73500
H  11.52900 54.00300 28.27500
H  10.54700 53.47100 26.97300
H  11.02200 55.18600 27.09900
H  10.31700 55.45700 23.34400
H  10.89300 56.06800 24.94200
H  9.99400 54.49300 24.71900
H  16.26600 53.18300 21.27900
H  18.23100 50.99300 21.50300
H  16.41000 50.41300 20.44400
H  15.00700 51.54700 20.05600
H  15.13900 50.51300 21.50200
H  19.54800 53.27800 22.62700
H  18.43200 53.99500 21.67100
H  19.49800 52.47900 19.67300
H  20.54100 51.92000 20.95500
H  20.52800 53.66000 20.41600
H  21.73900 48.36900 26.15300
H  22.25400 50.01000 25.50800
H  21.29800 48.93700 24.52100
H  19.96500 51.26900 30.44300
H  19.45500 47.46400 32.58900
H  18.02500 48.38100 32.79600
H  19.44900 48.75900 33.85300
Mg 0.65900 42.94600 26.03200
C  2.75200 42.90400 28.97000
C  -1.85200 41.74600 28.30900
C  -1.27200 42.28200 23.41400
C  3.42000 43.42100 24.21600
N  0.47900 42.45400 28.43500
C  1.49900 42.50200 29.36600
C  0.94000 42.34100 30.81800
C  -0.45000 41.76500 30.49300
C  -0.69000 42.10100 28.99400
C  -0.65200 40.22400 30.83200
C  0.94400 43.78200 31.53600
C  1.00400 43.67500 33.07100
H  0.99200 42.28300 33.76200
N  -1.36300 42.26400 25.81600
C  -2.20700 41.93700 26.87600
C  -3.54600 41.66600 26.30100
C  -3.43500 41.82200 24.87300
C  -1.98800 42.08300 24.59600
C  -4.76400 41.47700 27.16500
C  -4.45800 41.63200 23.81600
O  -4.18600 41.57200 22.62000
C  -5.92600 41.34900 24.15500
N  1.17700 42.54600 24.09900
C  0.12600 42.58500 23.21500
C  0.72700 42.75300 21.76600
C  2.04600 43.51400 22.00000
C  2.22700 43.20300 23.55300
C  0.86000 41.48600 20.94200
C  1.96900 45.03100 21.66600
C  3.34800 45.59900 21.21700
N  2.72400 43.26200 26.44100
C  3.72400 43.46100 25.59100
C  4.99700 43.68000 26.26400
C  4.62900 43.57600 27.61800
C  3.23300 43.18800 27.69700
C  6.31600 44.04800 25.76100
C  5.19300 43.49000 28.95400
O  6.31600 43.58800 29.31400
C  3.96600 43.24300 29.86700
C  4.33100 42.16400 30.80000
O  4.38600 40.99200 30.51000
O  4.48500 42.70700 32.07100
C  5.17700 41.87100 33.07000
H  -2.62100 41.27400 28.92400
H  -1.80300 42.16100 22.46800
H  4.35400 43.60700 23.68200
H  1.65300 41.70300 31.33900
H  -1.21800 42.31600 31.03600
H  -1.35600 40.11200 31.65700
H  0.32100 39.87800 31.18100
H  -1.02800 39.70100 29.95200
H  0.12000 44.43400 31.24500
H  1.76700 44.39900 31.17400
H  0.42000 44.48100 33.51600
H  1.98600 44.02200 33.39500
H  -4.95200 40.40400 27.19100
H  -5.63900 41.88000 26.65500
H  -4.77600 41.85000 28.18900
H  -6.58800 41.15800 23.31000
H  -6.33000 42.12000 24.81100
H  -6.03100 40.43800 24.74400
H  0.02400 43.45200 21.31200
H  2.92500 43.05100 21.55300
H  0.28300 40.64600 21.32800
H  1.87100 41.13300 20.73800
H  0.39200 41.64200 19.97000
H  1.63400 45.51400 22.58400
H  1.19500 45.17800 20.91300
H  3.19000 45.84700 20.16700
H  4.10100 44.81300 21.28300
H  3.68500 46.47500 21.77100
H  6.28800 44.86900 25.04500
H  6.70600 43.13700 25.30700
H  7.04500 44.29600 26.53200
H  3.72200 44.15100 30.41900
H  6.24600 41.94300 32.86500
H  4.85600 40.83500 32.96800
H  5.01000 42.18200 34.10100

