158

Mg 17.25100 -1.35700 28.48600
C  16.45200 0.22400 31.35100
C  19.34200 -3.48100 30.16800
C  18.72700 -2.21500 25.57300
C  15.71800 1.42100 26.64400
N  17.96400 -1.53600 30.51700
C  17.39900 -0.77900 31.55300
C  17.77300 -1.29300 32.92500
C  18.95800 -2.30700 32.58700
C  18.73700 -2.48600 31.00600
C  20.39300 -1.86800 33.01800
C  16.61100 -1.85900 33.70600
C  16.33700 -1.45900 35.20800
H  17.39800 -0.71300 36.06400
N  18.62400 -2.80400 27.90700
C  19.33200 -3.62100 28.77300
C  20.19000 -4.57800 28.01400
C  20.02500 -4.22800 26.67000
C  19.11000 -3.01700 26.67000
C  21.11200 -5.52300 28.64600
C  20.58100 -4.77700 25.35900
O  20.27700 -4.34000 24.22500
C  21.39400 -6.05800 25.38900
N  17.14800 -0.54300 26.35000
C  17.92200 -1.12800 25.42200
C  17.80700 -0.38400 24.03900
C  16.74300 0.74800 24.36400
C  16.58900 0.61900 25.90800
C  19.10800 0.19700 23.41500
C  15.32700 0.41700 23.67600
C  15.18200 0.35800 22.17800
N  16.23700 0.38500 28.82800
C  15.62200 1.37800 28.00100
C  14.89400 2.31000 28.84800
C  15.15600 1.90200 30.16400
C  16.03200 0.76700 30.12800
C  14.03100 3.46700 28.37900
C  14.87500 2.20000 31.53400
O  14.25900 3.17400 31.91900
C  15.65200 1.08500 32.42600
C  16.56000 1.91300 33.27900
O  17.66000 2.36000 32.86600
O  15.81300 2.30100 34.41800
C  16.50400 3.16800 35.34700
H  20.07000 -4.13300 30.65400
H  19.18300 -2.37600 24.59400
H  15.15600 2.17100 26.08400
H  18.11600 -0.37200 33.39700
H  18.74800 -3.23100 33.12500
H  20.36700 -0.83100 33.35400
H  20.89100 -1.91600 32.05000
H  20.90100 -2.51800 33.73000
H  16.71300 -2.94400 33.72800
H  15.69100 -1.70600 33.14200
H  16.00800 -2.40900 35.63100
H  15.43600 -0.85400 35.10300
H  22.05500 -5.07900 28.32700
H  20.97300 -6.57700 28.40700
H  21.07700 -5.48200 29.73500
H  22.07300 -6.08900 26.24000
H  22.05800 -6.16500 24.53100
H  20.78500 -6.93000 25.62400
H  17.35000 -1.00700 23.27000
H  16.88900 1.74400 23.94600
H  19.14900 -0.09300 22.36500
H  20.00800 -0.27000 23.81400
H  19.15000 1.28400 23.34300
H  14.84200 1.30200 24.08800
H  14.87900 -0.45900 24.14600
H  14.95700 -0.62900 21.77500
H  16.17200 0.60400 21.79500
H  14.44000 1.05900 21.79700
H  13.92800 4.21400 29.16600
H  13.05800 3.06100 28.10100
H  14.49600 3.96000 27.52400
H  15.03000 0.55200 33.14500
H  16.06700 4.16000 35.23700
H  17.56900 3.36700 35.23100
H  16.32200 2.71600 36.32200
Mg -12.63100 15.65600 42.75400
C  -9.26900 14.75500 42.13400
C  -12.14800 18.40400 40.64700
C  -15.96600 16.09700 42.57100
C  -13.15400 12.40100 43.97200
N  -10.90600 16.40800 41.24700
C  -9.58400 15.96200 41.41600
C  -8.63900 16.85000 40.62800
C  -9.62200 18.00300 40.14400
C  -11.01000 17.58800 40.63800
C  -9.24300 19.52400 40.49700
C  -7.80400 16.22000 39.49400
C  -6.32200 16.61700 39.48800
H  -5.91300 17.32200 38.21700
N  -13.84100 17.12000 41.84200
C  -13.42200 18.19600 41.14800
C  -14.60900 19.00900 40.81400
C  -15.74200 18.36900 41.41300
C  -15.19400 17.12100 41.94400
C  -14.49900 20.36800 40.29200
C  -17.16300 18.93200 41.58300
O  -17.40900 20.05000 41.16000
C  -18.26900 18.18800 42.23200
N  -14.27200 14.43000 43.25500
C  -15.51800 14.89000 43.20400
C  -16.53300 13.98800 43.87700
C  -15.67200 12.72600 44.05600
C  -14.22500 13.21500 43.77200
C  -17.16700 14.66700 45.16000
C  -16.15200 11.50300 43.09100
C  -16.88900 10.42900 43.84700
N  -11.52700 13.94000 43.08000
C  -11.84300 12.70700 43.56100
C  -10.64400 11.87800 43.65700
C  -9.61800 12.65500 43.20100
C  -10.19200 13.93200 42.79400
C  -10.53400 10.49500 44.27100
C  -8.15800 12.63400 42.97300
O  -7.35400 11.76500 43.19900
C  -7.90200 13.99400 42.24500
C  -6.88200 14.79600 42.95700
O  -7.04100 15.44900 43.96400
O  -5.63400 14.68800 42.26100
C  -4.60600 15.66600 42.84600
H  -11.91400 19.34200 40.14000
H  -17.04500 16.14600 42.73200
H  -13.45400 11.44900 44.41600
H  -7.94700 17.29200 41.34500
H  -9.72200 17.92200 39.06200
H  -8.16000 19.51100 40.61600
H  -9.73900 19.81800 41.42200
H  -9.38700 20.33200 39.77900
H  -8.25300 16.36900 38.51200
H  -7.92500 15.14800 39.65400
H  -5.80100 15.69000 39.72800
H  -6.10700 17.32700 40.28700
H  -15.29400 21.04300 40.61000
H  -14.52800 20.36600 39.20300
H  -13.62900 20.80100 40.78600
H  -18.50000 17.21400 41.80000
H  -19.17500 18.79400 42.23100
H  -17.99800 17.97100 43.26500
H  -17.32300 13.71300 43.17800
H  -15.64800 12.26000 45.04100
H  -16.65000 15.62300 45.23800
H  -16.88000 14.13800 46.06900
H  -18.25500 14.63900 45.10500
H  -15.25500 11.04700 42.67400
H  -16.75400 11.87600 42.26200
H  -17.04900 10.62200 44.90800
H  -16.31600 9.50200 43.81100
H  -17.83800 10.33500 43.32000
H  -11.47800 9.98300 44.08100
H  -10.40100 10.61400 45.34600
H  -9.67600 9.97800 43.84000
H  -7.45700 13.84400 41.26200
H  -3.64400 15.15800 42.77000
H  -4.75700 15.82700 43.91300
H  -4.61800 16.59600 42.27600

