158

Mg 8.07000 2.45500 27.94900
C  9.70300 1.11400 30.83000
C  6.35500 4.70300 30.08300
C  6.56500 3.71200 25.27800
C  9.85700 0.13200 25.90000
N  8.04300 2.74700 30.29600
C  8.77900 2.08000 31.20500
C  8.59500 2.64700 32.61800
C  7.50400 3.72500 32.39600
C  7.31900 3.82600 30.83600
C  6.16200 3.73000 33.13100
C  9.92400 3.16900 33.22100
C  9.73800 3.92500 34.54000
H  10.29700 3.30900 35.82400
N  6.70300 4.01000 27.72400
C  6.20000 4.78500 28.69400
C  5.31000 5.79200 28.08600
C  5.33600 5.55500 26.67600
C  6.24400 4.40600 26.48100
C  4.59600 6.89200 28.95100
C  4.51700 6.28500 25.60000
O  4.57100 5.93400 24.43700
C  3.86900 7.57400 26.05400
N  8.04000 1.86800 25.88500
C  7.38900 2.63800 24.95300
C  7.52200 2.05200 23.53300
C  8.79300 1.09100 23.74900
C  8.90500 0.98500 25.26100
C  6.16800 1.39800 22.99500
C  10.08400 1.58700 23.07300
C  10.86500 0.60900 22.18600
N  9.23600 0.81200 28.16100
C  9.98800 -0.00600 27.26900
C  10.83700 -0.88500 27.98300
C  10.79700 -0.42700 29.31400
C  9.76900 0.57300 29.41000
C  11.80600 -1.88600 27.42800
C  11.39100 -0.70800 30.63600
O  12.16100 -1.57200 30.97200
C  10.68200 0.30000 31.64800
C  10.16100 -0.45100 32.74800
O  9.19400 -1.17200 32.73300
O  10.91000 -0.21900 33.90900
C  10.29100 -0.74900 35.10300
H  5.92300 5.46700 30.73200
H  6.01600 4.05400 24.39800
H  10.41400 -0.54400 25.24700
H  8.15500 1.93100 33.31100
H  7.89600 4.73600 32.50600
H  6.13400 2.87700 33.80900
H  5.34700 3.64700 32.41200
H  6.08300 4.62800 33.74400
H  10.33100 3.85000 32.47400
H  10.64800 2.38800 33.45600
H  8.69100 4.18200 34.70000
H  10.33000 4.82500 34.38000
H  4.85200 7.90300 28.63200
H  4.79300 6.99600 30.01800
H  3.52000 6.71800 28.96500
H  3.48700 8.05200 25.15200
H  4.70000 8.18000 26.41500
H  3.09800 7.29700 26.77300
H  7.81300 2.86700 22.87000
H  8.56400 0.07700 23.42200
H  5.41800 1.33100 23.78300
H  6.43100 0.44500 22.53600
H  5.69500 1.94600 22.18000
H  10.78300 1.97200 23.81600
H  9.77700 2.36400 22.37200
H  11.50600 1.07100 21.43600
H  10.06900 -0.01700 21.78100
H  11.51600 -0.06800 22.74000
H  12.69600 -1.47200 26.95500
H  11.20900 -2.42400 26.69100
H  12.07600 -2.50400 28.28400
H  11.38800 0.96400 32.14800
H  10.19600 -1.83300 35.15400
H  9.27900 -0.34500 35.07400
H  10.72500 -0.40400 36.04100
Mg -12.60500 16.91600 42.24000
C  -9.48400 15.73600 41.51000
C  -11.54900 20.09500 41.17100
C  -15.84700 18.11300 42.36700
C  -13.79500 13.79800 42.44500
N  -10.73300 17.80300 41.51700
C  -9.55900 17.12200 41.22900
C  -8.40600 18.03100 40.94300
C  -9.05300 19.51100 41.05900
C  -10.55400 19.16500 41.23300
C  -8.48400 20.42700 42.20500
C  -7.58900 17.85500 39.65400
C  -6.19400 17.27600 39.60700
H  -5.23400 17.79600 38.53500
N  -13.52900 18.97200 41.96400
C  -12.90700 20.00800 41.42200
C  -13.92000 21.01800 41.23600
C  -15.15900 20.53800 41.75100
C  -14.89500 19.13900 42.02600
C  -13.55400 22.42200 40.88900
C  -16.39700 21.34900 41.93300
O  -16.36300 22.48000 41.50100
C  -17.72500 20.87800 42.65300
N  -14.54800 16.12100 42.54800
C  -15.70100 16.75900 42.63500
C  -16.86600 15.81800 42.76200
C  -16.21300 14.41000 42.73500
C  -14.75800 14.77500 42.59400
C  -17.66800 16.08400 44.04700
C  -16.79900 13.46300 41.72700
C  -18.10700 12.69000 42.06100
N  -11.79300 15.08900 42.23300
C  -12.41400 13.91400 42.35200
C  -11.43400 12.84300 42.32500
C  -10.22400 13.50300 42.00800
C  -10.49200 14.90200 41.98500
C  -11.68300 11.38500 42.53800
C  -8.82000 13.32500 41.67700
O  -8.20800 12.27600 41.50200
C  -8.25000 14.77900 41.57000
C  -7.33800 15.24500 42.68800
O  -7.61800 15.67600 43.80400
O  -6.05500 15.11900 42.22000
C  -4.88800 15.41200 43.14800
H  -11.12500 21.07700 40.94800
H  -16.87800 18.46400 42.27900
H  -14.04700 12.74500 42.58800
H  -7.64600 17.93400 41.71900
H  -8.96000 20.15400 40.18400
H  -7.90000 21.26400 41.82200
H  -7.70700 19.87500 42.73400
H  -9.10900 20.71500 43.05100
H  -7.46200 18.86000 39.25000
H  -8.14600 17.23200 38.95400
H  -6.25200 16.20000 39.44500
H  -5.72500 17.39800 40.58400
H  -14.26600 22.75700 40.13600
H  -12.57900 22.38600 40.40300
H  -13.38800 23.04300 41.77000
H  -18.26600 20.21600 41.97600
H  -18.38500 21.68000 42.98300
H  -17.37000 20.30800 43.51200
H  -17.40800 16.00800 41.83500
H  -16.38700 13.91300 43.68900
H  -18.03800 15.16000 44.49200
H  -18.49500 16.76700 43.85700
H  -16.99800 16.49000 44.80500
H  -15.98800 12.77100 41.49600
H  -16.95300 14.12200 40.87300
H  -18.05200 11.64200 41.76600
H  -19.06300 13.02400 41.65700
H  -18.23900 12.70100 43.14300
H  -12.35800 11.13400 41.72000
H  -12.09100 11.23000 43.53700
H  -10.82000 10.75200 42.32900
H  -7.62900 14.81200 40.67400
H  -3.93100 15.08100 42.74500
H  -5.09000 14.85000 44.06000
H  -4.90500 16.42700 43.54500

