158

Mg -2.29200 17.03700 27.33700
C  -2.79900 15.21400 30.32200
C  -2.71100 20.03000 29.22800
C  -2.32700 18.99700 24.54600
C  -2.28800 14.18800 25.51200
N  -2.87900 17.53500 29.49300
C  -2.88300 16.63000 30.55700
C  -2.97900 17.41900 31.98600
C  -2.91900 18.94700 31.54000
C  -2.92400 18.85600 29.99500
C  -4.07700 19.85000 32.15500
C  -1.91300 17.02500 32.93400
C  -1.50100 18.02300 33.99500
H  -1.00000 17.44800 35.28800
N  -2.36600 19.29600 26.90100
C  -2.53700 20.25800 27.85600
C  -2.41900 21.57900 27.26200
C  -2.30400 21.33100 25.85400
C  -2.38100 19.81200 25.67800
C  -2.51100 22.88700 28.06200
C  -2.09300 22.23400 24.70300
O  -2.09700 21.85200 23.50000
C  -1.93100 23.68000 24.97500
N  -2.65600 16.72000 25.26600
C  -2.40400 17.60800 24.30600
C  -2.37200 16.92700 22.93100
C  -2.12800 15.46800 23.32100
C  -2.32800 15.45500 24.81400
C  -3.59800 17.22800 22.09000
C  -0.78700 14.82100 22.85100
C  0.45900 15.59700 23.29500
N  -2.44600 15.05400 27.77800
C  -2.42100 13.96800 26.94300
C  -2.64000 12.72200 27.63700
C  -2.75400 13.14200 28.97600
C  -2.67800 14.54400 29.02300
C  -2.83700 11.30300 27.11500
C  -2.95200 12.71900 30.33400
O  -3.08900 11.60100 30.80700
C  -2.81300 14.04400 31.31900
C  -1.69500 13.95600 32.21600
O  -0.59600 14.23100 31.83000
O  -1.90700 13.48900 33.47400
C  -0.68900 13.29800 34.28800
H  -2.80100 20.92200 29.85100
H  -2.07500 19.44600 23.58300
H  -2.18100 13.24800 24.96700
H  -3.97300 17.21200 32.38500
H  -1.95500 19.41300 31.74400
H  -3.56900 20.76600 32.45600
H  -4.66300 19.50300 33.00600
H  -4.74000 20.00900 31.30500
H  -0.98600 16.91200 32.37200
H  -2.17800 16.06200 33.36900
H  -2.27100 18.77800 34.15900
H  -0.67100 18.61900 33.61500
H  -3.18500 23.61400 27.60700
H  -1.50400 23.30300 28.03300
H  -2.75400 22.70600 29.10900
H  -1.03600 23.88600 25.56300
H  -2.80900 23.94300 25.56500
H  -1.99300 24.25100 24.04900
H  -1.53100 17.30700 22.35100
H  -2.87200 14.81800 22.86000
H  -4.40200 16.64000 22.53200
H  -3.38100 17.22700 21.02200
H  -4.06100 18.18800 22.31700
H  -0.75800 14.82100 21.76200
H  -0.72000 13.79500 23.21300
H  0.37500 16.48700 23.91900
H  1.05100 15.92000 22.43900
H  1.13900 14.93900 23.83600
H  -2.01400 10.67400 27.45400
H  -2.77900 11.35000 26.02700
H  -3.78800 10.86300 27.41300
H  -3.68600 14.13100 31.96600
H  -0.36500 12.30700 33.97100
H  -1.06000 13.38400 35.30900
H  0.16100 13.95900 34.11800
Mg 54.98500 23.76300 45.12500
C  52.48000 26.00800 44.08200
C  52.88700 21.16900 43.91100
C  57.50300 21.51400 45.38100
C  57.10600 26.47600 45.86100
N  52.89200 23.66900 44.00500
C  52.08600 24.68000 43.80300
C  50.72900 24.16800 43.21400
C  50.75500 22.67500 43.64800
C  52.22900 22.47000 43.83000
C  49.82100 22.27200 44.85300
C  50.42000 24.42200 41.70400
C  48.99600 24.36500 41.19000
H  48.97200 24.16700 39.63100
N  55.15400 21.66100 44.72200
C  54.17300 20.78500 44.30400
C  54.63400 19.41700 44.13000
C  55.99500 19.46000 44.57000
C  56.34200 20.87800 44.89200
C  53.79700 18.21400 43.71800
C  56.92500 18.25800 44.62700
O  56.47400 17.15300 44.24100
C  58.40100 18.34800 45.00400
N  57.00100 23.98600 45.54100
C  57.81900 22.85600 45.65900
C  59.25400 23.33600 46.04200
C  59.14700 24.98400 46.14200
C  57.68400 25.21100 45.83000
C  59.98300 22.53000 47.21300
C  60.11600 25.78400 45.21300
C  60.77100 27.02700 45.75900
N  54.84900 25.84200 45.00800
C  55.75800 26.84100 45.48400
C  55.05100 28.12000 45.49700
C  53.80300 27.84700 44.90500
C  53.70100 26.48500 44.68200
C  55.59000 29.38200 46.08700
C  52.54000 28.45600 44.51600
O  52.13100 29.61600 44.56100
C  51.61900 27.27100 43.91700
C  51.39900 27.57600 42.42400
O  52.30300 27.73000 41.58800
O  50.10100 27.86000 42.21800
C  49.72900 28.23100 40.85400
H  52.26600 20.35100 43.54000
H  58.43700 20.96200 45.51200
H  57.71000 27.32000 46.19800
H  49.98300 24.70700 43.79900
H  50.39600 21.99000 42.88100
H  50.41200 22.08400 45.74900
H  49.30800 21.34200 44.60900
H  49.03800 22.99800 45.07400
H  50.92200 23.62000 41.16200
H  50.92900 25.36500 41.50500
H  48.44100 25.28700 41.36500
H  48.49300 23.50700 41.63700
H  53.79700 17.99600 42.65000
H  52.77400 18.32800 44.07700
H  54.15000 17.30200 44.19900
H  58.79100 17.33300 45.08100
H  58.43700 18.76200 46.01100
H  59.00600 18.84900 44.24800
H  59.76700 23.11500 45.10600
H  59.25400 25.21500 47.20200
H  60.98900 22.30000 46.86300
H  59.45200 21.60900 47.45500
H  60.03400 23.19100 48.07800
H  59.50600 26.20100 44.41200
H  60.79800 25.07400 44.74600
H  61.79400 26.96600 45.38700
H  60.73500 27.05400 46.84800
H  60.32800 27.89400 45.26800
H  56.68000 29.37300 46.07200
H  55.22300 29.41900 47.11300
H  55.15300 30.24900 45.59300
H  50.58900 27.21300 44.26900
H  50.35800 27.77000 40.09300
H  49.76000 29.30900 40.69500
H  48.72500 27.86500 40.64000

