158

Mg 9.95000 47.14300 25.80000
C  7.67900 47.42600 28.43200
C  12.36000 48.54500 27.97300
C  12.26400 46.76800 23.37400
C  7.39600 46.40900 23.70000
N  9.99400 47.88400 27.97600
C  8.94500 47.73900 28.92300
C  9.44200 48.25300 30.29000
C  10.90200 48.86800 29.97600
C  11.11300 48.36400 28.56200
C  11.16500 50.34800 30.13500
C  9.48700 47.19000 31.47300
C  10.15600 47.57900 32.82800
H  9.23800 47.28900 34.02100
N  12.01500 47.69200 25.63100
C  12.83700 48.16100 26.66600
C  14.17400 48.10100 26.22100
C  14.19400 47.47400 24.89200
C  12.78200 47.30400 24.56900
C  15.41100 48.52500 27.10900
C  15.34300 46.97000 24.12800
O  15.23100 46.51000 22.96100
C  16.75500 46.93300 24.75100
N  9.86900 46.76400 23.84900
C  10.93300 46.62800 22.99700
C  10.47700 46.08900 21.64900
C  8.95300 46.15200 21.65800
C  8.69700 46.46500 23.16100
C  11.07100 46.81200 20.46700
C  8.21100 44.93100 21.04000
C  7.20500 45.17900 19.84800
N  7.90500 47.01500 25.95400
C  6.96900 46.69300 25.04000
C  5.69200 46.48700 25.64600
C  5.92100 46.90000 26.98100
C  7.31700 47.10300 27.08400
C  4.33500 46.21700 24.98100
C  5.19900 47.11000 28.23400
O  4.06900 46.94900 28.58200
C  6.32100 47.50200 29.21600
C  6.07400 46.51900 30.33900
O  6.53600 45.39900 30.42000
O  5.28700 47.05500 31.29500
C  5.08200 46.38000 32.53900
H  13.09600 48.83900 28.72500
H  12.97700 46.57000 22.57100
H  6.55000 46.22800 23.03400
H  8.77400 49.06500 30.57400
H  11.61600 48.29600 30.56900
H  10.53000 50.84500 30.86800
H  10.94300 50.83800 29.18700
H  12.21800 50.53100 30.34800
H  9.65700 46.14400 31.21500
H  8.45700 46.94600 31.73300
H  10.37900 48.64400 32.75800
H  11.08500 47.01600 32.91800
H  15.09100 49.03500 28.01800
H  16.02300 49.23100 26.54700
H  16.01500 47.72100 27.52800
H  16.61000 46.78700 25.82100
H  17.38000 47.79500 24.51500
H  17.32400 46.08500 24.37000
H  10.84600 45.06800 21.55100
H  8.66400 47.05100 21.11200
H  12.13400 46.59800 20.35800
H  11.03700 47.89100 20.61700
H  10.51300 46.51600 19.58000
H  7.70600 44.44100 21.87200
H  8.94200 44.23600 20.62500
H  7.46800 44.47100 19.06200
H  7.22400 46.20600 19.48400
H  6.14600 45.02500 20.05500
H  4.46500 45.85800 23.96000
H  3.80300 47.16300 24.87500
H  3.90200 45.46900 25.64500
H  6.23100 48.54200 29.52700
H  4.73500 47.05700 33.32100
H  5.99600 45.91000 32.90100
H  4.32800 45.59300 32.53300
Mg 1.14600 42.37500 25.69000
C  3.25500 42.32800 28.50500
C  -1.56600 41.66900 27.69900
C  -0.55900 41.46800 22.88000
C  3.99900 42.91900 23.82500
N  0.85500 42.17700 28.00400
C  1.84300 42.28100 28.90000
C  1.15700 42.21200 30.34100
C  -0.34700 41.94300 30.04800
C  -0.39500 42.07000 28.51000
C  -0.85500 40.60200 30.65100
C  1.33600 43.59600 31.05200
C  1.79300 43.54400 32.50800
H  0.61800 43.45200 33.50400
N  -0.79500 41.77400 25.31600
C  -1.75600 41.56100 26.27600
C  -2.98000 40.98600 25.67500
C  -2.67600 40.83000 24.27400
C  -1.29600 41.32900 24.08100
C  -4.17100 40.65900 26.54300
C  -3.59000 40.20700 23.14600
O  -3.10700 40.10300 21.99900
C  -5.04300 39.83600 23.37300
N  1.63600 42.19500 23.62500
C  0.77600 41.92400 22.65600
C  1.36300 42.12100 21.24100
C  2.74000 42.79700 21.57100
C  2.82800 42.66800 23.09500
C  1.48800 40.68300 20.48300
C  2.91000 44.25900 21.13400
C  2.66000 44.49600 19.64200
N  3.16900 42.52300 26.04900
C  4.22400 42.76900 25.18400
C  5.48200 42.93400 25.84400
C  5.19800 42.67400 27.16600
C  3.75000 42.44000 27.24000
C  6.78700 42.95700 25.17700
C  5.76800 42.55900 28.47500
O  6.92800 42.62400 28.81600
C  4.57000 42.45100 29.39500
C  4.67800 41.45400 30.57200
O  4.60000 40.22200 30.55100
O  4.92400 42.23500 31.69100
C  5.07100 41.44600 32.88300
H  -2.46500 41.54100 28.30500
H  -1.01200 41.07300 21.96800
H  4.83500 43.29200 23.23000
H  1.68900 41.44800 30.90700
H  -0.92100 42.81000 30.37500
H  -0.14800 39.95600 31.17200
H  -1.31200 40.09400 29.80200
H  -1.67700 40.77100 31.34600
H  0.43000 44.19000 30.92900
H  2.13300 44.15100 30.55700
H  2.41600 44.41800 32.69900
H  2.43200 42.66900 32.62500
H  -4.27900 41.42600 27.31100
H  -4.10000 39.63400 26.90600
H  -5.11400 40.89700 26.05000
H  -5.44000 39.60500 22.38500
H  -5.55900 40.75000 23.66600
H  -5.02700 38.96200 24.02500
H  0.69100 42.88700 20.85700
H  3.64500 42.32800 21.18500
H  1.29300 39.87400 21.18700
H  2.53900 40.59100 20.21200
H  0.83600 40.56300 19.61700
H  3.97800 44.47400 21.10700
H  2.44200 45.04300 21.72900
H  2.13400 43.66200 19.17800
H  3.61900 44.60300 19.13400
H  2.16900 45.44500 19.42400
H  6.89800 42.98800 24.09300
H  7.32500 42.06800 25.50600
H  7.34600 43.79300 25.59800
H  4.62200 43.43000 29.87100
H  5.65400 42.09500 33.53700
H  5.63700 40.53000 32.71600
H  4.04800 41.23000 33.19000

