158

Mg 43.30100 41.93000 26.65100
C  42.24900 44.17000 29.01800
C  44.20100 39.72200 29.01200
C  44.08400 39.85800 24.18200
C  42.97900 44.55500 24.22200
N  43.24000 41.96400 28.73200
C  42.62400 42.96000 29.53300
C  42.68900 42.56900 31.06000
C  43.51300 41.23400 31.02500
C  43.66100 40.95900 29.50500
C  44.90300 41.31200 31.67900
C  41.25100 42.37800 31.71200
C  40.97300 43.28100 32.94100
H  40.20100 42.70200 34.08200
N  44.04600 40.03200 26.57000
C  44.38100 39.25500 27.72800
C  44.84000 38.03500 27.31400
C  44.93000 38.04400 25.87800
C  44.31900 39.33300 25.46900
C  45.12400 36.91100 28.20900
C  45.46700 36.93500 24.93500
O  45.46100 37.12900 23.72600
C  45.96700 35.59200 25.33700
N  43.60500 42.21900 24.51000
C  43.82400 41.11100 23.73700
C  43.85800 41.51400 22.26600
C  43.38200 43.01100 22.21200
C  43.34800 43.30500 23.71900
C  45.28900 41.35900 21.67900
C  42.00400 43.23400 21.45300
C  42.16000 43.99400 20.07700
N  42.76300 43.94900 26.58800
C  42.71500 44.86100 25.54800
C  42.22600 46.12100 26.09900
C  42.00200 45.90200 27.40100
C  42.34600 44.57100 27.66900
C  41.99400 47.29600 25.35800
C  41.50200 46.47000 28.59000
O  40.93000 47.51500 28.81800
C  41.68000 45.41800 29.67600
C  42.62100 45.91000 30.79400
O  43.82900 46.11600 30.64600
O  41.98700 46.08700 32.01600
C  42.92900 46.46000 33.16400
H  44.41100 38.99300 29.79800
H  44.46500 39.16900 23.42500
H  42.67200 45.34100 23.52900
H  43.12800 43.42900 31.56500
H  42.88600 40.39200 31.31800
H  45.70500 41.39500 30.94500
H  44.89600 40.31200 32.11300
H  44.97500 42.08200 32.44600
H  40.96700 41.34700 31.91900
H  40.43500 42.69800 31.06400
H  40.55000 44.21600 32.57300
H  41.91200 43.47800 33.45900
H  44.53500 36.02600 27.96800
H  44.82500 37.09700 29.24000
H  46.17900 36.66200 28.09500
H  46.65800 35.17700 24.60300
H  45.19900 34.82400 25.42700
H  46.61000 35.51100 26.21400
H  43.14400 40.95300 21.66300
H  44.18400 43.59800 21.76500
H  45.68200 42.25200 21.19400
H  45.40800 40.51600 20.99900
H  46.05200 41.13700 22.42500
H  41.33600 43.69600 22.18000
H  41.62100 42.23400 21.25300
H  41.25300 44.57200 19.89900
H  42.41600 43.44600 19.17000
H  42.97500 44.69900 20.23800
H  41.22300 47.08700 24.61700
H  42.91200 47.60200 24.85500
H  41.76900 48.09900 26.06100
H  40.72800 45.19200 30.15700
H  42.69800 47.41500 33.63500
H  43.98200 46.52100 32.88700
H  42.75000 45.71300 33.93700
Mg 30.58700 58.06500 41.37800
C  27.98300 56.09300 40.01700
C  32.73300 55.82300 39.90300
C  33.08000 60.25400 41.94600
C  28.21500 60.42500 42.11100
N  30.32700 56.21200 40.07900
C  29.21400 55.56000 39.71800
C  29.48800 54.25900 39.03200
C  30.93000 54.02700 39.46300
C  31.42600 55.42000 39.84200
C  31.17500 52.96000 40.50100
C  29.18800 54.24800 37.49300
C  28.07200 53.38000 36.87500
H  27.04700 54.21700 36.02200
N  32.55000 58.00900 41.02600
C  33.27400 56.96600 40.45900
C  34.66600 57.28800 40.37100
C  34.74100 58.54200 40.89100
C  33.40700 58.99400 41.37700
C  35.74900 56.28200 39.91000
C  36.02400 59.28700 41.00900
O  37.14500 58.80800 40.70000
C  36.12600 60.69600 41.41900
N  30.67000 60.11900 41.96600
C  31.80900 60.82100 42.13900
C  31.57700 62.24500 42.71300
C  30.02000 62.28200 42.62600
C  29.58400 60.82400 42.15900
C  32.29200 62.61400 44.03800
C  29.49600 63.47000 41.74100
C  28.42200 64.40700 42.38300
N  28.46900 58.27600 41.28400
C  27.62700 59.21000 41.74500
C  26.22900 58.77400 41.51600
C  26.33900 57.53400 40.89200
C  27.72300 57.32000 40.74600
C  24.96400 59.49900 41.86500
C  25.54700 56.43500 40.30600
O  24.32800 56.28300 40.27400
C  26.61500 55.45000 39.78300
C  26.47400 54.16400 40.47200
O  26.95800 53.90000 41.55500
O  25.69100 53.33700 39.69800
C  25.14800 52.12800 40.27600
H  33.34800 54.98700 39.56300
H  33.86300 60.95900 42.23400
H  27.54200 61.26400 42.30100
H  28.96700 53.43500 39.51900
H  31.49100 53.69800 38.58800
H  30.24300 52.63300 40.96100
H  31.64900 53.39300 41.38300
H  31.79400 52.18700 40.04500
H  30.07000 53.87600 36.97200
H  29.10100 55.31900 37.31200
H  27.53200 52.84300 37.65500
H  28.51100 52.62300 36.22600
H  36.02200 56.43200 38.86500
H  35.50900 55.23700 40.10500
H  36.69500 56.46500 40.42000
H  35.46700 61.25500 40.75400
H  37.16500 61.01600 41.35000
H  35.79200 60.84800 42.44500
H  31.92200 62.80400 41.84300
H  29.66500 62.36500 43.65300
H  32.98600 61.79600 44.23100
H  31.53400 62.85200 44.78400
H  32.93000 63.46200 43.79200
H  29.11600 62.94200 40.86700
H  30.33200 64.07900 41.39600
H  28.48100 65.45600 42.09100
H  28.42600 64.21500 43.45500
H  27.40500 64.09700 42.14300
H  25.13700 60.57400 41.83500
H  24.76100 59.23600 42.90400
H  24.17500 59.16600 41.19000
H  26.34200 55.45200 38.72800
H  24.11800 52.39200 40.51500
H  25.73800 51.63900 41.05100
H  25.06100 51.33800 39.53000

