158

Mg 47.89100 15.43300 29.10100
C  45.92200 15.46300 31.99700
C  50.36200 17.03200 30.71800
C  49.55800 15.67500 26.08000
C  45.23300 13.86400 27.36600
N  48.08800 16.11800 31.16000
C  47.20900 15.96800 32.18500
C  47.88100 16.41100 33.46500
C  49.15700 17.21400 32.98200
C  49.25900 16.75800 31.51900
C  49.14500 18.79400 33.10400
C  48.12500 15.16500 34.47400
C  47.52000 15.26700 35.89000
H  47.78800 16.47700 36.68700
N  49.66900 16.28700 28.44300
C  50.56800 16.81900 29.31900
C  51.76800 17.06700 28.65000
C  51.61800 16.65300 27.28000
C  50.23600 16.20000 27.20800
C  53.04900 17.48100 29.35000
C  52.66000 16.62500 26.20800
O  52.40300 16.06200 25.12600
C  54.13300 17.03100 26.51500
N  47.47200 14.73400 27.04200
C  48.32600 15.02200 26.03200
C  47.73000 14.45500 24.69300
C  46.39200 13.73200 25.14800
C  46.33200 14.16100 26.64000
C  47.56000 15.40800 23.49900
C  46.42500 12.14400 25.13300
C  45.48200 11.37200 24.21500
N  45.87800 14.84800 29.49500
C  44.95400 14.10900 28.75100
C  43.75200 13.89000 29.52100
C  44.02800 14.44100 30.81400
C  45.33500 14.98300 30.72900
C  42.49500 13.11700 29.09400
C  43.55800 14.63300 32.17100
O  42.50600 14.39300 32.82700
C  44.75800 15.25700 32.96900
C  44.38100 16.43800 33.79300
O  44.49500 17.64500 33.42200
O  43.85700 16.13400 34.98400
C  43.35900 17.19600 35.84900
H  51.19100 17.42500 31.31000
H  50.09300 15.66400 25.12800
H  44.43600 13.46500 26.73500
H  47.19100 17.02300 34.04600
H  50.01800 16.77700 33.48700
H  48.29300 19.28700 33.57400
H  49.16400 19.16900 32.08100
H  50.01700 19.08000 33.69300
H  49.18700 14.94700 34.58000
H  47.68100 14.34200 33.91400
H  47.68600 14.34800 36.45200
H  46.43800 15.22800 35.76400
H  53.69400 16.60200 29.37800
H  52.82200 17.66700 30.40000
H  53.40000 18.40100 28.88200
H  54.57000 16.26100 27.15100
H  54.21100 17.99200 27.02400
H  54.67600 17.09400 25.57300
H  48.35800 13.68100 24.25100
H  45.55100 14.18200 24.62100
H  48.18700 16.29900 23.54200
H  46.54200 15.79200 23.44300
H  47.79400 14.76300 22.65200
H  46.18500 11.82200 26.14600
H  47.40700 11.86000 24.75300
H  46.10500 10.68600 23.64200
H  45.01400 12.09800 23.55000
H  44.78900 10.74000 24.77000
H  42.22600 12.45100 29.91400
H  42.89600 12.54200 28.26000
H  41.67200 13.76100 28.78300
H  45.19100 14.49700 33.61900
H  44.14000 17.65400 36.45500
H  42.71600 16.61400 36.50900
H  42.77800 17.89200 35.24400
Mg 49.28800 34.61900 26.10100
C  47.00000 33.87000 28.78400
C  49.72800 37.62400 27.67900
C  50.93200 35.46200 23.61000
C  47.99900 31.74500 24.46200
N  48.71500 35.49400 28.17900
C  47.72800 34.96700 29.08500
C  47.60000 35.98800 30.19400
C  48.29900 37.29900 29.69400
C  48.95900 36.75200 28.46200
C  47.33500 38.54600 29.42900
C  48.12100 35.33200 31.51000
C  47.19900 35.50600 32.74300
H  47.41500 36.66400 33.76200
N  50.37000 36.24700 25.66600
C  50.44400 37.46200 26.44100
C  51.30400 38.40500 25.82800
C  51.69200 37.76700 24.61200
C  51.03100 36.45700 24.56000
C  51.63000 39.81100 26.33700
C  52.60600 38.26500 23.50000
O  52.76700 37.65800 22.41700
C  53.40600 39.50200 23.59500
N  49.22200 33.75600 24.20700
C  50.19300 34.28200 23.35400
C  50.55400 33.30800 22.17000
C  49.70400 32.11000 22.56800
C  48.81200 32.57300 23.74100
C  50.40400 33.84900 20.68700
C  50.48500 30.73700 22.83000
C  50.28900 29.59700 21.81600
N  47.76000 33.05900 26.56600
C  47.33700 32.00100 25.76300
C  46.53600 31.18700 26.59900
C  46.21300 32.01500 27.68500
C  47.03200 33.12400 27.63000
C  46.00600 29.85800 26.22400
C  45.37900 32.10600 28.83800
O  44.53000 31.34500 29.31900
C  45.79900 33.41800 29.56800
C  45.92300 32.97700 30.93300
O  46.80600 32.27500 31.34700
O  44.78600 33.23700 31.61900
C  44.73000 32.59800 32.94200
H  49.94600 38.59300 28.13200
H  51.52500 35.68700 22.72100
H  47.91400 30.71000 24.12700
H  46.53000 36.09700 30.37400
H  49.02900 37.54500 30.46500
H  46.36000 38.41300 29.89900
H  47.11900 38.59800 28.36200
H  47.70200 39.43300 29.94500
H  49.00200 35.93800 31.72000
H  48.28000 34.26600 31.34400
H  47.30300 34.58000 33.30700
H  46.17100 35.56800 32.38400
H  51.68500 40.40200 25.42300
H  52.58500 39.72100 26.85500
H  50.86000 40.15900 27.02500
H  54.18000 39.54900 22.82800
H  53.84200 39.64900 24.58300
H  52.76800 40.36300 23.39800
H  51.60800 33.11300 22.36500
H  49.06300 31.88600 21.71500
H  51.31900 33.76100 20.10200
H  50.09100 34.89200 20.74100
H  49.59000 33.36200 20.15000
H  50.19000 30.48900 23.85000
H  51.55500 30.91200 22.72000
H  49.79400 29.83100 20.87400
H  49.63000 28.88000 22.30500
H  51.26900 29.17800 21.58800
H  45.31900 29.30500 26.86500
H  46.89600 29.22900 26.19500
H  45.69100 29.86500 25.18100
H  45.02800 34.18800 29.58800
H  45.39900 33.20100 33.55700
H  45.03600 31.55400 32.88900
H  43.70500 32.65000 33.30800

