158

Mg -2.55300 17.16100 27.25400
C  -3.07200 14.84600 29.84500
C  -2.95800 19.62000 29.55100
C  -2.71300 19.21400 24.68400
C  -2.65200 14.47000 24.92200
N  -3.10700 17.15500 29.39600
C  -3.07000 16.16500 30.24900
C  -3.21500 16.63700 31.72200
C  -3.26600 18.22100 31.56600
C  -3.12300 18.37800 30.03700
C  -4.58200 18.85100 32.10300
C  -2.12400 16.13100 32.67600
C  -1.79000 17.03400 33.92200
H  -1.40000 16.08900 35.11900
N  -2.62500 19.20000 27.13600
C  -2.71100 20.04200 28.24900
C  -2.53200 21.37800 27.74600
C  -2.38600 21.24500 26.29900
C  -2.55700 19.84100 25.97200
C  -2.45900 22.59500 28.65600
C  -1.96400 22.33500 25.22300
O  -1.79900 22.06100 24.05300
C  -1.82300 23.65600 25.60700
N  -2.75100 16.81600 25.03800
C  -2.78300 17.90600 24.25000
C  -2.91600 17.42300 22.77600
C  -2.56600 15.93100 22.78600
C  -2.66000 15.70000 24.34600
C  -4.29400 17.84000 22.15400
C  -1.23200 15.48700 22.07600
C  0.04600 16.10800 22.62500
N  -2.78300 15.09100 27.26400
C  -2.82000 14.15500 26.30500
C  -2.91200 12.88500 26.82500
C  -3.02200 13.05400 28.22200
C  -2.95100 14.48400 28.44500
C  -3.09900 11.61500 26.08100
C  -3.29300 12.39000 29.45700
O  -3.50400 11.22100 29.69200
C  -3.26500 13.50200 30.57400
C  -1.97900 13.19900 31.27300
O  -0.86600 13.61700 30.96700
O  -2.22500 12.53300 32.39700
C  -1.11700 12.36000 33.36000
H  -3.04700 20.36400 30.34600
H  -2.58900 19.82200 23.78600
H  -2.60200 13.55900 24.32200
H  -4.21500 16.32300 32.01800
H  -2.43100 18.69300 32.08300
H  -4.27100 19.69100 32.72300
H  -5.04000 18.07300 32.71300
H  -5.19900 19.20000 31.27500
H  -1.19200 15.83100 32.19700
H  -2.60200 15.24600 33.09600
H  -2.61500 17.61300 34.33800
H  -0.92100 17.64300 33.67300
H  -1.59700 23.19900 28.37400
H  -2.31000 22.24500 29.67800
H  -3.40400 23.13800 28.63400
H  -1.79500 24.43000 24.84000
H  -0.93900 23.68200 26.24500
H  -2.74200 23.94900 26.11300
H  -2.11500 17.77700 22.12800
H  -3.25800 15.38900 22.14200
H  -4.84600 18.45100 22.86800
H  -4.88100 16.96300 21.88100
H  -4.01300 18.51700 21.34600
H  -1.29700 15.78800 21.03000
H  -1.20400 14.39800 22.04300
H  0.59900 15.20000 22.86500
H  -0.05800 16.63700 23.57300
H  0.51800 16.73200 21.86600
H  -2.54000 10.86100 26.63600
H  -2.74100 11.63100 25.05100
H  -4.13600 11.28600 26.14800
H  -4.08300 13.43700 31.29200
H  -1.08900 11.28200 33.52000
H  -1.43400 12.86400 34.27300
H  -0.17100 12.61600 32.88300
Mg 40.51100 10.15400 29.81900
C  42.51300 11.37900 32.29500
C  38.27100 9.02700 32.17400
C  38.61000 8.80000 27.31400
C  43.10200 10.64100 27.50900
N  40.41200 10.31000 31.94100
C  41.24900 10.97700 32.74900
C  40.69400 11.05200 34.20400
C  39.44100 10.06400 34.22000
C  39.38800 9.73800 32.65700
C  39.67700 8.73700 35.03100
C  40.57600 12.50600 34.65500
C  39.76100 12.74100 35.95200
H  40.64700 13.26000 37.10100
N  38.65800 9.16300 29.73400
C  37.85600 8.83100 30.83100
C  36.66500 8.18500 30.34300
C  36.76100 8.12200 28.92900
C  38.00500 8.75300 28.58600
C  35.62200 7.54900 31.32400
C  35.73800 7.62400 28.01800
O  35.75800 7.74400 26.78600
C  34.55700 6.92500 28.59300
N  40.88300 9.88500 27.65100
C  39.95300 9.17600 26.95000
C  40.46300 9.04300 25.47400
C  41.92800 9.65300 25.54800
C  41.97600 10.07600 26.97100
C  40.35900 7.69000 24.67200
C  42.29500 10.72900 24.55300
C  42.13400 12.17700 24.95000
N  42.43500 10.98600 29.79500
C  43.38500 11.15900 28.82600
C  44.60100 11.66800 29.42800
C  44.29400 11.91200 30.79200
C  42.97900 11.41500 30.97000
C  45.82200 12.12100 28.78200
C  44.77600 12.47000 31.99800
O  45.85800 13.05200 32.27400
C  43.59000 12.22300 33.06400
C  44.17400 11.37500 34.10500
O  44.91700 10.38900 34.00200
O  43.77100 11.79300 35.32100
C  44.21700 10.98000 36.47600
H  37.56300 8.74800 32.95700
H  38.04900 8.32600 26.50600
H  43.95300 10.87300 26.86500
H  41.47200 10.62100 34.83400
H  38.49100 10.55900 34.42200
H  39.80900 7.90000 34.34500
H  38.87700 8.44200 35.70900
H  40.54300 8.71200 35.69300
H  40.09100 13.02800 33.83000
H  41.56400 12.95900 34.74100
H  39.23900 11.87000 36.35000
H  39.02800 13.50500 35.69400
H  35.56900 6.47800 31.13000
H  34.68000 8.07800 31.18100
H  35.85800 7.68400 32.38000
H  33.91100 7.57800 29.17900
H  34.95400 6.04000 29.09000
H  33.82200 6.58500 27.86400
H  39.69900 9.55700 24.89100
H  42.68500 8.87700 25.42700
H  39.62800 7.68100 23.86300
H  40.18600 6.84900 25.34300
H  41.35800 7.58600 24.24900
H  41.66300 10.49000 23.69700
H  43.36400 10.52800 24.47800
H  43.03000 12.59700 25.40800
H  41.26200 12.13700 25.60400
H  41.78800 12.85000 24.16600
H  46.03600 11.61000 27.84400
H  46.63800 11.83300 29.44500
H  45.86500 13.20100 28.63900
H  43.30100 13.19500 33.46300
H  43.59300 11.37600 37.27700
H  45.27000 11.11800 36.72100
H  43.95500 9.93500 36.31000

