158

Mg 35.98700 49.98300 25.25800
C  35.91000 48.08800 28.21700
C  34.89600 52.61700 27.03800
C  35.72100 51.55100 22.31300
C  37.00100 47.01200 23.68400
N  35.29700 50.23800 27.37000
C  35.36400 49.35700 28.38600
C  34.91600 50.04500 29.72100
C  34.38000 51.43700 29.19500
C  35.04200 51.43100 27.75700
C  32.85700 51.61900 29.27300
C  36.17000 50.23300 30.69300
C  36.11200 49.56700 32.07500
H  34.82400 49.31400 32.80700
N  35.31800 51.81800 24.75300
C  34.95300 52.79400 25.60000
C  34.58800 54.03300 24.92400
C  34.95600 53.74500 23.57200
C  35.33600 52.29600 23.43900
C  34.12600 55.28700 25.57800
C  34.93100 54.69700 22.40100
O  35.40200 54.39900 21.30000
C  34.39100 56.07000 22.65900
N  36.28100 49.35600 23.28200
C  36.07700 50.26300 22.22500
C  36.45400 49.59000 20.95700
C  36.74700 48.14600 21.32700
C  36.73400 48.14900 22.87200
C  35.56700 49.74400 19.75300
C  38.12400 47.50400 20.81300
C  39.36700 47.95200 21.70700
N  36.38600 47.94600 25.80100
C  36.81300 46.88100 25.03200
C  36.97500 45.73900 25.85500
C  36.64400 46.19500 27.08100
C  36.37100 47.56800 27.01400
C  37.27500 44.36700 25.44800
C  36.44600 45.73900 28.44300
O  36.65500 44.66100 28.93100
C  36.02400 46.96100 29.25000
C  34.65000 46.50100 29.89300
O  33.51100 46.74300 29.51000
O  34.92000 45.77200 31.01200
C  33.67900 45.36600 31.79700
H  34.51100 53.39200 27.70400
H  35.67000 51.97300 21.30700
H  37.35200 46.10900 23.18100
H  34.13800 49.42800 30.17200
H  34.87500 52.24900 29.72700
H  32.32800 50.74100 29.64500
H  32.53300 51.89200 28.26900
H  32.53200 52.39200 29.96900
H  36.52300 51.26100 30.77000
H  36.97000 49.60800 30.29600
H  36.74000 50.10500 32.78500
H  36.57300 48.59600 31.89300
H  33.36000 55.82800 25.02200
H  35.00300 55.92500 25.68600
H  33.69800 55.11100 26.56500
H  34.90600 56.73100 23.35700
H  33.35100 55.85900 22.91200
H  34.38900 56.53700 21.67500
H  37.41500 50.08500 20.81900
H  35.91000 47.49700 21.06900
H  34.62400 50.16900 20.09700
H  35.36400 48.77700 19.29300
H  36.02600 50.48100 19.09400
H  38.32500 47.75200 19.77100
H  37.89100 46.44200 20.89100
H  39.76800 47.01600 22.09600
H  39.22400 48.57300 22.59200
H  40.08800 48.45300 21.06100
H  37.62300 44.21800 24.42500
H  36.47500 43.65500 25.65100
H  38.07300 43.93300 26.05000
H  36.82400 47.10500 29.97700
H  34.07400 44.84100 32.66700
H  33.05300 44.69600 31.20800
H  33.04100 46.20000 32.09000
Mg -11.31200 38.89500 42.04700
C  -9.78500 36.04600 40.56800
C  -8.92200 40.75700 40.42200
C  -13.18700 41.68100 42.62200
C  -13.94300 36.88200 42.91600
N  -9.69300 38.42900 40.40400
C  -9.12100 37.20400 40.16800
C  -7.80500 37.36300 39.44200
C  -7.50700 38.86900 39.46200
C  -8.79000 39.42000 40.06700
C  -6.21800 39.19800 40.29500
C  -7.91700 36.85000 37.95500
C  -6.73600 36.05800 37.35600
H  -6.07900 36.70500 36.17300
N  -11.10500 40.89700 41.56600
C  -10.01900 41.48500 40.95500
C  -10.28100 42.91400 40.80100
C  -11.42600 43.22300 41.53000
C  -12.02400 41.93600 41.83800
C  -9.27000 43.78700 40.09900
C  -11.90000 44.62400 41.74800
O  -11.18900 45.58100 41.44200
C  -13.17200 44.96300 42.53300
N  -13.24800 39.22400 42.62100
C  -13.71800 40.42100 42.97700
C  -15.11200 40.39200 43.68300
C  -15.38400 38.80600 43.69000
C  -14.11200 38.24800 43.09600
C  -15.22200 41.06700 45.08100
C  -16.57900 38.34000 42.74900
C  -17.83800 38.02300 43.55200
N  -11.73600 36.87100 42.03800
C  -12.90400 36.15200 42.33700
C  -12.76300 34.77100 42.10600
C  -11.55200 34.69000 41.42000
C  -10.96100 35.94500 41.36300
C  -13.79900 33.74500 42.35700
C  -10.67400 33.78500 40.70900
O  -10.78400 32.57100 40.55900
C  -9.41000 34.59100 40.25600
C  -8.27400 34.15700 41.09700
O  -8.17300 34.02500 42.29300
O  -7.15100 33.98800 40.33000
C  -5.81800 33.93500 40.88700
H  -8.12600 41.46700 40.18700
H  -13.76100 42.52800 43.00300
H  -14.64500 36.15800 43.33500
H  -7.06500 36.78200 39.99100
H  -7.53300 39.33200 38.47600
H  -5.65500 39.87500 39.65200
H  -5.68900 38.27400 40.53100
H  -6.44400 39.75300 41.20500
H  -8.04600 37.74600 37.34900
H  -8.83600 36.29800 37.76100
H  -7.11300 35.07900 37.05900
H  -6.03600 35.96700 38.18700
H  -8.56000 44.21200 40.80900
H  -9.78400 44.63200 39.64100
H  -8.73200 43.26400 39.30800
H  -12.98200 44.55200 43.52500
H  -13.99600 44.52400 41.97200
H  -13.33100 46.03900 42.60300
H  -15.77800 40.95600 43.03100
H  -15.33200 38.42800 44.71100
H  -16.12300 41.68000 45.10900
H  -14.32800 41.68700 45.15500
H  -15.34300 40.29100 45.83700
H  -16.30400 37.45500 42.17500
H  -16.75900 39.19400 42.09700
H  -18.64400 38.42300 42.93800
H  -17.77700 38.54300 44.50800
H  -18.04200 36.96900 43.74600
H  -14.79800 34.17200 42.27300
H  -13.64200 33.37800 43.37100
H  -13.65100 32.88300 41.70700
H  -9.17500 34.30600 39.23000
H  -5.22000 34.65300 40.32700
H  -5.38400 32.95100 40.70900
H  -5.67200 34.17600 41.94000

