158

Mg 46.90800 16.02600 28.21800
C  45.04100 15.60700 31.01300
C  48.87200 18.25800 29.74900
C  48.70000 16.29200 25.25600
C  44.65800 13.96300 26.46000
N  47.00200 16.79300 30.18300
C  46.07600 16.54100 31.17300
C  46.40600 17.34100 32.46400
C  47.54200 18.24300 31.98000
C  47.85600 17.71500 30.52600
C  47.24700 19.75900 31.94000
C  46.92100 16.33200 33.52200
C  47.15600 16.92200 34.94200
H  48.55700 16.73900 35.53500
N  48.53400 17.13800 27.61200
C  49.24200 17.97200 28.38700
C  50.26400 18.61700 27.63900
C  50.21100 18.14800 26.25300
C  49.13800 17.08800 26.35800
C  51.19400 19.70900 28.08300
C  51.00000 18.51100 24.97900
O  50.81800 18.00200 23.89400
C  52.01900 19.57700 25.04200
N  46.65800 15.33000 26.10300
C  47.55200 15.44500 25.12400
C  47.09200 14.77200 23.84400
C  45.79800 14.00900 24.20000
C  45.70900 14.40300 25.71300
C  46.90100 15.81900 22.72500
C  45.75100 12.53500 23.82700
C  46.46100 11.64600 24.78700
N  45.18800 15.02100 28.54000
C  44.32000 14.36200 27.77200
C  43.19400 13.85800 28.57400
C  43.41900 14.29400 29.85700
C  44.61400 15.00400 29.75400
C  42.12600 12.91200 28.08200
C  42.99800 14.17200 31.20600
O  42.07800 13.57700 31.73800
C  43.98700 15.07700 32.02900
C  43.16200 16.11100 32.70700
O  42.39900 16.81800 32.09100
O  43.41400 16.18600 34.05200
C  42.46900 17.00100 34.86300
H  49.55600 18.92800 30.27400
H  49.32300 16.41200 24.36700
H  44.02000 13.24800 25.93700
H  45.55500 17.88900 32.86700
H  48.46000 18.14100 32.55900
H  47.37900 20.14000 30.92700
H  48.01000 20.25400 32.53900
H  46.21400 19.99300 32.19600
H  47.85100 15.86900 33.19200
H  46.07100 15.66400 33.66200
H  46.56500 16.48500 35.74600
H  46.95900 17.99100 35.02600
H  51.12700 20.03100 29.12200
H  50.94900 20.58000 27.47500
H  52.20400 19.30400 28.02800
H  51.65700 20.58300 25.25500
H  52.64400 19.54300 24.15000
H  52.74100 19.41200 25.84200
H  47.77000 13.93100 23.70300
H  44.93200 14.56000 23.83400
H  45.94300 15.66000 22.23000
H  47.74300 16.00300 22.05800
H  46.78700 16.72600 23.31900
H  46.26200 12.45400 22.86800
H  44.67800 12.34000 23.81800
H  46.91100 12.13200 25.65300
H  47.25300 11.15900 24.21900
H  45.72800 11.00200 25.27300
H  42.55600 12.35400 27.25000
H  41.25700 13.49300 27.77400
H  41.83300 12.19700 28.85000
H  44.40600 14.44600 32.81300
H  42.00600 17.76500 34.23900
H  43.08000 17.48700 35.62500
H  41.70100 16.42300 35.37700
Mg 46.81700 35.71000 28.82100
C  44.98300 33.41100 30.99300
C  47.19200 37.74900 31.33900
C  48.06400 37.81900 26.62200
C  46.07400 33.44000 26.23700
N  46.29900 35.50900 30.93000
C  45.74500 34.46200 31.64000
C  45.69700 34.79300 33.11400
C  46.11500 36.30000 33.12900
C  46.60600 36.52300 31.71300
C  44.93600 37.30000 33.54100
C  46.81800 33.98000 33.84200
C  46.93700 33.94500 35.36100
H  46.07200 34.86600 36.24600
N  47.63700 37.48300 28.99300
C  47.74500 38.19800 30.16900
C  48.38100 39.49700 29.89800
C  48.68500 39.55500 28.52400
C  48.16100 38.26300 27.98000
C  48.70500 40.55900 30.86000
C  49.41300 40.50600 27.66900
O  49.72400 40.38900 26.50800
C  49.97300 41.81400 28.16500
N  47.01600 35.66900 26.67200
C  47.50600 36.65700 26.03700
C  47.33900 36.46200 24.56600
C  47.08000 34.94900 24.44800
C  46.63300 34.62600 25.89300
C  46.26200 37.41200 23.97500
C  48.38300 34.14800 24.12000
C  48.35700 33.34700 22.80500
N  45.74500 33.84500 28.58900
C  45.58000 33.01100 27.48100
C  44.74300 31.84600 27.81400
C  44.49300 31.96600 29.20500
C  45.16900 33.12300 29.63700
C  44.23800 30.70100 26.93100
C  43.77400 31.44200 30.41000
O  43.11600 30.41100 30.45000
C  43.94800 32.43400 31.58000
C  44.25200 31.85500 32.91100
O  45.20400 31.03400 33.08800
O  43.41600 32.31300 33.94100
C  43.70600 31.81200 35.27100
H  47.40800 38.37500 32.20800
H  48.61600 38.47100 25.94200
H  45.96000 32.67500 25.46600
H  44.75900 34.71100 33.66400
H  46.96700 36.43100 33.79600
H  44.16900 36.75700 34.09300
H  44.53500 37.97200 32.78300
H  45.34700 37.94200 34.32000
H  47.80400 34.24500 33.46100
H  46.70800 32.94600 33.51500
H  47.97300 34.27100 35.46400
H  47.01900 32.92200 35.72700
H  49.75600 40.83300 30.96000
H  48.58300 40.27500 31.90500
H  48.06300 41.42100 30.67600
H  49.23700 42.35400 28.76200
H  50.04300 42.47200 27.29900
H  50.81900 41.47700 28.76300
H  48.26300 36.83300 24.12400
H  46.28700 34.57100 23.80200
H  45.54700 37.65100 24.76200
H  45.75000 36.93400 23.14000
H  46.72900 38.38000 23.79300
H  48.49400 33.34100 24.84400
H  49.22300 34.84100 24.05500
H  48.11200 32.30400 23.00900
H  49.35000 33.31400 22.35500
H  47.62300 33.79700 22.13700
H  44.48000 29.64700 27.06500
H  44.55500 30.95600 25.92000
H  43.15700 30.80600 27.02600
H  42.94900 32.87000 31.60100
H  43.14700 32.49700 35.90900
H  44.77200 31.84600 35.49800
H  43.26300 30.84900 35.52400

