158

Mg 46.44200 24.58000 28.43300
C  47.11700 26.71600 31.21200
C  45.34700 22.20400 30.61900
C  46.28600 22.43600 25.79300
C  47.88900 27.03600 26.38400
N  46.45000 24.46200 30.71800
C  46.59500 25.45600 31.62000
C  46.23900 25.06600 33.05400
C  45.59300 23.65200 32.76600
C  45.86500 23.33800 31.28900
C  46.10800 22.61900 33.83200
C  45.31700 26.13700 33.72600
C  45.77800 26.62900 35.09500
H  44.72800 26.87500 36.19600
N  45.69400 22.66500 28.24000
C  45.27500 21.86200 29.30700
C  44.89100 20.61500 28.77500
C  45.19800 20.56000 27.35700
C  45.74200 21.94600 27.01500
C  44.22400 19.52700 29.49300
C  44.88800 19.43400 26.35600
O  45.11300 19.54200 25.16600
C  44.28600 18.15600 26.74700
N  46.79400 24.79300 26.35800
C  46.75500 23.74300 25.50400
C  47.44700 24.17200 24.14500
C  47.80800 25.63700 24.29600
C  47.43000 25.88700 25.75200
C  48.64300 23.31700 23.63500
C  47.17400 26.57700 23.22400
C  47.55300 26.28700 21.77900
N  47.32800 26.47700 28.63300
C  47.84600 27.33900 27.71000
C  48.29300 28.52400 28.37200
C  47.94700 28.38200 29.71200
C  47.44900 27.09300 29.88900
C  48.96100 29.66300 27.68000
C  48.00100 29.00100 30.97900
O  48.27300 30.14000 31.21800
C  47.55300 27.90800 31.96400
C  48.72900 27.58800 32.89200
O  49.58900 26.76500 32.68400
O  48.61500 28.37200 33.96800
C  49.56900 28.08400 35.00900
H  44.84600 21.55000 31.33500
H  46.46800 21.64400 25.06300
H  48.26900 27.73200 25.63400
H  47.16800 24.90700 33.60200
H  44.50500 23.59700 32.82000
H  46.66700 21.91300 33.21800
H  45.35300 22.01700 34.33700
H  46.80100 22.98900 34.58700
H  44.30800 25.74400 33.85500
H  45.04000 26.94300 33.04600
H  46.27800 27.59400 35.00300
H  46.52100 25.92800 35.47500
H  44.54500 18.55600 29.11800
H  43.17300 19.70500 29.26700
H  44.41700 19.66700 30.55700
H  43.92100 17.59900 25.88400
H  43.45300 18.36600 27.41700
H  45.07200 17.62200 27.28100
H  46.68100 23.95100 23.40200
H  48.86000 25.89900 24.18300
H  49.60200 23.81900 23.50300
H  48.35500 22.97900 22.64000
H  48.78300 22.42500 24.24600
H  47.50000 27.59200 23.45400
H  46.08600 26.58200 23.28400
H  46.72900 25.80700 21.25000
H  48.41700 25.62600 21.71300
H  47.74500 27.23000 21.26700
H  48.76200 30.68000 28.02000
H  48.78600 29.50700 26.61600
H  50.04200 29.58000 27.79400
H  46.74600 28.24100 32.61600
H  49.17300 27.36600 35.72800
H  49.83000 28.99600 35.54500
H  50.51100 27.68400 34.63100
Mg 0.11700 43.75700 26.84000
C  2.48000 43.45300 29.35100
C  -2.29100 42.59900 28.98100
C  -2.00700 43.46500 24.20400
C  2.78600 44.57900 24.58800
N  0.15200 43.12000 28.95500
C  1.17500 43.33600 29.83100
C  0.73000 43.04000 31.30000
C  -0.69800 42.38900 31.05800
C  -1.01000 42.66700 29.56600
C  -0.85200 40.92900 31.33600
C  0.73700 44.38000 32.19000
C  1.22200 44.25400 33.65100
H  0.64300 43.12400 34.46600
N  -1.87400 43.08300 26.58100
C  -2.67800 42.67100 27.62900
C  -3.98700 42.44600 27.11000
C  -3.93600 42.57600 25.66800
C  -2.54700 43.03500 25.39900
C  -5.13900 42.07500 27.97400
C  -5.01500 42.42400 24.67300
O  -4.80900 42.60400 23.50400
C  -6.41000 42.09600 25.08800
N  0.36400 43.91400 24.77700
C  -0.74200 43.91500 23.95800
C  -0.39600 44.29400 22.55700
C  1.10400 44.74100 22.60200
C  1.49800 44.42300 24.10900
C  -0.76400 43.19800 21.49500
C  1.34600 46.23000 22.21400
C  1.14800 47.23500 23.37200
N  2.20500 43.99600 26.90700
C  3.19000 44.26800 25.92000
C  4.52000 44.25200 26.50800
C  4.28400 43.91900 27.78900
C  2.86500 43.79300 28.00900
C  5.88900 44.43900 25.83600
C  4.93400 43.50400 29.05100
O  6.08600 43.23200 29.30800
C  3.81200 43.40500 30.10000
C  3.84200 42.13200 30.84000
O  3.48100 41.04100 30.45100
O  4.31000 42.36700 32.05200
C  4.39500 41.23900 33.01300
H  -3.03100 42.07600 29.59100
H  -2.63700 43.51300 23.31300
H  3.53700 44.90900 23.86800
H  1.41000 42.36700 31.82200
H  -1.48100 42.96100 31.55400
H  -1.41400 40.51300 30.50000
H  -1.49700 40.81600 32.20700
H  0.04300 40.30700 31.35100
H  -0.25700 44.82600 32.19800
H  1.41100 45.03200 31.63300
H  0.84000 45.16100 34.12000
H  2.30600 44.15100 33.60800
H  -4.85900 41.70400 28.96000
H  -5.63000 41.23200 27.48900
H  -5.81000 42.92800 28.07600
H  -6.43200 41.09400 25.51500
H  -7.08200 42.12300 24.23000
H  -6.76300 42.87000 25.77000
H  -1.00800 45.18800 22.43700
H  1.74400 44.09800 21.99700
H  0.21900 42.98200 21.07700
H  -1.55700 43.55300 20.83800
H  -0.99100 42.21100 21.90000
H  0.69900 46.53600 21.39100
H  2.38000 46.39400 21.90800
H  0.57000 48.09100 23.02700
H  2.11000 47.58500 23.74600
H  0.63400 46.80600 24.23200
H  5.71400 44.59600 24.77200
H  6.61500 43.63100 25.92900
H  6.32200 45.36800 26.20600
H  3.93800 44.25800 30.76600
H  3.67500 40.43300 32.86600
H  4.07900 41.61200 33.98800
H  5.37800 40.76700 33.01800

