158

Mg 53.87300 24.33900 44.36800
C  51.21700 26.41700 43.59700
C  52.19300 21.81200 42.88500
C  56.66900 22.58100 44.25300
C  55.56300 27.13200 45.73700
N  52.03000 24.22000 43.09700
C  51.08300 25.20900 42.93800
C  49.88000 24.65100 42.17300
C  50.00900 23.08900 42.50600
C  51.47600 22.96800 42.88600
C  49.10000 22.47000 43.62500
C  49.90600 25.04400 40.60800
C  48.57200 25.57700 39.89000
H  47.99600 24.58000 38.78000
N  54.34400 22.41800 43.74900
C  53.53200 21.53900 43.19800
C  54.22600 20.28400 42.97400
C  55.52900 20.45900 43.36200
C  55.56400 21.82700 43.87300
C  53.46500 19.01800 42.50100
C  56.54600 19.37400 43.41600
O  56.46700 18.25000 42.96500
C  57.83800 19.66400 44.09100
N  55.89700 24.95800 44.79600
C  56.78500 23.94600 44.76400
C  58.07600 24.41000 45.36900
C  57.76800 25.87000 45.95000
C  56.39300 26.02300 45.47000
C  58.66300 23.42400 46.39500
C  58.65200 27.03300 45.37000
C  58.84800 28.24900 46.28200
N  53.46100 26.30500 44.74100
C  54.18500 27.28000 45.36000
C  53.35300 28.48000 45.47800
C  52.13500 28.21800 44.90500
C  52.33500 26.90100 44.37600
C  53.64800 29.72200 46.22100
C  50.72300 28.60200 44.52900
O  50.15200 29.60500 44.73800
C  50.16600 27.43500 43.74100
C  49.55700 27.86900 42.38800
O  50.10700 28.20300 41.38800
O  48.19400 27.86200 42.54300
C  47.41100 28.59700 41.42800
H  51.63000 20.98100 42.45400
H  57.63500 22.07400 44.29900
H  56.07700 27.95900 46.23200
H  49.03800 25.09700 42.70200
H  49.87100 22.46900 41.62000
H  49.34700 22.89600 44.59700
H  49.05000 21.38600 43.52000
H  48.16200 22.93400 43.32000
H  50.25800 24.15900 40.07800
H  50.63300 25.85600 40.56000
H  48.77600 26.51400 39.37000
H  47.75600 25.83500 40.56500
H  53.98700 18.47200 41.71500
H  52.52600 19.29900 42.02400
H  53.27300 18.37500 43.36100
H  58.49400 20.31000 43.50800
H  58.31800 18.69800 44.24800
H  57.67000 20.22000 45.01300
H  58.80800 24.51300 44.56800
H  57.84300 25.74600 47.03000
H  59.54400 22.91200 46.00900
H  57.88900 22.72300 46.70800
H  59.09100 23.91900 47.26700
H  58.15000 27.37800 44.46600
H  59.61300 26.62500 45.05800
H  59.88300 28.57700 46.37700
H  58.35700 28.23100 47.25500
H  58.35500 29.05700 45.74200
H  53.41300 29.59300 47.27700
H  53.10000 30.54200 45.75600
H  54.71600 29.90400 46.10600
H  49.34500 27.00800 44.31900
H  47.50700 27.82400 40.66400
H  47.88300 29.54400 41.16800
H  46.36000 28.64000 41.71400
Mg -4.93900 25.15000 25.82600
C  -3.17300 26.68700 28.53900
C  -6.15900 22.95200 28.17700
C  -6.58500 23.67400 23.34900
C  -3.43600 27.40600 23.68600
N  -4.85700 25.00900 28.14400
C  -4.04400 25.72000 28.98200
C  -4.40400 25.39400 30.41600
C  -5.13500 24.00600 30.30300
C  -5.31800 23.93600 28.74900
C  -4.44600 22.81700 31.00600
C  -5.12900 26.50100 31.15200
C  -4.74000 26.80900 32.68500
H  -4.47700 25.47400 33.39400
N  -6.15300 23.47000 25.74900
C  -6.51800 22.74800 26.83200
C  -7.47100 21.74900 26.36200
C  -7.68000 21.95200 24.93700
C  -6.81700 23.07100 24.61300
C  -8.08100 20.64300 27.24200
C  -8.48600 21.20500 23.93700
O  -8.38600 21.39400 22.72200
C  -9.24100 20.02600 24.33800
N  -4.75500 25.34200 23.78400
C  -5.63800 24.66000 22.98400
C  -5.70800 25.26200 21.52700
C  -4.71000 26.45100 21.61600
C  -4.27200 26.40200 23.11000
C  -5.37500 24.28000 20.37800
C  -5.25200 27.89200 21.37400
C  -6.20600 28.20500 20.12900
N  -3.52100 26.68400 26.02900
C  -3.04200 27.49500 25.00300
C  -2.08400 28.42400 25.63600
C  -2.14300 28.12400 26.95900
C  -3.01700 27.11100 27.22200
C  -1.28200 29.48800 24.94600
C  -1.63200 28.50700 28.30300
O  -0.88900 29.43200 28.59800
C  -2.30000 27.58300 29.34100
C  -1.27000 26.79900 30.10000
O  -0.35700 26.15600 29.60000
O  -1.37300 26.86200 31.45700
C  -0.44100 26.08700 32.27700
H  -6.64500 22.32300 28.92500
H  -7.23200 23.24400 22.58100
H  -2.93900 28.11300 23.01800
H  -3.44800 25.34300 30.93600
H  -6.10800 24.01800 30.79300
H  -5.13500 22.32600 31.69300
H  -3.48700 22.97500 31.50000
H  -4.23300 22.02200 30.29100
H  -6.19100 26.26600 31.08700
H  -4.94400 27.49200 30.73700
H  -5.61800 27.27900 33.12900
H  -3.89900 27.48500 32.83900
H  -9.17000 20.65500 27.20300
H  -7.91900 20.78900 28.31000
H  -7.69600 19.68300 26.89800
H  -8.47300 19.36500 24.73900
H  -9.61000 19.50000 23.45700
H  -9.96700 20.29700 25.10400
H  -6.72500 25.61200 21.34700
H  -3.86600 26.15700 20.99100
H  -4.62700 23.62200 20.82000
H  -4.99900 24.70100 19.44500
H  -6.16500 23.57800 20.11400
H  -4.38100 28.52200 21.19800
H  -5.81700 28.41500 22.14600
H  -6.39700 27.29000 19.56800
H  -5.67800 28.86900 19.44500
H  -7.14900 28.67200 20.41300
H  -1.89700 29.92700 24.16000
H  -0.45000 29.03800 24.40600
H  -0.89900 30.31800 25.54000
H  -2.82100 28.23900 30.03700
H  0.48300 26.66400 32.33100
H  -0.14700 25.15000 31.80500
H  -0.75000 25.90000 33.30500

