158

Mg 0.72900 6.70300 25.06700
C  1.27100 8.91600 27.67100
C  1.17700 4.20300 27.35800
C  0.11900 4.64600 22.64600
C  0.78300 9.43200 22.86000
N  0.87600 6.61300 27.33700
C  1.03700 7.58700 28.10700
C  0.94400 7.10300 29.57400
C  1.22200 5.59000 29.45500
C  1.12200 5.47200 27.96500
C  2.52600 4.91200 30.11700
C  -0.35700 7.47200 30.23000
C  -0.42400 7.42700 31.73400
H  0.75900 6.78200 32.47000
N  0.63000 4.76800 25.03500
C  0.90300 3.82800 26.07900
C  0.76000 2.54900 25.54200
C  0.31800 2.60200 24.18400
C  0.33800 4.05100 23.88000
C  1.15800 1.28900 26.39800
C  -0.00800 1.47500 23.24600
O  -0.40200 1.64400 22.10500
C  0.05000 0.03600 23.72400
N  0.16300 7.08600 23.02600
C  0.10400 6.01000 22.23300
C  0.03000 6.53300 20.76000
C  0.12300 8.09900 20.86700
C  0.42300 8.27300 22.33400
C  0.99600 5.88000 19.77800
C  -1.11500 9.00700 20.49000
C  -0.82100 10.41200 20.01000
N  1.15400 8.75800 25.17400
C  1.10600 9.74500 24.20000
C  1.55800 11.02900 24.77000
C  1.70400 10.69100 26.11200
C  1.35400 9.33300 26.30300
C  1.77000 12.36000 24.00900
C  2.03700 11.29500 27.45500
O  2.43400 12.44200 27.76300
C  1.71800 10.11100 28.51100
C  2.89400 9.86000 29.25100
O  3.97800 9.47300 28.84500
O  2.63300 10.15700 30.51600
C  3.75700 9.85700 31.39700
H  1.54200 3.54200 28.14700
H  -0.17900 3.93100 21.87600
H  0.92100 10.27900 22.18500
H  1.66700 7.63400 30.19300
H  0.38200 4.97200 29.77200
H  2.96000 5.56900 30.87100
H  3.29300 4.76500 29.35700
H  2.30600 3.94100 30.56000
H  -1.22000 6.97800 29.78400
H  -0.52900 8.51600 29.96600
H  -1.43300 7.10700 31.99700
H  -0.42200 8.43300 32.15400
H  1.69000 0.59400 25.74800
H  0.18600 0.88500 26.68100
H  1.64800 1.55600 27.33500
H  -0.69500 -0.29300 24.44800
H  1.08400 -0.08600 24.04800
H  -0.17700 -0.53800 22.82500
H  -0.94700 6.13800 20.48200
H  0.99900 8.52400 20.37800
H  1.73400 6.61100 19.44800
H  0.52500 5.47100 18.88500
H  1.46300 5.03600 20.28400
H  -1.81400 9.05200 21.32600
H  -1.66400 8.47200 19.71600
H  0.25200 10.60400 19.96600
H  -1.32200 11.16100 20.62400
H  -1.11900 10.49700 18.96500
H  1.11700 12.63000 23.17900
H  2.80900 12.29700 23.68400
H  1.72100 13.06200 24.84100
H  0.92800 10.56200 29.11200
H  4.11900 8.83000 31.36200
H  3.51200 9.91800 32.45700
H  4.52800 10.62200 31.30700
Mg 47.20900 16.00400 28.35700
C  45.09000 15.94800 31.26000
C  49.44900 17.89800 30.38000
C  49.19700 16.15400 25.77000
C  44.71100 14.49900 26.57300
N  47.19400 16.94400 30.50700
C  46.38000 16.52400 31.52000
C  46.81100 17.01900 32.84100
C  48.06400 17.89500 32.57200
C  48.27000 17.59100 31.06700
C  48.03500 19.37400 32.96800
C  47.07300 15.84300 33.82300
C  46.64200 16.00000 35.29000
H  46.10300 17.38300 35.80800
N  49.07900 16.84400 28.10100
C  49.83700 17.63900 29.02400
C  51.04500 18.02600 28.37500
C  51.00900 17.58100 27.03400
C  49.71600 16.85200 26.87400
C  52.23700 18.72900 29.05900
C  52.02200 17.78300 25.91600
O  51.91600 17.18900 24.86800
C  53.10400 18.80300 25.94400
N  46.95000 15.37900 26.48200
C  47.89000 15.61400 25.53300
C  47.47100 15.16400 24.14100
C  46.08100 14.59800 24.42600
C  45.88800 14.78900 25.94600
C  47.46600 16.28900 23.03700
C  45.90100 13.08200 24.05200
C  46.36300 12.03700 25.07700
N  45.26300 15.26600 28.80600
C  44.36600 14.64500 27.90600
C  43.29600 14.24800 28.73100
C  43.47300 14.76500 30.03700
C  44.74400 15.39400 30.01200
C  42.11800 13.49700 28.12600
C  42.83100 14.99100 31.28800
O  41.72100 14.73800 31.66000
C  43.89300 15.69300 32.18400
C  43.32200 16.99000 32.66500
O  43.42600 18.05600 32.06700
O  42.60400 16.69800 33.81300
C  41.87200 17.81300 34.36600
H  50.31700 18.31400 30.89500
H  49.79500 16.26800 24.86400
H  43.92200 13.98700 26.01900
H  46.09300 17.73100 33.24800
H  48.88200 17.41300 33.10700
H  47.18200 19.67400 33.57600
H  48.07400 20.11000 32.16500
H  48.90100 19.56200 33.60300
H  48.12800 15.56900 33.83300
H  46.50600 15.01500 33.39700
H  47.50300 15.79500 35.92700
H  45.91100 15.23400 35.54700
H  52.96700 17.92100 29.10100
H  52.11300 18.81300 30.13900
H  52.73600 19.61200 28.65900
H  53.91800 18.32500 26.49000
H  52.77200 19.75400 26.36000
H  53.53500 19.03600 24.97100
H  48.08900 14.32800 23.81300
H  45.36100 15.21900 23.89200
H  47.01400 15.88600 22.13100
H  48.49700 16.53700 22.78400
H  47.09000 17.25800 23.36500
H  46.11400 12.91200 22.99700
H  44.83500 12.87400 24.14700
H  45.55600 11.48900 25.56300
H  46.95700 12.45900 25.88900
H  47.10000 11.35000 24.66100
H  41.88400 12.71000 28.84300
H  42.39200 13.05600 27.16800
H  41.27300 14.16500 27.96000
H  44.11600 15.02600 33.01700
H  41.41500 18.48700 33.64100
H  42.35000 18.46300 35.09800
H  41.09300 17.35200 34.97400

