158

Mg -0.96800 17.80700 27.37000
C  -1.85900 15.56600 29.85100
C  -1.84000 20.37000 29.37900
C  -0.85500 19.67800 24.60900
C  -0.62900 14.90900 25.15200
N  -1.72800 17.92200 29.44600
C  -1.79400 16.88100 30.32700
C  -2.22000 17.41100 31.75700
C  -2.14000 19.00800 31.53500
C  -1.87700 19.16500 30.00600
C  -3.44400 19.72900 32.02000
C  -1.63200 16.96000 33.07900
C  -2.56200 16.85600 34.31500
H  -1.96100 16.29200 35.58300
N  -1.23000 19.75800 27.00200
C  -1.45900 20.67100 28.00000
C  -1.40700 21.98800 27.45600
C  -1.31500 21.81500 25.99400
C  -1.13300 20.33700 25.79800
C  -1.37700 23.23100 28.31000
C  -1.17200 22.85400 24.84700
O  -1.01500 22.58200 23.65500
C  -1.08000 24.30000 25.29700
N  -0.80000 17.27900 25.18400
C  -0.67000 18.28500 24.26200
C  -0.64000 17.76200 22.84000
C  -0.21300 16.30800 23.05700
C  -0.57500 16.15500 24.54400
C  -1.92300 18.05400 21.99000
C  1.27500 15.97900 22.72200
C  2.42600 16.24600 23.71300
N  -1.15900 15.73700 27.39300
C  -0.97100 14.69200 26.46000
C  -1.25000 13.46100 27.09700
C  -1.66700 13.71300 28.38500
C  -1.55100 15.14300 28.54600
C  -1.27900 12.13100 26.44700
C  -2.06400 13.14100 29.66500
O  -2.05400 11.95700 30.04800
C  -2.30000 14.36100 30.63200
C  -1.44000 14.01600 31.91200
O  -0.21700 14.18200 32.05200
O  -2.26500 13.37400 32.87200
C  -1.45200 12.79600 33.96400
H  -1.84400 21.14500 30.14800
H  -0.88200 20.27500 23.69500
H  -0.30300 14.12700 24.46300
H  -3.23800 17.02200 31.80100
H  -1.29300 19.46300 32.04700
H  -3.15800 20.59800 32.61400
H  -4.08400 19.09600 32.63500
H  -4.11200 20.08500 31.23600
H  -0.95300 17.77600 33.32400
H  -1.01100 16.06400 33.10900
H  -3.21000 16.03000 34.02200
H  -3.12300 17.78100 34.44900
H  -0.54100 23.90700 28.13200
H  -1.37300 23.10700 29.39300
H  -2.32200 23.74800 28.14800
H  -1.00300 24.96700 24.43900
H  -0.11500 24.57500 25.72300
H  -1.91000 24.68600 25.88900
H  0.21700 18.19400 22.32400
H  -0.76500 15.57900 22.46400
H  -2.32100 17.07400 21.72800
H  -1.68600 18.64800 21.10700
H  -2.70200 18.59100 22.53200
H  1.61900 16.60100 21.89600
H  1.42800 14.93100 22.46300
H  2.06400 16.71600 24.62700
H  3.24600 16.87700 23.37000
H  2.93300 15.29500 23.87700
H  -0.71400 11.43700 27.06900
H  -0.83300 12.04800 25.45500
H  -2.31500 11.79300 26.46500
H  -3.37900 14.37400 30.78700
H  -0.53100 13.29500 34.26700
H  -1.21300 11.77000 33.68600
H  -2.08800 12.62400 34.83200
Mg 1.39300 -1.36400 44.07900
C  4.71400 -0.62900 43.45300
C  0.58900 1.32100 42.11500
C  -1.81300 -2.47300 44.29800
C  2.43200 -4.52500 45.47700
N  2.55400 0.23200 42.93800
C  3.88500 0.34900 42.89600
C  4.37600 1.73800 42.46400
C  2.98800 2.39300 42.05300
C  1.95900 1.28700 42.36300
C  2.53500 3.75800 42.59300
C  5.38300 1.86900 41.25900
C  5.75800 0.84000 40.20800
H  5.43900 1.08600 38.69800
N  -0.28500 -0.74200 43.30600
C  -0.44500 0.36900 42.45600
C  -1.84700 0.46600 42.10300
C  -2.57600 -0.39800 42.94300
C  -1.53400 -1.24300 43.57900
C  -2.36300 1.61700 41.28900
C  -4.04100 -0.37500 43.08300
O  -4.69400 0.56500 42.60900
C  -4.83900 -1.39900 43.75500
N  0.35800 -3.22000 44.89900
C  -0.97400 -3.38500 44.94200
C  -1.34200 -4.82200 45.41700
C  0.05300 -5.41900 45.84500
C  1.01400 -4.31900 45.35300
C  -2.52600 -4.92600 46.37800
C  0.34400 -6.76400 45.19000
C  1.12300 -7.72700 46.15900
N  3.20400 -2.37300 44.48900
C  3.43600 -3.63300 45.04700
C  4.87800 -3.76200 45.15700
C  5.45100 -2.68200 44.54100
C  4.38000 -1.84100 44.09900
C  5.58900 -5.00300 45.78000
C  6.68300 -2.08000 44.12400
O  7.84300 -2.41300 44.20100
C  6.24000 -0.66200 43.50300
C  6.85900 0.38900 44.31500
O  6.37300 0.90700 45.31600
O  8.06000 0.79100 43.78800
C  8.62800 2.00200 44.30000
H  0.23600 2.26100 41.68500
H  -2.85300 -2.78800 44.19100
H  2.75300 -5.53300 45.74600
H  4.78900 2.26300 43.32500
H  2.93600 2.53000 40.97300
H  3.11900 4.11100 43.44300
H  1.47300 3.81500 42.82900
H  2.55900 4.45000 41.75200
H  6.31700 2.35200 41.54700
H  4.83100 2.66100 40.75300
H  5.20300 -0.07300 40.42200
H  6.81400 0.57400 40.24400
H  -1.62200 2.15700 40.70000
H  -2.89400 2.26400 41.98600
H  -3.12800 1.27900 40.58900
H  -5.90200 -1.16400 43.69000
H  -4.55300 -1.42000 44.80700
H  -4.63800 -2.30100 43.17700
H  -1.73600 -5.33300 44.53800
H  0.08200 -5.57100 46.92400
H  -3.41700 -5.33900 45.90700
H  -2.74700 -3.88500 46.61100
H  -2.19400 -5.37100 47.31700
H  0.97300 -6.62700 44.31100
H  -0.58500 -7.28700 44.96100
H  0.47200 -8.57900 46.35900
H  1.54400 -7.32600 47.08100
H  1.98900 -8.11400 45.62300
H  5.20300 -5.10800 46.79300
H  6.65800 -4.81000 45.86900
H  5.40900 -5.91900 45.21700
H  6.68300 -0.64000 42.50700
H  9.22500 1.68100 45.15400
H  7.78900 2.57900 44.68800
H  9.22000 2.51500 43.54200

