158

Mg 30.57400 58.09500 40.44200
C  27.69800 56.30100 39.56700
C  32.55600 55.70500 39.17300
C  33.24200 60.23800 40.53700
C  28.43300 60.84100 41.24600
N  30.11700 56.29400 39.37400
C  28.89300 55.66200 39.21800
C  29.02400 54.19400 38.71300
C  30.57800 54.08600 38.75300
C  31.17300 55.46300 39.16400
C  31.02800 52.98700 39.71000
C  28.27400 53.80300 37.39800
C  29.05900 53.90500 36.06700
H  28.21800 54.11600 34.84900
N  32.66200 58.00000 40.07200
C  33.23900 56.88100 39.50500
C  34.68800 57.04800 39.51800
C  34.92500 58.35200 40.01100
C  33.54900 58.94700 40.21200
C  35.69600 55.97800 39.13900
C  36.30500 59.02600 40.33900
O  37.39100 58.38600 40.21300
C  36.49800 60.49400 40.70600
N  30.82100 60.18900 40.87400
C  32.04000 60.80900 40.94400
C  31.86800 62.29600 41.11500
C  30.35300 62.44800 41.51200
C  29.81600 61.07600 41.18700
C  32.81800 63.09300 42.08700
C  29.49600 63.73600 40.92600
C  28.75700 64.58000 42.01700
N  28.47400 58.52100 40.52000
C  27.70600 59.68100 40.85000
C  26.26800 59.34400 40.56600
C  26.27700 57.99100 40.29600
C  27.57400 57.59600 40.13300
C  25.08600 60.20900 40.72600
C  25.35600 56.86400 40.09500
O  24.14700 56.85100 40.21600
C  26.30400 55.76800 39.48400
C  26.11200 54.60800 40.36100
O  26.64000 54.42300 41.43500
O  25.23800 53.64500 39.79800
C  24.89700 52.41200 40.69200
H  33.27500 54.93300 38.89300
H  33.89700 61.10100 40.40100
H  27.82600 61.68000 41.59400
H  28.61200 53.50300 39.44900
H  30.99300 53.84700 37.77400
H  31.47700 53.33600 40.64000
H  31.76800 52.40500 39.16100
H  30.23500 52.25700 39.86700
H  27.36600 54.40000 37.32000
H  27.99100 52.77500 37.62100
H  29.65100 52.99800 35.94400
H  29.88600 54.59900 36.21700
H  36.48600 56.44200 38.54900
H  35.20600 55.34800 38.39700
H  36.02000 55.36000 39.97700
H  35.87200 60.69500 41.57500
H  36.21100 61.08100 39.83400
H  37.55800 60.69100 40.86600
H  31.94600 62.83400 40.17100
H  30.36000 62.32100 42.59400
H  32.30600 63.54400 42.93600
H  33.28000 63.79100 41.38800
H  33.59800 62.50200 42.56600
H  28.82900 63.38900 40.13600
H  30.21000 64.43000 40.48200
H  29.40100 65.45500 42.09900
H  28.68600 64.04700 42.96600
H  27.74700 64.85600 41.71300
H  25.13700 60.95400 41.52000
H  24.10900 59.73900 40.83500
H  25.11600 60.76500 39.78900
H  26.03500 55.70900 38.43000
H  25.54300 51.56800 40.45000
H  23.85000 52.11400 40.64900
H  24.98200 52.53700 41.77200
Mg 27.25100 50.13500 27.19100
C  25.13700 51.04900 29.79600
C  29.55800 49.19300 29.61200
C  29.47900 49.83600 24.73500
C  24.98200 51.59900 24.89900
N  27.31000 49.97500 29.34500
C  26.26100 50.42200 30.18200
C  26.59100 50.13100 31.64000
C  28.10900 49.74400 31.60900
C  28.35600 49.62800 30.11100
C  29.06000 50.77600 32.25300
C  25.60300 49.03600 32.26400
C  25.00100 49.27400 33.63700
H  25.32900 48.29700 34.81400
N  29.25600 49.62100 27.15600
C  29.98500 49.15100 28.23100
C  31.31600 48.72200 27.72300
C  31.30500 48.88500 26.35100
C  30.01400 49.51400 26.02100
C  32.33800 48.05500 28.68300
C  32.43400 48.59300 25.35000
O  32.35900 48.95300 24.20000
C  33.66300 47.96200 25.85100
N  27.26000 50.67300 25.12300
C  28.28600 50.37000 24.32100
C  28.02700 50.76000 22.84200
C  26.44400 51.08200 22.86800
C  26.21900 51.12700 24.40500
C  28.81500 51.97900 22.34200
C  25.58000 49.96500 22.12600
C  24.27300 50.49800 21.43200
N  25.41600 50.90700 27.30800
C  24.64800 51.57500 26.28600
C  23.46500 52.14500 26.93900
C  23.61700 51.99600 28.33400
C  24.79500 51.22600 28.50300
C  22.36800 52.83200 26.12400
C  23.04300 52.39800 29.56400
O  22.00600 53.00300 29.86700
C  23.98800 51.64500 30.60700
C  24.51800 52.72500 31.45400
O  25.51800 53.32600 31.24200
O  23.69100 52.81500 32.56400
C  23.99300 53.95100 33.42800
H  30.18900 48.83500 30.42800
H  30.24300 49.76000 23.95800
H  24.26400 51.93700 24.14900
H  26.42200 51.04000 32.21600
H  28.21000 48.83300 32.19900
H  28.52400 51.58100 32.75600
H  29.61000 51.24100 31.43500
H  29.62600 50.21900 33.00000
H  26.13700 48.08800 32.33000
H  24.88500 48.83800 31.46800
H  23.92700 49.18400 33.47500
H  25.14300 50.30200 33.97300
H  32.47000 46.99100 28.48600
H  32.13700 48.10100 29.75300
H  33.24800 48.64400 28.57000
H  34.37100 47.70700 25.06200
H  33.49900 46.98100 26.29900
H  34.13200 48.59100 26.60800
H  28.24300 49.85600 22.27200
H  26.24400 52.07500 22.46500
H  28.93500 52.59900 23.23000
H  28.39000 52.52700 21.50100
H  29.78700 51.62800 21.99500
H  25.15000 49.29700 22.87300
H  26.20700 49.41000 21.42900
H  24.09800 51.49800 21.82900
H  23.45300 49.80700 21.62700
H  24.39800 50.61000 20.35500
H  21.49000 52.88200 26.76800
H  22.12700 52.26500 25.22500
H  22.71200 53.83700 25.88000
H  23.55000 51.01900 31.38400
H  24.58800 53.60600 34.27400
H  23.06300 54.29000 33.88200
H  24.35100 54.84900 32.92300

