158

Mg 45.99100 3.74100 46.80500
C  43.95600 6.58200 46.71500
C  43.00000 1.78500 46.42900
C  47.84500 1.05900 46.61500
C  48.75400 5.84300 46.66500
N  43.69200 4.18100 46.44500
C  43.17600 5.45200 46.46600
C  41.69000 5.28700 46.25300
C  41.35400 3.78500 46.70200
C  42.75300 3.16200 46.51500
C  40.72700 3.62600 48.18000
C  41.16600 5.87600 44.90800
C  42.15300 5.99300 43.79000
H  41.57900 6.50200 42.49700
N  45.47500 1.71400 46.43700
C  44.24500 1.11800 46.36300
C  44.47800 -0.32900 46.34700
C  45.86400 -0.62000 46.37200
C  46.43300 0.77200 46.52800
C  43.36600 -1.44500 46.37500
C  46.49900 -1.99400 46.28300
O  45.84100 -3.03500 46.23200
C  47.89300 -2.23100 46.31900
N  47.98600 3.54400 46.29200
C  48.53800 2.29100 46.60700
C  50.09500 2.42000 46.76100
C  50.39200 3.91200 46.49400
C  48.99700 4.47200 46.45600
C  50.65900 1.82400 48.02800
C  51.19900 4.24600 45.23600
C  52.37000 5.19700 45.46500
N  46.32400 5.78300 46.80600
C  47.51500 6.46500 46.88600
C  47.21100 7.87000 47.09600
C  45.88200 7.97100 47.11700
C  45.36700 6.66400 46.90400
C  48.15200 9.00900 47.03700
C  44.75300 8.88500 47.10600
O  44.68500 10.11900 47.22800
C  43.46200 8.05500 46.80000
C  42.48000 8.36300 47.90500
O  42.46700 7.81900 49.00400
O  41.63400 9.34900 47.53100
C  40.46700 9.52400 48.42800
H  42.10000 1.16700 46.46400
H  48.43600 0.15100 46.75500
H  49.62800 6.48500 46.78500
H  41.25000 5.87700 47.05700
H  40.67700 3.28000 46.01300
H  41.47400 3.18600 48.84100
H  39.83200 3.00400 48.19600
H  40.45700 4.56000 48.67300
H  40.68400 6.83600 45.09400
H  40.28700 5.25400 44.73900
H  42.41400 4.94700 43.62500
H  43.08500 6.46200 44.10600
H  42.39900 -0.96300 46.23100
H  43.41700 -2.04800 47.28100
H  43.47200 -2.15100 45.55100
H  48.32500 -2.09100 47.31000
H  48.34200 -1.53500 45.61100
H  48.16000 -3.21700 45.94000
H  50.52700 1.84900 45.93900
H  50.89400 4.37500 47.34300
H  51.38800 1.02400 47.89400
H  49.79200 1.54000 48.62400
H  51.10100 2.56200 48.69700
H  50.63500 4.48300 44.33400
H  51.77700 3.37000 44.94000
H  53.30100 4.64700 45.33100
H  52.35100 5.52100 46.50600
H  52.22200 6.08300 44.84800
H  48.95800 8.93100 47.76600
H  47.65800 9.98000 47.07600
H  48.62400 9.22100 46.07700
H  43.14400 8.37300 45.80700
H  39.89900 8.62000 48.20600
H  39.96000 10.41500 48.05900
H  40.65600 9.61200 49.49800
Mg 48.03700 16.01500 28.51200
C  46.02700 15.64400 31.33900
C  50.16800 17.89700 30.37100
C  49.85100 16.47800 25.70500
C  45.54400 14.41700 26.62200
N  48.12200 16.65300 30.65800
C  47.24300 16.27700 31.64300
C  47.69100 16.75800 32.98000
C  48.90500 17.71100 32.61500
C  49.03500 17.48700 31.10600
C  48.65700 19.22100 32.92300
C  48.07700 15.62000 33.92000
C  48.00800 15.96800 35.43300
H  47.80300 17.42100 35.90900
N  49.81800 16.93100 28.13100
C  50.58900 17.62100 29.02400
C  51.87700 17.93700 28.38000
C  51.75100 17.67900 26.98900
C  50.40900 17.02300 26.89200
C  53.03400 18.57400 29.15200
C  52.71900 18.03200 25.90600
O  52.43800 17.84700 24.76100
C  54.00100 18.76700 26.15800
N  47.67800 15.67100 26.39900
C  48.60900 15.90500 25.44100
C  48.12800 15.33400 24.05300
C  46.90400 14.46900 24.43000
C  46.71100 14.86100 25.94700
C  47.82900 16.52000 23.12000
C  47.06700 12.83400 24.22800
C  47.40700 12.06100 25.48700
N  46.12000 15.31700 28.84800
C  45.19100 14.66300 27.99000
C  43.95900 14.34900 28.72500
C  44.25100 14.72300 30.03900
C  45.60300 15.20700 30.06600
C  42.68200 13.72700 28.22600
C  43.72100 14.87400 31.38200
O  42.64300 14.50100 31.89700
C  44.83100 15.41200 32.28600
C  44.35400 16.74700 32.88000
O  44.33500 17.83500 32.33700
O  43.92400 16.53300 34.15300
C  42.92200 17.48800 34.79600
H  50.83300 18.42700 31.05600
H  50.48200 16.47900 24.81400
H  44.89500 14.00200 25.84900
H  46.78500 17.30600 33.23800
H  49.83500 17.45100 33.12000
H  48.23600 19.77100 32.08100
H  49.60000 19.64700 33.26500
H  47.87300 19.41000 33.65700
H  49.09700 15.32800 33.67300
H  47.46500 14.75900 33.65200
H  48.96100 15.62500 35.83500
H  47.17500 15.33600 35.74200
H  53.96000 18.06100 28.89600
H  52.88200 18.63700 30.22900
H  53.16300 19.60900 28.83500
H  54.74500 18.34200 26.83100
H  53.55100 19.69000 26.52600
H  54.37900 19.03000 25.17000
H  48.93500 14.64900 23.78900
H  46.00200 14.68200 23.85700
H  48.18800 17.45500 23.55100
H  46.77700 16.58800 22.84300
H  48.44900 16.37800 22.23500
H  47.83400 12.42400 23.57100
H  46.10800 12.57300 23.78300
H  47.67200 12.70600 26.32500
H  48.24600 11.37100 25.40300
H  46.55700 11.45800 25.80800
H  42.70300 13.51200 27.15800
H  41.82900 14.32300 28.55000
H  42.55600 12.82200 28.82100
H  45.01700 14.79700 33.16700
H  41.87500 17.31800 34.54200
H  43.09000 18.51200 34.46200
H  43.06100 17.40200 35.87300

