158

Mg -1.24400 17.61300 26.87300
C  -1.92400 15.35000 29.54200
C  -2.38100 20.08800 29.01300
C  -1.10400 19.74700 24.31000
C  -0.90100 14.97000 24.85600
N  -1.88200 17.70900 29.06400
C  -1.95400 16.68600 30.00800
C  -2.43700 17.22700 31.42000
C  -2.78900 18.75900 31.07000
C  -2.30400 18.84800 29.62800
C  -4.26600 19.08800 31.26500
C  -1.37900 17.01900 32.57000
C  -1.82300 16.32400 33.85100
H  -0.79100 16.15500 34.93700
N  -1.57400 19.64800 26.73900
C  -1.98100 20.50600 27.69100
C  -1.92900 21.81400 27.16800
C  -1.54700 21.70200 25.78200
C  -1.36400 20.29700 25.56500
C  -2.29300 23.13800 27.96700
C  -1.27900 22.83900 24.77300
O  -0.99000 22.69800 23.57900
C  -1.43000 24.29200 25.23200
N  -0.93200 17.47800 24.83400
C  -0.80600 18.40500 23.92100
C  -0.61400 17.91200 22.48400
C  -0.33700 16.37700 22.80600
C  -0.69900 16.26600 24.30900
C  -1.71700 18.29200 21.47100
C  1.13600 15.87000 22.56200
C  1.30400 14.39500 22.45300
N  -1.28700 15.58000 27.14600
C  -1.20300 14.61300 26.17800
C  -1.53400 13.29400 26.68500
C  -1.69400 13.51600 28.09700
C  -1.61500 14.91500 28.29400
C  -1.69400 12.09300 25.96700
C  -2.04300 12.97200 29.36800
O  -2.21500 11.83300 29.69200
C  -2.04000 14.11800 30.37900
C  -0.84500 13.91700 31.27300
O  0.30000 14.24200 30.92400
O  -1.24600 13.48700 32.51700
C  -0.14600 13.26200 33.52100
H  -2.83000 20.92100 29.55800
H  -0.99100 20.42100 23.45800
H  -0.79500 14.19000 24.09900
H  -3.29700 16.57800 31.58200
H  -2.27000 19.41600 31.76800
H  -4.82000 18.24700 31.68200
H  -4.77000 19.34100 30.33200
H  -4.42500 19.92800 31.94100
H  -1.01700 18.01100 32.83800
H  -0.52700 16.39700 32.29400
H  -2.31600 15.36800 33.67400
H  -2.56800 16.99900 34.27200
H  -2.91800 23.73900 27.30700
H  -1.39000 23.71400 28.16500
H  -2.80400 22.88600 28.89600
H  -1.19400 24.91600 24.37100
H  -0.77200 24.54200 26.06400
H  -2.48100 24.54200 25.38100
H  0.32800 18.31000 22.10700
H  -1.05200 15.83700 22.18500
H  -2.28700 19.10200 21.92600
H  -2.31800 17.40200 21.28300
H  -1.32500 18.61700 20.50700
H  1.63100 16.08400 23.51000
H  1.58300 16.50000 21.79400
H  1.95900 14.27700 21.59000
H  0.41300 13.79200 22.27900
H  1.89000 13.97300 23.26900
H  -1.76800 12.36500 24.91400
H  -2.59500 11.54700 26.24600
H  -0.78900 11.50000 26.09600
H  -2.99800 14.14200 30.89900
H  0.51200 12.43100 33.26900
H  -0.56500 12.94500 34.47600
H  0.45900 14.16800 33.57200
Mg 24.35100 -4.62500 45.98000
C  26.39800 -2.16200 44.74400
C  21.85600 -3.68700 43.76300
C  22.58400 -7.35000 46.90100
C  26.98200 -5.70000 48.10400
N  24.04700 -2.90700 44.59500
C  25.07300 -2.04700 44.23000
C  24.61000 -1.18500 42.95700
C  23.06200 -1.43300 42.98700
C  22.95200 -2.80500 43.76600
C  22.22400 -0.30500 43.65200
C  25.33300 -1.88900 41.69000
C  25.73800 -0.96800 40.59300
H  25.15300 -1.13100 39.20000
N  22.50400 -5.38800 45.42000
C  21.63100 -4.84700 44.51000
C  20.41300 -5.65400 44.42400
C  20.55000 -6.68100 45.39500
C  21.89900 -6.54400 45.94500
C  19.24400 -5.32700 43.32200
C  19.53900 -7.75700 45.66400
O  18.43500 -7.62100 45.19000
C  19.80300 -9.06200 46.37600
N  24.84000 -6.38600 47.25600
C  23.84800 -7.34900 47.50900
C  24.39300 -8.51900 48.43600
C  25.63600 -7.81200 48.98300
C  25.87200 -6.62800 47.98400
C  23.43300 -8.94100 49.52000
C  26.95600 -8.71700 49.13800
C  27.65500 -8.68600 50.44900
N  26.37600 -4.14400 46.30700
C  27.28400 -4.62000 47.20900
C  28.49400 -3.83000 47.15500
C  28.22700 -2.85800 46.11500
C  26.87500 -3.04500 45.69200
C  29.71900 -3.96500 47.99300
C  28.77100 -1.78100 45.30400
O  29.83700 -1.17100 45.24100
C  27.53800 -1.28700 44.42500
C  27.24400 0.12400 44.71000
O  26.62300 0.72900 45.59100
O  27.68300 0.83300 43.65300
C  27.48400 2.28300 43.54900
H  21.04400 -3.41200 43.08600
H  22.06200 -8.26300 47.19400
H  27.73000 -5.90800 48.87300
H  24.87900 -0.13000 43.01000
H  22.68800 -1.39700 41.96400
H  21.78500 0.36300 42.91100
H  22.93700 0.28100 44.23200
H  21.43000 -0.72000 44.27200
H  24.62800 -2.60100 41.26200
H  26.16900 -2.51200 42.00700
H  26.82500 -1.04200 40.61500
H  25.59800 0.08100 40.85600
H  19.72500 -4.80600 42.49400
H  18.43100 -4.74800 43.76000
H  18.92900 -6.31700 42.99300
H  18.91100 -9.68700 46.41300
H  19.98100 -8.94400 47.44500
H  20.57900 -9.55600 45.79100
H  24.75500 -9.26300 47.72600
H  25.32100 -7.42400 49.95100
H  22.55300 -8.31000 49.64400
H  23.82000 -8.97100 50.53900
H  22.99200 -9.89000 49.21400
H  27.66800 -8.44000 48.36000
H  26.73000 -9.77200 48.98100
H  27.40500 -7.80400 51.04000
H  28.72600 -8.66100 50.25300
H  27.50500 -9.59900 51.02500
H  29.43200 -4.36300 48.96700
H  30.08500 -2.96100 48.20800
H  30.57400 -4.44000 47.51300
H  27.89300 -1.32400 43.39500
H  26.92700 2.48300 42.63300
H  28.41700 2.84500 43.50300
H  26.86700 2.75900 44.31000

