158

Mg -2.60900 16.91900 25.53100
C  -2.89000 14.45000 28.18400
C  -3.46400 19.23900 27.80600
C  -2.70800 19.05600 23.09200
C  -2.55000 14.23100 23.34400
N  -3.07600 16.84300 27.72300
C  -3.05700 15.79200 28.64300
C  -3.36700 16.32700 30.08100
C  -3.54500 17.86800 29.78300
C  -3.37000 17.98500 28.34300
C  -4.76200 18.63000 30.35600
C  -2.30300 16.00200 31.20500
C  -2.48100 16.69200 32.55700
H  -1.98600 16.04900 33.88100
N  -2.76900 18.94200 25.47500
C  -3.28500 19.76900 26.41700
C  -3.30900 21.18500 25.93500
C  -2.81400 21.13100 24.66900
C  -2.72200 19.65700 24.33500
C  -3.63300 22.37800 26.82300
C  -2.43200 22.27100 23.73500
O  -1.86400 22.05000 22.69700
C  -2.72000 23.70400 24.11600
N  -2.40700 16.66900 23.45600
C  -2.59000 17.68900 22.60000
C  -2.62900 17.26200 21.10500
C  -2.88400 15.78200 21.25200
C  -2.42900 15.53100 22.74600
C  -3.50800 18.07600 20.14500
C  -2.17700 14.92400 20.21600
C  -3.17800 14.26200 19.25200
N  -2.53200 14.72200 25.66700
C  -2.56900 13.79100 24.66500
C  -2.82000 12.43400 25.22700
C  -2.65700 12.64000 26.62200
C  -2.62200 14.05100 26.83600
C  -3.06400 11.20300 24.47200
C  -2.61100 11.96100 27.95800
O  -2.73000 10.81200 28.31400
C  -2.69900 13.22900 29.04500
C  -1.54000 13.18300 29.94500
O  -0.47200 13.80300 29.78700
O  -1.84200 12.47100 31.07700
C  -0.88300 12.32800 32.14200
H  -3.62700 20.07500 28.49000
H  -3.07800 19.77000 22.35400
H  -2.69700 13.44700 22.59900
H  -4.31600 15.93200 30.44500
H  -2.60900 18.30800 30.12900
H  -5.48500 19.01200 29.63500
H  -4.46900 19.50300 30.94000
H  -5.31200 17.89500 30.94400
H  -1.26000 15.95000 30.89400
H  -2.60500 14.97500 31.41100
H  -3.47200 17.14000 32.62900
H  -1.84700 17.57800 32.53800
H  -4.20300 22.11200 27.71300
H  -4.25800 23.09500 26.29100
H  -2.72600 22.84000 27.21200
H  -2.32000 24.41600 23.39400
H  -2.25000 23.80700 25.09400
H  -3.78700 23.75800 24.33200
H  -1.64000 17.42700 20.67600
H  -3.95700 15.59000 21.22100
H  -4.14500 17.37200 19.60900
H  -2.92800 18.65800 19.42900
H  -4.01900 18.77000 20.81200
H  -1.63600 14.12600 20.72400
H  -1.34600 15.47700 19.77700
H  -4.22400 14.44800 19.49400
H  -3.04700 13.18500 19.35600
H  -2.99300 14.61500 18.23800
H  -3.24900 10.52700 25.30700
H  -2.17700 10.90100 23.91500
H  -3.96400 11.32600 23.87000
H  -3.59900 13.22900 29.65900
H  -1.00800 11.33300 32.57000
H  -1.11500 12.85900 33.06400
H  0.11600 12.50000 31.74300
Mg -11.93900 16.48200 41.91900
C  -8.88900 14.89400 41.16700
C  -10.89400 19.39500 40.32000
C  -15.06200 17.54900 41.94200
C  -13.08700 13.14400 42.93100
N  -10.19400 17.03300 40.84900
C  -9.07800 16.25200 40.65000
C  -7.95700 17.13300 39.98100
C  -8.55500 18.54800 39.96100
C  -10.00300 18.31200 40.39500
C  -7.83300 19.57000 40.88700
C  -7.43100 16.52100 38.66000
C  -5.92600 16.71000 38.36400
H  -5.53800 17.10000 36.89300
N  -12.83200 18.23200 41.28000
C  -12.22600 19.34500 40.71200
C  -13.20200 20.43200 40.63600
C  -14.43400 19.93000 41.20800
C  -14.14900 18.49900 41.46200
C  -12.92900 21.80800 40.21000
C  -15.76000 20.68300 41.25300
O  -15.92400 21.81500 40.82500
C  -16.99800 20.07500 41.99500
N  -13.80500 15.40000 42.13700
C  -14.94900 16.16300 42.23000
C  -16.16700 15.35200 42.92600
C  -15.44800 13.96300 43.25900
C  -14.03800 14.12200 42.72700
C  -16.78100 16.06500 44.27700
C  -16.17500 12.84800 42.40300
C  -15.79500 11.40800 42.61000
N  -11.14400 14.45700 42.20000
C  -11.74600 13.27000 42.73600
C  -10.71500 12.28000 42.77400
C  -9.55700 12.86800 42.18300
C  -9.89400 14.16600 41.83900
C  -10.91200 10.88200 43.21500
C  -8.10400 12.74100 41.81100
O  -7.26700 11.81400 41.93200
C  -7.65400 14.02700 41.19800
C  -6.56400 14.67400 41.96000
O  -6.74400 15.18100 43.07300
O  -5.37100 14.60200 41.31200
C  -4.15000 14.94400 42.10100
H  -10.50000 20.33800 39.93700
H  -16.05900 17.86700 42.25400
H  -13.42300 12.25600 43.47000
H  -7.12300 17.08700 40.68300
H  -8.61700 18.92600 38.94000
H  -7.44200 20.39100 40.28600
H  -7.02000 19.14200 41.47400
H  -8.62500 19.94500 41.53500
H  -8.02200 16.97700 37.86600
H  -7.60800 15.44600 38.62100
H  -5.35600 15.80200 38.56200
H  -5.68500 17.52400 39.04700
H  -13.08100 22.39000 41.11900
H  -13.66400 22.05700 39.44500
H  -11.91200 21.86600 39.82200
H  -17.69900 20.88200 42.20600
H  -16.70300 19.68400 42.96800
H  -17.40600 19.24300 41.42100
H  -16.95400 15.24800 42.17900
H  -15.60000 13.69400 44.30500
H  -16.57700 17.12600 44.42200
H  -16.36600 15.59300 45.16700
H  -17.86700 16.05600 44.17700
H  -16.01600 13.03100 41.34000
H  -17.25000 13.02200 42.45000
H  -16.68100 10.81200 42.83100
H  -15.26400 11.39400 43.56200
H  -15.17500 10.98600 41.81800
H  -10.14000 10.24900 42.77700
H  -11.83900 10.55200 42.74600
H  -10.91600 10.75000 44.29700
H  -7.22600 13.85200 40.21100
H  -4.24000 15.97400 42.44400
H  -3.22700 14.67600 41.58500
H  -4.04700 14.42200 43.05300

