158

Mg 24.38300 -7.79400 46.83300
C  26.16500 -5.12800 45.39500
C  21.68000 -7.15200 44.78900
C  23.01800 -10.70000 47.76100
C  27.39400 -8.77600 48.28300
N  24.00200 -6.34100 45.30100
C  24.94700 -5.39300 44.81300
C  24.23500 -4.58700 43.65700
C  22.69800 -4.95000 43.79200
C  22.80500 -6.24700 44.64400
C  21.78700 -3.91300 44.42800
C  24.92100 -4.77500 42.22400
C  25.39100 -3.46000 41.59800
H  24.61600 -3.00200 40.36500
N  22.53200 -8.73500 46.41600
C  21.59700 -8.32600 45.51700
C  20.45500 -9.21600 45.56800
C  20.72200 -10.15700 46.56300
C  22.11700 -9.95100 46.95100
C  19.18000 -9.04700 44.62900
C  19.75600 -11.13300 47.01800
O  18.62500 -11.09100 46.60500
C  20.07000 -12.18600 47.99400
N  25.12800 -9.48200 47.74600
C  24.37000 -10.51000 48.07000
C  25.05500 -11.64600 48.84100
C  26.45100 -11.10000 49.00100
C  26.36200 -9.73500 48.25500
C  24.42900 -12.12500 50.18800
C  27.50700 -12.05900 48.47100
C  28.77300 -12.22400 49.33200
N  26.42100 -7.06800 46.90300
C  27.45600 -7.54200 47.61100
C  28.51400 -6.58300 47.57800
C  28.10800 -5.59300 46.70800
C  26.83200 -5.99200 46.24800
C  29.72100 -6.47800 48.55400
C  28.40700 -4.38000 46.06100
O  29.48000 -3.75400 46.01700
C  27.14400 -4.03900 45.16400
C  26.66000 -2.67300 45.29800
O  26.85600 -1.84600 44.40600
O  25.79600 -2.54200 46.34800
C  25.33400 -1.24300 46.65100
H  20.86100 -6.91000 44.10800
H  22.73100 -11.69600 48.10400
H  28.25200 -9.06300 48.89500
H  24.16200 -3.52000 43.86600
H  22.24200 -5.16500 42.82600
H  22.37100 -3.00700 44.59200
H  21.52500 -4.29600 45.41400
H  20.96100 -3.61500 43.78200
H  24.18900 -5.20000 41.53700
H  25.79900 -5.42100 42.22300
H  26.40800 -3.58300 41.22700
H  25.41700 -2.58000 42.24100
H  18.48700 -8.43500 45.20600
H  18.72000 -9.97900 44.29900
H  19.42600 -8.50900 43.71400
H  20.57500 -12.98600 47.45300
H  19.17400 -12.57300 48.47900
H  20.57800 -11.68200 48.81600
H  25.00100 -12.52600 48.20000
H  26.67400 -10.83300 50.03400
H  23.42900 -11.69000 50.19700
H  24.97600 -11.76000 51.05700
H  24.34000 -13.20200 50.32800
H  27.75300 -11.81800 47.43700
H  27.08100 -13.05900 48.54400
H  29.57200 -11.66800 48.84100
H  29.13200 -13.24000 49.49300
H  28.67200 -11.71900 50.29300
H  30.38000 -7.33100 48.39200
H  29.40900 -6.53400 49.59700
H  30.20100 -5.50900 48.41600
H  27.61600 -4.05100 44.18200
H  24.37500 -1.42400 47.13700
H  25.18200 -0.48300 45.88500
H  25.94100 -0.78000 47.42900
Mg 16.80700 -2.04000 27.54900
C  16.03600 0.29300 30.00300
C  18.32100 -3.99400 30.02500
C  18.35500 -3.78000 25.18900
C  15.98800 0.38300 25.09400
N  17.19600 -1.83600 29.75600
C  16.63100 -0.88700 30.57700
C  16.83600 -1.19400 32.08600
C  17.59600 -2.57900 32.01100
C  17.80000 -2.81300 30.49400
C  18.91100 -2.59600 32.81200
C  15.52400 -1.31000 32.87800
C  15.33600 -0.29000 34.01700
H  16.61400 0.09100 34.78500
N  17.82100 -3.78500 27.56200
C  18.29600 -4.48400 28.66800
C  19.09700 -5.62100 28.30000
C  19.29200 -5.52800 26.85000
C  18.51800 -4.29300 26.51800
C  19.64200 -6.61300 29.33200
C  20.06300 -6.41400 25.99800
O  20.15600 -6.11500 24.81000
C  20.69300 -7.66300 26.45900
N  17.05400 -1.73700 25.43700
C  17.77800 -2.57500 24.74400
C  17.87000 -2.20400 23.24000
C  17.05600 -0.93100 23.16300
C  16.59500 -0.75700 24.61700
C  19.32100 -2.02600 22.69800
C  15.88300 -0.95000 22.11400
C  15.99700 0.13000 21.03100
N  16.06400 -0.11700 27.52000
C  15.68800 0.74700 26.50000
C  15.11900 1.99400 27.03100
C  15.13500 1.78200 28.40000
C  15.80700 0.57900 28.66000
C  14.81100 3.24400 26.35100
C  14.83400 2.47000 29.70400
O  14.25600 3.56800 29.92700
C  15.45300 1.49200 30.77900
C  16.57000 2.34000 31.48900
O  17.76900 2.36800 31.10900
O  16.09500 2.92400 32.61000
C  16.86300 4.06100 33.06300
H  18.77900 -4.63300 30.78300
H  18.91800 -4.41700 24.50300
H  15.81400 1.22300 24.41900
H  17.52100 -0.41000 32.40800
H  16.90900 -3.30100 32.45300
H  18.93600 -1.68300 33.40600
H  19.73900 -2.60000 32.10300
H  18.88200 -3.48800 33.43800
H  15.42300 -2.21800 33.47200
H  14.70100 -1.14600 32.18300
H  14.67700 -0.75700 34.74800
H  14.81800 0.56000 33.57200
H  20.72700 -6.57400 29.23600
H  19.28500 -7.58400 28.98900
H  19.35300 -6.54600 30.38000
H  20.05300 -8.28700 27.08400
H  21.54200 -7.41300 27.09600
H  21.20200 -8.01200 25.56000
H  17.52700 -3.02000 22.60300
H  17.75600 -0.11500 22.98300
H  19.50000 -1.24000 21.96400
H  19.58700 -3.00900 22.30900
H  19.92200 -1.86100 23.59200
H  14.89200 -0.80300 22.54500
H  15.93300 -1.93800 21.65700
H  16.22600 1.03600 21.59400
H  15.03400 0.29300 20.54800
H  16.76100 -0.04900 20.27400
H  15.35800 3.24800 25.40800
H  15.09900 4.06000 27.01400
H  13.75900 3.22900 26.06800
H  14.76000 1.19600 31.56700
H  17.10400 4.72300 32.23100
H  17.80200 3.84400 33.57200
H  16.27700 4.59800 33.80800

