158

Mg 5.67200 53.12800 41.76300
C  5.83400 49.76300 40.66400
C  8.59000 53.63300 40.15400
C  5.28800 56.36000 42.27900
C  2.47900 52.55800 42.95800
N  6.88600 51.87800 40.34400
C  6.78900 50.55200 40.07700
C  7.84800 50.08000 39.08800
C  8.96700 51.11600 39.47900
C  8.09800 52.31300 39.99900
C  9.98500 50.55400 40.49200
C  7.33300 50.29500 37.63600
C  7.81300 49.22000 36.71800
H  6.83300 48.75200 35.55700
N  6.85300 54.81500 41.28100
C  8.06800 54.80500 40.73100
C  8.68200 56.08200 40.90200
C  7.70200 56.91400 41.41200
C  6.51100 56.03500 41.70000
C  9.97300 56.46400 40.38200
C  7.85100 58.42500 41.57400
O  8.84900 59.01000 41.17000
C  6.80300 59.25000 42.05400
N  3.96700 54.33200 42.25900
C  4.18900 55.62600 42.56100
C  2.96200 56.25100 43.22500
C  1.92800 55.01100 43.20200
C  2.87900 53.87100 42.87200
C  3.10900 56.72500 44.71600
C  0.72500 55.19100 42.20100
C  -0.67400 55.05200 42.88100
N  4.38300 51.47300 41.83500
C  3.19100 51.39400 42.54200
C  2.74300 49.97500 42.50100
C  3.80000 49.23200 41.84600
C  4.76700 50.21000 41.43900
C  1.46800 49.41300 43.10300
C  4.38200 47.92300 41.47400
O  3.89400 46.76600 41.60800
C  5.68600 48.22900 40.69700
C  5.57100 47.72600 39.38400
O  4.83900 48.13100 38.46900
O  6.44500 46.61400 39.34500
C  6.32400 45.75900 38.17200
H  9.65400 53.75600 39.94300
H  5.06400 57.39300 42.55300
H  1.50600 52.41100 43.43100
H  8.08300 49.04800 39.35000
H  9.60300 51.48100 38.67300
H  10.28400 51.38600 41.12900
H  10.81300 50.11000 39.93800
H  9.59700 49.67200 41.00200
H  7.79000 51.22600 37.30100
H  6.25900 50.40000 37.48300
H  7.98100 48.25600 37.19800
H  8.80600 49.40200 36.30600
H  9.82200 56.93500 39.41000
H  10.71000 55.66100 40.37800
H  10.48700 57.19600 41.00600
H  6.99400 60.32200 42.10100
H  6.64500 58.87000 43.06300
H  6.00700 59.08100 41.32900
H  2.61400 57.13800 42.69600
H  1.49200 54.98900 44.20100
H  3.97600 56.17700 45.08300
H  2.22200 56.42500 45.27400
H  3.41900 57.76900 44.68500
H  0.94200 54.65200 41.27800
H  0.67100 56.23800 41.90500
H  -0.77100 55.70100 43.75100
H  -0.90200 53.99600 43.02900
H  -1.37300 55.41000 42.12600
H  1.11200 48.55500 42.53300
H  0.73600 50.21700 43.17800
H  1.77200 49.11200 44.10600
H  6.60500 47.86500 41.15700
H  7.26500 45.61000 37.64200
H  5.60000 46.10200 37.43200
H  5.86700 44.85700 38.57700
Mg -13.77000 16.64400 42.14700
C  -10.72700 15.01200 41.34400
C  -12.42100 19.43900 40.59100
C  -16.79500 17.92400 41.96500
C  -15.06200 13.59000 42.90100
N  -11.66200 17.18700 41.17400
C  -10.64100 16.37700 40.97900
C  -9.48200 17.17200 40.38600
C  -9.93600 18.62400 40.51200
C  -11.46600 18.40500 40.73600
C  -9.18400 19.48600 41.60300
C  -9.07900 16.69600 38.94100
C  -7.62200 16.12000 38.76400
H  -6.82400 16.47700 37.46000
N  -14.50300 18.47500 41.50200
C  -13.80800 19.50800 40.90500
C  -14.64600 20.60300 40.64300
C  -15.88900 20.25200 41.14800
C  -15.77400 18.83400 41.59700
C  -14.31200 21.94800 40.03200
C  -17.15100 21.14300 41.24800
O  -17.23600 22.22700 40.71900
C  -18.22300 20.81600 42.29300
N  -15.67100 15.91900 42.43900
C  -16.77700 16.62500 42.40300
C  -17.99600 15.80800 42.63200
C  -17.36700 14.49700 43.17500
C  -15.93200 14.64800 42.82400
C  -19.09300 16.42100 43.54000
C  -17.97000 13.15400 42.70400
C  -18.34700 12.14000 43.75200
N  -13.02500 14.64700 42.27800
C  -13.69300 13.49500 42.54800
C  -12.79700 12.39000 42.51300
C  -11.56600 12.96600 42.00300
C  -11.81500 14.31700 41.89700
C  -12.94100 10.95500 42.88900
C  -10.17100 12.68600 41.74600
O  -9.66200 11.59600 41.85800
C  -9.57500 14.00300 41.15900
C  -8.51900 14.36300 42.13300
O  -8.69300 14.90400 43.22300
O  -7.30700 14.30600 41.57000
C  -6.16700 14.94400 42.28500
H  -12.07500 20.32600 40.05800
H  -17.75100 18.44500 41.89100
H  -15.49500 12.60100 43.06600
H  -8.60400 17.01900 41.01200
H  -9.79300 19.14800 39.56700
H  -8.40300 18.81200 41.95700
H  -9.96300 19.81000 42.29200
H  -8.71100 20.36300 41.16200
H  -9.29200 17.38400 38.12300
H  -9.71000 15.83000 38.74000
H  -7.79300 15.04300 38.77500
H  -7.07400 16.42000 39.65700
H  -14.36600 22.74700 40.77200
H  -15.00800 22.18100 39.22700
H  -13.25700 22.02100 39.76400
H  -18.96100 20.27700 41.69900
H  -18.57000 21.76400 42.70400
H  -17.90500 20.22900 43.15400
H  -18.46900 15.50900 41.69600
H  -17.46100 14.59300 44.25700
H  -19.36700 15.80700 44.39700
H  -19.92100 16.58700 42.85100
H  -18.81700 17.37100 43.99800
H  -17.42200 12.70300 41.87700
H  -18.80000 13.43600 42.05700
H  -18.56500 11.12800 43.41200
H  -19.28500 12.58100 44.09000
H  -17.73300 12.16700 44.65200
H  -11.92600 10.57200 42.98600
H  -13.32700 10.29400 42.11400
H  -13.47800 10.92600 43.83700
H  -9.25700 13.82000 40.13300
H  -5.47900 15.15000 41.46500
H  -5.83200 14.15700 42.96000
H  -6.56000 15.83800 42.76900

