158

Mg 47.23700 16.84200 27.51600
C  45.55800 16.45000 30.55800
C  49.69000 18.70400 29.36600
C  48.57900 17.77000 24.69400
C  44.47700 15.43900 25.83500
N  47.50900 17.59500 29.67400
C  46.73700 17.15600 30.77400
C  47.42500 17.57800 32.12000
C  48.69000 18.38300 31.67800
C  48.63300 18.21600 30.11900
C  48.68300 19.84100 32.19700
C  47.79800 16.23400 32.97800
C  47.66000 16.39200 34.54700
H  47.56200 17.83400 35.07600
N  48.91000 18.02100 27.07800
C  49.78800 18.66600 27.96600
C  50.93100 19.06300 27.15500
C  50.65700 18.81600 25.78700
C  49.35800 18.16900 25.77700
C  52.19700 19.61600 27.69200
C  51.37000 19.14800 24.46200
O  50.92900 18.94800 23.31900
C  52.89300 19.71500 24.52800
N  46.51800 16.84300 25.61300
C  47.35000 17.21300 24.60500
C  46.75700 16.99700 23.18700
C  45.47300 16.18500 23.52800
C  45.45400 16.11000 25.09500
C  46.44500 18.33400 22.40000
C  45.38400 14.77200 22.84200
C  43.97700 14.51900 22.33300
N  45.34700 16.02500 28.05100
C  44.41400 15.40500 27.26700
C  43.33000 14.94500 28.03100
C  43.71600 15.27700 29.38900
C  44.99000 15.94700 29.33300
C  42.08700 14.20700 27.53400
C  43.33200 15.20900 30.74800
O  42.35100 14.78200 31.30000
C  44.42900 15.94100 31.58100
C  43.72600 16.99600 32.32300
O  42.92200 17.80500 31.85000
O  44.14200 16.96700 33.69700
C  43.57100 17.88800 34.61600
H  50.50300 19.16700 29.92900
H  48.91700 17.91500 23.66500
H  43.63800 15.00500 25.28600
H  46.73900 18.20300 32.69100
H  49.62200 17.87300 31.92500
H  48.73200 20.62900 31.44600
H  49.52300 19.98900 32.87600
H  47.77100 20.11000 32.72900
H  48.79200 15.87800 32.70400
H  47.17800 15.40000 32.65200
H  48.59500 15.98200 34.92900
H  46.80900 15.78500 34.85700
H  52.35500 20.54900 27.15000
H  53.06000 19.00200 27.43600
H  52.14400 19.84500 28.75700
H  52.99200 20.61900 25.12800
H  53.32300 19.92000 23.54800
H  53.58900 18.97600 24.92400
H  47.41800 16.33000 22.63400
H  44.61100 16.78500 23.23700
H  45.38800 18.60000 22.37500
H  46.80800 18.22300 21.37900
H  46.94200 19.08000 23.02000
H  45.70200 14.06500 23.60800
H  46.05500 14.55900 22.01000
H  44.05300 14.01200 21.37100
H  43.39300 15.42700 22.18800
H  43.42900 13.82300 22.96900
H  42.24700 13.14100 27.70000
H  41.82100 14.41700 26.49800
H  41.18100 14.37500 28.11500
H  44.85700 15.13900 32.18200
H  43.94100 17.54200 35.58100
H  42.49400 17.97100 34.47000
H  43.99000 18.87300 34.40900
Mg 16.78300 51.67600 26.08600
C  18.62700 50.22100 28.66300
C  14.28100 52.45000 28.40900
C  15.02200 52.94000 23.66300
C  19.45800 50.89300 23.96600
N  16.51600 51.37300 28.27400
C  17.44300 50.85500 29.12700
C  17.07600 51.22000 30.56600
C  15.60200 51.57800 30.41900
C  15.42100 51.84500 28.93000
C  14.70200 50.42600 31.00800
C  17.99400 52.27900 31.15300
C  18.20200 52.33100 32.63100
H  17.07200 51.70800 33.49400
N  14.93100 52.53800 26.01700
C  14.04800 52.76800 27.04900
C  12.84300 53.47200 26.60900
C  13.08300 53.73700 25.21700
C  14.35900 53.05100 24.89100
C  11.81700 54.20700 27.48900
C  12.41800 54.62500 24.19500
O  12.85900 54.84900 23.09000
C  11.09700 55.30300 24.53200
N  17.09200 51.76300 24.06800
C  16.26900 52.43000 23.30000
C  16.80700 52.70700 21.94400
C  18.39000 52.36600 22.21300
C  18.34500 51.62700 23.49400
C  16.09800 51.86700 20.83100
C  19.31500 53.57100 22.31400
C  20.68700 53.53500 21.52000
N  18.62900 50.68600 26.22200
C  19.53600 50.37500 25.27000
C  20.55000 49.50400 25.85900
C  20.23500 49.46200 27.18600
C  19.06400 50.11000 27.33700
C  21.75900 49.06700 25.09600
C  20.68500 49.04000 28.52000
O  21.71500 48.49800 28.89900
C  19.65000 49.56500 29.55700
C  19.10900 48.49400 30.41800
O  18.60000 47.44200 30.00600
O  19.19000 48.83000 31.74900
C  18.63900 47.80600 32.68700
H  13.46400 52.71900 29.08100
H  14.50800 53.23700 22.74700
H  20.33600 50.66700 23.35800
H  17.13000 50.28700 31.12700
H  15.32500 52.50700 30.91700
H  14.25900 49.92100 30.15000
H  13.85900 50.74400 31.62100
H  15.20400 49.67600 31.61900
H  17.70700 53.22000 30.68400
H  19.01000 52.13000 30.78700
H  18.39700 53.35200 32.96000
H  19.05700 51.70700 32.89100
H  10.82400 54.17300 27.04100
H  12.11200 55.25600 27.48000
H  11.72700 53.94800 28.54400
H  11.24500 55.82000 25.48000
H  10.39400 54.49600 24.74000
H  10.72300 56.00200 23.78400
H  16.74900 53.76800 21.70200
H  18.82700 51.66700 21.49900
H  16.74500 51.01700 20.61200
H  15.90700 52.45500 19.93300
H  15.09900 51.60900 21.18100
H  19.64900 53.64500 23.34900
H  18.78900 54.48400 22.03500
H  21.03800 54.52700 21.23400
H  20.59900 53.00600 20.57100
H  21.41900 53.01500 22.13800
H  22.18900 49.65300 24.28300
H  21.51600 48.06300 24.74800
H  22.45800 48.87400 25.90900
H  20.11900 50.21900 30.29300
H  19.46900 47.44400 33.29500
H  18.14300 46.94700 32.23600
H  17.99800 48.21000 33.47000

