158

Mg 9.41200 3.35200 27.83500
C  10.42200 1.57500 30.68600
C  7.45200 5.35600 29.89400
C  8.77100 5.26300 25.18200
C  11.23400 1.08100 25.82400
N  8.92800 3.39600 30.06000
C  9.58100 2.69100 31.05900
C  9.36800 3.21000 32.40800
C  8.28300 4.35100 32.13000
C  8.25300 4.43900 30.59500
C  6.80800 4.26800 32.75200
C  10.66300 3.75100 33.13900
C  10.35100 4.38700 34.49900
H  11.24300 4.10400 35.74700
N  8.26400 5.07400 27.56200
C  7.43400 5.68500 28.53600
C  6.75400 6.79700 27.90100
C  7.16500 6.81000 26.55400
C  7.99100 5.59000 26.33900
C  5.66000 7.60100 28.69300
C  6.83200 7.81500 25.42800
O  7.07700 7.62700 24.24200
C  6.18100 9.11100 25.82300
N  10.00400 3.22900 25.83600
C  9.59200 4.15300 24.86800
C  10.31100 3.88700 23.50500
C  10.85300 2.38400 23.73400
C  10.67100 2.20700 25.22100
C  9.42800 3.99100 22.22300
C  12.34600 2.15700 23.27600
C  12.50000 0.84300 22.50100
N  10.52800 1.68200 28.10000
C  11.19800 0.83700 27.25700
C  11.78000 -0.21700 27.95700
C  11.55900 0.07300 29.31600
C  10.68300 1.17600 29.36700
C  12.52900 -1.37300 27.38800
C  11.84400 -0.44800 30.61200
O  12.39200 -1.44700 30.99500
C  11.15300 0.65400 31.62500
C  10.26300 -0.02200 32.57100
O  9.27900 -0.71900 32.36800
O  10.66100 0.37500 33.82300
C  9.97300 -0.28200 34.95300
H  6.96100 6.16400 30.44200
H  8.66700 5.97200 24.35700
H  11.67900 0.28400 25.22500
H  8.87600 2.52800 33.10100
H  8.63500 5.27500 32.58800
H  6.45300 5.19200 33.20900
H  6.77100 3.43100 33.44900
H  6.09500 3.98100 31.97900
H  11.26400 4.40700 32.50900
H  11.25600 2.87300 33.39200
H  9.35700 4.21900 34.91500
H  10.43900 5.46400 34.35700
H  4.79000 7.66200 28.04000
H  6.00400 8.61000 28.92100
H  5.28000 7.18700 29.62700
H  6.11500 9.77700 24.96300
H  6.82100 9.68600 26.49200
H  5.18200 8.99100 26.24300
H  11.18300 4.53700 23.44000
H  10.17600 1.66500 23.27200
H  9.33800 4.97500 21.76400
H  8.44100 3.87600 22.67100
H  9.66900 3.13900 21.58700
H  13.03200 2.19000 24.12300
H  12.55300 2.96900 22.57800
H  13.26300 0.94600 21.73000
H  11.55400 0.52400 22.06200
H  12.81300 0.14400 23.27700
H  11.82600 -2.00100 26.84100
H  13.05000 -1.89500 28.19000
H  13.28000 -0.94000 26.72700
H  11.88300 1.24000 32.18400
H  9.49400 -1.17800 34.55800
H  9.36300 0.42400 35.51500
H  10.76500 -0.60900 35.62700
Mg -4.71800 25.95600 26.34400
C  -3.55800 27.49100 29.18300
C  -6.49300 23.67400 28.25700
C  -5.25900 24.13900 23.65000
C  -2.52700 28.04200 24.39300
N  -4.98000 25.58500 28.47700
C  -4.46100 26.42400 29.46300
C  -5.01700 26.00000 30.82200
C  -5.72100 24.68200 30.53100
C  -5.73800 24.62700 28.99900
C  -5.05400 23.38600 31.18700
C  -6.10500 27.06900 31.28600
C  -6.43300 27.49500 32.72100
H  -5.82000 26.59800 33.84500
N  -5.96800 24.31300 25.92200
C  -6.64000 23.60100 26.87800
C  -7.38700 22.56700 26.13600
C  -6.98000 22.60900 24.79000
C  -6.03400 23.69600 24.74500
C  -8.42700 21.74100 26.87700
C  -7.41100 21.63800 23.70000
O  -6.87800 21.70700 22.61300
C  -8.31400 20.52700 23.92300
N  -3.98200 26.16100 24.27900
C  -4.37500 25.22200 23.39100
C  -3.84900 25.45800 21.96500
C  -3.04300 26.77400 22.23600
C  -3.18600 27.03200 23.69100
C  -2.96100 24.26800 21.45100
C  -3.51500 27.97100 21.32600
C  -2.79300 28.26400 20.03800
N  -3.26800 27.42300 26.67900
C  -2.47200 28.18500 25.81700
C  -1.70900 29.13600 26.60600
C  -2.15700 28.95000 27.96700
C  -3.09600 27.89600 27.90800
C  -0.70000 30.12600 26.09900
C  -2.11600 29.49400 29.28800
O  -1.50700 30.52900 29.66000
C  -3.07600 28.63200 30.20100
C  -2.42000 28.14100 31.44000
O  -1.48900 27.34100 31.39900
O  -2.87000 28.77900 32.62200
C  -2.07400 28.60400 33.76900
H  -7.01900 22.93500 28.86600
H  -5.50100 23.69300 22.68300
H  -1.85500 28.65100 23.78600
H  -4.22400 25.76500 31.53200
H  -6.79000 24.68600 30.74200
H  -5.63600 22.80600 31.90300
H  -4.06000 23.62400 31.56700
H  -4.98800 22.68600 30.35400
H  -7.07300 26.84600 30.83700
H  -5.91600 28.02600 30.79900
H  -7.50000 27.30400 32.83300
H  -6.13100 28.53700 32.82700
H  -7.92900 21.38400 27.77900
H  -9.06500 20.96700 26.45200
H  -9.14900 22.43100 27.31300
H  -8.28700 19.86200 23.05900
H  -9.32900 20.91300 24.01700
H  -7.90100 20.02200 24.79600
H  -4.66400 25.55900 21.24800
H  -1.97200 26.77100 22.03400
H  -2.86300 23.43700 22.14900
H  -1.94900 24.58700 21.20000
H  -3.36400 23.88600 20.51400
H  -3.68400 28.84200 21.95900
H  -4.56200 27.74400 21.12800
H  -3.40100 28.21000 19.13500
H  -1.98600 27.54200 19.91600
H  -2.44100 29.29500 19.98400
H  -1.08800 30.66400 25.23400
H  0.27800 29.68500 25.90700
H  -0.49000 30.89700 26.84000
H  -3.72300 29.40500 30.61400
H  -2.05400 29.52900 34.34500
H  -1.00600 28.47200 33.59500
H  -2.53700 27.82600 34.37600

