158

Mg 36.24900 49.22300 24.29800
C  36.68600 47.53100 27.37400
C  34.74400 51.81500 25.96800
C  35.71100 50.66600 21.36600
C  37.46100 46.41700 22.64000
N  35.70600 49.54500 26.47800
C  36.14800 48.85600 27.53300
C  35.74700 49.56200 28.86200
C  34.95000 50.85100 28.36600
C  35.12400 50.75400 26.84200
C  33.57300 51.12000 28.92100
C  37.07400 49.84200 29.69300
C  37.23000 49.12000 31.04400
H  35.93100 48.80600 31.82600
N  35.36100 51.01900 23.75400
C  34.90100 52.02900 24.56800
C  34.42700 53.18500 23.75400
C  34.58900 52.80700 22.36500
C  35.26900 51.45700 22.46900
C  33.85800 54.43100 24.33400
C  34.38700 53.59500 21.12200
O  34.77700 53.12500 20.04400
C  33.83100 54.94300 21.18200
N  36.45200 48.61800 22.25300
C  36.25700 49.42200 21.16500
C  36.63800 48.79800 19.88300
C  37.51300 47.66000 20.35500
C  37.12900 47.54100 21.83700
C  35.43200 48.36200 18.96000
C  38.99000 47.97600 20.23800
C  39.77900 46.70300 19.84200
N  36.94000 47.35500 24.79000
C  37.36200 46.32200 24.00900
C  37.74800 45.20700 24.86700
C  37.51100 45.63000 26.16700
C  37.00400 46.99200 26.14400
C  38.30900 43.80700 24.47600
C  37.51700 45.19100 27.60300
O  37.83500 44.17700 28.20000
C  36.98400 46.47500 28.46000
C  35.80200 46.00800 29.17700
O  34.65300 46.04900 28.83000
O  36.22400 45.33500 30.24400
C  35.18200 44.51200 30.90200
H  34.30800 52.67700 26.47800
H  35.63300 51.11300 20.37300
H  38.09800 45.61600 22.25900
H  35.02500 48.90700 29.35100
H  35.49300 51.76900 28.58700
H  33.61100 52.04500 29.49600
H  33.26300 50.27600 29.53600
H  32.92400 51.24100 28.05400
H  37.24000 50.88300 29.96900
H  37.91900 49.44700 29.13100
H  37.89000 49.70500 31.68400
H  37.88200 48.26400 30.86900
H  33.77400 54.47400 25.42000
H  32.85300 54.63700 23.96700
H  34.57400 55.22700 24.12700
H  33.37400 55.16900 20.21900
H  34.73400 55.52400 21.37000
H  33.13200 55.08500 22.00600
H  37.09000 49.51700 19.20000
H  37.26000 46.70400 19.89800
H  34.95800 49.27100 18.58900
H  34.81300 47.77100 19.63600
H  35.78600 47.72400 18.15100
H  39.37800 48.31400 21.19900
H  39.18900 48.77600 19.52500
H  39.30700 45.78100 20.18100
H  40.66900 46.62300 20.46700
H  40.05000 46.69300 18.78600
H  39.03900 43.81100 23.66600
H  37.56200 43.08400 24.15200
H  38.81500 43.43900 25.36800
H  37.81800 46.65200 29.13900
H  35.52200 43.73100 31.58200
H  34.56700 43.96500 30.18700
H  34.54800 45.12100 31.54600
Mg 17.01900 51.07100 26.90000
C  19.24200 49.93500 29.26900
C  15.00100 52.14600 29.35000
C  15.14100 52.09500 24.43900
C  19.45300 49.85500 24.45700
N  17.05300 50.98700 29.04800
C  18.16300 50.54000 29.84100
C  17.88900 50.76900 31.34200
C  16.33900 51.15700 31.28000
C  16.12000 51.50800 29.80900
C  15.40600 50.05700 31.84300
C  18.77400 51.94000 31.92500
C  18.92900 51.89300 33.53600
H  17.84300 51.20500 34.30800
N  15.30000 51.95000 26.88000
C  14.61100 52.34600 27.96000
C  13.40100 53.04100 27.53600
C  13.41300 53.05500 26.05500
C  14.67100 52.30700 25.70800
C  12.30000 53.49600 28.54700
C  12.41000 53.50600 24.96500
O  12.52400 53.45100 23.76600
C  11.17700 54.16400 25.47800
N  17.32300 50.97600 24.73900
C  16.33100 51.50600 24.00600
C  16.78800 51.54300 22.56000
C  18.23200 51.00300 22.53300
C  18.35900 50.57600 23.96700
C  15.87200 50.92600 21.56100
C  19.26400 52.10900 22.10300
C  20.22700 51.64300 20.99200
N  18.84500 49.87900 26.86500
C  19.75000 49.56100 25.85000
C  20.85700 48.76300 26.34200
C  20.72900 48.96200 27.72100
C  19.51700 49.62000 27.95600
C  22.01000 48.23300 25.58100
C  21.44200 48.77700 28.94600
O  22.46900 48.27100 29.27400
C  20.42100 49.43600 29.98700
C  19.97800 48.38500 30.97200
O  19.14800 47.54100 30.68600
O  20.69700 48.43600 32.17600
C  20.07600 47.59400 33.22300
H  14.33100 52.57200 30.09900
H  14.49300 52.46300 23.64000
H  20.22400 49.61900 23.72200
H  18.20500 49.86200 31.85900
H  16.17200 52.10200 31.79600
H  14.54300 49.96900 31.18200
H  15.03700 50.26600 32.84700
H  15.84400 49.05900 31.81800
H  18.35900 52.92500 31.71100
H  19.73800 51.93400 31.41700
H  19.06800 52.89400 33.94300
H  19.89000 51.38200 33.59600
H  11.32500 53.03100 28.40200
H  12.14100 54.55900 28.36600
H  12.42500 53.36100 29.62200
H  10.76300 53.47900 26.21700
H  10.46800 54.41000 24.68800
H  11.57400 55.12300 25.81200
H  16.69600 52.60100 22.31400
H  18.32300 50.16500 21.84200
H  15.67900 49.93000 21.95800
H  16.41900 50.80700 20.62500
H  14.99400 51.56800 21.49000
H  19.91900 52.32500 22.94800
H  18.78500 53.03800 21.79700
H  19.69200 51.76400 20.05000
H  20.50000 50.60300 21.17200
H  21.12600 52.25900 20.98500
H  22.88200 48.39400 26.21400
H  22.20500 48.65400 24.59500
H  21.83900 47.17800 25.36600
H  21.06500 50.21600 30.39300
H  19.02100 47.34000 33.12200
H  20.27500 47.90000 34.25000
H  20.45800 46.61100 32.94500

