158

Mg 16.35800 51.80500 26.03400
C  17.98400 50.86400 28.93700
C  13.82500 53.12500 28.09300
C  14.80900 52.86700 23.30800
C  18.62800 50.15500 24.17300
N  15.88900 51.89800 28.19300
C  16.82900 51.53100 29.20200
C  16.32300 51.87600 30.59500
C  14.87300 52.48100 30.31400
C  14.85100 52.49400 28.82900
C  13.66200 51.79600 31.01200
C  17.26100 52.86000 31.42500
C  17.68800 52.36900 32.81000
H  16.91500 53.02300 34.04400
N  14.62100 52.94000 25.76300
C  13.70900 53.39200 26.71900
C  12.66400 54.12100 26.02700
C  12.94400 54.05600 24.62100
C  14.23100 53.25000 24.47700
C  11.49700 54.77000 26.70300
C  12.23900 54.76300 23.39800
O  12.59100 54.65400 22.21800
C  10.99400 55.67900 23.63800
N  16.72800 51.69700 23.97300
C  15.97200 52.18300 23.02500
C  16.57300 51.71700 21.59800
C  17.88400 51.07800 22.05800
C  17.65900 50.86500 23.47900
C  15.54100 50.77800 20.85800
C  19.07700 52.10800 21.79400
C  20.41700 51.54500 21.52200
N  17.93000 50.63700 26.41500
C  18.86500 50.07800 25.57100
C  19.92100 49.48500 26.29600
C  19.66300 49.69200 27.67300
C  18.43100 50.43100 27.65300
C  21.18800 48.86900 25.75600
C  20.14700 49.55300 29.09000
O  21.12400 48.96300 29.52800
C  19.04300 50.30400 29.88700
C  18.50600 49.20300 30.70000
O  17.83600 48.23700 30.37900
O  19.12000 49.27200 31.98600
C  18.58800 48.31000 32.98200
H  13.00300 53.45200 28.73300
H  14.32200 53.24200 22.40600
H  19.43000 49.83000 23.50800
H  16.24600 50.94900 31.16200
H  14.84800 53.55900 30.47300
H  12.71500 52.26500 30.74700
H  13.65200 51.96400 32.08900
H  13.60000 50.71400 30.89300
H  16.76900 53.82500 31.54700
H  18.16300 53.00500 30.83000
H  18.71100 52.73800 32.74500
H  17.67200 51.28000 32.77600
H  11.64000 54.82000 27.78200
H  10.61300 54.18100 26.46000
H  11.47700 55.80300 26.35700
H  11.25800 56.59100 24.17200
H  10.27400 54.97400 24.05600
H  10.66600 55.86300 22.61500
H  16.57100 52.67900 21.08600
H  18.04300 50.13900 21.52700
H  16.08200 49.85100 20.66700
H  15.11800 51.21600 19.95400
H  14.64500 50.53400 21.42900
H  18.97700 52.76200 22.66000
H  18.76400 52.69900 20.93300
H  21.00500 51.23600 22.38600
H  20.98000 52.22800 20.88500
H  20.20700 50.66700 20.91000
H  21.32700 49.16000 24.71500
H  21.03800 47.80000 25.60900
H  22.04200 49.06800 26.40400
H  19.41800 51.03800 30.60000
H  17.50200 48.32600 33.07500
H  18.96400 48.66000 33.94300
H  19.03300 47.31800 32.91000
Mg 0.07800 43.66200 26.16600
C  2.34600 44.08900 28.82100
C  -2.35400 42.98700 28.66900
C  -2.03700 42.90600 23.79000
C  2.73600 43.76300 23.88800
N  -0.02400 43.54400 28.54700
C  1.03000 43.89200 29.34400
C  0.62600 43.86300 30.82200
C  -0.83500 43.23700 30.78700
C  -1.14000 43.26800 29.23900
C  -0.97000 41.78900 31.39100
C  0.79600 45.23600 31.58800
C  1.41200 45.27100 32.95800
H  1.12500 44.06000 33.91300
N  -1.94000 43.28400 26.18300
C  -2.77900 43.06800 27.29000
C  -4.15600 42.76200 26.82900
C  -4.03200 42.71900 25.40900
C  -2.59900 42.93200 25.06900
C  -5.31700 42.46100 27.80800
C  -5.14500 42.63500 24.40300
O  -4.86700 42.74200 23.17800
C  -6.62700 42.47800 24.70600
N  0.32000 43.39200 24.13600
C  -0.75800 43.14600 23.34200
C  -0.35900 43.01500 21.79400
C  1.15000 43.35400 21.89300
C  1.45600 43.60700 23.41700
C  -0.62700 41.57600 21.31000
C  1.52900 44.60000 21.08700
C  2.80100 44.60300 20.32800
N  2.14000 43.77000 26.23500
C  3.07900 43.90300 25.28700
C  4.40400 44.27600 25.79200
C  4.11800 44.31100 27.21400
C  2.74300 43.99600 27.40500
C  5.64600 44.58400 25.05100
C  4.77700 44.54700 28.48900
O  5.91700 44.82900 28.76600
C  3.59100 44.45700 29.56800
C  4.00800 43.39900 30.49800
O  3.55900 42.28600 30.51000
O  4.98100 43.92800 31.32700
C  5.46800 43.16300 32.45900
H  -3.23600 42.81600 29.29100
H  -2.69900 42.68500 22.95000
H  3.51200 43.99600 23.15700
H  1.19900 43.09600 31.34400
H  -1.53700 43.92300 31.26000
H  -0.06100 41.42100 31.86700
H  -1.12600 41.11600 30.54900
H  -1.73600 41.65000 32.15300
H  -0.13500 45.80300 31.61400
H  1.46100 45.87500 31.00800
H  1.18600 46.17300 33.52700
H  2.49000 45.26200 32.79100
H  -6.07200 41.82500 27.34600
H  -5.79400 43.38600 28.13300
H  -4.98800 41.81700 28.62400
H  -6.88600 43.21500 25.46600
H  -6.84100 41.47100 25.06600
H  -7.12400 42.74000 23.77300
H  -1.02200 43.64900 21.20500
H  1.69900 42.46300 21.58900
H  -1.46500 41.71300 20.62700
H  -0.92700 40.93700 22.14100
H  0.23600 41.05300 20.89700
H  1.71100 45.43000 21.77000
H  0.70700 44.96400 20.47000
H  3.20900 43.59600 20.41100
H  3.57200 45.24400 20.75500
H  2.66000 44.90900 19.29100
H  6.31100 43.72000 25.07000
H  6.17300 45.36600 25.59700
H  5.46400 44.85100 24.01000
H  3.47000 45.38800 30.12300
H  6.03700 42.28700 32.14800
H  4.65900 42.85400 33.12100
H  6.18600 43.82200 32.94800

