158

Mg 46.86400 17.20300 28.62600
C  44.80400 17.03700 31.49800
C  49.26300 18.67200 30.62300
C  48.68500 17.63900 25.77400
C  44.19200 15.91700 26.82200
N  47.00500 17.88700 30.80300
C  46.01500 17.62000 31.80800
C  46.56600 18.04500 33.21200
C  47.90200 18.80800 32.81200
C  48.05600 18.50100 31.28700
C  47.93700 20.34600 33.02500
C  46.78700 16.87800 34.21900
C  47.36700 17.25700 35.62100
H  46.91100 18.61900 36.26700
N  48.74700 17.90400 28.29300
C  49.62400 18.47700 29.20400
C  50.88000 18.73500 28.63700
C  50.78300 18.39800 27.21600
C  49.36700 17.93600 27.06100
C  51.99800 19.42400 29.27500
C  51.84900 18.42700 26.14200
O  51.65300 18.24800 24.94500
C  53.23400 18.76700 26.55700
N  46.40300 16.95900 26.57800
C  47.36600 17.19600 25.61500
C  46.73900 16.96800 24.25600
C  45.38200 16.17200 24.59700
C  45.31800 16.29300 26.06800
C  46.54200 18.20900 23.29300
C  45.27900 14.70600 23.99500
C  44.04800 14.35900 23.15600
N  44.88300 16.63800 28.96200
C  44.01200 16.07500 28.15600
C  42.77900 15.70800 28.89900
C  43.09700 16.09100 30.16800
C  44.38400 16.64100 30.18800
C  41.49700 15.20800 28.29500
C  42.60400 16.05500 31.55300
O  41.53800 15.55700 31.96000
C  43.69800 16.58200 32.37500
C  43.19600 17.72600 33.18600
O  42.95200 18.84800 32.80400
O  42.99700 17.26100 34.41700
C  42.67100 18.18800 35.45800
H  50.00100 19.25800 31.17400
H  49.30500 17.76100 24.88400
H  43.30400 15.61400 26.26500
H  45.75300 18.66300 33.59500
H  48.67600 18.36700 33.44100
H  48.32300 20.86100 32.14600
H  48.47200 20.63800 33.92800
H  46.94300 20.79000 33.06800
H  47.58800 16.32100 33.73400
H  46.01400 16.18600 34.55300
H  48.45600 17.22900 35.57200
H  47.08900 16.41600 36.25600
H  52.84400 18.80500 29.57300
H  51.67100 19.89300 30.20300
H  52.21700 20.33100 28.71100
H  53.60300 18.30600 27.47400
H  53.26200 19.85600 26.60000
H  53.91700 18.56100 25.73300
H  47.39100 16.22000 23.80400
H  44.61500 16.85900 24.23900
H  45.52700 18.43500 22.96500
H  47.21900 18.27600 22.44100
H  46.90800 19.02200 23.91900
H  45.27000 14.00100 24.82600
H  46.16300 14.42600 23.42200
H  44.26400 13.83900 22.22200
H  43.33900 15.16300 22.96000
H  43.46700 13.67700 23.77800
H  41.43700 14.12000 28.28800
H  41.47400 15.47300 27.23800
H  40.61400 15.52100 28.85300
H  44.08900 15.86500 33.09700
H  42.87200 19.24300 35.27000
H  43.23500 17.97400 36.36600
H  41.60800 18.13800 35.69200
Mg 43.09000 42.67000 26.57800
C  41.97000 44.92000 29.08500
C  44.06600 40.54000 28.85700
C  44.61600 41.00300 24.06500
C  42.13600 45.05900 24.10900
N  42.88600 42.77400 28.81400
C  42.50000 43.72000 29.61000
C  42.45600 43.24800 31.04300
C  43.16100 41.96600 30.91600
C  43.33900 41.65800 29.42800
C  44.48300 41.99600 31.75500
C  41.02800 43.12300 31.74000
C  40.72100 44.04700 32.93500
H  40.19800 43.45800 34.26200
N  44.16000 40.95100 26.46700
C  44.46000 40.15400 27.56300
C  45.26400 39.03200 27.09600
C  45.49300 39.20000 25.70900
C  44.76600 40.45100 25.29300
C  45.85600 38.00300 28.08700
C  46.37400 38.36700 24.84900
O  46.51800 38.61900 23.63600
C  47.29000 37.22000 25.45900
N  43.39800 43.02300 24.44500
C  44.01700 42.11900 23.62300
C  43.86800 42.49100 22.13700
C  42.93700 43.69200 22.14500
C  42.85700 43.99000 23.63100
C  45.27000 42.73100 21.49700
C  41.53400 43.44700 21.53600
C  40.54100 42.60700 22.35500
N  42.34900 44.64300 26.56100
C  42.05100 45.53500 25.44600
C  41.31700 46.67400 25.96200
C  41.22800 46.52700 27.36700
C  41.89700 45.26400 27.70900
C  40.80400 47.77100 25.15300
C  40.78700 47.09800 28.63800
O  40.18800 48.14100 28.87200
C  41.27600 46.02500 29.76900
C  42.21400 46.81200 30.69100
O  43.36200 47.16400 30.40600
O  41.56200 47.13300 31.87800
C  42.35200 47.58500 32.96200
H  44.48500 39.92800 29.65800
H  44.89300 40.31100 23.26600
H  41.68800 45.72300 23.36700
H  43.01900 44.05800 31.50700
H  42.55000 41.15400 31.30800
H  44.48200 42.74300 32.55000
H  45.25400 42.26200 31.03200
H  44.68800 41.04300 32.24100
H  40.74900 42.10200 31.99600
H  40.34100 43.35000 30.92500
H  39.94600 44.64500 32.45500
H  41.48700 44.82000 32.99500
H  45.34700 37.88500 29.04300
H  46.89400 38.22500 28.33200
H  45.92000 37.00100 27.66300
H  48.04400 36.82900 24.77500
H  46.83700 36.29800 25.82400
H  47.79400 37.74600 26.26900
H  43.49300 41.56300 21.70500
H  43.35300 44.57200 21.65500
H  45.29900 41.93800 20.75000
H  46.04200 42.66100 22.26300
H  45.25400 43.75500 21.12400
H  41.79700 42.87000 20.64900
H  41.09500 44.40000 21.23900
H  40.91700 42.56000 23.37700
H  40.54700 41.58200 21.98500
H  39.50400 42.93200 22.26900
H  39.92700 47.51100 24.56000
H  41.66800 47.99600 24.52800
H  40.51300 48.59200 25.80700
H  40.41900 45.71900 30.37000
H  42.58900 46.69400 33.54400
H  41.78900 48.27600 33.58900
H  43.24600 48.10700 32.62100

