158

Mg 0.54100 7.97700 25.08200
C  1.04500 10.01500 27.80400
C  0.74900 5.26400 27.10800
C  0.14700 6.00000 22.38900
C  0.69200 10.78400 22.93200
N  0.85500 7.71300 27.22900
C  0.99500 8.65600 28.17400
C  1.10500 8.10100 29.55600
C  1.23100 6.51600 29.29300
C  0.95900 6.46600 27.77400
C  2.58600 5.82900 29.69000
C  -0.11000 8.48500 30.40400
C  0.00100 8.63300 31.93600
H  1.20200 8.04900 32.61700
N  0.42600 5.86900 24.78400
C  0.45600 4.98100 25.79000
C  0.18200 3.66500 25.20800
C  0.19200 3.80900 23.79500
C  0.21200 5.23200 23.58400
C  0.12600 2.35900 26.08800
C  -0.02700 2.67200 22.66300
O  0.03600 2.84900 21.47800
C  -0.19600 1.21000 23.03600
N  0.43300 8.37300 23.00500
C  0.18600 7.33600 22.14000
C  -0.17000 7.90600 20.83000
C  -0.11500 9.45500 20.96200
C  0.32900 9.58000 22.36800
C  0.71300 7.21200 19.77300
C  -1.54000 10.13400 20.75900
C  -1.61500 11.61200 20.22700
N  0.88100 10.02600 25.25800
C  0.81900 11.03900 24.34500
C  1.06100 12.33700 25.06300
C  1.15900 11.95200 26.43200
C  0.98600 10.53500 26.48300
C  1.05700 13.70700 24.47100
C  1.36700 12.46600 27.80500
O  1.74800 13.56300 28.16800
C  1.21300 11.26300 28.66900
C  2.39900 11.19700 29.47600
O  3.47700 10.68200 29.18900
O  2.06300 11.57200 30.74700
C  3.11100 11.54900 31.80000
H  0.69100 4.37700 27.74200
H  -0.04200 5.50000 21.43700
H  0.72000 11.68700 22.31900
H  2.02500 8.54900 29.93100
H  0.43500 5.99500 29.82500
H  3.05700 5.59200 28.73600
H  2.48400 4.87300 30.20300
H  3.14600 6.45800 30.38200
H  -0.88500 7.73100 30.27000
H  -0.53600 9.46300 30.18000
H  -0.86200 8.24400 32.47700
H  0.15300 9.67000 32.23700
H  1.02100 1.74100 26.01200
H  -0.74600 1.87300 25.65100
H  0.08100 2.53900 27.16300
H  0.72500 0.87900 23.51500
H  -0.16500 0.65400 22.09900
H  -1.03900 1.02400 23.70100
H  -1.19700 7.58700 20.65300
H  0.50300 9.98100 20.23400
H  1.61000 6.80300 20.23800
H  0.96600 7.81000 18.89800
H  0.21600 6.37500 19.28300
H  -2.07400 10.12500 21.70900
H  -2.13800 9.49600 20.10800
H  -1.96800 11.54700 19.19800
H  -0.60300 12.01800 20.21200
H  -2.18300 12.21100 20.94000
H  1.08100 13.69400 23.38200
H  1.97700 14.13800 24.86600
H  0.18900 14.32600 24.69800
H  0.29000 11.38800 29.23500
H  3.92100 10.84700 31.60000
H  2.70400 11.08600 32.69900
H  3.33100 12.60000 31.98500
Mg 25.49900 1.10200 28.68200
C  27.36200 0.77400 31.61300
C  22.81100 1.85400 30.61400
C  23.64300 1.03800 25.80200
C  28.20300 -0.11600 26.91200
N  25.16900 1.32900 30.86000
C  26.09300 1.28600 31.85100
C  25.41900 1.63800 33.21400
C  23.97400 1.85400 32.88400
C  23.96700 1.69000 31.33100
C  22.89400 0.91400 33.60800
C  26.12800 2.79900 33.99500
C  26.67400 2.43700 35.34900
H  26.64000 3.40700 36.55600
N  23.50200 1.51600 28.23900
C  22.56100 1.83900 29.18500
C  21.28900 1.95400 28.58200
C  21.43200 1.73100 27.13900
C  22.91300 1.46600 26.97000
C  20.01000 2.08900 29.38700
C  20.35800 1.75500 26.04900
O  20.66300 1.63600 24.86300
C  18.97200 2.00700 26.31700
N  25.91800 0.50600 26.67500
C  24.96700 0.68900 25.66700
C  25.64100 0.72300 24.27800
C  27.07700 0.16500 24.58500
C  27.11200 0.26100 26.11400
C  24.85200 -0.14800 23.28600
C  28.19300 0.88800 23.80200
C  28.64800 2.29800 24.32600
N  27.40800 0.31500 29.15000
C  28.38700 -0.06400 28.26800
C  29.46800 -0.53200 29.08000
C  29.15500 -0.11400 30.38300
C  27.84800 0.37700 30.36700
C  30.78400 -1.17500 28.74300
C  29.72200 0.03900 31.71100
O  30.84700 -0.33300 32.07600
C  28.57500 0.63400 32.57200
C  28.26700 -0.25100 33.63700
O  27.54600 -1.28200 33.69100
O  28.87800 0.17100 34.88200
C  28.52700 -0.69200 36.07900
H  22.05800 2.30000 31.26700
H  23.01900 0.91900 24.91400
H  29.14900 -0.45400 26.48400
H  25.57800 0.71000 33.76300
H  23.70500 2.90000 33.03100
H  23.35100 0.49300 34.50300
H  22.45700 0.11000 33.01600
H  22.15200 1.64300 33.93300
H  25.48300 3.66000 34.17100
H  26.88500 3.18300 33.31200
H  27.74000 2.30800 35.15900
H  26.28800 1.44700 35.59000
H  19.16600 1.46000 29.10300
H  19.60300 3.08300 29.20000
H  20.24100 1.74500 30.39500
H  18.38600 2.24200 25.42900
H  18.79200 2.82700 27.01100
H  18.50800 1.15500 26.81300
H  25.75100 1.74300 23.91200
H  27.20900 -0.89200 24.35200
H  24.12300 -0.76100 23.81600
H  25.62600 -0.74800 22.80800
H  24.40600 0.48600 22.52000
H  27.92400 1.07100 22.76200
H  29.06400 0.23400 23.77700
H  28.03400 2.66600 25.14800
H  28.58900 3.02100 23.51200
H  29.62700 2.13000 24.77300
H  30.76000 -1.62000 27.74900
H  31.05200 -1.88800 29.52300
H  31.59600 -0.45500 28.63600
H  28.95800 1.54700 33.02700
H  27.56100 -0.38600 36.48100
H  29.30300 -0.42700 36.79700
H  28.60800 -1.77300 35.96400

