158

Mg 46.88500 16.29000 29.25200
C  44.69900 15.77400 31.97600
C  49.01700 17.90800 31.39000
C  48.75200 17.04100 26.63700
C  44.42800 15.07000 27.22400
N  46.73900 16.86700 31.39100
C  45.87200 16.44900 32.33900
C  46.31600 16.73400 33.73800
C  47.53100 17.68900 33.47200
C  47.76200 17.55600 31.95900
C  47.47500 19.12100 34.03700
C  46.55300 15.43500 34.60000
C  46.23700 15.50300 36.15000
H  45.93200 16.82500 36.87200
N  48.67200 17.22000 29.08200
C  49.47200 17.71400 30.05400
C  50.79100 18.03700 29.54400
C  50.80600 17.79600 28.21800
C  49.36400 17.35400 27.88000
C  51.92000 18.64500 30.52800
C  51.89700 17.94900 27.14600
O  51.81300 17.68700 25.97000
C  53.23000 18.21200 27.65500
N  46.53300 16.17100 27.26000
C  47.44900 16.57000 26.37900
C  46.95300 16.50100 24.91400
C  45.61200 15.77800 25.02700
C  45.52500 15.58400 26.59100
C  46.83400 17.75400 24.02800
C  45.29900 14.57300 24.05300
C  45.63600 13.04500 24.52800
N  44.91700 15.48200 29.54700
C  44.05700 15.00200 28.59400
C  42.91600 14.48600 29.22500
C  43.16800 14.73400 30.59800
C  44.30300 15.38400 30.72200
C  41.72800 13.88100 28.57400
C  42.60300 14.53300 31.96300
O  41.60900 14.02800 32.39800
C  43.48000 15.36400 32.84900
C  42.76400 16.49800 33.38700
O  42.81400 17.68900 32.94100
O  42.10900 16.12300 34.50900
C  41.67100 17.21700 35.32700
H  49.74100 18.33300 32.08800
H  49.36800 17.19300 25.74900
H  43.68000 14.66200 26.54100
H  45.59400 17.44500 34.14000
H  48.46600 17.29000 33.86600
H  46.42800 19.42400 34.04600
H  48.05700 19.73000 33.34500
H  47.94600 19.21200 35.01600
H  47.62800 15.26600 34.54300
H  46.02600 14.61300 34.11500
H  46.96400 14.91800 36.71400
H  45.34000 14.88900 36.22900
H  51.64200 18.56800 31.58000
H  52.18100 19.64000 30.16700
H  52.79600 18.01000 30.40300
H  53.94800 18.36900 26.85100
H  53.60300 17.43800 28.32600
H  53.25800 19.09900 28.28800
H  47.51700 15.71600 24.41000
H  44.75000 16.40700 24.80700
H  47.37500 18.57400 24.50100
H  45.79800 18.07900 23.93200
H  47.24400 17.71400 23.01900
H  46.04000 14.72100 23.26800
H  44.25200 14.67500 23.76600
H  44.73900 12.44000 24.40100
H  45.94100 12.79300 25.54400
H  46.45600 12.63000 23.94100
H  41.43800 12.84200 28.73000
H  41.79700 14.08600 27.50500
H  40.86100 14.38900 28.99700
H  43.74200 14.65200 33.63100
H  40.70300 17.54900 34.95200
H  42.42800 17.98900 35.46500
H  41.44400 16.83200 36.32100
Mg 42.16500 41.13300 26.09600
C  41.18100 43.59300 28.56100
C  43.05300 39.01300 28.77000
C  43.34600 38.86900 23.93500
C  41.83000 43.45000 23.78600
N  42.20400 41.30200 28.37600
C  41.61800 42.34600 29.14500
C  41.54400 41.97600 30.62700
C  42.43300 40.62500 30.67200
C  42.62500 40.28200 29.21100
C  43.77300 40.64200 31.37500
C  40.06700 41.83800 31.33600
C  40.00800 41.23300 32.75400
H  39.50100 42.07700 33.93600
N  43.03600 39.17600 26.36900
C  43.31200 38.46600 27.50600
C  43.85900 37.16800 27.19400
C  43.95400 37.11000 25.77600
C  43.45700 38.39100 25.30900
C  44.07200 36.06800 28.25200
C  44.44100 36.03800 24.87600
O  44.59800 36.17300 23.64400
C  44.75500 34.60200 25.48000
N  42.65400 41.15600 24.19000
C  42.94300 40.09500 23.46500
C  42.98900 40.50000 21.97100
C  42.45000 41.95900 21.90100
C  42.31600 42.22600 23.41700
C  44.33400 40.34600 21.21900
C  41.08600 42.07200 21.22100
C  39.88700 41.22700 21.76000
N  41.67800 43.06400 26.06100
C  41.61300 43.93900 25.02200
C  41.15400 45.26700 25.42600
C  40.91400 45.11100 26.78700
C  41.24900 43.78700 27.16300
C  40.98000 46.46400 24.51700
C  40.46300 45.79900 27.98600
O  40.02400 46.89100 28.12800
C  40.63500 44.78200 29.19700
C  41.49000 45.33200 30.30400
O  42.55700 45.78400 30.13600
O  40.85400 45.16400 31.49600
C  41.63500 45.51600 32.69800
H  43.25600 38.33800 29.60400
H  43.69900 38.27600 23.08900
H  41.64100 44.22300 23.03800
H  42.03200 42.81600 31.12200
H  41.83000 39.87700 31.18800
H  43.79100 39.92700 32.19700
H  43.97300 41.58300 31.88700
H  44.61800 40.49900 30.70100
H  39.40400 41.36600 30.61100
H  39.50700 42.74500 31.56000
H  41.04800 40.93400 32.88600
H  39.36700 40.35500 32.67900
H  43.95500 36.35400 29.29700
H  45.09700 35.75300 28.05700
H  43.36500 35.27900 27.99800
H  45.45400 34.76900 26.29900
H  45.19400 33.98600 24.69500
H  43.86900 34.13500 25.91000
H  42.30600 39.76200 21.54800
H  43.17900 42.67800 21.52900
H  45.04100 40.09000 22.00800
H  44.64800 41.27100 20.73500
H  44.18200 39.44700 20.62100
H  41.25500 41.76900 20.18700
H  40.84900 43.13600 21.20000
H  39.72000 40.43600 21.02900
H  39.01600 41.87600 21.85800
H  40.06500 40.91000 22.78800
H  40.95500 46.16900 23.46800
H  41.82000 47.11100 24.76800
H  40.02800 46.96200 24.70200
H  39.65500 44.50900 29.59000
H  41.26700 44.95800 33.56000
H  41.61300 46.58100 32.92800
H  42.65600 45.13800 32.65400

