158

Mg 41.58200 41.82900 27.79400
C  40.68400 44.33700 30.18000
C  42.45400 39.79900 30.44400
C  42.80600 39.67700 25.61300
C  41.40200 44.23400 25.33600
N  41.62200 42.04200 30.07200
C  41.06700 43.12200 30.77500
C  40.92700 42.65800 32.25600
C  41.62900 41.25400 32.35500
C  41.97300 41.02000 30.85900
C  42.87100 41.08800 33.21200
C  39.36300 42.65000 32.79700
C  38.89400 43.78000 33.75000
H  38.45100 43.42100 35.19800
N  42.53500 39.91300 27.98700
C  42.76600 39.30800 29.16700
C  43.12300 37.92300 28.83100
C  43.10000 37.80200 27.40100
C  42.77000 39.13700 26.94900
C  43.52500 36.85100 29.87100
C  43.31000 36.65300 26.60600
O  43.33100 36.67800 25.37600
C  43.49000 35.33700 27.16700
N  42.04300 41.89400 25.87000
C  42.58600 40.93100 25.15300
C  42.67900 41.22200 23.65800
C  42.04300 42.59600 23.50500
C  41.83700 42.95100 25.01500
C  44.08500 41.08000 23.10000
C  40.67700 42.62200 22.71700
C  39.54000 41.83100 23.34100
N  41.04500 43.82100 27.72600
C  41.00700 44.65300 26.61300
C  40.51300 45.96800 27.02500
C  40.32400 45.83400 28.42600
C  40.67000 44.58100 28.82100
C  40.19700 47.14300 26.13800
C  39.86800 46.54300 29.63700
O  39.49700 47.66600 29.83000
C  40.16100 45.57000 30.78200
C  40.99700 46.25400 31.82300
O  42.12500 45.95800 32.28000
O  40.13600 47.16400 32.48400
C  40.52400 47.85700 33.71000
H  42.74400 39.06200 31.19500
H  43.27200 39.05300 24.84800
H  41.15200 44.92200 24.52600
H  41.51600 43.30700 32.90400
H  40.96500 40.41000 32.54100
H  42.55500 40.43700 34.02700
H  43.00600 42.05200 33.70100
H  43.75700 40.75100 32.67500
H  39.04600 41.66600 33.14100
H  38.87700 42.71200 31.82300
H  38.03800 44.28400 33.29900
H  39.69900 44.51100 33.82800
H  43.20200 37.03400 30.89500
H  44.59300 36.63400 29.85000
H  42.96100 35.99700 29.49800
H  42.48800 35.14700 27.55300
H  44.34100 35.34500 27.84900
H  43.69000 34.60900 26.38100
H  41.96500 40.53100 23.21100
H  42.74300 43.29000 23.04000
H  43.95500 40.13700 22.56900
H  44.79900 40.83500 23.88600
H  44.50000 41.80400 22.40000
H  40.82300 42.12700 21.75700
H  40.35000 43.63000 22.46400
H  38.67200 42.48400 23.43100
H  39.82100 41.47500 24.33200
H  39.36900 40.96600 22.69900
H  39.32500 47.67800 26.51200
H  39.99700 46.76900 25.13400
H  41.01400 47.86300 26.07500
H  39.24700 45.30400 31.31400
H  39.75800 48.54300 34.06900
H  41.27700 48.56500 33.36400
H  40.67200 47.24600 34.60000
Mg 8.95900 47.37200 24.82700
C  6.86300 47.59100 27.59100
C  11.51600 48.45600 26.79600
C  10.90700 47.48500 22.12700
C  6.13400 47.17600 22.81500
N  9.22100 47.90900 26.93400
C  8.25100 47.84500 27.89600
C  8.74900 48.30200 29.31400
C  10.08500 49.05500 28.91000
C  10.33000 48.42300 27.47400
C  9.92400 50.62400 28.72800
C  8.87100 47.19700 30.41100
C  8.15600 47.67900 31.74700
H  8.14300 46.62000 32.87900
N  10.92600 47.80200 24.50400
C  11.85800 48.14900 25.48700
C  13.18300 48.24200 24.90100
C  13.02900 47.88200 23.59300
C  11.61200 47.65300 23.33800
C  14.45800 48.55700 25.73400
C  14.07300 47.71400 22.58200
O  13.79300 47.45300 21.40500
C  15.51500 47.72100 22.98300
N  8.53600 47.58300 22.71600
C  9.54000 47.51100 21.81800
C  8.99300 47.23200 20.36500
C  7.43500 47.24300 20.58000
C  7.33500 47.33200 22.16200
C  9.43200 48.30400 19.25300
C  6.74200 46.05600 19.81700
C  5.44700 46.41000 19.07000
N  6.91800 47.19900 25.06200
C  5.90200 47.05200 24.21600
C  4.66800 47.04200 24.94700
C  4.98100 47.09000 26.27000
C  6.36400 47.31700 26.30600
C  3.35700 47.09200 24.35900
C  4.47800 47.22900 27.61500
O  3.36600 47.22000 28.13900
C  5.65600 47.58900 28.44900
C  5.67300 46.49600 29.51000
O  6.08300 45.36300 29.36000
O  4.99500 46.89900 30.59900
C  4.62900 45.97100 31.61800
H  12.34900 48.76700 27.43000
H  11.40300 47.39000 21.15900
H  5.21300 47.04300 22.24300
H  8.05400 49.11200 29.53700
H  10.84800 48.80000 29.64500
H  9.01800 51.05900 29.14900
H  9.93000 50.82100 27.65500
H  10.70000 51.26000 29.15500
H  9.94400 47.03700 30.51600
H  8.38500 46.26900 30.11000
H  7.11500 47.92600 31.53700
H  8.61500 48.60100 32.10500
H  14.20500 48.91500 26.73200
H  15.14800 49.23200 25.22900
H  14.98100 47.60900 25.86600
H  15.78500 48.76300 23.15300
H  16.05300 47.30200 22.13300
H  15.60700 46.98100 23.77800
H  9.47300 46.27900 20.14300
H  6.94600 48.14100 20.20100
H  8.52400 48.68000 18.78200
H  10.17000 47.92400 18.54700
H  9.78000 49.19100 19.78300
H  6.54300 45.34900 20.62200
H  7.43200 45.68500 19.05900
H  4.97700 47.38100 19.22800
H  4.72800 45.67800 19.43800
H  5.54400 46.33400 17.98700
H  3.09000 48.14700 24.29600
H  2.70300 46.51800 25.01500
H  3.19100 46.72500 23.34600
H  5.39700 48.55300 28.88600
H  3.67300 46.31700 32.01000
H  5.38300 45.92000 32.40300
H  4.41000 44.97200 31.24100

