158

Mg -2.20800 17.48400 26.57900
C  -2.65300 14.78100 28.83800
C  -3.16200 19.62200 28.97000
C  -2.62500 19.85100 24.04900
C  -2.06400 15.08900 23.91200
N  -2.93300 17.16200 28.74100
C  -2.91900 16.02300 29.47900
C  -3.19000 16.33100 30.97800
C  -3.48200 17.90000 30.87100
C  -3.14400 18.29200 29.42900
C  -4.85200 18.24400 31.44400
C  -2.04200 15.93000 31.89700
C  -1.86400 16.72900 33.20400
H  -1.48000 15.89600 34.48700
N  -2.64000 19.48000 26.56700
C  -2.97100 20.20000 27.70000
C  -3.35700 21.47800 27.31300
C  -3.24900 21.65200 25.87300
C  -2.81500 20.28400 25.40600
C  -3.90200 22.56300 28.23700
C  -3.42700 22.77500 24.84100
O  -3.35200 22.75500 23.62300
C  -3.92300 24.01500 25.46800
N  -2.28700 17.46900 24.31000
C  -2.39600 18.57600 23.57800
C  -2.16800 18.30400 22.08700
C  -1.70100 16.79700 22.07500
C  -2.03400 16.40800 23.47900
C  -3.48000 18.54100 21.20500
C  -0.22100 16.62000 21.70100
C  0.05000 16.00400 20.37000
N  -2.34600 15.43800 26.39300
C  -2.18300 14.62200 25.26600
C  -2.23700 13.19300 25.65800
C  -2.35000 13.20100 27.09300
C  -2.45500 14.60200 27.44600
C  -2.33000 12.02100 24.72400
C  -2.55900 12.29000 28.23500
O  -2.63300 11.06800 28.34200
C  -2.80900 13.35500 29.40100
C  -2.05000 12.80700 30.50400
O  -0.77700 12.80900 30.65100
O  -2.84200 12.10400 31.38200
C  -2.22800 11.54400 32.62600
H  -3.22200 20.35000 29.78200
H  -2.89700 20.50400 23.21600
H  -2.00300 14.29600 23.16300
H  -4.07600 15.79300 31.31500
H  -2.75100 18.43600 31.47700
H  -5.54600 17.40700 31.36900
H  -5.31100 19.07800 30.91200
H  -4.90400 18.57600 32.48100
H  -1.13100 16.09500 31.32100
H  -2.08900 14.87400 32.16300
H  -2.78900 17.24200 33.46500
H  -0.96000 17.33900 33.19800
H  -3.37600 23.50700 28.09800
H  -3.79700 22.24200 29.27300
H  -4.96500 22.76800 28.11200
H  -4.74200 23.66400 26.09600
H  -4.40100 24.66700 24.73700
H  -3.22000 24.60000 26.06200
H  -1.39300 18.98900 21.74200
H  -2.38300 16.27000 21.40700
H  -3.24400 19.20200 20.37100
H  -4.14100 19.26300 21.68500
H  -3.90600 17.62000 20.80700
H  0.21100 15.95800 22.45200
H  0.35000 17.54800 21.73700
H  0.90600 16.45700 19.86800
H  -0.81800 15.93100 19.71500
H  0.41700 14.98000 20.43200
H  -3.26800 11.96900 24.17100
H  -2.35500 11.09900 25.30300
H  -1.54300 11.96400 23.97200
H  -3.86400 13.32700 29.67600
H  -1.64200 12.29400 33.15800
H  -1.49200 10.78300 32.36900
H  -2.95800 11.07600 33.28700
Mg -3.21800 35.16900 26.38900
C  -4.90400 33.41800 28.77600
C  -1.64700 37.05400 28.66600
C  -1.99900 37.16900 23.81800
C  -5.17300 33.55800 24.02400
N  -3.54400 35.41800 28.45100
C  -4.12200 34.45900 29.27400
C  -3.73400 34.57000 30.75500
C  -2.81700 35.86100 30.63300
C  -2.66400 36.20600 29.13700
C  -3.38800 37.07800 31.37300
C  -2.84000 33.32500 31.20000
C  -3.25200 32.79500 32.59200
H  -2.32200 32.89800 33.84200
N  -2.02800 36.95800 26.27200
C  -1.34100 37.45500 27.35300
C  -0.33500 38.29800 26.93400
C  -0.39500 38.30300 25.48200
C  -1.51800 37.42100 25.10800
C  0.70600 38.94200 27.86900
C  0.43700 39.02300 24.44500
O  0.25100 39.01800 23.18400
C  1.71000 39.68300 24.88900
N  -3.76600 35.57400 24.26800
C  -3.10000 36.37900 23.42900
C  -3.52100 36.34000 21.97800
C  -4.18400 34.95800 22.02400
C  -4.49400 34.67000 23.50400
C  -4.44100 37.58000 21.57200
C  -3.31200 33.79900 21.41000
C  -2.49700 32.90700 22.33500
N  -4.66200 33.73600 26.30300
C  -5.34500 33.14600 25.31300
C  -6.03000 32.01800 25.80000
C  -5.90200 32.04200 27.22400
C  -5.05400 33.11500 27.46000
C  -6.82200 31.05500 25.05100
C  -6.28100 31.46200 28.48700
O  -7.03900 30.51500 28.65500
C  -5.65000 32.40400 29.58000
C  -6.71000 32.97400 30.36000
O  -7.51400 33.81800 29.97800
O  -6.82400 32.35100 31.50400
C  -7.88100 32.70600 32.48100
H  -1.03000 37.53000 29.43100
H  -1.62100 37.69400 22.93800
H  -5.69600 32.89900 23.32800
H  -4.61300 34.74800 31.37300
H  -1.74800 35.71700 30.78800
H  -3.55000 37.91400 30.69300
H  -2.61300 37.36600 32.08300
H  -4.37000 36.87700 31.80200
H  -1.80100 33.63200 31.32100
H  -2.81300 32.51200 30.47400
H  -3.38400 31.74100 32.35000
H  -4.23600 33.08100 32.96400
H  1.69200 38.87800 27.40800
H  0.68600 38.44500 28.83900
H  0.53900 40.01600 27.94100
H  1.35700 40.42800 25.60200
H  2.06400 40.39500 24.14300
H  2.44100 38.95000 25.23000
H  -2.67100 36.52300 21.32100
H  -5.09600 34.97500 21.42700
H  -4.01200 37.94900 20.64100
H  -4.39700 38.35800 22.33400
H  -5.42000 37.16900 21.32400
H  -2.51400 34.18800 20.77800
H  -4.10400 33.19100 20.97100
H  -2.35900 33.45200 23.26800
H  -1.45500 32.86800 22.01800
H  -2.99100 31.93500 22.31200
H  -6.74600 31.02000 23.96500
H  -7.86200 31.33200 25.22200
H  -6.74500 30.00500 25.33300
H  -5.05700 31.72100 30.19000
H  -8.61500 33.36600 32.01900
H  -7.37400 33.16600 33.32900
H  -8.22500 31.70600 32.74500

