158

Mg 46.89700 16.24900 27.89000
C  44.77100 16.24200 30.69400
C  49.01200 18.37700 29.71200
C  48.39400 17.40100 24.98800
C  44.35100 15.04000 25.99600
N  46.81000 17.33900 29.87000
C  45.98300 17.02700 30.89100
C  46.44500 17.56800 32.21700
C  47.71900 18.39700 31.87800
C  47.88900 18.01800 30.40300
C  47.68100 19.87100 32.19400
C  46.87300 16.40600 33.16200
C  46.64700 16.57500 34.67400
H  46.29500 17.97200 35.19300
N  48.56300 17.61300 27.38900
C  49.33000 18.26600 28.34700
C  50.52600 18.71700 27.69800
C  50.42100 18.43200 26.28200
C  49.03500 17.84900 26.15900
C  51.66300 19.27300 28.43600
C  51.39000 18.77700 25.10400
O  51.20000 18.49700 23.92000
C  52.77400 19.33200 25.38900
N  46.50500 16.26200 25.78600
C  47.23600 16.68200 24.81600
C  46.84700 16.14500 23.43600
C  45.57800 15.34300 23.77700
C  45.42300 15.62100 25.32100
C  46.62700 17.29700 22.43500
C  45.70600 13.73600 23.43800
C  44.71600 13.21600 22.34700
N  44.99900 15.56500 28.24800
C  44.15000 14.98400 27.37000
C  42.92800 14.66100 28.09900
C  43.11800 15.09200 29.39900
C  44.36700 15.69100 29.45500
C  41.59800 14.08200 27.60100
C  42.55400 15.19200 30.82300
O  41.45800 14.84600 31.17400
C  43.63300 15.98100 31.68300
C  42.97900 17.17400 32.32700
O  42.73200 18.18800 31.69600
O  42.57500 17.00000 33.63200
C  41.97600 18.04900 34.42000
H  49.71900 18.91300 30.34800
H  48.90400 17.65200 24.05500
H  43.55300 14.61900 25.38000
H  45.70100 18.26700 32.59900
H  48.64400 18.03300 32.32600
H  47.83000 20.49400 31.31200
H  48.48900 20.15600 32.86700
H  46.69600 20.10700 32.59500
H  47.91900 16.14600 33.00200
H  46.31300 15.54300 32.80200
H  47.61300 16.27700 35.08300
H  45.93500 15.85200 35.07200
H  51.62100 19.57900 29.48100
H  51.82200 20.19400 27.87400
H  52.52000 18.64800 28.18400
H  53.32600 19.23800 24.45400
H  53.30400 18.78200 26.16600
H  52.71900 20.40200 25.59400
H  47.64400 15.47300 23.11700
H  44.69800 15.72400 23.25900
H  46.72300 18.20400 23.03200
H  45.65100 17.27600 21.95100
H  47.35000 17.32900 21.62000
H  45.38700 13.26700 24.36900
H  46.77200 13.52400 23.35200
H  45.08600 12.24500 22.01900
H  44.66800 13.90300 21.50200
H  43.71900 13.01400 22.73700
H  41.29200 14.83300 26.87200
H  40.98900 13.89300 28.48500
H  41.81700 13.11100 27.15700
H  43.96800 15.33300 32.49400
H  42.03600 17.88400 35.49500
H  40.91000 18.16600 34.22500
H  42.52900 18.97100 34.23900
Mg -2.47400 35.14300 26.40100
C  -4.13300 33.36200 28.81200
C  -1.24400 37.26200 28.81900
C  -1.55700 37.34700 23.94300
C  -4.17100 33.27100 24.00600
N  -2.62800 35.21300 28.54600
C  -3.18300 34.29200 29.37400
C  -2.89800 34.63900 30.91500
C  -2.12700 36.00300 30.87100
C  -1.97000 36.21400 29.29000
C  -2.61800 37.19700 31.69800
C  -2.00700 33.53300 31.61200
C  -2.75700 32.62200 32.66200
H  -2.22200 32.50200 34.12400
N  -1.36700 37.01000 26.33200
C  -0.92800 37.67900 27.47000
C  0.08900 38.70300 26.99800
C  -0.10600 38.74200 25.53900
C  -1.05000 37.69100 25.17000
C  0.95700 39.45000 28.03100
C  0.54000 39.65000 24.51500
O  0.39800 39.66600 23.30400
C  1.46900 40.60800 24.98100
N  -2.94300 35.39600 24.34900
C  -2.43800 36.33500 23.51800
C  -2.99000 36.27000 22.08400
C  -3.71900 34.85300 22.15700
C  -3.47000 34.43400 23.59000
C  -3.96800 37.45500 21.74400
C  -2.99700 33.85200 21.11900
C  -1.70200 32.99800 21.45600
N  -3.75700 33.51000 26.34800
C  -4.31000 32.80400 25.31900
C  -5.05900 31.74900 25.88500
C  -4.97300 31.92300 27.23200
C  -4.23400 33.03500 27.49100
C  -5.86700 30.76300 25.12700
C  -5.44900 31.31800 28.48000
O  -6.14800 30.32600 28.65600
C  -4.78100 32.19500 29.62800
C  -5.85300 32.62400 30.58900
O  -6.60400 33.62300 30.45800
O  -6.02900 31.69200 31.59700
C  -6.91800 32.16800 32.67200
H  -0.81500 37.97300 29.52800
H  -1.33800 38.09500 23.17800
H  -4.74600 32.76100 23.23100
H  -3.86100 34.72600 31.41800
H  -1.11000 35.82100 31.21800
H  -1.83900 37.37900 32.43900
H  -3.51700 36.88700 32.23000
H  -2.85700 38.05700 31.07400
H  -1.12500 33.94400 32.10300
H  -1.66100 32.83700 30.84600
H  -2.82600 31.59600 32.30200
H  -3.78200 32.96800 32.79800
H  0.64400 40.49300 28.06900
H  1.98500 39.56600 27.68800
H  0.83600 39.12000 29.06300
H  2.32200 40.00000 25.28400
H  1.11100 41.08000 25.89600
H  1.77300 41.28100 24.17900
H  -2.18000 36.40900 21.36800
H  -4.78500 34.97800 21.96500
H  -4.26700 38.05600 22.60300
H  -4.89200 37.23900 21.20700
H  -3.42500 38.18800 21.14700
H  -2.87600 34.44200 20.21000
H  -3.82500 33.18700 20.87400
H  -1.00300 32.83800 20.63500
H  -2.05300 31.97700 21.60400
H  -1.28200 33.39700 22.38000
H  -5.20600 30.31500 24.38500
H  -6.62200 31.27800 24.53300
H  -6.38300 30.02000 25.73400
H  -3.95200 31.77300 30.19500
H  -6.17300 32.71300 33.25100
H  -7.30600 31.33700 33.26100
H  -7.71300 32.87200 32.42300

