158

Mg 25.85100 0.52500 29.90300
C  27.95200 0.38600 32.65300
C  23.17300 0.99700 32.03400
C  23.95400 0.86700 27.09200
C  28.63000 -0.32300 27.85500
N  25.57200 0.68400 32.14100
C  26.66000 0.72700 33.03400
C  26.12300 0.84200 34.53000
C  24.62100 0.97400 34.29800
C  24.43000 0.91200 32.77100
C  23.58300 0.22500 35.16900
C  26.64400 2.15200 35.18900
C  25.78000 2.77100 36.29800
H  26.54200 3.31700 37.58800
N  23.85000 0.81900 29.60900
C  22.92200 0.97000 30.63600
C  21.63000 1.15500 29.96800
C  21.84700 1.06000 28.55100
C  23.26600 0.90400 28.37800
C  20.35000 1.49700 30.75300
C  20.91100 1.15300 27.39700
O  21.22600 0.99500 26.24200
C  19.50000 1.40800 27.68400
N  26.27600 0.43400 27.79900
C  25.32900 0.71500 26.84500
C  25.90300 0.60500 25.48700
C  27.47400 0.33400 25.71300
C  27.46000 0.01200 27.20400
C  25.13300 -0.43300 24.59100
C  28.33800 1.53100 25.23100
C  29.21100 1.28400 24.03800
N  27.85400 0.07100 30.14200
C  28.81200 -0.41900 29.29000
C  30.06700 -0.67100 30.03600
C  29.79600 -0.23800 31.32500
C  28.40800 0.09000 31.37400
C  31.35800 -1.29500 29.68300
C  30.32800 -0.10800 32.65900
O  31.46700 -0.38400 33.01800
C  29.16600 0.40100 33.58200
C  29.07700 -0.56300 34.74100
O  28.91100 -1.76800 34.65200
O  29.19000 0.07200 35.98500
C  28.90300 -0.84900 37.15300
H  22.36000 1.04600 32.76100
H  23.38000 0.89500 26.16200
H  29.50300 -0.43100 27.20800
H  26.29700 -0.03700 35.15000
H  24.30300 1.99900 34.48600
H  24.09100 -0.13800 36.06200
H  23.16300 -0.55200 34.53000
H  22.89600 0.96800 35.57400
H  26.77100 2.91000 34.41600
H  27.62600 1.94300 35.61200
H  24.93900 2.14900 36.60000
H  25.41400 3.70800 35.87800
H  19.96100 2.47100 30.45600
H  20.44300 1.43900 31.83700
H  19.56200 0.85300 30.36200
H  18.93000 0.56100 28.06500
H  19.05300 1.66900 26.72500
H  19.43500 2.26400 28.35600
H  25.78200 1.49400 24.86600
H  27.86400 -0.60000 25.30800
H  25.74200 -1.32900 24.46900
H  24.89900 -0.06000 23.59400
H  24.19500 -0.71300 25.07000
H  28.95400 2.00300 25.99800
H  27.63500 2.31300 24.94400
H  30.19400 1.66400 24.31700
H  28.89000 1.99200 23.27400
H  29.26200 0.23400 23.75200
H  31.31000 -2.19700 29.07300
H  31.97000 -1.49200 30.56300
H  31.84100 -0.51700 29.09200
H  29.48700 1.38600 33.91900
H  29.31200 -0.37100 38.04400
H  29.40900 -1.81200 37.22100
H  27.83100 -1.00900 37.26500
Mg 46.80000 15.92800 27.67500
C  44.84100 15.78400 30.59600
C  49.12400 17.67000 29.58500
C  48.58200 16.82400 24.88300
C  44.24700 14.77600 25.83600
N  46.89600 16.75300 29.81300
C  46.01100 16.45000 30.82800
C  46.49100 17.02700 32.16300
C  47.85800 17.75600 31.77000
C  47.95400 17.40400 30.27600
C  47.84300 19.32800 32.12600
C  46.77100 15.90000 33.18300
C  46.52500 16.16500 34.63200
H  46.09000 17.51900 35.14200
N  48.60400 16.97800 27.31400
C  49.41300 17.59100 28.20700
C  50.62300 18.07900 27.55400
C  50.58000 17.68100 26.25600
C  49.17200 17.16900 26.07300
C  51.61900 18.99500 28.21000
C  51.67100 17.87900 25.10600
O  51.50100 17.47900 23.99300
C  53.05200 18.62700 25.31000
N  46.37100 15.96900 25.68200
C  47.30900 16.26800 24.72400
C  46.71100 16.06500 23.32700
C  45.47800 15.17900 23.59600
C  45.34700 15.26800 25.10900
C  46.41800 17.46700 22.59700
C  45.64900 13.75100 23.09100
C  46.63500 12.92300 23.91400
N  44.94700 15.24600 28.11700
C  43.99400 14.79000 27.21500
C  42.85800 14.21800 27.91300
C  43.11900 14.61900 29.28800
C  44.38000 15.28800 29.31500
C  41.61200 13.61300 27.33800
C  42.57600 14.64700 30.60500
O  41.50600 14.23300 30.96600
C  43.64800 15.42200 31.48800
C  43.01400 16.58200 32.23200
O  42.35800 17.41300 31.59100
O  42.83900 16.28400 33.59600
C  41.79300 17.13200 34.24800
H  49.80200 18.28900 30.17500
H  49.21500 17.02500 24.01600
H  43.51900 14.31800 25.16300
H  45.81700 17.77400 32.58400
H  48.72300 17.22900 32.17300
H  47.82300 19.88200 31.18800
H  48.77700 19.53300 32.64900
H  47.11100 19.60200 32.88500
H  47.78600 15.51400 33.08900
H  46.08500 15.06900 33.02100
H  47.56300 16.04200 34.94000
H  45.91900 15.41000 35.13400
H  52.66700 18.69500 28.19800
H  51.21800 19.20000 29.20300
H  51.55800 19.95500 27.69800
H  53.06400 19.46700 26.00300
H  53.33200 18.86700 24.28400
H  53.82700 17.93800 25.64600
H  47.51600 15.60400 22.75400
H  44.56700 15.67300 23.25900
H  45.45600 17.83200 22.95400
H  46.26300 17.29300 21.53200
H  47.09400 18.30800 22.75200
H  46.13400 13.71400 22.11600
H  44.63600 13.34800 23.09400
H  47.05500 12.14900 23.27200
H  46.05500 12.29400 24.58900
H  47.32000 13.42300 24.59900
H  41.39300 14.27500 26.50000
H  40.85300 13.78200 28.10200
H  41.85200 12.58400 27.07100
H  43.97800 14.69000 32.22500
H  41.60300 16.73000 35.24300
H  40.88800 17.35400 33.68200
H  42.24600 18.12200 34.19100

