158

Mg 23.22200 -5.36200 44.58700
C  24.71600 -2.37700 43.45400
C  20.19600 -4.22000 43.33100
C  21.99200 -8.42600 44.96100
C  26.37100 -6.47800 45.67600
N  22.53100 -3.49800 43.47600
C  23.28400 -2.37700 43.11400
C  22.43100 -1.21900 42.60700
C  21.00000 -1.80300 42.81200
C  21.17100 -3.24300 43.27000
C  20.20200 -0.86700 43.77500
C  22.83000 -0.82300 41.16100
C  23.73700 0.41900 40.87900
H  24.74800 0.32300 39.69400
N  21.33500 -6.18400 44.24600
C  20.19000 -5.58600 43.66200
C  19.11000 -6.52500 43.59100
C  19.57200 -7.78100 44.07100
C  21.05400 -7.52700 44.45900
C  17.66700 -6.11000 43.05000
C  18.68100 -9.02800 44.23100
O  17.49500 -8.92500 44.04000
C  19.28800 -10.22700 44.83700
N  24.11100 -7.22000 45.26800
C  23.36300 -8.35600 45.35900
C  24.21100 -9.51300 45.96000
C  25.62200 -8.80000 46.20300
C  25.34300 -7.38700 45.69100
C  23.64300 -10.26700 47.20600
C  26.85600 -9.42700 45.50700
C  28.09600 -9.45800 46.47500
N  25.15100 -4.62900 44.63400
C  26.33000 -5.17800 45.07900
C  27.41800 -4.22800 44.94700
C  26.84000 -3.11400 44.33000
C  25.43000 -3.42000 44.13700
C  28.87600 -4.46200 45.17900
C  27.11000 -1.87800 43.71000
O  28.24200 -1.38400 43.47700
C  25.81500 -1.30800 43.23900
C  25.59600 0.04000 43.90200
O  24.99700 0.24000 44.94800
O  26.26400 1.02900 43.17400
C  26.25300 2.41500 43.60300
H  19.23500 -3.84000 42.97900
H  21.61100 -9.41900 45.21000
H  27.35400 -6.83800 45.98900
H  22.60200 -0.32500 43.20700
H  20.37900 -1.89100 41.92000
H  20.80600 -0.00700 44.06200
H  20.15500 -1.51800 44.64900
H  19.20600 -0.51600 43.50500
H  21.90600 -0.48800 40.68800
H  23.24600 -1.66300 40.60400
H  24.27200 0.66500 41.79600
H  23.04300 1.24700 40.73700
H  17.29100 -6.87400 42.37000
H  17.71600 -5.20600 42.44400
H  16.93300 -6.00100 43.84700
H  18.51300 -10.99000 44.90200
H  19.77100 -10.08800 45.80400
H  20.05400 -10.63300 44.17500
H  24.39900 -10.27500 45.20400
H  25.72900 -8.58900 47.26700
H  24.21100 -9.98800 48.09400
H  23.54400 -11.33200 46.99700
H  22.63000 -9.93300 47.43000
H  27.09100 -8.72100 44.71100
H  26.63400 -10.35400 44.98000
H  28.75700 -10.26600 46.16400
H  27.93300 -9.58800 47.54500
H  28.69100 -8.58300 46.21400
H  29.16900 -5.13600 44.37500
H  29.09100 -5.00000 46.10300
H  29.39200 -3.52600 44.96700
H  25.75500 -1.06000 42.18000
H  25.59400 2.64400 44.44100
H  26.07900 3.07100 42.75000
H  27.29100 2.67300 43.81000
Mg 10.42500 46.34000 25.40300
C  8.26200 46.55900 28.11900
C  12.78700 47.79000 27.43000
C  12.41300 46.47300 22.73400
C  7.64200 45.72800 23.31500
N  10.50200 47.02800 27.64100
C  9.55600 46.97400 28.53700
C  9.97100 47.50700 29.86400
C  11.30000 48.25200 29.53900
C  11.61600 47.66400 28.11800
C  11.18200 49.78300 29.55500
C  9.99100 46.32500 30.96100
C  10.92900 46.32700 32.23700
H  10.68400 45.40000 33.39200
N  12.31100 46.95100 25.15400
C  13.15800 47.49700 26.09300
C  14.44200 47.72400 25.50800
C  14.40800 47.20000 24.18900
C  12.99500 46.84900 23.93500
C  15.49500 48.62900 26.17400
C  15.51900 46.82800 23.29700
O  15.38600 46.20100 22.24600
C  16.89700 47.28100 23.78500
N  10.09800 46.18600 23.31400
C  11.09700 46.14800 22.41800
C  10.61900 45.88100 20.99000
C  9.10000 45.74900 21.23500
C  8.89800 45.85000 22.69300
C  11.02000 47.01600 20.02300
C  8.52400 44.41700 20.60800
C  7.54700 44.72100 19.45500
N  8.38200 46.03100 25.68200
C  7.39100 45.85800 24.72100
C  6.13200 45.69300 25.39600
C  6.43700 45.85400 26.72000
C  7.79600 46.13100 26.87900
C  4.77900 45.51900 24.75200
C  5.86600 46.03400 28.02700
O  4.67900 45.91500 28.37500
C  7.01500 46.45600 28.97600
C  7.07900 45.47400 30.05600
O  7.53600 44.36100 29.96000
O  6.53200 45.98800 31.22300
C  6.50000 45.02400 32.28500
H  13.58700 48.26100 28.00400
H  12.97200 46.45800 21.79600
H  6.78800 45.64700 22.63900
H  9.25400 48.25700 30.19900
H  12.10900 47.89400 30.17600
H  10.16100 50.09800 29.76700
H  11.46700 50.13200 28.56200
H  11.95500 50.24000 30.17400
H  10.03600 45.35400 30.46800
H  9.03800 46.39700 31.48500
H  10.96200 47.36400 32.57100
H  11.94200 46.06200 31.93500
H  14.94300 49.28200 26.85000
H  16.03100 49.27900 25.48300
H  16.13100 47.99100 26.78900
H  17.76400 47.07900 23.15600
H  17.02600 46.76700 24.73700
H  16.78400 48.36500 23.76000
H  11.20900 45.04100 20.62400
H  8.56100 46.56900 20.76000
H  11.55400 47.80900 20.54600
H  10.12800 47.46300 19.58300
H  11.69500 46.57200 19.29200
H  7.93000 43.92000 21.37500
H  9.41800 43.86500 20.31600
H  7.04600 45.68700 19.38400
H  6.69600 44.04100 19.47300
H  8.10700 44.54000 18.53700
H  4.74800 44.54800 24.25800
H  4.64100 46.18500 23.90000
H  3.94100 45.61100 25.44300
H  6.74400 47.40000 29.44900
H  5.66200 45.34200 32.90500
H  7.45700 45.04600 32.80500
H  6.37800 43.99600 31.94200

