158

Mg 52.97700 24.07200 44.56200
C  50.16200 25.97200 43.73500
C  51.50000 21.34800 43.09100
C  55.90600 22.53700 44.89200
C  54.52500 27.07700 45.76900
N  51.20100 23.80400 43.26200
C  50.24200 24.71300 43.06800
C  49.03500 24.10900 42.35300
C  49.36900 22.56000 42.53100
C  50.80500 22.53300 42.95700
C  48.41000 21.84900 43.51100
C  49.22500 24.53900 40.88100
C  47.91200 24.89800 40.12000
H  47.37000 23.74300 39.29400
N  53.56700 22.09300 44.10500
C  52.83600 21.13400 43.56000
C  53.63700 19.94800 43.49000
C  54.95500 20.29400 43.95400
C  54.89100 21.68700 44.42700
C  53.12700 18.64800 42.94100
C  56.11300 19.34400 44.00900
O  56.08000 18.22900 43.61200
C  57.39900 19.68400 44.79200
N  55.00100 24.86400 44.87100
C  55.93900 23.92400 45.11300
C  57.18500 24.56800 45.77700
C  56.86900 26.09600 45.74300
C  55.37900 26.02000 45.45100
C  57.59400 24.04600 47.17300
C  57.56100 26.91300 44.61800
C  58.51700 27.99000 45.00100
N  52.48600 26.13600 44.75300
C  53.12300 27.13400 45.52000
C  52.07000 28.23600 45.75400
C  50.95800 27.85600 45.01500
C  51.24200 26.50500 44.49600
C  52.31300 29.54100 46.51800
C  49.55100 28.25600 44.61600
O  48.92800 29.25100 44.77900
C  48.96100 26.96000 43.85700
C  48.40000 27.51700 42.57400
O  49.08000 28.06300 41.75500
O  46.98300 27.37200 42.61300
C  46.28300 27.86400 41.44700
H  51.09100 20.40900 42.71000
H  56.87300 22.08800 45.12800
H  55.04500 27.92700 46.21500
H  48.05700 24.36300 42.76100
H  49.34400 22.06100 41.56300
H  47.80500 20.98900 43.22600
H  47.70900 22.54000 43.97900
H  49.09900 21.43900 44.24900
H  49.58300 23.63900 40.38100
H  50.06000 25.23200 40.77800
H  48.15000 25.71500 39.44000
H  47.12000 25.02300 40.85900
H  53.88000 18.26400 42.25400
H  52.30700 18.82000 42.24400
H  52.74200 17.92700 43.66200
H  57.99000 18.77500 44.90400
H  57.07800 19.97800 45.79100
H  57.95400 20.48700 44.30600
H  58.05700 24.37900 45.15000
H  57.11400 26.57600 46.69000
H  58.66900 24.13400 47.33300
H  57.29500 23.04600 47.48700
H  57.04900 24.70700 47.84800
H  56.87700 27.46200 43.97100
H  58.04300 26.16100 43.99200
H  59.45400 27.84700 44.46300
H  58.56300 28.14800 46.07800
H  58.21700 28.98700 44.67800
H  52.96400 30.20000 45.94200
H  52.83100 29.26200 47.43600
H  51.40300 30.02800 46.86800
H  48.14300 26.57200 44.46300
H  46.35800 26.98300 40.80900
H  46.85100 28.64300 40.93800
H  45.28500 28.26900 41.61400
Mg -10.13800 17.43200 43.04800
C  -6.64000 17.08100 43.00800
C  -9.65100 20.66000 42.04900
C  -13.36000 17.56900 42.23500
C  -10.28800 13.88900 43.01000
N  -8.28700 18.73500 42.62200
C  -6.99600 18.35400 42.61700
C  -6.04800 19.55700 42.43900
C  -7.07900 20.79600 42.39700
C  -8.39800 20.03800 42.26700
C  -6.89100 21.64700 43.63300
C  -5.10900 19.39600 41.12900
C  -5.62700 18.41100 40.02800
H  -5.16000 18.69600 38.59700
N  -11.40400 18.97300 42.49700
C  -11.01700 20.25200 42.12800
C  -12.15900 21.10500 41.99000
C  -13.28200 20.21500 41.93100
C  -12.73000 18.85300 42.18600
C  -12.15100 22.66700 41.75000
C  -14.73800 20.65900 41.61500
O  -14.94500 21.85700 41.30100
C  -15.79300 19.60400 41.50000
N  -11.57700 15.96600 42.44800
C  -12.89000 16.27800 42.33500
C  -13.77600 14.99300 42.30200
C  -12.75100 13.89600 42.64400
C  -11.49600 14.62200 42.78800
C  -15.11200 15.02800 43.07900
C  -12.58600 12.80300 41.58500
C  -12.48700 11.36400 42.24900
N  -8.82500 15.75900 43.14400
C  -9.01400 14.38700 43.07600
C  -7.71700 13.72000 43.27900
C  -6.76400 14.70000 43.27900
C  -7.50900 15.92200 43.15400
C  -7.61400 12.29800 43.34500
C  -5.36900 14.96100 43.34100
O  -4.43300 14.20500 43.57400
C  -5.18600 16.51000 43.17000
C  -4.66300 17.04600 44.42400
O  -3.63100 17.71100 44.50000
O  -5.41900 16.67200 45.53900
C  -4.76400 17.25400 46.78200
H  -9.58300 21.72500 41.81700
H  -14.40500 17.53400 41.92100
H  -10.39700 12.81200 43.15500
H  -5.26100 19.59100 43.19300
H  -6.91500 21.39400 41.50100
H  -5.86000 21.71900 43.97800
H  -7.62200 21.53600 44.43500
H  -6.97400 22.70700 43.39200
H  -4.17700 19.14900 41.63800
H  -4.93600 20.39700 40.73100
H  -6.71600 18.37600 40.04300
H  -5.30500 17.42100 40.35100
H  -12.26200 22.90800 40.69300
H  -11.25500 23.18900 42.08600
H  -12.99400 23.10700 42.28200
H  -15.87100 19.00400 42.40700
H  -15.43200 18.95800 40.70000
H  -16.77300 20.03300 41.29300
H  -14.16600 14.91100 41.28800
H  -13.00700 13.44700 43.60300
H  -16.01400 14.84200 42.49700
H  -15.37500 15.96200 43.57600
H  -15.12300 14.30500 43.89400
H  -11.75900 13.05100 40.91900
H  -13.49700 12.80700 40.98600
H  -13.38400 10.78900 42.01900
H  -12.41800 11.43700 43.33400
H  -11.67600 10.79400 41.79300
H  -7.85900 11.73600 42.44400
H  -8.37400 11.95200 44.04600
H  -6.69700 11.91800 43.79500
H  -4.41200 16.85800 42.48600
H  -3.83900 16.70000 46.93800
H  -5.35700 17.02900 47.66800
H  -4.60200 18.33000 46.84600

