158

Mg 36.67700 49.82300 25.89100
C  35.92700 47.96700 28.82500
C  35.63700 52.67000 27.50600
C  36.41600 51.48400 22.92200
C  37.41200 47.00100 24.16100
N  36.02800 50.17500 28.00300
C  35.85900 49.34500 29.03200
C  35.59600 50.05900 30.36800
C  35.47900 51.49900 29.91000
C  35.74200 51.51600 28.34100
C  34.22000 52.25500 30.31100
C  36.83300 49.71900 31.32000
C  36.47100 49.29300 32.77700
H  35.07500 49.43600 33.23800
N  36.21700 51.83400 25.32200
C  35.85900 52.84400 26.19600
C  35.70800 54.06500 25.44600
C  35.87400 53.78900 24.05200
C  36.08400 52.33000 24.04700
C  35.48700 55.34200 26.13700
C  35.71100 54.60200 22.77900
O  35.81100 54.17200 21.62800
C  35.14400 56.02100 22.78400
N  36.98800 49.30100 23.82400
C  36.84200 50.15400 22.82100
C  37.16300 49.51700 21.47500
C  37.57500 48.12900 21.94500
C  37.34400 48.10600 23.39600
C  36.09000 49.54600 20.33100
C  39.05300 47.80100 21.59300
C  40.18600 48.22400 22.49000
N  36.73300 47.83700 26.31600
C  37.08300 46.80300 25.51300
C  36.91200 45.55500 26.28400
C  36.55500 45.95200 27.58800
C  36.36500 47.37100 27.58800
C  37.30800 44.22100 25.74600
C  36.23900 45.52400 28.89100
O  36.19800 44.38500 29.33900
C  35.75900 46.76300 29.69900
C  34.59200 46.43200 30.46000
O  33.43600 46.85200 30.27400
O  34.98300 45.60400 31.51900
C  33.89500 45.18700 32.35200
H  35.30800 53.58300 28.00700
H  36.32500 52.01800 21.97500
H  37.60600 46.06400 23.63400
H  34.70400 49.66600 30.85600
H  36.34000 52.02300 30.32300
H  34.39600 53.19000 30.84200
H  33.66600 51.61400 30.99700
H  33.54900 52.37900 29.46200
H  37.50500 50.57100 31.42500
H  37.36200 48.93200 30.78200
H  37.15200 49.85700 33.41600
H  36.68100 48.22800 32.87100
H  35.27700 56.11400 25.39700
H  36.37500 55.51000 26.74600
H  34.72100 55.28200 26.91000
H  35.15800 56.31900 21.73600
H  35.87300 56.59100 23.36100
H  34.15600 56.14600 23.22800
H  38.05200 49.96200 21.02800
H  37.10100 47.34400 21.35700
H  35.27500 50.19500 20.65200
H  35.63600 48.59900 20.03800
H  36.64200 49.93000 19.47300
H  39.19100 48.11600 20.55900
H  39.14600 46.71500 21.60300
H  40.94000 48.78600 21.94000
H  40.53600 47.37200 23.07300
H  39.83200 49.03800 23.12200
H  36.97200 44.10600 24.71500
H  36.80500 43.46500 26.34900
H  38.35700 44.18100 26.04100
H  36.55700 46.83700 30.43800
H  33.15400 44.57900 31.83400
H  33.37300 46.01500 32.82900
H  34.32100 44.54400 33.12200
Mg -6.23500 24.72100 26.06800
C  -4.49100 26.21800 28.72500
C  -7.41000 22.34700 28.42400
C  -7.68700 23.13800 23.51900
C  -4.54100 26.80600 23.87300
N  -5.92500 24.31800 28.28100
C  -5.32800 25.20500 29.18700
C  -5.69600 24.87700 30.66600
C  -6.19300 23.40800 30.45800
C  -6.56800 23.34700 28.96900
C  -5.23400 22.27400 30.80700
C  -6.80200 25.86700 31.22900
C  -6.34200 26.56600 32.53200
H  -5.61400 25.78300 33.65000
N  -7.35200 22.90600 25.94100
C  -7.69000 22.12100 26.99400
C  -8.42900 20.97900 26.39000
C  -8.56900 21.15900 24.97600
C  -7.91600 22.45600 24.74400
C  -8.95600 19.80900 27.29700
C  -9.29700 20.35600 23.84600
O  -9.36600 20.74000 22.69400
C  -10.21600 19.21600 24.29500
N  -6.17400 24.97900 24.00200
C  -6.99700 24.30800 23.15700
C  -6.92000 24.78600 21.69200
C  -5.81200 25.87600 21.87100
C  -5.53600 25.92500 23.34400
C  -6.69700 23.84000 20.49600
C  -6.09700 27.28900 21.27400
C  -4.97200 27.72900 20.25600
N  -4.73700 26.16500 26.15700
C  -4.10300 26.98300 25.20200
C  -3.17800 27.84000 25.81200
C  -3.21000 27.55500 27.17100
C  -4.17400 26.53200 27.34900
C  -2.34800 28.83900 25.03400
C  -2.74500 27.94000 28.41800
O  -1.81600 28.73600 28.79400
C  -3.58900 27.14700 29.50200
C  -2.52100 26.52300 30.37800
O  -1.74000 25.65000 30.07800
O  -2.60000 27.02800 31.66100
C  -1.68000 26.40000 32.68300
H  -7.64000 21.59600 29.18200
H  -8.12400 22.66400 22.63700
H  -4.16900 27.48000 23.09800
H  -4.83800 24.81800 31.33500
H  -7.05300 23.32200 31.12300
H  -5.87800 21.70800 31.48200
H  -4.43100 22.69700 31.41000
H  -4.96500 21.75800 29.88600
H  -7.75300 25.38100 31.44700
H  -6.87700 26.66200 30.48700
H  -7.22300 27.04900 32.95500
H  -5.74500 27.43700 32.26200
H  -8.82600 18.84300 26.81100
H  -10.01700 20.05900 27.29700
H  -8.57600 19.67600 28.31100
H  -9.47300 18.46800 24.57100
H  -10.70100 18.78600 23.41900
H  -10.98100 19.51200 25.01300
H  -7.87400 25.26800 21.47700
H  -4.95100 25.54800 21.28800
H  -6.31100 22.92200 20.93700
H  -5.98300 24.21000 19.76000
H  -7.64300 23.59400 20.01300
H  -6.16300 28.07800 22.02400
H  -7.03600 27.20700 20.72800
H  -4.83600 28.80400 20.37100
H  -5.48600 27.61400 19.30200
H  -4.03200 27.17700 20.29400
H  -2.29500 29.75000 25.63000
H  -2.78100 29.06300 24.05900
H  -1.36100 28.44700 24.79000
H  -4.20500 27.84800 30.06600
H  -1.87100 25.32800 32.72300
H  -1.84400 26.95200 33.60900
H  -0.65500 26.48700 32.32200

