158

Mg 35.58700 1.56800 30.15500
C  33.19100 2.68300 32.58500
C  37.98000 1.76600 32.52100
C  37.88800 1.03800 27.75800
C  33.08300 2.06600 27.73000
N  35.46600 2.05200 32.29200
C  34.42800 2.44900 33.11200
C  34.91100 2.48400 34.54100
C  36.47300 2.42600 34.45800
C  36.65500 2.11600 32.94700
C  37.15800 3.82800 34.75000
C  34.24000 1.39200 35.40300
C  34.08700 1.71100 36.96800
H  34.99100 2.76400 37.65900
N  37.62300 1.25100 30.22600
C  38.46400 1.40500 31.24800
C  39.80400 1.13800 30.87000
C  39.74500 0.83900 29.48800
C  38.34300 0.99900 29.09500
C  40.88400 1.03600 31.91600
C  40.87500 0.44300 28.53800
O  40.71700 0.24000 27.33900
C  42.28100 0.21400 29.05900
N  35.53000 1.50200 28.15300
C  36.58800 1.33300 27.29200
C  36.23800 1.36400 25.81700
C  34.69100 1.24800 25.90600
C  34.38700 1.65300 27.36900
C  36.67900 2.67100 25.10700
C  34.02000 -0.03200 25.50900
C  33.68700 -0.12200 23.99700
N  33.55300 2.23100 30.10600
C  32.72400 2.39100 29.04300
C  31.42800 2.88100 29.50700
C  31.51600 2.92300 30.94500
C  32.82400 2.56200 31.23400
C  30.22300 3.06700 28.66700
C  30.84400 3.22000 32.14500
O  29.66200 3.52700 32.23900
C  31.93700 3.11000 33.31200
C  31.90100 4.46100 33.98100
O  32.13400 5.52300 33.46800
O  31.50000 4.31600 35.31500
C  31.31900 5.61800 36.01000
H  38.74300 1.65500 33.29400
H  38.65200 0.90500 26.98900
H  32.33300 2.16900 26.94200
H  34.71200 3.50300 34.87000
H  36.95700 1.60100 34.98200
H  36.50800 4.40600 35.40700
H  37.41300 4.31500 33.80800
H  38.06200 3.52800 35.27900
H  34.75900 0.43500 35.35100
H  33.21100 1.23600 35.07800
H  34.04600 0.73200 37.44500
H  33.06500 2.09000 36.98900
H  41.67800 0.38900 31.54300
H  40.47500 0.59000 32.82300
H  41.23700 2.01000 32.25300
H  42.51500 0.97600 29.80200
H  42.88800 0.32100 28.16000
H  42.32500 -0.82700 29.38000
H  36.84700 0.54100 25.44100
H  34.27200 1.96100 25.19600
H  37.05600 3.36700 25.85600
H  35.84000 3.21400 24.67300
H  37.46700 2.57300 24.36000
H  33.10300 -0.35900 26.00000
H  34.75000 -0.80400 25.75300
H  32.63400 -0.38100 23.88400
H  34.22200 -0.89800 23.44900
H  33.84300 0.77300 23.39500
H  29.35700 2.56400 29.09700
H  30.27200 2.60100 27.68300
H  30.00500 4.12800 28.54700
H  31.68200 2.35200 34.05200
H  30.81100 6.36200 35.39700
H  32.25800 6.03000 36.38100
H  30.63600 5.48400 36.84800
Mg 0.38600 43.41400 26.21800
C  2.59700 43.22500 29.07700
C  -2.18800 42.66100 28.35700
C  -1.56700 42.88400 23.65400
C  3.24700 43.63500 24.17400
N  0.24100 43.12200 28.48100
C  1.23000 43.18100 29.39800
C  0.73000 43.19800 30.77300
C  -0.78200 42.73500 30.58500
C  -0.97300 42.85500 29.04000
C  -1.22800 41.38100 31.27400
C  0.94300 44.53400 31.52200
C  1.55100 44.47800 32.90600
H  1.09200 43.30600 33.75600
N  -1.54600 42.76200 26.01100
C  -2.43700 42.62100 27.00000
C  -3.77600 42.37100 26.48300
C  -3.64300 42.40600 25.06300
C  -2.25000 42.70700 24.82900
C  -5.02600 42.34300 27.40400
C  -4.65400 42.24000 23.92500
O  -4.49300 42.44300 22.75300
C  -6.01800 42.07000 24.34600
N  0.87400 43.20500 24.23900
C  -0.18200 43.16000 23.31000
C  0.29600 43.22900 21.81400
C  1.75300 43.66200 22.07700
C  1.99200 43.43400 23.53900
C  0.14800 41.91200 21.04800
C  1.91000 45.19400 21.63600
C  1.72000 46.22700 22.71100
N  2.46300 43.60600 26.53500
C  3.48800 43.68700 25.58800
C  4.76900 43.64000 26.29100
C  4.46700 43.38500 27.61500
C  3.04400 43.44000 27.73100
C  6.12000 43.76600 25.66100
C  5.04000 43.10600 28.88100
O  6.21200 42.94200 29.24000
C  3.84600 43.08100 29.95700
C  4.03200 41.86300 30.70300
O  3.93100 40.70400 30.30400
O  4.41400 42.16700 31.98700
C  4.61200 40.93800 32.80200
H  -3.08100 42.45900 28.95100
H  -2.13700 42.85600 22.72300
H  4.10700 43.66900 23.50200
H  1.39400 42.56800 31.36500
H  -1.37100 43.54900 31.00800
H  -1.88000 41.69000 32.09100
H  -0.42900 40.86500 31.80600
H  -1.70600 40.70200 30.56800
H  -0.02500 45.03600 31.52900
H  1.64600 45.09000 30.90200
H  1.33200 45.34700 33.52600
H  2.61600 44.70100 32.84900
H  -5.85600 42.85800 26.91900
H  -4.89300 42.80500 28.38200
H  -5.15000 41.28700 27.64500
H  -6.74500 41.76100 23.59500
H  -6.36800 43.02700 24.73400
H  -6.08600 41.38700 25.19300
H  -0.24400 44.05400 21.34800
H  2.61900 43.15900 21.64700
H  -0.26400 41.10700 21.65700
H  1.12900 41.61500 20.67700
H  -0.47300 42.16800 20.19000
H  1.30900 45.51500 20.78500
H  2.94900 45.43800 21.41200
H  2.73300 46.40700 23.07000
H  1.06400 45.84000 23.49100
H  1.34100 47.15900 22.29400
H  6.05100 43.54800 24.59500
H  6.63500 43.00400 26.24500
H  6.58600 44.74200 25.79100
H  4.02600 44.00900 30.50000
H  3.68300 40.55200 33.22300
H  5.19200 41.26800 33.66400
H  5.18400 40.18300 32.26300

