158

Mg 40.78800 8.20000 29.80700
C  42.38400 9.82200 32.39800
C  38.53000 6.85200 32.04200
C  39.31500 6.64700 27.16000
C  43.44500 9.15300 27.64400
N  40.55300 8.29700 32.00500
C  41.17200 9.17500 32.80800
C  40.67900 9.05600 34.31900
C  39.43300 8.10900 34.19700
C  39.48100 7.71200 32.65500
C  39.41400 6.81000 35.11000
C  40.42500 10.41500 35.00500
C  39.72200 10.32400 36.33100
H  40.49600 10.32200 37.67400
N  39.16700 6.91200 29.60800
C  38.36800 6.54900 30.64700
C  37.22700 5.83500 30.08200
C  37.43800 5.74100 28.71100
C  38.71400 6.46200 28.40100
C  36.09600 5.31100 31.06100
C  36.47600 5.22200 27.63900
O  36.76900 5.08100 26.46800
C  35.18600 4.77200 28.09800
N  41.35000 7.78500 27.78300
C  40.51200 7.26500 26.86000
C  41.08500 7.35400 25.44300
C  42.15400 8.46000 25.63000
C  42.33500 8.44600 27.13200
C  41.69900 6.02700 24.92000
C  41.84200 9.95000 25.18500
C  40.42500 10.38500 25.52700
N  42.62600 9.25400 29.93300
C  43.65600 9.49900 28.98600
C  44.73700 10.27900 29.70000
C  44.30600 10.42700 31.02900
C  43.03400 9.77900 31.08400
C  45.96500 10.77500 28.98700
C  44.56900 11.07900 32.26000
O  45.44700 11.82500 32.60500
C  43.37800 10.74900 33.19000
C  43.94000 10.13200 34.45100
O  44.35400 8.96500 34.52700
O  43.98400 11.12300 35.41800
C  44.63600 10.76600 36.71600
H  37.83200 6.40700 32.75500
H  38.87800 6.16200 26.28500
H  44.12800 9.51200 26.87100
H  41.55700 8.59300 34.77000
H  38.46200 8.60200 34.23600
H  38.52600 6.65000 35.72200
H  40.19100 6.95900 35.86000
H  39.57000 5.93100 34.48500
H  39.85300 11.05100 34.32900
H  41.41300 10.83600 35.19300
H  39.16000 9.39000 36.29700
H  38.94600 11.08600 36.25800
H  35.10100 5.42500 30.63000
H  36.14000 5.79800 32.03500
H  36.31300 4.25800 31.24000
H  34.61600 5.61400 28.48900
H  35.43000 4.02800 28.85600
H  34.66800 4.25600 27.28900
H  40.17200 7.62600 24.91400
H  43.02600 8.14000 25.05900
H  41.30400 5.11800 25.37400
H  42.74600 5.98200 25.21800
H  41.48800 5.92900 23.85500
H  41.89600 10.07400 24.10300
H  42.59000 10.63700 25.58000
H  40.48900 11.43900 25.79800
H  39.84600 9.83200 26.26600
H  39.98000 10.30100 24.53600
H  45.68100 10.73300 27.93600
H  46.67500 9.95200 29.07300
H  46.38200 11.71500 29.34900
H  43.08100 11.76300 33.45700
H  45.27100 9.88000 36.69600
H  43.83800 10.42300 37.37600
H  45.11100 11.67200 37.09200
Mg -10.31700 16.81000 43.16000
C  -6.83400 17.67300 43.14200
C  -10.93700 20.06000 42.48800
C  -13.57000 16.00900 42.90400
C  -9.43300 13.45800 43.07100
N  -8.99400 18.62400 42.92800
C  -7.64300 18.81100 42.95100
C  -7.17500 20.27800 42.63800
C  -8.53000 21.03200 42.61600
C  -9.57900 19.85900 42.68900
C  -8.76000 22.04500 43.78400
C  -6.31400 20.37800 41.39300
C  -4.97900 21.08900 41.48300
H  -3.79500 20.24100 41.03600
N  -12.02200 17.92600 42.77400
C  -12.11300 19.24600 42.53500
C  -13.50900 19.68400 42.50000
C  -14.32100 18.51000 42.49000
C  -13.32500 17.42700 42.73600
C  -14.01900 21.06200 42.29400
C  -15.81900 18.43900 42.18500
O  -16.50900 19.45600 42.04800
C  -16.49200 17.05500 42.11000
N  -11.32800 14.98500 42.75200
C  -12.63500 14.92000 42.96400
C  -13.13000 13.51700 43.29800
C  -11.86400 12.66500 42.96500
C  -10.79500 13.74100 42.92400
C  -13.76500 13.39400 44.72300
C  -11.95200 11.81000 41.71300
C  -12.20500 10.33700 41.95300
N  -8.54100 15.73200 43.17600
C  -8.39500 14.36900 43.22600
C  -7.01100 14.08300 43.38500
C  -6.36300 15.36600 43.33000
C  -7.34700 16.30000 43.24900
C  -6.40400 12.70800 43.47200
C  -5.09400 16.04500 43.45400
O  -3.93500 15.65900 43.69700
C  -5.38300 17.56200 43.20000
C  -4.87600 18.42400 44.35800
O  -5.48800 18.70600 45.44700
O  -3.66100 18.85800 44.01000
C  -2.96900 19.81200 44.84700
H  -11.18100 21.12400 42.46600
H  -14.56600 15.57600 43.01800
H  -9.27000 12.38400 43.18700
H  -6.59300 20.57900 43.50800
H  -8.76600 21.43500 41.63100
H  -7.75000 22.40500 43.97700
H  -9.26200 21.63100 44.65800
H  -9.36100 22.82800 43.32200
H  -6.93600 20.96100 40.71400
H  -6.33800 19.38000 40.95500
H  -4.90600 21.33700 42.54200
H  -4.88700 22.01500 40.91600
H  -14.71500 21.01800 41.45700
H  -13.29600 21.79200 41.93000
H  -14.39700 21.40500 43.25700
H  -17.49400 17.25400 41.73100
H  -16.56900 16.61500 43.10500
H  -15.87500 16.38300 41.51400
H  -13.93500 13.23300 42.62000
H  -11.69800 12.02800 43.83400
H  -14.85300 13.46300 44.72000
H  -13.37400 14.21100 45.32900
H  -13.63400 12.42600 45.20800
H  -11.01600 11.97600 41.18000
H  -12.88100 12.11600 41.23300
H  -11.97200 9.83100 42.89000
H  -11.81400 9.76700 41.11000
H  -13.29400 10.30800 41.91900
H  -5.53200 12.89700 44.09800
H  -6.09200 12.31300 42.50500
H  -7.06900 12.01000 43.98000
H  -5.00300 17.97400 42.26600
H  -3.52300 20.16800 45.71600
H  -2.74600 20.57700 44.10300
H  -2.03500 19.41400 45.24300

