158

Mg 24.66100 -3.95800 45.58200
C  26.84800 -1.89700 44.07300
C  22.17500 -2.96000 43.68800
C  22.96600 -6.96800 46.19700
C  27.40100 -5.51000 47.26000
N  24.47000 -2.45500 44.22100
C  25.47800 -1.74500 43.59100
C  24.97000 -0.89900 42.42100
C  23.41900 -0.95700 42.61100
C  23.36600 -2.21200 43.54200
C  22.62100 0.15500 43.26700
C  25.51000 -1.13500 40.97000
C  24.83400 -0.33400 39.84600
H  25.19200 -0.71600 38.40000
N  22.78700 -4.78400 45.15300
C  21.87400 -4.17400 44.36000
C  20.65500 -4.86300 44.44900
C  20.80900 -6.02300 45.22500
C  22.23800 -5.92500 45.59800
C  19.41100 -4.43900 43.66100
C  19.79600 -7.08100 45.69600
O  18.62900 -7.06000 45.19400
C  20.14600 -8.03300 46.80100
N  25.27000 -6.20800 46.32400
C  24.34900 -7.17100 46.55400
C  24.87100 -8.30700 47.38700
C  26.40200 -7.79500 47.70400
C  26.42200 -6.47600 47.02900
C  23.95200 -8.67500 48.62700
C  27.45600 -8.79900 47.14200
C  27.85200 -9.99600 48.04900
N  26.67200 -3.63400 45.86900
C  27.66100 -4.36700 46.51300
C  28.95000 -3.71300 46.37800
C  28.71400 -2.74700 45.37900
C  27.27500 -2.73900 45.15200
C  30.27500 -4.07800 47.03300
C  29.29500 -1.81400 44.47100
O  30.50100 -1.60400 44.35900
C  28.06200 -1.09900 43.61200
C  28.05300 0.32700 43.94500
O  27.68100 0.79500 45.03600
O  28.65600 1.03800 42.93300
C  29.13700 2.33700 43.39100
H  21.33300 -2.58900 43.10100
H  22.37300 -7.82000 46.53500
H  28.28900 -5.89400 47.76600
H  25.41100 0.07400 42.63900
H  22.84400 -1.23100 41.72700
H  23.07300 1.03300 43.72800
H  22.07500 -0.28400 44.10200
H  21.96100 0.59600 42.52100
H  25.38600 -2.21600 40.90800
H  26.57700 -0.91800 40.91800
H  25.10400 0.70600 40.02700
H  23.74400 -0.35200 39.87700
H  19.42100 -5.03300 42.74800
H  19.64700 -3.43300 43.31400
H  18.47600 -4.55100 44.21200
H  19.15300 -8.38500 47.07900
H  20.54300 -7.52600 47.68100
H  20.64800 -8.93300 46.44500
H  24.92100 -9.14600 46.69200
H  26.49900 -7.76600 48.78900
H  23.50100 -9.64100 48.40000
H  23.07800 -8.03800 48.76500
H  24.63000 -8.71700 49.47900
H  28.31600 -8.14000 47.02500
H  27.19000 -9.16500 46.15000
H  27.77600 -10.93000 47.49200
H  27.17200 -10.01900 48.90100
H  28.84000 -9.87300 48.49100
H  30.07500 -4.14300 48.10300
H  30.91100 -3.20900 46.86600
H  30.68900 -5.04800 46.75800
H  28.18700 -1.11900 42.52900
H  28.66800 3.02500 42.68800
H  30.19700 2.21900 43.16500
H  28.95000 2.65400 44.41700
Mg 49.04100 46.08300 42.82700
C  45.77400 46.30100 41.34100
C  49.44900 43.18500 40.99700
C  52.31000 46.33800 43.26400
C  48.67100 49.52100 43.79300
N  47.71400 45.01600 41.21500
C  46.41100 45.24400 40.85100
C  45.86800 44.23000 39.87900
C  46.97600 43.13400 40.00700
C  48.08800 43.74500 40.80900
C  46.43600 41.73800 40.50300
C  45.65300 44.74400 38.39300
C  44.26500 44.87900 37.80500
H  44.04200 44.45600 36.31100
N  50.56600 44.81100 42.49800
C  50.54700 43.69600 41.67500
C  51.85800 43.05300 41.69700
C  52.69000 43.84400 42.57300
C  51.86200 45.03200 42.83000
C  52.19500 41.82900 40.92400
C  54.06900 43.49300 43.06600
O  54.60800 42.44900 42.69900
C  54.77600 44.36500 44.13500
N  50.34500 47.63700 43.55500
C  51.71900 47.51500 43.61100
C  52.40800 48.74000 44.13600
C  51.17400 49.67300 44.41300
C  49.97700 48.99200 43.78400
C  53.44500 48.65400 45.32600
C  51.36400 51.16400 43.99100
C  51.01400 52.25100 44.98700
N  47.52600 47.51400 42.81600
C  47.55200 48.82400 43.28200
C  46.23700 49.43000 43.06400
C  45.49500 48.37800 42.48400
C  46.29000 47.29800 42.21400
C  45.94100 50.85500 43.33800
C  44.08100 48.05500 41.91600
O  43.04900 48.69100 41.97600
C  44.24200 46.69900 41.17600
C  43.33100 45.75100 41.81700
O  43.56000 45.16000 42.86300
O  42.19200 45.69200 41.03300
C  40.96000 45.27200 41.65200
H  49.50400 42.15800 40.63100
H  53.39700 46.42400 43.32500
H  48.51400 50.58000 44.00800
H  44.90900 43.89200 40.27000
H  47.34700 42.96700 38.99600
H  45.35000 41.68200 40.43200
H  46.70300 41.55600 41.54400
H  46.94800 40.98900 39.89900
H  46.22900 44.09500 37.73400
H  46.15600 45.70900 38.33500
H  43.91400 45.90700 37.89500
H  43.52800 44.34800 38.40800
H  52.66700 41.14400 41.62900
H  53.01400 41.93200 40.21200
H  51.31400 41.45200 40.40500
H  55.49300 45.07000 43.71300
H  55.26000 43.60000 44.74200
H  53.98800 44.81100 44.74100
H  52.95700 49.11700 43.27300
H  51.07000 49.61900 45.49600
H  54.40800 48.80700 44.83900
H  53.45400 47.61900 45.66900
H  53.26900 49.31000 46.17800
H  50.75800 51.49500 43.14700
H  52.40700 51.27700 43.69400
H  51.95400 52.59500 45.41800
H  50.42800 51.92900 45.84800
H  50.43000 53.12200 44.69000
H  46.60500 51.61300 42.92400
H  46.21300 51.06800 44.37200
H  44.91200 51.12500 43.10000
H  43.91000 46.79800 40.14200
H  40.30500 46.12600 41.82200
H  41.08000 44.91200 42.67400
H  40.31500 44.50900 41.21600

