158

Mg 43.31900 3.56200 47.32100
C  41.44400 6.57400 47.26300
C  40.44100 1.81000 47.27000
C  45.25200 0.94500 46.57800
C  46.26200 5.69000 46.88700
N  41.16700 4.19300 47.17200
C  40.63300 5.42600 47.25500
C  39.11000 5.26900 47.38600
C  38.87500 3.73700 47.60200
C  40.23900 3.20600 47.30500
C  38.29400 3.31700 48.98200
C  38.23500 5.97200 46.27600
C  38.93400 5.93200 44.90700
H  37.99300 6.38500 43.72800
N  42.90200 1.67500 46.92700
C  41.66800 1.07900 47.05400
C  41.82300 -0.36100 46.94700
C  43.18400 -0.65400 46.56700
C  43.84800 0.69200 46.67600
C  40.61000 -1.27700 47.09000
C  43.83100 -2.00200 46.24200
O  43.11700 -3.01500 46.28700
C  45.32700 -2.18900 45.85500
N  45.47700 3.43900 46.53200
C  45.99100 2.10100 46.65300
C  47.55000 2.20200 46.62500
C  47.85100 3.66900 46.49300
C  46.46800 4.32600 46.64400
C  48.17400 1.60900 47.95000
C  48.64600 3.98100 45.24000
C  49.92400 4.73300 45.40200
N  43.81600 5.62000 47.23900
C  45.03000 6.30800 47.12900
C  44.79300 7.76000 47.36600
C  43.38000 7.89200 47.32600
C  42.83900 6.59800 47.21200
C  45.79100 8.89100 47.51900
C  42.31900 8.86400 47.37900
O  42.31500 10.03000 47.66700
C  41.01000 8.03800 47.29400
C  40.13500 8.34400 48.51300
O  40.27300 7.95000 49.65000
O  39.21100 9.23800 48.04100
C  38.14100 9.43300 49.05600
H  39.47100 1.33800 47.43700
H  45.90500 0.07500 46.68500
H  47.13300 6.34400 46.81500
H  38.76000 5.80600 48.26800
H  38.20500 3.33800 46.84100
H  39.05800 2.99100 49.68900
H  37.52200 2.58600 48.74400
H  37.82900 4.23700 49.33700
H  38.23400 7.04200 46.48400
H  37.25500 5.51000 46.16100
H  39.20200 4.90800 44.64800
H  39.73000 6.67200 44.98600
H  40.28900 -1.63300 46.11100
H  39.75000 -0.77500 47.53400
H  40.72800 -2.14200 47.74200
H  45.90700 -2.09900 46.77400
H  45.61300 -1.52000 45.04400
H  45.46400 -3.19500 45.45800
H  47.89200 1.62800 45.76400
H  48.48400 4.00000 47.31600
H  48.53000 0.59200 47.78700
H  47.49700 1.73300 48.79600
H  49.03100 2.19800 48.27800
H  47.93300 4.56500 44.65800
H  48.99300 3.10800 44.68700
H  50.74300 4.17700 44.94700
H  50.21700 4.89500 46.43900
H  50.10900 5.67300 44.88200
H  45.27100 9.80100 47.81900
H  46.20300 8.92500 46.51100
H  46.55700 8.64900 48.25500
H  40.42500 8.34200 46.42600
H  38.44000 9.75000 50.05500
H  37.52300 8.54900 49.21300
H  37.38000 10.11000 48.66900
Mg -2.63100 34.97600 26.25800
C  -4.31900 33.03600 28.74400
C  -1.08800 36.72600 28.60700
C  -1.45300 36.81600 23.79600
C  -4.65300 33.19900 23.85500
N  -2.91100 34.99300 28.44100
C  -3.42200 34.04900 29.23200
C  -3.00700 34.30100 30.76700
C  -2.08100 35.48700 30.60800
C  -1.97300 35.73300 29.09400
C  -2.71700 36.81400 31.36300
C  -2.24200 33.07300 31.37900
C  -2.88000 32.52100 32.66000
H  -2.02100 32.42100 33.91700
N  -1.44500 36.65100 26.15600
C  -0.88200 37.17800 27.26400
C  -0.01800 38.28900 26.82600
C  0.07400 38.19200 25.38000
C  -0.97600 37.21400 25.04600
C  0.66000 39.22200 27.78800
C  0.98500 38.94100 24.39100
O  0.86200 38.66700 23.18000
C  2.13900 39.75500 24.83600
N  -3.18800 35.08600 24.10600
C  -2.41000 35.87600 23.35300
C  -2.81000 35.85200 21.85600
C  -3.54000 34.45000 21.81700
C  -3.85200 34.23300 23.32800
C  -3.73000 37.00900 21.36200
C  -2.70500 33.31600 21.12300
C  -1.53200 32.66200 22.00300
N  -4.17300 33.45300 26.21900
C  -4.82000 32.80200 25.19400
C  -5.63900 31.71600 25.64600
C  -5.46200 31.75200 27.06600
C  -4.53000 32.81600 27.35800
C  -6.37300 30.80000 24.79100
C  -5.73700 31.10800 28.30300
O  -6.46200 30.16900 28.56000
C  -5.02600 31.86800 29.45100
C  -6.04200 32.37600 30.39000
O  -6.89000 33.27200 30.27100
O  -5.85600 31.76900 31.61100
C  -6.71800 32.30800 32.69200
H  -0.44900 37.28100 29.29800
H  -0.96100 37.28700 22.94200
H  -5.16300 32.62100 23.08200
H  -3.89900 34.48500 31.36600
H  -1.08600 35.39100 31.04200
H  -2.88700 37.59100 30.61700
H  -1.98600 37.24200 32.05000
H  -3.67000 36.58000 31.83600
H  -1.20900 33.28400 31.65300
H  -2.15200 32.35000 30.56700
H  -3.22300 31.52000 32.39700
H  -3.85600 32.99300 32.77700
H  0.93100 40.18600 27.35700
H  1.59600 38.73300 28.05500
H  0.07700 39.30200 28.70500
H  1.95200 40.81800 24.99300
H  2.89300 39.83500 24.05200
H  2.64300 39.41300 25.74000
H  -1.89100 35.73500 21.28300
H  -4.45100 34.49800 21.22000
H  -4.77300 36.70100 21.42700
H  -3.46700 37.48700 20.41800
H  -3.56500 37.74100 22.15300
H  -2.24300 33.82600 20.27900
H  -3.29600 32.59400 20.56000
H  -1.70000 31.68300 22.45100
H  -1.34600 33.38600 22.79700
H  -0.57900 32.54400 21.48600
H  -6.07400 30.92100 23.75000
H  -7.40300 31.15200 24.84600
H  -6.45200 29.75100 25.07800
H  -4.38800 31.27400 30.10400
H  -6.16900 33.13800 33.13600
H  -6.91500 31.49100 33.38600
H  -7.70600 32.63800 32.37200

