158

Mg 7.82500 2.04200 28.08100
C  9.24000 0.79500 31.17100
C  5.75500 3.97300 30.01000
C  6.25100 2.78800 25.35000
C  9.47700 -0.52400 26.47200
N  7.53400 2.28100 30.30900
C  8.31000 1.81600 31.36400
C  8.00800 2.57200 32.73500
C  6.73000 3.36600 32.30500
C  6.63800 3.27100 30.77000
C  5.41300 2.71000 32.89100
C  9.24800 3.47800 33.14000
C  9.54500 3.60300 34.68100
H  8.58200 3.06500 35.76000
N  6.21900 3.23400 27.68200
C  5.51800 4.03000 28.57800
C  4.69200 5.02900 27.83800
C  4.80800 4.68600 26.46700
C  5.72100 3.49900 26.46300
C  3.91900 6.18600 28.60100
C  4.39900 5.40600 25.16300
O  4.65200 5.07200 23.97500
C  3.30800 6.49900 25.34500
N  7.73200 1.12400 26.18000
C  7.12600 1.67700 25.19500
C  7.25600 0.98900 23.81300
C  8.26500 -0.11800 24.31200
C  8.53100 0.16200 25.74800
C  5.92500 0.50300 23.32200
C  9.54200 -0.29000 23.33700
C  10.60100 0.80300 23.45000
N  9.09500 0.37200 28.66600
C  9.75300 -0.49200 27.86600
C  10.75600 -1.21600 28.63300
C  10.50700 -0.81200 29.94800
C  9.44100 0.12300 29.97600
C  11.74200 -2.14000 28.17400
C  11.03100 -0.98800 31.33500
O  11.85200 -1.84500 31.76600
C  10.22900 0.07700 32.17400
C  9.53100 -0.66600 33.29700
O  8.59800 -1.46600 33.15700
O  10.00700 -0.28500 34.55700
C  9.30600 -1.04400 35.65100
H  5.20700 4.66600 30.65300
H  5.72400 3.05700 24.43200
H  10.08300 -1.31100 26.01800
H  7.88800 1.84200 33.53600
H  6.94700 4.39200 32.60100
H  4.79700 3.43400 33.42400
H  5.70000 1.94700 33.61400
H  4.73600 2.17800 32.22200
H  9.08700 4.48400 32.75300
H  10.03400 3.05700 32.51300
H  9.65200 4.67000 34.87700
H  10.56100 3.20800 34.67600
H  2.85600 5.95600 28.66800
H  4.01000 7.09500 28.00500
H  4.40100 6.42000 29.55000
H  2.66700 6.67800 24.48200
H  3.89900 7.36600 25.63800
H  2.75100 6.41800 26.27900
H  7.73000 1.63400 23.07400
H  7.81800 -1.10900 24.22500
H  5.08000 0.48800 24.01000
H  5.87100 -0.51200 22.92700
H  5.66700 1.19800 22.52300
H  9.22500 -0.43800 22.30500
H  9.88100 -1.26000 23.70200
H  10.35000 1.54600 24.20800
H  10.93000 1.34000 22.56000
H  11.49600 0.43300 23.95000
H  12.57000 -2.09200 28.88100
H  11.94800 -1.87400 27.13700
H  11.33800 -3.15200 28.13900
H  10.86700 0.72800 32.77200
H  9.96400 -1.85900 35.95400
H  8.25200 -1.32100 35.61100
H  9.12500 -0.37800 36.49400
Mg 27.35100 51.29300 26.15200
C  25.52200 52.43400 28.94600
C  29.79300 50.28200 28.37000
C  29.30700 50.68900 23.53200
C  25.02300 52.83900 24.04700
N  27.60900 51.33500 28.43600
C  26.75800 51.83900 29.34100
C  27.23400 51.51600 30.73800
C  28.71800 51.18200 30.51900
C  28.75800 50.91600 29.03900
C  29.76800 52.12000 31.09700
C  26.43000 50.31300 31.41900
C  25.66000 50.76400 32.70000
H  25.55900 49.67000 33.71200
N  29.23700 50.41300 25.99200
C  29.99900 50.06200 26.98000
C  31.20100 49.39600 26.44900
C  31.04600 49.47900 25.04400
C  29.82500 50.26800 24.79300
C  32.44100 48.87000 27.26100
C  31.78200 48.86300 23.86100
O  31.40600 48.79800 22.68200
C  33.17000 48.26600 24.11800
N  27.28500 51.84200 24.02700
C  28.19000 51.40000 23.14400
C  27.71800 51.67700 21.71800
C  26.21900 52.19100 21.96500
C  26.17700 52.33200 23.43000
C  28.59600 52.69600 20.91000
C  25.12900 51.17100 21.46300
C  23.95600 51.68300 20.74300
N  25.58800 52.33800 26.36900
C  24.75600 52.96500 25.39800
C  23.63100 53.48900 26.08400
C  23.95000 53.35700 27.42800
C  25.13400 52.58200 27.55500
C  22.46800 54.19400 25.47900
C  23.46200 53.71300 28.74400
O  22.44600 54.30000 29.11300
C  24.38800 52.99200 29.77500
C  24.87000 54.03900 30.74900
O  25.44100 55.09900 30.42000
O  24.52500 53.57600 31.99500
C  24.89100 54.47000 33.09300
H  30.72500 49.97700 28.85200
H  29.91800 50.41000 22.67100
H  24.16500 53.08300 23.41600
H  27.07400 52.45500 31.26800
H  28.96900 50.20900 30.94200
H  30.40700 51.55400 31.77500
H  29.49400 53.03200 31.62900
H  30.45400 52.35400 30.28300
H  27.04100 49.43600 31.63100
H  25.62400 50.05800 30.73100
H  24.65700 51.14900 32.51700
H  26.17800 51.63400 33.10500
H  33.36200 48.94200 26.68300
H  32.31700 47.84600 27.61500
H  32.59800 49.41400 28.19200
H  33.10000 47.44600 24.83300
H  33.75000 49.02000 24.65100
H  33.77400 47.90700 23.28600
H  27.76800 50.76200 21.12900
H  26.10300 53.20200 21.57500
H  29.63900 52.77200 21.21700
H  28.19400 53.70100 20.78500
H  28.60000 52.29800 19.89600
H  24.89400 50.58200 22.35000
H  25.60600 50.53300 20.71900
H  23.00700 51.29200 21.11100
H  24.06900 51.30400 19.72700
H  24.05200 52.76800 20.70400
H  22.75700 54.59900 24.50900
H  22.22300 55.11200 26.01400
H  21.55200 53.62500 25.32100
H  23.80400 52.24600 30.31400
H  25.70100 53.97100 33.62400
H  24.08400 54.58400 33.81700
H  25.00400 55.49500 32.74000

