158

Mg 8.72700 48.40700 28.02000
C  7.17600 47.58000 30.97900
C  11.61200 48.84700 29.64400
C  10.17900 49.44600 25.17500
C  5.58900 48.60900 26.46800
N  9.25600 48.28500 30.10700
C  8.44000 47.96700 31.19600
C  9.21100 48.30900 32.50000
C  10.43100 49.13700 31.90700
C  10.46600 48.76000 30.42000
C  10.37900 50.67100 32.09800
C  9.51000 47.08100 33.44000
C  9.07500 47.27900 34.91400
H  9.50800 46.29000 35.99800
N  10.67400 48.70000 27.39600
C  11.74300 48.82500 28.23900
C  12.94500 48.79100 27.40200
C  12.56500 48.92000 26.06600
C  11.06100 48.97600 26.14400
C  14.27600 48.68700 28.08300
C  13.36800 49.02000 24.79200
O  12.80300 49.03500 23.74900
C  14.91300 48.97400 24.90900
N  7.99200 48.92000 26.13200
C  8.81200 49.50700 25.15700
C  8.05700 50.08900 24.00400
C  6.60900 49.58500 24.28200
C  6.68900 48.96000 25.72200
C  8.09200 51.66200 24.08600
C  6.13800 48.55300 23.19800
C  5.00200 49.07500 22.29300
N  6.74300 48.18100 28.56300
C  5.60100 48.15200 27.78600
C  4.53000 47.78600 28.64100
C  5.10900 47.48700 29.91100
C  6.45000 47.75200 29.79200
C  3.00200 47.66300 28.27400
C  4.78400 47.10300 31.28600
O  3.64800 46.83800 31.71400
C  6.15100 47.06000 31.97800
C  6.30600 45.74700 32.52600
O  6.93200 44.84100 31.94300
O  5.92100 45.75500 33.84000
C  6.43500 44.59800 34.63300
H  12.46300 49.06400 30.29200
H  10.64500 49.96300 24.33300
H  4.62600 48.59800 25.95200
H  8.56300 48.96200 33.08400
H  11.28300 48.81500 32.50600
H  9.56900 50.95400 32.77000
H  10.18600 51.24200 31.18900
H  11.32800 51.02400 32.50300
H  10.54700 46.76100 33.34200
H  8.88700 46.28300 33.03600
H  7.98600 47.25500 34.96400
H  9.27000 48.28500 35.28500
H  14.17500 48.41400 29.13400
H  14.75100 49.66700 28.11900
H  14.83000 47.85100 27.65800
H  15.23400 49.88000 25.42400
H  15.31100 48.83100 23.90500
H  15.33000 48.12800 25.45500
H  8.53700 49.82700 23.06200
H  5.91700 50.41600 24.41900
H  7.20900 52.18600 23.72100
H  8.87500 52.08200 23.45500
H  8.29800 51.88600 25.13300
H  6.00200 47.57100 23.65300
H  6.95300 48.33200 22.50800
H  5.07800 49.11000 21.20600
H  4.69900 50.07400 22.60800
H  4.17200 48.36900 22.30500
H  2.33700 47.64800 29.13800
H  2.89800 46.67900 27.81600
H  2.74900 48.39000 27.50200
H  6.02800 47.81100 32.75800
H  7.25300 44.85100 35.30700
H  6.64500 43.65600 34.12700
H  5.56100 44.40500 35.25600
Mg -4.33300 25.05500 25.64200
C  -2.78100 26.53300 28.41900
C  -5.62300 22.69900 27.93400
C  -5.44100 23.25900 22.99200
C  -2.67200 27.26900 23.62600
N  -4.28000 24.70400 27.94900
C  -3.57300 25.48200 28.79700
C  -4.13000 25.13700 30.22500
C  -4.73500 23.73200 30.08700
C  -4.98600 23.74500 28.58000
C  -3.89600 22.53200 30.56800
C  -5.15900 26.20500 30.72200
C  -5.11400 26.25000 32.25500
H  -5.03600 24.87100 32.93000
N  -5.34200 23.29100 25.47400
C  -5.76800 22.53900 26.53200
C  -6.47800 21.42200 26.04900
C  -6.40400 21.43200 24.60000
C  -5.69400 22.69300 24.27300
C  -7.12400 20.47600 27.02100
C  -6.89100 20.48000 23.53800
O  -6.59600 20.56700 22.35100
C  -7.72700 19.24500 23.89500
N  -3.84500 25.07900 23.53900
C  -4.68600 24.38300 22.65700
C  -4.63500 25.01200 21.25500
C  -3.70800 26.24300 21.45000
C  -3.38900 26.22300 22.98300
C  -4.12800 24.08300 20.09900
C  -4.33700 27.59200 21.13300
C  -4.38900 27.98100 19.62000
N  -3.01300 26.65200 25.93700
C  -2.37000 27.45300 24.95800
C  -1.55100 28.43200 25.60500
C  -1.63600 28.10400 26.99300
C  -2.50800 26.98400 27.14200
C  -0.86900 29.51500 24.96300
C  -1.14600 28.39800 28.35600
O  -0.30800 29.18800 28.70600
C  -1.90100 27.43800 29.34500
C  -0.98200 26.71400 30.20300
O  -0.46000 25.69000 29.90500
O  -0.94400 27.32600 31.43100
C  -0.20300 26.51700 32.46000
H  -6.10400 22.04100 28.66000
H  -5.89600 22.79300 22.11600
H  -2.25200 27.97100 22.90300
H  -3.31400 25.12000 30.94800
H  -5.73200 23.72000 30.52800
H  -3.95900 21.67100 29.90200
H  -4.13500 22.14300 31.55800
H  -2.84300 22.77500 30.43000
H  -6.17300 25.92000 30.44100
H  -4.96700 27.14600 30.20700
H  -5.91700 26.90700 32.59100
H  -4.13600 26.68600 32.45900
H  -7.70400 20.96100 27.80700
H  -6.31000 19.86600 27.41200
H  -7.65500 19.69600 26.47700
H  -8.60400 19.47600 24.50000
H  -7.10200 18.54900 24.45400
H  -8.08200 18.68300 23.03100
H  -5.61100 25.26200 20.84000
H  -2.76000 26.05200 20.94800
H  -3.32200 23.42600 20.42600
H  -3.65500 24.70400 19.33900
H  -4.90900 23.52800 19.57900
H  -3.73200 28.40100 21.54100
H  -5.30900 27.76500 21.59600
H  -5.45100 28.12800 19.42400
H  -4.01800 27.19200 18.96500
H  -3.79700 28.88700 19.48700
H  0.03800 29.71100 25.53600
H  -1.41800 30.45000 24.84600
H  -0.61200 29.28500 23.92900
H  -2.60200 28.00200 29.96100
H  0.71800 27.08000 32.61600
H  0.09900 25.51200 32.16500
H  -0.77200 26.45600 33.38700

