158

Mg 41.52500 8.72900 29.92100
C  43.25700 10.07400 32.71500
C  39.04200 7.60600 32.11200
C  40.20200 6.94100 27.42700
C  44.40400 9.15600 28.04900
N  41.26000 8.70000 32.21500
C  42.04600 9.48700 33.11700
C  41.35700 9.48200 34.49100
C  40.14100 8.46600 34.32200
C  40.13900 8.20700 32.77100
C  40.27500 7.17900 35.06800
C  41.07800 10.94900 34.94900
C  40.71300 11.06100 36.46100
H  41.58900 11.93000 37.36500
N  39.80000 7.59400 29.76800
C  38.88100 7.33400 30.76600
C  37.68300 6.77100 30.06900
C  37.98200 6.71900 28.67700
C  39.38300 7.03800 28.57300
C  36.44700 6.23800 30.82000
C  37.02400 6.39300 27.50900
O  37.51700 6.17700 26.41800
C  35.47600 6.32100 27.66600
N  42.21400 8.04200 27.97900
C  41.49400 7.30200 27.10800
C  42.20500 6.94400 25.79100
C  43.49900 7.81300 26.03100
C  43.36900 8.42000 27.46100
C  42.53500 5.42500 25.71000
C  43.81100 8.86600 24.98800
C  42.69500 9.97400 24.75900
N  43.40100 9.59200 30.19000
C  44.49300 9.64800 29.35900
C  45.55900 10.39500 29.94600
C  45.14700 10.63400 31.28800
C  43.83900 10.04300 31.38500
C  46.82200 10.83800 29.17800
C  45.46400 11.19400 32.60000
O  46.50200 11.73300 32.99000
C  44.29800 10.84900 33.52200
C  44.80000 10.04500 34.71400
O  45.41700 8.98100 34.67500
O  44.59100 10.81800 35.85900
C  44.90600 10.13900 37.16300
H  38.14300 7.38400 32.69100
H  39.76700 6.51100 26.52300
H  45.27500 9.28900 27.40400
H  42.06600 8.96800 35.14000
H  39.31700 9.13100 34.58000
H  39.59400 7.24200 35.91700
H  41.25700 7.21000 35.54100
H  40.13800 6.31900 34.41300
H  40.13300 11.34100 34.57200
H  41.97400 11.56600 34.88800
H  40.69900 10.06800 36.91000
H  39.73000 11.52800 36.52800
H  36.65300 6.30000 31.88800
H  36.19800 5.25200 30.42900
H  35.56400 6.80700 30.52800
H  35.13600 7.33200 27.89000
H  35.22900 5.61000 28.45400
H  35.04500 5.92700 26.74600
H  41.69600 7.28600 24.89000
H  44.39800 7.19800 26.07800
H  41.75400 5.02800 26.35800
H  43.53800 5.23800 26.09400
H  42.20900 5.07600 24.73000
H  43.95200 8.29900 24.06800
H  44.66800 9.41700 25.37600
H  42.37300 9.75400 23.74100
H  43.20200 10.93600 24.83700
H  41.81100 9.86400 25.38700
H  46.52700 11.72300 28.61300
H  47.25900 10.06900 28.54100
H  47.74300 11.07500 29.71000
H  43.78000 11.75600 33.83400
H  44.49300 9.13000 37.19500
H  44.47800 10.51900 38.09100
H  45.98100 10.05400 37.32100
Mg 16.80000 52.12600 26.04000
C  18.58400 50.75100 28.59500
C  14.26500 52.88600 28.22700
C  14.93700 53.44700 23.42500
C  19.05900 50.89600 23.73100
N  16.55100 51.91100 28.12500
C  17.47700 51.47400 28.98000
C  17.03200 51.83300 30.43000
C  15.48400 52.14800 30.29400
C  15.39900 52.31700 28.77500
C  14.42700 51.15300 30.89400
C  17.89800 52.94900 31.03900
C  18.44300 52.68200 32.49300
H  17.39700 52.06800 33.45000
N  14.97900 53.20500 25.82400
C  14.05500 53.34500 26.85900
C  12.93200 53.96100 26.39200
C  13.03800 54.11400 24.96700
C  14.34300 53.58400 24.67100
C  11.70300 54.20300 27.29800
C  11.98900 54.56200 23.96200
O  12.15800 54.55800 22.76200
C  10.67000 55.05500 24.44600
N  16.91200 52.11100 23.86700
C  16.04300 52.75000 23.05100
C  16.59300 52.84600 21.58900
C  17.91900 52.04900 21.74000
C  18.00200 51.70700 23.20000
C  15.58800 52.53400 20.42000
C  19.19200 52.83400 21.27400
C  19.86700 52.14300 20.03300
N  18.46900 51.07600 26.11200
C  19.30000 50.58800 25.15000
C  20.39300 49.85100 25.69300
C  20.18800 49.89900 27.06700
C  18.95700 50.59500 27.27100
C  21.50400 49.17600 24.89300
C  20.65700 49.46200 28.37300
O  21.44900 48.58300 28.64700
C  19.67900 50.12700 29.41800
C  19.17400 49.12000 30.35100
O  18.74600 48.01600 30.04800
O  19.44700 49.51100 31.64200
C  19.25300 48.47900 32.66500
H  13.38100 52.97000 28.86300
H  14.45000 53.91900 22.57000
H  19.78900 50.60500 22.97200
H  17.16600 50.93500 31.03400
H  15.38800 53.19500 30.58300
H  13.81500 50.66800 30.13300
H  13.69000 51.73700 31.44600
H  14.78300 50.38900 31.58500
H  17.53600 53.93400 30.74400
H  18.75300 52.94100 30.36300
H  18.91400 53.58300 32.88500
H  19.24000 51.95500 32.33700
H  10.95900 53.41300 27.19100
H  11.18000 55.13200 27.07000
H  11.94300 54.28100 28.35900
H  10.26000 55.28100 23.46100
H  10.72600 55.97600 25.02600
H  10.16600 54.19700 24.89100
H  16.74800 53.92400 21.53400
H  17.73100 51.09900 21.24100
H  16.05300 51.86600 19.69500
H  15.37600 53.38100 19.76900
H  14.65800 52.08500 20.76900
H  19.86400 52.98700 22.11800
H  18.80700 53.80800 20.97000
H  19.24800 52.40700 19.17600
H  20.04500 51.07700 20.17500
H  20.77700 52.62200 19.67000
H  21.89900 49.91400 24.19500
H  21.17200 48.25900 24.40400
H  22.33400 48.88300 25.53500
H  20.21100 50.88900 29.98700
H  18.20500 48.25600 32.46300
H  19.29900 48.76700 33.71500
H  19.83900 47.58700 32.44500

