158

Mg 36.03000 48.56900 24.05900
C  36.51700 46.77000 27.04400
C  34.33700 50.93200 25.77500
C  35.39700 49.98200 21.14600
C  37.37000 45.65800 22.26200
N  35.46500 48.74200 26.14500
C  35.93600 48.04200 27.29500
C  35.54600 48.65600 28.56100
C  34.71900 49.92500 28.09100
C  34.76000 49.83200 26.58300
C  33.29000 50.19000 28.70100
C  36.84300 49.07900 29.34400
C  36.85800 48.89600 30.89600
H  35.56000 49.14400 31.63000
N  35.08200 50.25200 23.47500
C  34.40800 51.12600 24.33800
C  34.03000 52.30100 23.59900
C  34.23700 51.99200 22.21400
C  34.95600 50.69900 22.18800
C  33.56300 53.51200 24.31500
C  33.80500 52.78300 20.98700
O  34.12400 52.50200 19.82800
C  33.18400 54.10000 21.28300
N  36.46600 47.99200 21.99000
C  36.11300 48.80200 21.03000
C  36.49500 48.29600 19.63600
C  37.25600 46.90000 19.97500
C  37.07600 46.83500 21.47800
C  35.28500 48.02300 18.61400
C  38.81500 46.94800 19.65500
C  39.26900 46.18300 18.44000
N  36.73100 46.68200 24.50000
C  37.20400 45.60700 23.66300
C  37.36600 44.41400 24.50700
C  37.17400 44.87400 25.83300
C  36.72300 46.20300 25.77000
C  37.57200 43.03400 24.02000
C  37.27100 44.42200 27.26700
O  37.65100 43.42700 27.79400
C  36.87800 45.68400 28.04400
C  35.75900 45.44100 28.97300
O  34.62500 45.34700 28.59700
O  36.21100 45.28700 30.28000
C  35.11600 45.01500 31.27800
H  33.84700 51.73800 26.32500
H  35.23600 50.42600 20.16200
H  37.70500 44.76000 21.73700
H  34.80000 48.09500 29.12400
H  35.28800 50.82900 28.31200
H  33.37200 49.74500 29.69200
H  32.50000 49.71200 28.12000
H  33.08300 51.25800 28.76100
H  37.12500 50.07500 29.00300
H  37.66900 48.50400 28.92600
H  37.65600 49.52900 31.28400
H  37.24300 47.88600 31.03300
H  34.14800 54.30200 23.84300
H  33.81900 53.48600 25.37400
H  32.48100 53.48500 24.19200
H  32.27400 53.80500 21.80700
H  33.05000 54.53300 20.29100
H  33.78500 54.76100 21.90800
H  37.25900 48.96200 19.23500
H  36.80900 46.06900 19.43000
H  34.48300 48.69000 18.93200
H  34.93400 46.99100 18.58600
H  35.48800 48.38700 17.60700
H  39.47100 46.63400 20.46700
H  39.22100 47.94900 19.50800
H  38.49700 45.92500 17.71500
H  39.76800 45.23100 18.62000
H  39.96000 46.88500 17.97400
H  37.56100 42.33700 24.85800
H  38.55800 42.85700 23.59000
H  36.84500 42.68800 23.28500
H  37.69500 45.99400 28.69400
H  35.60900 44.94200 32.24700
H  34.75600 43.99600 31.13600
H  34.22600 45.64400 31.26900
Mg -12.12500 16.63200 42.15300
C  -8.75000 15.30800 41.72200
C  -10.95500 19.53000 40.35200
C  -15.22000 17.43100 41.64300
C  -13.11700 13.21800 42.64500
N  -10.04600 17.31300 41.14100
C  -8.79500 16.63300 41.19900
C  -7.68900 17.47200 40.68600
C  -8.36200 18.91800 40.41700
C  -9.88700 18.61600 40.63600
C  -7.77800 20.21000 41.19000
C  -7.00700 16.91300 39.40300
C  -5.60000 16.47500 39.60300
H  -5.23500 15.16300 38.86100
N  -12.93300 18.35000 41.32900
C  -12.35400 19.36000 40.64600
C  -13.37600 20.31900 40.25200
C  -14.62500 19.85500 40.64200
C  -14.28900 18.49300 41.24900
C  -13.04400 21.70300 39.75500
C  -15.98900 20.52000 40.37600
O  -16.08000 21.59800 39.74700
C  -17.22700 19.81400 40.93900
N  -13.85000 15.48200 42.14200
C  -15.02200 16.09600 42.02700
C  -16.23900 15.18400 42.26400
C  -15.59800 13.81800 42.55100
C  -14.10400 14.15300 42.41200
C  -17.07800 15.71600 43.43300
C  -16.04300 12.71800 41.56100
C  -17.11800 11.86200 42.11300
N  -11.23000 14.71700 42.40000
C  -11.73400 13.42300 42.61300
C  -10.59800 12.53100 42.88100
C  -9.42500 13.24300 42.55300
C  -9.85500 14.54700 42.22800
C  -10.77000 11.09900 43.36700
C  -8.07200 13.12600 42.50000
O  -7.37300 12.17200 42.77300
C  -7.54300 14.51100 41.95700
C  -6.77200 15.06300 43.03700
O  -7.09300 16.03200 43.70800
O  -5.52700 14.45600 43.08000
C  -4.64000 14.86100 44.22500
H  -10.58700 20.46300 39.92000
H  -16.24900 17.78400 41.73500
H  -13.43500 12.17900 42.76300
H  -6.97900 17.53600 41.51100
H  -8.29900 19.17700 39.36000
H  -8.52500 20.56800 41.89800
H  -7.42900 21.00400 40.53000
H  -6.82000 19.88700 41.59700
H  -7.16400 17.57400 38.55000
H  -7.54700 16.03700 39.04400
H  -5.33800 16.28600 40.64400
H  -4.97000 17.20600 39.09500
H  -13.75800 22.18800 39.09000
H  -12.14100 21.77600 39.14900
H  -12.89800 22.37800 40.59900
H  -18.07400 20.47700 40.76600
H  -17.04200 19.77100 42.01200
H  -17.44700 18.85500 40.47100
H  -16.87300 15.15100 41.37800
H  -15.78600 13.68600 43.61700
H  -16.45000 16.43800 43.95400
H  -17.32600 14.91100 44.12500
H  -18.01600 16.12900 43.06200
H  -15.14500 12.10700 41.47400
H  -16.28800 13.11100 40.57400
H  -16.94100 10.82300 41.83700
H  -18.05900 12.09900 41.61600
H  -17.13200 11.95800 43.19900
H  -11.10000 10.49500 42.52200
H  -11.54900 11.16000 44.12700
H  -9.84100 10.71600 43.79100
H  -7.01900 14.42400 41.00500
H  -4.36700 15.90300 44.05900
H  -3.71600 14.30900 44.05500
H  -5.22200 14.69000 45.13100

