158

Mg 42.70000 41.35100 26.22100
C  41.92200 43.92200 28.55100
C  43.62800 39.38300 28.66300
C  43.78200 39.25500 23.77600
C  41.99500 43.77700 23.68000
N  42.57500 41.59200 28.37000
C  42.26900 42.68400 29.12200
C  42.21800 42.26600 30.61700
C  43.01700 40.92100 30.58900
C  43.11900 40.60700 29.11100
C  44.41000 40.94500 31.32100
C  40.76900 42.27400 31.26700
C  40.58800 43.18100 32.45400
H  40.19200 42.59900 33.78600
N  43.35500 39.58500 26.20000
C  43.73700 38.91700 27.34900
C  44.36400 37.59600 26.96100
C  44.02400 37.42800 25.59100
C  43.70300 38.79000 25.09000
C  44.96800 36.68400 28.06300
C  43.98800 36.24600 24.72000
O  43.37500 36.35300 23.66600
C  44.47900 34.91500 25.14900
N  42.95100 41.52900 24.00800
C  43.44600 40.53100 23.29300
C  43.32000 40.73300 21.73800
C  42.63600 42.13300 21.72600
C  42.46500 42.49300 23.21300
C  44.70500 40.57000 20.92900
C  41.20200 42.13500 21.13600
C  40.67100 43.32900 20.31000
N  42.00000 43.40000 26.11900
C  41.73200 44.19000 25.02200
C  41.11100 45.41300 25.48400
C  41.17200 45.36500 26.83100
C  41.74200 44.16300 27.17000
C  40.67000 46.55600 24.51700
C  40.87500 46.14300 28.05600
O  40.25200 47.15500 28.17300
C  41.32200 45.22200 29.25400
C  42.38600 45.77700 30.11800
O  43.59800 45.59300 29.96700
O  41.83400 46.60800 31.06200
C  42.80800 47.26000 31.83800
H  43.94000 38.71000 29.46500
H  44.08900 38.66400 22.91100
H  41.72000 44.56800 22.98000
H  42.87200 43.03800 31.02300
H  42.41200 40.19900 31.13600
H  44.44300 40.09400 32.00100
H  44.48400 41.85600 31.91500
H  45.22200 40.98800 30.59400
H  40.58600 41.24600 31.58000
H  39.97800 42.48500 30.54800
H  39.75700 43.78400 32.08900
H  41.33800 43.96100 32.58400
H  45.30300 37.25900 28.92600
H  45.86000 36.20900 27.65600
H  44.25500 35.92500 28.38400
H  45.54800 35.04700 25.31500
H  44.44000 34.15500 24.36900
H  44.05100 34.60600 26.10300
H  42.54300 40.05400 21.38900
H  43.05800 42.94200 21.12900
H  45.27400 39.72700 21.32200
H  45.28200 41.47700 20.75000
H  44.43900 40.21800 19.93300
H  40.53500 42.08000 21.99700
H  40.93700 41.36500 20.41200
H  40.24000 44.07400 20.98000
H  39.93600 42.85200 19.66000
H  41.48400 43.81700 19.77300
H  40.14200 46.24900 23.61400
H  41.55900 47.16500 24.34800
H  39.97400 47.20100 25.05200
H  40.46100 44.99600 29.88300
H  43.54500 47.77200 31.22000
H  43.33500 46.60900 32.53500
H  42.33700 48.06500 32.40200
Mg 10.01200 47.64300 26.26000
C  7.96500 47.95500 29.08900
C  12.60600 49.10600 28.11200
C  11.91800 47.44800 23.57000
C  7.08100 47.05000 24.35400
N  10.19300 48.42100 28.40900
C  9.28700 48.30700 29.38600
C  9.75100 48.91500 30.72500
C  11.21800 49.39400 30.31800
C  11.39900 48.98000 28.82300
C  11.52200 50.96100 30.56200
C  9.61500 48.12500 32.07500
C  10.35000 48.63200 33.34100
H  10.85800 47.49200 34.29300
N  11.98300 48.13900 25.84800
C  12.91400 48.63400 26.78300
C  14.21000 48.62100 26.14500
C  14.02900 48.07600 24.82700
C  12.65800 47.84500 24.66600
C  15.41300 49.11900 26.89300
C  15.09700 47.83000 23.80100
O  14.84700 47.32300 22.69800
C  16.47600 48.07400 24.19800
N  9.49100 47.40000 24.24200
C  10.47900 47.32700 23.31500
C  9.91100 46.66400 22.05300
C  8.41200 46.33500 22.44300
C  8.31800 46.95000 23.74000
C  10.08600 47.59900 20.85200
C  8.06100 44.82400 22.41500
C  8.69600 43.97600 23.55100
N  7.97400 47.49300 26.54000
C  6.86900 47.30200 25.70600
C  5.60500 47.26600 26.50400
C  6.07100 47.44200 27.82200
C  7.43200 47.60200 27.80200
C  4.16200 47.04000 26.15900
C  5.59700 47.40500 29.20800
O  4.41400 47.20400 29.57800
C  6.80600 47.66500 30.10200
C  7.01000 46.43500 30.91100
O  7.70300 45.47600 30.68300
O  6.26800 46.59000 32.05300
C  6.42400 45.60800 33.06400
H  13.40100 49.69200 28.57900
H  12.43600 47.25600 22.62800
H  6.15300 46.67100 23.92100
H  9.13100 49.80800 30.81000
H  12.01200 48.90100 30.88000
H  11.91200 51.42900 29.65800
H  12.27000 50.96400 31.35500
H  10.63400 51.48200 30.91900
H  9.85700 47.07900 31.88500
H  8.56300 48.17800 32.35500
H  9.66300 49.24000 33.93000
H  11.22900 49.12200 32.92200
H  15.23600 49.17300 27.96700
H  15.74800 50.07700 26.49600
H  16.18800 48.35200 26.90600
H  17.17800 47.83800 23.39800
H  16.62600 47.37900 25.02400
H  16.58900 49.13400 24.42300
H  10.59600 45.83500 21.87200
H  7.65600 46.71300 21.75500
H  9.85500 47.14900 19.88600
H  11.16000 47.76800 20.92500
H  9.52500 48.52000 21.01200
H  8.51000 44.51600 21.47000
H  6.98600 44.64400 22.39500
H  7.90000 43.51700 24.13700
H  9.35500 44.55100 24.20100
H  9.29500 43.12300 23.23400
H  3.66200 46.28400 26.76400
H  4.07000 46.79900 25.10000
H  3.55700 47.93800 26.28700
H  6.55900 48.54600 30.69300
H  7.47400 45.64600 33.35300
H  6.14000 44.68600 32.55600
H  5.78500 45.70100 33.94200

