158

Mg 26.94500 50.51400 26.24700
C  25.31300 51.47900 29.19000
C  29.59100 49.45800 28.39800
C  28.82300 49.81600 23.53200
C  24.44400 51.96900 24.40200
N  27.49700 50.60300 28.54200
C  26.46000 50.78400 29.49800
C  26.97000 50.30600 30.88400
C  28.46000 49.93200 30.59300
C  28.49100 49.96800 29.08300
C  29.54100 50.87600 31.16600
C  26.19700 49.08500 31.54500
C  25.44500 49.29700 32.85900
H  26.37100 49.47700 34.05800
N  28.93700 49.76700 26.02500
C  29.84300 49.29700 27.00300
C  31.08600 48.83600 26.37600
C  30.90800 49.05800 24.96600
C  29.51800 49.60400 24.81200
C  32.19900 48.22600 27.15000
C  31.80900 48.88500 23.80800
O  31.54300 49.19900 22.65900
C  33.29700 48.41100 24.09700
N  26.82400 50.98500 24.30400
C  27.59100 50.40600 23.29800
C  26.96300 50.58600 21.89600
C  25.53100 51.13900 22.28900
C  25.61500 51.37300 23.78500
C  27.78400 51.47900 20.91100
C  24.25000 50.48200 21.74400
C  23.29900 51.41700 20.96800
N  25.17700 51.57300 26.70600
C  24.25400 52.07900 25.81800
C  23.13700 52.57300 26.49400
C  23.47900 52.42200 27.84700
C  24.77800 51.77100 27.89800
C  21.92100 53.14600 25.85700
C  23.18100 52.64600 29.15800
O  22.23700 53.20900 29.58100
C  24.19000 51.99200 30.21900
C  24.74700 53.00800 31.17600
O  25.40800 53.99300 30.86900
O  24.29600 52.72600 32.45000
C  24.52000 53.81100 33.43300
H  30.34900 49.11100 29.10400
H  29.24800 49.43500 22.60100
H  23.66400 52.35000 23.74000
H  27.00400 51.12900 31.59800
H  28.67600 48.91200 30.91100
H  30.25200 50.41500 31.85200
H  29.13800 51.70700 31.74500
H  30.06500 51.30400 30.31200
H  26.89400 48.26400 31.71100
H  25.49200 48.64800 30.83800
H  24.85300 48.38600 32.94100
H  24.76200 50.14500 32.81400
H  32.13100 48.15400 28.23600
H  33.16200 48.71900 27.02200
H  32.24000 47.15500 26.95400
H  33.81400 49.34700 24.31000
H  33.80200 47.84600 23.31400
H  33.45400 47.88800 25.04000
H  26.94100 49.57800 21.48300
H  25.58300 52.10700 21.79100
H  28.53800 52.03300 21.47000
H  27.24300 52.21900 20.32200
H  28.30200 50.88200 20.16000
H  23.66600 50.12200 22.59100
H  24.55800 49.57900 21.21700
H  23.83900 51.64700 20.04900
H  23.09900 52.36700 21.46300
H  22.36400 50.90000 20.74900
H  21.70000 52.58500 24.94900
H  22.08000 54.18200 25.55600
H  21.15000 53.08500 26.62500
H  23.65200 51.23900 30.79500
H  24.76800 54.79400 33.03500
H  25.46600 53.52800 33.89600
H  23.77000 53.77100 34.22400
Mg 16.99100 52.63600 26.43000
C  18.86000 51.05700 28.90000
C  14.63800 53.33500 28.87900
C  14.94900 53.89600 24.11600
C  19.15400 51.42500 24.00800
N  16.85900 52.38300 28.66800
C  17.72900 51.72400 29.46100
C  17.50100 52.06800 30.93000
C  16.00200 52.48900 30.90200
C  15.77900 52.81200 29.35700
C  15.04800 51.30500 31.37100
C  18.45800 53.11800 31.60600
C  19.01700 52.78700 33.04400
H  17.87400 52.33200 33.93400
N  15.08100 53.49700 26.49200
C  14.26600 53.71800 27.54400
C  13.05400 54.34800 27.14800
C  13.18900 54.64800 25.77500
C  14.48800 54.05400 25.39600
C  11.96200 54.74000 28.13900
C  12.22900 55.36700 24.84900
O  12.45000 55.56800 23.64800
C  10.92500 55.91700 25.36600
N  16.97300 52.47800 24.33100
C  16.13000 53.23300 23.63600
C  16.67500 53.42600 22.14500
C  17.96900 52.69300 22.18800
C  18.07500 52.16600 23.63400
C  15.77600 52.83900 21.01100
C  19.23700 53.54500 21.68600
C  20.22500 54.00100 22.83200
N  18.64600 51.38200 26.36700
C  19.43400 50.94900 25.32400
C  20.49700 50.13500 25.81400
C  20.31900 50.11700 27.22700
C  19.16000 50.89100 27.54100
C  21.57400 49.36800 24.94100
C  20.88200 49.70200 28.47000
O  21.82400 48.97800 28.70600
C  19.96600 50.34200 29.63300
C  19.44900 49.21700 30.45200
O  18.59300 48.42200 30.08200
O  20.18800 49.16700 31.63700
C  19.72200 48.08600 32.47900
H  13.98200 53.54600 29.72700
H  14.40100 54.35600 23.29100
H  19.99000 51.21000 23.33900
H  17.61300 51.15100 31.50900
H  15.79000 53.39900 31.46400
H  15.58500 50.39600 31.64400
H  14.39300 50.95700 30.57200
H  14.50300 51.61700 32.26100
H  17.89900 54.05300 31.61500
H  19.25700 53.25700 30.87700
H  19.53000 53.69400 33.36400
H  19.79200 52.03400 32.90100
H  10.96300 54.53400 27.75600
H  11.98900 55.82500 28.23600
H  12.12600 54.19900 29.07100
H  10.52700 56.51900 24.54900
H  11.13400 56.51200 26.25500
H  10.35200 55.02500 25.61700
H  16.83400 54.50400 22.12400
H  17.89800 51.80100 21.56600
H  14.77000 53.25700 21.02600
H  15.57800 51.81600 21.32900
H  16.18100 52.94800 20.00400
H  18.86800 54.41100 21.13700
H  19.65100 52.79600 21.01100
H  19.68200 54.05000 23.77600
H  20.58400 55.01900 22.68400
H  21.13000 53.39400 22.82900
H  21.03200 48.96000 24.08800
H  22.02400 48.46000 25.34300
H  22.34600 50.09600 24.69200
H  20.55000 51.03200 30.24200
H  18.63700 48.01000 32.55100
H  20.08800 48.22100 33.49600
H  20.08500 47.10900 32.16000

