158

Mg 45.32400 3.78400 47.74800
C  43.36300 6.65400 47.58400
C  42.54500 1.84600 47.49200
C  47.36100 1.18400 46.95300
C  48.15600 5.88400 47.30700
N  43.27400 4.18200 47.30300
C  42.62100 5.45100 47.53600
C  41.07600 5.25900 47.51300
C  40.88200 3.80400 47.52700
C  42.34200 3.21300 47.45500
C  39.89300 3.32100 48.69400
C  40.24000 6.09800 46.48600
C  40.95800 6.44200 45.17700
H  40.24700 5.92300 43.88300
N  45.03700 1.77600 47.42300
C  43.80100 1.14400 47.36800
C  43.95400 -0.28900 47.16000
C  45.32200 -0.55200 47.03800
C  45.99900 0.82100 47.13900
C  42.84000 -1.34200 47.03000
C  45.95500 -1.93700 46.99700
O  45.31000 -2.96100 46.86400
C  47.45900 -1.98900 46.78500
N  47.49400 3.59800 47.38700
C  48.03300 2.40700 47.07700
C  49.53900 2.44200 46.85800
C  49.83800 3.95700 47.11500
C  48.46700 4.49900 47.36400
C  50.39400 1.49600 47.69200
C  50.59000 4.68400 45.90800
C  52.12300 4.43300 45.96600
N  45.73400 5.81600 47.65600
C  46.90300 6.49500 47.37200
C  46.65200 7.94800 47.43300
C  45.24000 8.02700 47.66400
C  44.73800 6.71700 47.64500
C  47.59300 9.13900 47.26900
C  44.11500 8.99500 47.74500
O  44.07400 10.23500 47.65600
C  42.85900 8.06200 47.75400
C  42.02400 8.40500 48.91900
O  42.22700 7.92800 50.03700
O  40.91200 9.13200 48.53700
C  39.79500 9.17900 49.57900
H  41.69100 1.20000 47.70200
H  48.12400 0.43100 46.74300
H  48.93700 6.64500 47.37000
H  40.73600 5.68600 48.45700
H  40.36700 3.46100 46.62900
H  39.26600 2.53200 48.27700
H  39.24100 4.08400 49.11800
H  40.53900 2.91900 49.47400
H  39.89000 7.03200 46.92700
H  39.27700 5.62900 46.28300
H  41.88000 5.87200 45.05900
H  41.03500 7.52700 45.11600
H  43.00100 -2.12100 47.77600
H  43.13600 -1.75700 46.06600
H  41.83800 -0.92400 47.12700
H  47.92600 -1.52600 47.65400
H  47.73000 -1.50100 45.84900
H  47.76600 -3.01100 46.56200
H  49.61900 2.18800 45.80100
H  50.36500 4.07300 48.06200
H  50.82100 0.72900 47.04600
H  49.97200 0.97700 48.55200
H  51.24200 2.08000 48.05000
H  50.35300 5.74700 45.95000
H  50.31900 4.30600 44.92200
H  52.42200 4.01000 45.00700
H  52.47800 3.78300 46.76600
H  52.72300 5.33500 46.09000
H  47.21800 9.81300 46.49900
H  48.57900 8.73400 47.03800
H  47.66600 9.72800 48.18300
H  42.36000 8.40100 46.84600
H  40.02000 9.03500 50.63500
H  39.09400 8.40300 49.27100
H  39.19600 10.08300 49.46500
Mg 46.89900 16.72900 28.74900
C  44.90300 16.50200 31.72600
C  49.23900 18.34100 30.61700
C  48.30900 17.70500 25.94900
C  44.10200 15.63300 26.93700
N  47.16900 17.12700 30.95100
C  46.21700 16.97100 31.96400
C  46.76100 17.46600 33.31100
C  48.12000 18.16500 32.92900
C  48.24400 17.84500 31.41100
C  48.21200 19.62300 33.32100
C  47.01400 16.32700 34.30300
C  46.43700 16.64200 35.70400
H  46.39300 18.08900 36.17100
N  48.75400 17.68700 28.31300
C  49.49100 18.35800 29.25400
C  50.51200 19.11000 28.48200
C  50.33300 18.78400 27.12400
C  49.13000 17.95700 27.03900
C  51.44900 20.16600 29.10300
C  51.15500 19.19600 25.91800
O  50.93000 18.78400 24.77400
C  52.30400 20.17300 26.09800
N  46.28400 16.61300 26.77900
C  47.06700 17.10800 25.77100
C  46.47500 16.93400 24.40900
C  45.23400 16.17400 24.68500
C  45.18000 16.11200 26.23900
C  46.18000 18.26900 23.73500
C  45.18400 14.76900 24.05700
C  44.89600 14.63900 22.51800
N  44.89800 16.07300 29.23000
C  43.92600 15.58300 28.39600
C  42.82700 15.07400 29.14300
C  43.14800 15.46800 30.48100
C  44.41400 16.08400 30.46300
C  41.71400 14.40700 28.65400
C  42.66500 15.44400 31.82500
O  41.60500 14.99000 32.32300
C  43.81800 16.10700 32.72600
C  43.24800 17.26400 33.56300
O  43.21500 18.42000 33.15800
O  42.75600 16.80800 34.70800
C  42.07700 17.77400 35.58500
H  49.93200 19.01000 31.13200
H  48.79700 17.95700 25.00600
H  43.23600 15.22900 26.40800
H  46.06100 18.20200 33.70600
H  48.93500 17.70500 33.48800
H  49.20400 19.77400 33.74700
H  47.51900 19.88000 34.12200
H  48.10700 20.30100 32.47500
H  48.07100 16.08800 34.42600
H  46.48900 15.48800 33.84700
H  47.08700 16.20400 36.46100
H  45.46600 16.15100 35.77400
H  51.16800 20.51300 30.09800
H  51.40200 21.08000 28.51000
H  52.43000 19.69100 29.11000
H  53.04300 19.83000 26.82200
H  51.92700 21.18100 26.27600
H  52.83500 20.15300 25.14600
H  47.14900 16.41100 23.72900
H  44.26300 16.62100 24.46800
H  45.13600 18.49900 23.52300
H  46.69600 18.34600 22.77800
H  46.42900 19.07000 24.43100
H  44.41000 14.18900 24.56100
H  46.13200 14.29500 24.31300
H  43.87600 14.25600 22.49400
H  45.55900 13.90300 22.06300
H  45.03300 15.59000 22.00200
H  40.95100 15.12800 28.36100
H  41.25000 13.87800 29.48600
H  41.90500 13.71100 27.83700
H  44.05500 15.36300 33.48700
H  41.51200 18.48300 34.97900
H  42.87700 18.23700 36.16400
H  41.26700 17.38200 36.19900

