158

Mg 34.85600 2.54700 29.47600
C  32.78600 3.58100 32.01000
C  37.44800 2.22000 31.66600
C  37.03200 2.12900 26.79200
C  32.15500 2.91300 27.13300
N  35.11900 3.08100 31.59400
C  34.04400 3.27700 32.51100
C  34.61100 3.27700 33.88200
C  36.10700 2.87600 33.71900
C  36.21400 2.65700 32.21500
C  37.15700 3.87600 34.32500
C  33.86700 2.15500 34.75500
C  33.82100 2.50600 36.26800
H  34.76100 3.52700 36.86300
N  36.88400 2.08100 29.25300
C  37.74400 1.99900 30.31600
C  39.01500 1.54900 29.78300
C  38.98900 1.59100 28.40200
C  37.60200 1.85400 28.07500
C  40.16500 0.99400 30.66100
C  40.02300 1.35400 27.31100
O  39.81600 1.41300 26.09100
C  41.50300 1.28100 27.55400
N  34.64900 2.61600 27.34000
C  35.69300 2.46700 26.43500
C  35.18600 2.69300 24.96000
C  33.66600 2.50900 25.12100
C  33.42000 2.67300 26.62900
C  35.65500 4.13700 24.50000
C  33.11200 1.24100 24.66100
C  32.86600 0.06200 25.53500
N  32.87700 3.17700 29.47200
C  31.89300 3.22400 28.46500
C  30.64200 3.68700 29.09700
C  30.98100 3.90600 30.45900
C  32.37500 3.56800 30.64800
C  29.41000 3.89800 28.46700
C  30.43300 4.26600 31.75800
O  29.31700 4.53000 32.19900
C  31.56900 3.99900 32.82100
C  31.82100 5.25100 33.65200
O  32.09900 6.35700 33.22500
O  31.32100 5.03600 34.93500
C  31.42200 6.07500 35.86000
H  38.24900 1.96500 32.36300
H  37.67200 2.14400 25.90800
H  31.28800 3.03300 26.48000
H  34.53100 4.32000 34.18800
H  36.29000 1.90800 34.18700
H  37.71600 3.35100 35.09900
H  36.68200 4.73400 34.80000
H  37.89700 4.18500 33.58700
H  34.35100 1.19500 34.57600
H  32.82900 2.03100 34.44500
H  33.80000 1.56600 36.81900
H  32.83400 2.95700 36.36800
H  40.23500 -0.04000 30.32200
H  39.82400 0.97900 31.69600
H  41.05400 1.60600 30.51100
H  41.76900 0.38200 28.11100
H  41.72900 2.18200 28.12400
H  42.07600 1.18300 26.63200
H  35.73500 1.99700 24.32500
H  33.16100 3.28500 24.54600
H  36.26600 3.93200 23.62100
H  36.37900 4.58000 25.18300
H  34.92700 4.90000 24.22700
H  33.80200 0.91300 23.88300
H  32.24400 1.62800 24.12700
H  32.87200 0.43200 26.56000
H  33.53600 -0.78600 25.39300
H  31.87200 -0.27200 25.23800
H  29.26800 3.71500 27.40200
H  29.08500 4.89900 28.74700
H  28.68600 3.33200 29.05300
H  31.30100 3.09500 33.36800
H  30.53100 6.69900 35.80600
H  32.26400 6.70400 35.57000
H  31.46400 5.64900 36.86300
Mg 53.94300 24.12000 44.26100
C  51.26700 26.35200 43.42900
C  52.02600 21.60500 43.24100
C  56.73900 22.39000 43.71000
C  55.80800 26.82100 45.19600
N  52.00900 24.04900 43.21100
C  51.05700 25.04600 43.02300
C  49.79700 24.46400 42.38700
C  49.84800 22.98300 42.85800
C  51.41000 22.88000 43.16500
C  48.90000 22.58300 43.94600
C  49.74400 24.42400 40.80800
C  51.09300 24.68800 40.06900
H  52.03300 23.53400 39.88500
N  54.32400 22.19800 43.68100
C  53.36000 21.29800 43.43000
C  53.96300 20.04600 43.16600
C  55.40800 20.18400 43.19000
C  55.54500 21.59000 43.46000
C  53.17400 18.81300 42.96000
C  56.39800 19.05800 43.07600
O  56.13600 17.90800 42.77100
C  57.89700 19.37200 43.48200
N  56.04900 24.59000 44.33700
C  56.97200 23.64500 44.23500
C  58.34300 24.22800 44.47700
C  58.05900 25.60800 45.12700
C  56.56400 25.78700 44.77200
C  59.19900 23.34300 45.43600
C  58.96200 26.83800 44.68200
C  58.65700 27.37700 43.30300
N  53.55800 26.15800 44.47000
C  54.41700 27.12200 44.99900
C  53.67400 28.38600 45.18600
C  52.42000 28.12400 44.57300
C  52.46900 26.77700 44.11600
C  54.22500 29.74800 45.70400
C  51.09000 28.72200 44.14800
O  50.61700 29.76300 44.34800
C  50.40100 27.62100 43.33500
C  50.22900 28.19100 41.95500
O  51.11100 28.39500 41.22000
O  48.88400 28.33600 41.65500
C  48.74400 28.65500 40.21800
H  51.40500 20.71500 43.12400
H  57.66300 21.88700 43.41400
H  56.24500 27.69100 45.69000
H  48.98100 25.04600 42.81600
H  49.54600 22.27900 42.08200
H  48.49800 21.58200 43.78600
H  48.13300 23.34700 44.07200
H  49.44700 22.43600 44.87700
H  49.02500 25.14000 40.40900
H  49.32000 23.47800 40.47200
H  51.51400 25.64300 40.38500
H  50.86200 24.95200 39.03700
H  53.87200 17.97700 42.90200
H  52.60100 18.75200 42.03500
H  52.52500 18.65200 43.82000
H  58.34600 19.77600 42.57500
H  58.47800 18.50900 43.80700
H  57.89800 20.02000 44.35900
H  58.85800 24.39100 43.53000
H  58.06600 25.49900 46.21100
H  58.63500 22.41000 45.44100
H  59.31200 23.74200 46.44400
H  60.11700 23.18100 44.87100
H  60.03700 26.66500 44.71600
H  58.74300 27.65800 45.36700
H  58.56400 28.46100 43.35400
H  57.81700 26.82500 42.88000
H  59.44500 27.14400 42.58700
H  54.16000 29.80400 46.79100
H  53.65600 30.41900 45.06000
H  55.28000 29.81200 45.43700
H  49.57800 27.35500 43.99700
H  48.69100 29.74200 40.27700
H  47.70200 28.53200 39.92400
H  49.46700 28.19200 39.54500

