158

Mg 17.97000 -1.85900 27.60300
C  17.18900 0.23000 30.32000
C  19.88600 -3.77300 29.70500
C  18.94000 -3.54100 24.92500
C  16.08300 0.45800 25.54800
N  18.42700 -1.76500 29.80700
C  17.98100 -0.83100 30.67100
C  18.41400 -1.17400 32.06200
C  19.49100 -2.30500 31.95800
C  19.33100 -2.61000 30.40000
C  20.93100 -2.08100 32.30100
C  17.20100 -1.70300 32.95400
C  17.08000 -1.10800 34.38600
H  18.31400 -0.43300 35.04300
N  19.22400 -3.49700 27.37100
C  19.79700 -4.19400 28.34600
C  20.40200 -5.41700 27.75700
C  20.30200 -5.25400 26.38700
C  19.49300 -4.06700 26.14800
C  21.00700 -6.36800 28.68200
C  20.79900 -6.23800 25.23600
O  20.66200 -5.98100 24.04600
C  21.45500 -7.55300 25.46600
N  17.55400 -1.59100 25.57200
C  18.12300 -2.36900 24.63700
C  17.67900 -1.97200 23.23100
C  16.57500 -0.85900 23.50800
C  16.75400 -0.62800 25.01600
C  18.80200 -1.56100 22.31400
C  15.13800 -1.14400 23.03000
C  14.55600 -0.10700 22.03500
N  16.89500 -0.05600 27.83300
C  16.12700 0.71900 26.93300
C  15.45500 1.85100 27.56700
C  15.91700 1.71100 28.90800
C  16.74100 0.55100 29.03300
C  14.61400 3.01100 27.01800
C  15.78900 2.16500 30.22600
O  15.23800 3.17000 30.58200
C  16.48700 1.25800 31.21100
C  17.45500 1.99700 32.06200
O  18.46100 2.57300 31.61900
O  16.82900 2.26200 33.26000
C  17.52500 3.28500 34.05600
H  20.60100 -4.33200 30.31300
H  19.32000 -4.04000 24.03100
H  15.42700 1.02700 24.88400
H  18.82500 -0.30100 32.56900
H  19.09600 -3.20100 32.43600
H  21.56000 -2.07400 31.41100
H  21.20300 -2.94300 32.91100
H  20.92200 -1.20900 32.95400
H  17.29500 -2.78000 33.09700
H  16.20300 -1.57100 32.53700
H  16.63900 -1.78300 35.11900
H  16.26000 -0.39200 34.43100
H  22.07500 -6.15800 28.74100
H  20.79400 -7.37700 28.33000
H  20.48300 -6.26900 29.63200
H  22.37100 -7.43000 26.04400
H  21.68100 -7.94400 24.47400
H  20.76000 -8.21500 25.98300
H  17.24200 -2.82800 22.71600
H  16.90000 0.07000 23.04000
H  18.75600 -0.48100 22.17400
H  18.69000 -2.08700 21.36600
H  19.77200 -1.83800 22.72600
H  14.40400 -1.23000 23.83200
H  15.28300 -2.13600 22.60300
H  15.08200 -0.42900 21.13600
H  14.93300 0.90700 22.16300
H  13.46900 -0.14200 21.95700
H  14.57500 3.05200 25.93000
H  15.01800 3.88500 27.52900
H  13.58500 2.92000 27.36700
H  15.72500 0.75800 31.80800
H  16.97400 4.22400 34.11300
H  18.56000 3.53000 33.81600
H  17.56700 2.86900 35.06200
Mg 47.92600 15.47500 27.89000
C  45.84900 15.00800 30.73100
C  49.83600 17.57600 29.89600
C  49.93000 15.88300 25.35900
C  45.65500 13.54400 26.00800
N  47.88600 16.08800 30.14200
C  46.93000 15.79400 31.04400
C  47.33200 16.37800 32.39200
C  48.48000 17.47200 32.03000
C  48.79800 16.96700 30.62700
C  47.98900 18.94100 31.92500
C  47.68400 15.30000 33.44400
C  47.42100 15.63200 34.95800
H  48.64900 15.50100 35.84100
N  49.61700 16.62200 27.63700
C  50.24100 17.37800 28.55500
C  51.29900 18.13700 27.89200
C  51.51300 17.49100 26.59200
C  50.40600 16.59200 26.48900
C  52.09400 19.26600 28.58100
C  52.62800 17.70100 25.46100
O  52.50300 17.37400 24.26400
C  53.79500 18.52400 25.88800
N  47.69900 14.92400 25.86700
C  48.70300 15.17800 25.04900
C  48.52100 14.31000 23.76100
C  47.10600 13.71300 23.91500
C  46.73800 14.07400 25.36700
C  48.74600 15.22900 22.50900
C  46.87000 12.27700 23.34100
C  47.08100 10.98800 24.25600
N  46.13800 14.34800 28.28500
C  45.24200 13.68100 27.36400
C  44.08300 13.17700 28.10000
C  44.35200 13.58000 29.43600
C  45.48800 14.41800 29.46000
C  42.96000 12.25300 27.63800
C  43.88300 13.54100 30.81200
O  42.87900 13.00700 31.24000
C  44.75000 14.54600 31.60900
C  43.80400 15.66200 31.99400
O  43.12000 16.37400 31.22400
O  43.66800 15.83000 33.34100
C  42.72900 16.81900 33.83400
H  50.28400 18.41800 30.42800
H  50.61500 15.98400 24.51500
H  45.04900 12.92600 25.34200
H  46.51700 16.95800 32.82400
H  49.39500 17.35000 32.61100
H  47.06500 19.11100 32.47800
H  47.76800 19.21400 30.89300
H  48.78900 19.61400 32.23300
H  48.76700 15.35400 33.33300
H  47.38200 14.30100 33.13000
H  46.67200 15.07700 35.52300
H  47.03000 16.63900 35.10800
H  51.61000 19.50500 29.52800
H  52.03300 20.05500 27.83200
H  53.13400 18.95300 28.67300
H  54.63700 18.59400 25.20000
H  54.24600 18.12200 26.79500
H  53.41000 19.54000 25.98500
H  49.36600 13.62700 23.85600
H  46.44300 14.35300 23.33200
H  48.05600 14.73500 21.82500
H  49.66600 14.92300 22.01000
H  48.42000 16.25800 22.65700
H  47.59300 12.18300 22.53100
H  45.91500 12.37600 22.82500
H  47.61400 10.15300 23.80000
H  46.15900 10.46500 24.51000
H  47.48400 11.29600 25.22000
H  41.98000 12.58200 27.98200
H  43.09300 11.26100 28.07000
H  42.93300 12.21200 26.54900
H  45.08900 14.13100 32.55800
H  42.11200 17.29800 33.07400
H  43.28600 17.63700 34.29200
H  42.05000 16.31200 34.52000

