158

Mg 49.66600 47.78900 43.32300
C  46.35200 48.36200 42.27200
C  49.81100 44.80900 41.38400
C  53.09600 47.65300 43.79700
C  49.81900 51.01400 44.44400
N  48.24500 46.79100 41.88100
C  46.96500 47.22300 41.73800
C  46.38900 46.16200 40.78800
C  47.31000 44.83200 40.82400
C  48.55700 45.50600 41.40500
C  46.79600 43.67800 41.72200
C  46.20700 46.64100 39.33800
C  44.78900 46.46700 38.73300
H  44.56000 45.46300 37.60800
N  51.23400 46.46100 42.66100
C  51.06100 45.23200 41.98000
C  52.29600 44.54100 41.93200
C  53.23600 45.27600 42.73800
C  52.55300 46.51800 43.12700
C  52.29300 43.09700 41.34900
C  54.63800 44.80800 43.16800
O  54.99300 43.71900 42.79900
C  55.58200 45.67300 43.95800
N  51.38000 49.17600 43.89200
C  52.54900 48.80000 44.28900
C  53.31100 49.85100 45.07600
C  52.21700 50.91600 45.40600
C  51.03600 50.39200 44.52000
C  54.15100 49.33500 46.29300
C  52.66100 52.39100 45.03000
C  52.26800 53.54600 45.99600
N  48.40300 49.30600 43.54000
C  48.53600 50.58000 44.05500
C  47.29900 51.35300 44.04700
C  46.35200 50.45900 43.38800
C  47.10200 49.28100 43.05000
C  46.89500 52.67200 44.74600
C  44.95600 50.22700 43.04500
O  44.00600 50.97600 43.20500
C  44.99900 48.95500 42.17300
C  43.84700 48.04500 42.70700
O  43.50300 47.94700 43.87300
O  43.31700 47.30500 41.69100
C  42.26800 46.37300 41.99000
H  49.79400 43.79500 40.97800
H  54.16600 47.59800 44.00700
H  49.87600 51.99200 44.92600
H  45.38400 45.98500 41.17100
H  47.42800 44.38600 39.83600
H  47.14800 42.76600 41.24000
H  45.71100 43.59000 41.76700
H  47.24000 43.69700 42.71700
H  46.96000 46.13500 38.73400
H  46.51500 47.68600 39.32300
H  44.51900 47.45100 38.35200
H  44.01300 46.15400 39.43200
H  51.65100 42.53400 42.02600
H  53.31800 42.74500 41.22800
H  51.87700 43.21400 40.34800
H  55.82800 46.55700 43.36900
H  56.41300 45.00400 44.18300
H  55.01800 45.83800 44.87600
H  54.11300 50.19600 44.42200
H  51.98800 50.88700 46.47100
H  53.97000 48.26000 46.26100
H  53.60200 49.74100 47.14200
H  55.20000 49.59000 46.14200
H  52.54500 52.65400 43.97900
H  53.74400 52.29400 45.10400
H  53.13300 53.92700 46.53800
H  51.54400 53.13300 46.69800
H  51.77700 54.38000 45.49400
H  46.16800 52.60300 45.55500
H  46.37400 53.27100 43.99800
H  47.74500 53.23400 45.13200
H  44.75600 49.26300 41.15600
H  41.30400 46.82800 42.21800
H  42.60800 45.65400 42.73400
H  42.18300 45.82600 41.05100
Mg -12.96500 16.08100 42.07700
C  -9.94100 14.57700 41.48100
C  -11.68600 19.04200 40.55300
C  -16.04100 17.55400 42.38100
C  -14.41900 13.02100 42.87300
N  -10.92900 16.71700 41.14500
C  -9.84400 15.92200 41.07700
C  -8.65100 16.65200 40.38400
C  -9.23600 18.13200 40.31200
C  -10.69200 18.00000 40.70900
C  -8.42900 19.28900 41.01300
C  -8.09500 15.99200 39.12500
C  -6.58200 15.51600 39.07800
H  -5.69700 16.29100 38.12400
N  -13.74900 18.07100 41.59400
C  -13.01400 19.09600 41.01300
C  -13.93100 20.23200 40.87900
C  -15.19900 19.82200 41.42700
C  -15.03300 18.43600 41.87800
C  -13.42600 21.49200 40.22000
C  -16.45100 20.75300 41.61300
O  -16.49100 21.87400 41.12400
C  -17.59500 20.36700 42.50800
N  -14.96400 15.41800 42.51000
C  -16.01700 16.20300 42.73500
C  -17.22600 15.47100 43.28800
C  -16.77100 14.03900 43.14400
C  -15.27800 14.17300 42.85900
C  -17.60900 15.86400 44.83500
C  -17.49000 13.23100 42.00400
C  -17.43600 11.66500 42.06100
N  -12.28600 14.18800 42.35500
C  -13.01200 13.01800 42.67200
C  -12.05400 11.92600 42.76000
C  -10.82300 12.47600 42.32300
C  -11.01100 13.87200 42.05400
C  -12.30600 10.58100 43.27100
C  -9.42800 12.24000 41.96700
O  -8.83200 11.18400 41.88700
C  -8.82900 13.57200 41.52100
C  -7.79500 14.06000 42.48500
O  -7.99900 14.42100 43.64100
O  -6.57000 13.95700 41.84500
C  -5.32700 14.35600 42.60800
H  -11.28400 19.96100 40.12300
H  -17.02500 18.01500 42.27400
H  -14.89000 12.05200 43.05100
H  -7.84500 16.64800 41.11800
H  -9.21900 18.40100 39.25600
H  -7.54800 18.93100 41.54600
H  -9.19300 19.71800 41.66200
H  -8.23600 20.14300 40.36500
H  -8.28400 16.55500 38.21000
H  -8.66300 15.07900 38.95100
H  -6.75100 14.58100 38.54500
H  -6.06300 15.53600 40.03700
H  -13.77300 21.42800 39.18900
H  -12.33700 21.53500 40.20500
H  -13.76300 22.34800 40.80400
H  -18.37500 20.01100 41.83500
H  -17.88500 21.34300 42.89600
H  -17.32400 19.66000 43.29200
H  -18.12600 15.69600 42.71500
H  -16.99500 13.54500 44.08900
H  -18.00900 16.87800 44.84400
H  -16.74700 15.65600 45.46900
H  -18.40600 15.22800 45.22100
H  -16.89700 13.49400 41.12800
H  -18.51400 13.60300 41.99400
H  -16.85800 11.23800 41.24200
H  -18.41800 11.19600 41.99500
H  -17.05800 11.39600 43.04800
H  -13.20300 10.18300 42.79500
H  -12.42700 10.57100 44.35400
H  -11.46300 9.93200 43.03600
H  -8.39400 13.53800 40.52200
H  -4.57100 14.89600 42.03600
H  -4.75100 13.46300 42.85100
H  -5.60200 14.91600 43.50100

