158

Mg 2.08900 -1.27900 44.96800
C  5.41100 -0.39700 44.06100
C  1.04100 0.98500 42.45000
C  -0.93000 -2.51300 45.41900
C  3.47800 -4.10400 46.62200
N  3.17900 0.08500 43.36500
C  4.55900 0.35900 43.28100
C  4.87200 1.54600 42.38900
C  3.39100 2.03100 42.00500
C  2.44800 0.95000 42.59700
C  3.00900 3.42500 42.55800
C  5.73100 1.07500 41.13800
C  6.95100 2.01000 40.86200
H  7.06400 2.55100 39.44600
N  0.27500 -0.71100 44.22700
C  0.03900 0.19400 43.19700
C  -1.36100 0.26900 43.04400
C  -1.97700 -0.65800 43.95800
C  -0.93000 -1.34900 44.63700
C  -2.07300 1.16500 42.10100
C  -3.49500 -0.73600 44.31400
O  -4.38400 -0.16000 43.66300
C  -3.97000 -1.51700 45.48900
N  1.35700 -3.07300 45.90300
C  0.05100 -3.25300 46.05200
C  -0.27500 -4.59000 46.81000
C  1.18000 -5.20300 47.02400
C  2.07400 -4.09100 46.50100
C  -1.02600 -4.27600 48.11400
C  1.34500 -6.58200 46.31500
C  1.43900 -7.83500 47.26200
N  3.98800 -2.03800 45.31800
C  4.34900 -3.13400 46.08600
C  5.83500 -3.19300 46.13200
C  6.29900 -2.06500 45.42000
C  5.13600 -1.44000 44.90400
C  6.60000 -4.26400 46.86400
C  7.43000 -1.28000 45.09000
O  8.55100 -1.30700 45.44600
C  6.88900 -0.14900 44.27000
C  7.17300 1.12100 45.01900
O  6.56300 1.63700 45.96800
O  8.31900 1.66200 44.50800
C  8.74400 2.97000 44.99800
H  0.70100 1.80600 41.81600
H  -1.86400 -3.01700 45.67500
H  3.85700 -5.10200 46.85200
H  5.36600 2.36700 42.90900
H  3.27800 1.90000 40.92900
H  3.80300 3.78400 43.21200
H  2.01900 3.41800 43.01400
H  2.94100 4.18400 41.77900
H  5.23300 1.13800 40.17000
H  6.02100 0.02500 41.18000
H  7.83300 1.42500 41.12400
H  7.02500 2.85600 41.54500
H  -2.68700 0.55400 41.43900
H  -1.42500 1.71300 41.41700
H  -2.67700 1.92200 42.60100
H  -3.37900 -1.46300 46.40300
H  -4.16500 -2.53200 45.14300
H  -4.95900 -1.16800 45.78700
H  -1.05500 -5.11000 46.25300
H  1.30000 -5.33600 48.09900
H  -1.58700 -5.18000 48.34900
H  -1.63700 -3.37800 48.02200
H  -0.20700 -4.14700 48.82100
H  2.32000 -6.69500 45.84000
H  0.56800 -6.68600 45.55700
H  1.63300 -7.56500 48.30000
H  2.25400 -8.49300 46.96200
H  0.46800 -8.33000 47.24000
H  6.63600 -5.14600 46.22400
H  6.21300 -4.55400 47.84100
H  7.60000 -3.85000 46.99400
H  7.35000 0.00600 43.29400
H  8.00100 3.72600 44.74400
H  9.69600 3.27200 44.56200
H  8.81900 3.07100 46.08000
Mg 35.39000 1.95200 29.06100
C  33.21700 3.09400 31.76800
C  37.86800 2.14600 31.40900
C  37.44800 1.42500 26.64600
C  32.70900 2.41500 26.81400
N  35.52300 2.54500 31.40900
C  34.48900 2.86000 32.28500
C  35.00700 2.93100 33.70300
C  36.52100 2.82600 33.48000
C  36.68000 2.37700 32.01900
C  37.35700 4.14600 33.61500
C  34.44100 1.77100 34.66900
C  34.06100 2.18300 36.13000
H  34.80000 3.49900 36.68800
N  37.40800 1.72600 29.08000
C  38.24500 1.77200 30.12700
C  39.60700 1.51500 29.70500
C  39.51900 1.39000 28.27100
C  38.07600 1.49700 27.90400
C  40.67900 1.49300 30.61600
C  40.68900 1.22100 27.22400
O  40.42800 1.00500 26.06200
C  42.14700 1.32800 27.59000
N  35.07200 1.82100 27.03800
C  36.13100 1.49600 26.23000
C  35.65200 1.22300 24.79400
C  34.10700 1.34400 24.91900
C  33.95000 1.93700 26.30400
C  36.20000 2.29300 23.77600
C  33.43200 -0.01500 24.74500
C  31.93400 0.00400 24.32800
N  33.35000 2.68600 29.15400
C  32.41100 2.79900 28.19300
C  31.20600 3.28800 28.76800
C  31.45700 3.39800 30.18400
C  32.80900 3.06300 30.34700
C  29.91900 3.53900 28.08600
C  30.86600 3.69700 31.47200
O  29.73100 4.00800 31.76300
C  32.04100 3.55900 32.60200
C  32.24100 4.81200 33.31200
O  32.79700 5.80600 32.86500
O  31.65200 4.61900 34.60200
C  31.80800 5.88500 35.36900
H  38.75100 2.08100 32.04800
H  38.12600 1.27400 25.80300
H  31.89900 2.52200 26.08900
H  34.65700 3.86900 34.13500
H  36.93800 2.09100 34.16900
H  37.32900 4.70700 32.68100
H  38.36400 3.86900 33.92700
H  37.17600 4.79600 34.47100
H  35.09200 0.89700 34.68200
H  33.50100 1.51500 34.17900
H  34.42500 1.35100 36.73200
H  32.99400 2.17700 36.35600
H  41.47700 0.80200 30.34600
H  40.29600 0.93600 31.47100
H  41.03300 2.47300 30.93700
H  42.60200 0.50700 28.14400
H  42.24500 2.27500 28.12000
H  42.70500 1.29600 26.65300
H  35.95300 0.20500 24.54600
H  33.73100 2.08300 24.21200
H  37.17500 2.63700 24.12000
H  35.57200 3.17100 23.62300
H  36.29800 1.77500 22.82200
H  33.57800 -0.58000 25.66500
H  33.92700 -0.54600 23.93300
H  31.80300 -0.44400 23.34300
H  31.59900 1.02400 24.14200
H  31.24000 -0.42600 25.05000
H  29.57200 2.64100 27.57500
H  30.28400 4.23100 27.32800
H  29.10100 4.02900 28.61600
H  31.60900 2.78600 33.23700
H  31.85600 5.74200 36.44900
H  30.93400 6.46400 35.07100
H  32.68100 6.50500 35.16800

