158

Mg 35.46700 2.15300 30.60500
C  32.86300 2.94000 32.72300
C  37.60500 2.17900 33.31900
C  37.83500 1.35900 28.41200
C  33.09900 1.97000 27.99500
N  35.22100 2.55600 32.77700
C  34.05400 2.75400 33.43700
C  34.22200 2.86200 34.91100
C  35.82800 3.00400 34.98400
C  36.28700 2.54800 33.61700
C  36.32000 4.48100 35.40600
C  33.58800 1.60100 35.62200
C  33.23500 1.70200 37.14700
H  33.83400 2.84400 37.98500
N  37.40100 1.78600 30.81100
C  38.11100 1.76000 32.04600
C  39.40900 1.32300 31.76700
C  39.50400 0.94100 30.39300
C  38.22800 1.44800 29.81400
C  40.40600 0.98000 32.93000
C  40.70400 0.28800 29.67300
O  40.62300 -0.01000 28.49900
C  41.95600 -0.14100 30.34800
N  35.51300 1.79100 28.49000
C  36.60200 1.53700 27.78100
C  36.35800 1.26500 26.28000
C  34.80500 1.31400 26.26100
C  34.41900 1.62900 27.69300
C  37.14000 2.31500 25.36100
C  34.07000 -0.06200 25.96500
C  33.56300 -0.49700 24.55200
N  33.39600 2.66000 30.32700
C  32.61600 2.47000 29.22700
C  31.25200 2.96500 29.53700
C  31.31800 3.17700 30.95100
C  32.66500 2.88100 31.36700
C  30.07800 2.96800 28.64800
C  30.50100 3.37600 32.15100
O  29.34400 3.76200 32.23900
C  31.49900 3.34300 33.29300
C  31.42700 4.62900 34.02600
O  31.76100 5.73000 33.59000
O  30.78900 4.45500 35.24100
C  30.18800 5.58700 35.89500
H  38.15700 2.22100 34.26000
H  38.57300 1.17300 27.62900
H  32.32900 1.94900 27.22200
H  33.75000 3.77400 35.27700
H  36.20500 2.30000 35.72600
H  35.61100 4.98500 36.06300
H  36.49300 5.07800 34.51100
H  37.24700 4.31500 35.95600
H  34.25600 0.75300 35.46500
H  32.64700 1.42700 35.09900
H  33.43400 0.73300 37.60600
H  32.14500 1.73600 37.14400
H  41.40000 1.26600 32.58600
H  40.43400 -0.09300 33.12300
H  40.22000 1.57800 33.82200
H  42.61200 -0.68100 29.66500
H  41.66200 -0.88200 31.09200
H  42.54100 0.72800 30.64800
H  36.80000 0.30300 26.02100
H  34.38900 1.97900 25.50300
H  37.91700 1.86000 24.74600
H  37.70300 2.95700 26.04000
H  36.37400 2.85300 24.80100
H  33.30300 -0.36300 26.67900
H  34.81800 -0.82200 26.19200
H  33.72200 0.27500 23.79800
H  32.51800 -0.79300 24.64400
H  34.16600 -1.29800 24.12500
H  30.31200 3.38000 27.66700
H  29.37200 3.63600 29.14100
H  29.66000 1.96300 28.58300
H  31.02800 2.63500 33.97600
H  29.69200 6.09900 35.07000
H  30.85800 6.18800 36.51000
H  29.34200 5.20200 36.46500
Mg -4.71800 25.95600 26.34400
C  -3.55800 27.49100 29.18300
C  -6.49300 23.67400 28.25700
C  -5.25900 24.13900 23.65000
C  -2.52700 28.04200 24.39300
N  -4.98000 25.58500 28.47700
C  -4.46100 26.42400 29.46300
C  -5.01700 26.00000 30.82200
C  -5.72100 24.68200 30.53100
C  -5.73800 24.62700 28.99900
C  -5.05400 23.38600 31.18700
C  -6.10500 27.06900 31.28600
C  -6.43300 27.49500 32.72100
H  -5.82000 26.59800 33.84500
N  -5.96800 24.31300 25.92200
C  -6.64000 23.60100 26.87800
C  -7.38700 22.56700 26.13600
C  -6.98000 22.60900 24.79000
C  -6.03400 23.69600 24.74500
C  -8.42700 21.74100 26.87700
C  -7.41100 21.63800 23.70000
O  -6.87800 21.70700 22.61300
C  -8.31400 20.52700 23.92300
N  -3.98200 26.16100 24.27900
C  -4.37500 25.22200 23.39100
C  -3.84900 25.45800 21.96500
C  -3.04300 26.77400 22.23600
C  -3.18600 27.03200 23.69100
C  -2.96100 24.26800 21.45100
C  -3.51500 27.97100 21.32600
C  -2.79300 28.26400 20.03800
N  -3.26800 27.42300 26.67900
C  -2.47200 28.18500 25.81700
C  -1.70900 29.13600 26.60600
C  -2.15700 28.95000 27.96700
C  -3.09600 27.89600 27.90800
C  -0.70000 30.12600 26.09900
C  -2.11600 29.49400 29.28800
O  -1.50700 30.52900 29.66000
C  -3.07600 28.63200 30.20100
C  -2.42000 28.14100 31.44000
O  -1.48900 27.34100 31.39900
O  -2.87000 28.77900 32.62200
C  -2.07400 28.60400 33.76900
H  -7.01900 22.93500 28.86600
H  -5.50100 23.69300 22.68300
H  -1.85500 28.65100 23.78600
H  -4.22400 25.76500 31.53200
H  -6.79000 24.68600 30.74200
H  -5.63600 22.80600 31.90300
H  -4.06000 23.62400 31.56700
H  -4.98800 22.68600 30.35400
H  -7.07300 26.84600 30.83700
H  -5.91600 28.02600 30.79900
H  -7.50000 27.30400 32.83300
H  -6.13100 28.53700 32.82700
H  -7.92900 21.38400 27.77900
H  -9.06500 20.96700 26.45200
H  -9.14900 22.43100 27.31300
H  -8.28700 19.86200 23.05900
H  -9.32900 20.91300 24.01700
H  -7.90100 20.02200 24.79600
H  -4.66400 25.55900 21.24800
H  -1.97200 26.77100 22.03400
H  -2.86300 23.43700 22.14900
H  -1.94900 24.58700 21.20000
H  -3.36400 23.88600 20.51400
H  -3.68400 28.84200 21.95900
H  -4.56200 27.74400 21.12800
H  -3.40100 28.21000 19.13500
H  -1.98600 27.54200 19.91600
H  -2.44100 29.29500 19.98400
H  -1.08800 30.66400 25.23400
H  0.27800 29.68500 25.90700
H  -0.49000 30.89700 26.84000
H  -3.72300 29.40500 30.61400
H  -2.05400 29.52900 34.34500
H  -1.00600 28.47200 33.59500
H  -2.53700 27.82600 34.37600

