158

Mg 47.09700 24.77600 28.84100
C  47.86800 27.25800 31.32500
C  45.94100 22.73800 31.37600
C  46.66600 22.48600 26.55900
C  48.53800 26.95200 26.45200
N  46.87600 24.98500 31.13300
C  47.33100 26.03700 31.92900
C  46.89300 25.77800 33.39800
C  46.69100 24.21900 33.43400
C  46.43600 23.96700 31.89100
C  47.88100 23.37400 34.01600
C  45.73900 26.65100 33.92500
C  45.85200 27.48900 35.23700
H  46.54100 26.73500 36.40800
N  46.22800 22.90200 28.88300
C  45.78300 22.26200 30.03800
C  45.22600 21.00100 29.62400
C  45.49500 20.89100 28.21200
C  46.20200 22.08900 27.83600
C  44.62300 19.99300 30.60000
C  45.19800 19.77500 27.20700
O  45.46300 19.80800 26.01700
C  44.41900 18.65900 27.67200
N  47.40400 24.80200 26.69500
C  47.34100 23.63200 26.06000
C  48.17800 23.62100 24.79200
C  48.51600 25.12000 24.58900
C  48.16300 25.68900 25.98100
C  49.44800 22.66200 24.75800
C  47.63800 25.86100 23.46900
C  48.38700 26.41900 22.23800
N  48.08300 26.65500 28.85700
C  48.36100 27.49200 27.76900
C  48.92000 28.74000 28.28800
C  48.60200 28.70700 29.64000
C  48.14100 27.39900 29.93500
C  49.64500 29.80400 27.52400
C  48.69900 29.45300 30.85900
O  49.12000 30.58200 30.99900
C  48.20500 28.55500 31.98500
C  49.27800 28.34900 33.03400
O  50.21600 27.60900 33.05700
O  49.06700 29.33500 33.97700
C  49.83400 29.13500 35.20700
H  45.54800 22.08300 32.15600
H  46.64200 21.65800 25.84700
H  49.11200 27.48000 25.68800
H  47.79100 26.02800 33.96300
H  45.82300 23.98200 34.04900
H  48.65800 23.94500 34.52400
H  48.34500 22.75100 33.25100
H  47.39100 22.67800 34.69700
H  44.88700 26.04000 34.22200
H  45.32900 27.34400 33.19000
H  44.84300 27.80500 35.50200
H  46.38100 28.38800 34.92000
H  43.89600 19.33400 30.12700
H  44.12800 20.55100 31.39400
H  45.52500 19.61100 31.07900
H  44.94300 18.28600 28.55200
H  44.27300 17.97600 26.83500
H  43.45000 19.10700 27.88700
H  47.57300 23.24200 23.96800
H  49.59600 25.20800 24.47200
H  49.25800 21.74800 24.19400
H  49.66500 22.35900 25.78200
H  50.32500 23.18800 24.38000
H  47.08800 26.65300 23.97600
H  46.91900 25.17800 23.01600
H  48.76200 25.62100 21.59700
H  49.25100 26.97800 22.59800
H  47.77700 27.15900 21.72000
H  49.26100 30.80000 27.74500
H  49.26800 29.71900 26.50500
H  50.68100 29.51800 27.70200
H  47.30400 29.04200 32.35800
H  50.91800 29.16200 35.09000
H  49.45600 28.26500 35.74500
H  49.72000 29.91600 35.95800
Mg 9.70600 47.27200 26.60200
C  8.04700 47.46300 29.60100
C  12.40200 49.02300 28.01900
C  11.34600 46.94500 23.65800
C  6.67700 46.46300 25.02300
N  10.17200 48.16400 28.59700
C  9.40700 47.97000 29.66700
C  10.03600 48.53900 30.89400
C  11.24100 49.39700 30.29900
C  11.27900 48.88100 28.88000
C  11.11800 50.93800 30.36300
C  10.53100 47.50200 31.97200
C  10.18100 47.67500 33.44100
H  9.88300 46.59500 34.48000
N  11.63000 47.70300 26.09000
C  12.59900 48.46600 26.73400
C  13.85000 48.51900 25.91800
C  13.59500 47.72700 24.77000
C  12.15700 47.37900 24.82700
C  15.15300 49.16500 26.38400
C  14.46500 47.39600 23.64200
O  14.08400 46.72500 22.67800
C  15.85700 47.87600 23.63000
N  9.02700 46.71500 24.64700
C  9.91200 46.78100 23.56700
C  9.18600 46.45000 22.23500
C  7.78400 46.01400 22.74300
C  7.81800 46.48300 24.17800
C  9.20800 47.58100 21.22100
C  7.50000 44.51700 22.59700
C  8.52900 43.60600 23.38000
N  7.65700 47.09100 27.15300
C  6.59800 46.65800 26.43900
C  5.37300 46.55100 27.31600
C  5.92000 46.94100 28.55400
C  7.30600 47.25500 28.41100
C  4.06900 45.97000 26.83900
C  5.66200 46.98500 29.99400
O  4.64700 46.74000 30.67600
C  7.05900 47.26000 30.69100
C  7.32500 46.06700 31.58400
O  7.88700 45.04200 31.21400
O  6.69900 46.34100 32.81100
C  6.53300 45.08600 33.58500
H  13.24500 49.57300 28.44200
H  11.90200 46.92300 22.71800
H  5.84500 46.02600 24.46800
H  9.36100 49.25600 31.36300
H  12.20800 49.16900 30.74700
H  10.19800 51.25300 30.85400
H  11.26800 51.32700 29.35600
H  11.99900 51.21500 30.94200
H  11.61700 47.45100 31.89800
H  10.22100 46.48400 31.73600
H  9.27200 48.26800 33.34300
H  11.09800 48.12800 33.81700
H  15.27100 49.98700 25.67800
H  15.89800 48.37000 26.36900
H  15.13100 49.63600 27.36700
H  15.78500 48.96300 23.64900
H  16.19600 47.57100 22.64000
H  16.45800 47.39700 24.40300
H  9.68800 45.62300 21.73300
H  6.86300 46.48100 22.39500
H  8.18400 47.89200 21.01500
H  9.60300 47.29500 20.24700
H  9.85600 48.38000 21.57900
H  7.60900 44.18200 21.56600
H  6.47300 44.33500 22.91300
H  7.94000 42.84600 23.89300
H  9.08700 44.01700 24.22200
H  9.27500 43.18800 22.70300
H  4.17800 45.31700 25.97400
H  3.50600 46.78600 26.38500
H  3.42500 45.62900 27.65000
H  6.89600 48.13400 31.32200
H  6.52900 45.20700 34.66800
H  7.14700 44.19900 33.42300
H  5.61700 44.62900 33.21100

