158

Mg -1.93100 17.51100 27.32100
C  -2.10300 15.47900 30.18000
C  -2.39700 20.24500 29.34200
C  -2.00300 19.36200 24.52200
C  -2.09900 14.61600 25.42200
N  -2.21300 17.79800 29.49500
C  -2.14800 16.83800 30.41600
C  -2.27500 17.46000 31.82000
C  -2.78300 18.94300 31.52200
C  -2.38400 19.04200 30.00400
C  -4.28900 19.15800 31.82400
C  -0.93900 17.45200 32.63300
C  -1.12500 16.83900 34.07200
H  -0.07500 17.16700 35.19100
N  -1.94800 19.47900 26.98500
C  -2.12900 20.43100 27.96600
C  -2.20200 21.69400 27.34200
C  -2.02300 21.52600 25.96800
C  -2.02700 20.02400 25.73400
C  -2.21300 23.01300 28.08100
C  -1.83300 22.54000 24.88200
O  -1.67500 22.22400 23.70400
C  -1.72100 23.98500 25.18600
N  -1.93200 17.02700 25.23000
C  -1.95700 18.00800 24.29600
C  -1.86000 17.30200 22.85800
C  -1.64300 15.82900 23.12700
C  -1.93300 15.78700 24.68300
C  -2.94900 17.60100 21.85100
C  -0.25600 15.20400 22.80400
C  1.08100 15.92900 23.08600
N  -2.19600 15.44500 27.71900
C  -2.27000 14.42400 26.80800
C  -2.25000 13.16900 27.51900
C  -2.17900 13.52100 28.87000
C  -2.10000 14.93500 28.91200
C  -2.23100 11.79100 26.93500
C  -2.11000 13.04300 30.22600
O  -2.14000 11.90800 30.69400
C  -2.12500 14.31800 31.12200
C  -0.86900 14.16000 31.90700
O  0.22400 14.55400 31.46800
O  -1.00500 13.56000 33.13900
C  0.18900 13.35500 33.94000
H  -2.42200 21.05900 30.07000
H  -1.96600 19.91100 23.57900
H  -1.93600 13.74700 24.78100
H  -2.97600 16.83800 32.37600
H  -2.19100 19.68900 32.05300
H  -4.59400 18.44800 32.59300
H  -4.79000 19.13300 30.85700
H  -4.35100 20.16000 32.25000
H  -0.46400 18.41900 32.79900
H  -0.17300 16.93800 32.05200
H  -1.26400 15.75800 34.07200
H  -2.00900 17.26100 34.55000
H  -3.10100 23.54500 27.74100
H  -1.35700 23.60800 27.76200
H  -2.13000 23.01800 29.16700
H  -0.79600 24.10700 25.74900
H  -2.56500 24.30700 25.79600
H  -1.67000 24.46300 24.20700
H  -0.91400 17.67200 22.46300
H  -2.37400 15.21500 22.60100
H  -3.68800 18.27800 22.28000
H  -3.56200 16.71200 21.70100
H  -2.59600 18.07400 20.93400
H  -0.25500 14.92800 21.75000
H  -0.28500 14.25600 23.34100
H  1.77500 15.25200 23.58300
H  1.02200 16.86400 23.64400
H  1.63400 16.05600 22.15500
H  -1.45800 11.72100 26.16900
H  -3.20200 11.47500 26.55500
H  -1.84900 11.13700 27.71900
H  -2.93300 14.36900 31.85200
H  -0.20300 12.71500 34.73100
H  0.69100 14.26200 34.27700
H  0.88700 12.77700 33.33600
Mg 7.85100 2.92200 28.23000
C  9.52900 1.36300 31.05200
C  6.33800 5.08900 30.36100
C  6.42500 4.24400 25.58100
C  9.25600 0.27700 26.19200
N  7.92600 3.15900 30.45200
C  8.71400 2.51700 31.35900
C  8.69500 3.32100 32.66500
C  7.60500 4.45800 32.45400
C  7.20400 4.15300 31.02100
C  6.37900 4.21900 33.44500
C  10.12400 3.76700 33.11300
C  10.61000 3.37900 34.52500
H  10.68600 4.50000 35.61500
N  6.56400 4.41200 27.99400
C  5.97200 5.17600 28.98900
C  5.03700 6.10900 28.42100
C  5.16400 5.99500 27.00400
C  6.07400 4.87300 26.77900
C  4.26800 7.23100 29.25400
C  4.47000 6.79500 25.89700
O  4.72300 6.76200 24.70100
C  3.38600 7.71100 26.27000
N  7.83800 2.36500 26.18500
C  7.26700 3.12100 25.27600
C  7.65200 2.67800 23.85400
C  8.53200 1.41200 24.01800
C  8.53500 1.35300 25.60500
C  6.48900 2.46700 22.85700
C  9.89600 1.64400 23.33400
C  11.09600 2.11200 24.09900
N  9.05200 1.01800 28.56000
C  9.54500 0.10200 27.60500
C  10.39700 -0.89400 28.29800
C  10.45600 -0.44300 29.68800
C  9.68200 0.72600 29.73400
C  10.88900 -2.17900 27.65000
C  11.04300 -0.64600 30.96000
O  11.89200 -1.42000 31.41800
C  10.37300 0.48700 31.94600
C  9.63800 -0.19000 32.94600
O  8.63500 -0.83800 32.80500
O  10.26200 0.00000 34.15100
C  9.59700 -0.49400 35.36700
H  5.95300 5.89100 30.99300
H  6.09500 4.79000 24.69400
H  9.64900 -0.43200 25.46100
H  8.51200 2.46500 33.31500
H  8.05000 5.45100 32.40300
H  5.61600 4.98000 33.27700
H  6.67700 4.22400 34.49300
H  5.94800 3.23500 33.26300
H  10.16600 4.85600 33.09300
H  10.80100 3.45100 32.31900
H  11.68800 3.22500 34.48000
H  10.06100 2.50900 34.88700
H  4.43900 8.21400 28.81700
H  4.38300 7.17300 30.33700
H  3.22700 6.96400 29.07000
H  2.70500 8.03200 25.48100
H  3.88700 8.56400 26.72700
H  2.64300 7.22000 26.89900
H  8.20400 3.57500 23.57300
H  7.98500 0.53300 23.67800
H  5.59800 2.90300 23.30700
H  6.28800 1.40200 22.73500
H  6.76100 2.85100 21.87400
H  9.75000 2.34300 22.51100
H  10.21100 0.78700 22.73800
H  11.63500 2.82800 23.47800
H  11.83300 1.36500 24.39300
H  10.83300 2.60300 25.03600
H  10.08600 -2.52700 27.00100
H  10.82200 -3.01300 28.34800
H  11.91400 -2.06500 27.29900
H  11.15400 1.13800 32.33800
H  9.38300 0.31800 36.06100
H  10.23300 -1.25900 35.81200
H  8.72600 -1.09400 35.10400

