158

Mg -12.41700 39.11500 41.28800
C  -10.33400 36.33300 40.57400
C  -10.28100 41.07100 39.66500
C  -14.88300 41.59100 41.23000
C  -14.86800 36.78800 42.49700
N  -10.41600 38.79300 40.45500
C  -9.81800 37.56300 40.10200
C  -8.57200 37.66800 39.18900
C  -8.54900 39.23600 38.92900
C  -9.83500 39.74400 39.74000
C  -7.23200 39.95100 39.29600
C  -8.50100 36.77900 37.92700
C  -7.61300 35.51100 37.82500
H  -6.44300 35.67200 36.92500
N  -12.43300 41.13300 40.80900
C  -11.35700 41.76000 40.21700
C  -11.63500 43.13200 40.02600
C  -13.01800 43.33900 40.32900
C  -13.55100 41.99600 40.83100
C  -10.70500 44.19400 39.45800
C  -13.79000 44.66100 40.31000
O  -13.27100 45.65300 39.81600
C  -15.11500 44.80600 40.99800
N  -14.57000 39.15800 41.79400
C  -15.30700 40.36300 41.76400
C  -16.67500 40.14500 42.34000
C  -16.70000 38.60600 42.57700
C  -15.30900 38.11500 42.30600
C  -17.08100 41.03200 43.49000
C  -17.76700 37.85100 41.75900
C  -19.01800 37.66000 42.57000
N  -12.66300 36.96100 41.34900
C  -13.62600 36.21500 42.10200
C  -13.17500 34.87000 42.21600
C  -11.95100 34.83600 41.59600
C  -11.66300 36.15300 41.15600
C  -13.84200 33.67000 42.90900
C  -10.79300 34.06700 41.27100
O  -10.62600 32.83600 41.46300
C  -9.71700 34.94500 40.56400
C  -8.38300 34.84900 41.29700
O  -7.45200 34.07500 40.96000
O  -8.16400 35.82600 42.26000
C  -6.71400 36.03100 42.49200
H  -9.73800 41.63300 38.90200
H  -15.69100 42.32200 41.29300
H  -15.59400 36.12800 42.97700
H  -7.74700 37.34500 39.82300
H  -8.85800 39.48700 37.91400
H  -6.40700 39.24900 39.17100
H  -7.29300 40.10100 40.37400
H  -7.12400 40.90500 38.78100
H  -8.12200 37.42900 37.13800
H  -9.51600 36.60900 37.56800
H  -8.13700 34.57700 37.62600
H  -7.22100 35.22700 38.80200
H  -9.73300 43.76800 39.20900
H  -10.72300 44.99400 40.19900
H  -11.13200 44.48700 38.49900
H  -15.79100 44.64200 40.15900
H  -15.31500 45.77000 41.46600
H  -15.13800 44.13500 41.85700
H  -17.39300 40.28200 41.53100
H  -16.76700 38.45100 43.65400
H  -17.51200 40.43900 44.29600
H  -17.84600 41.76200 43.22500
H  -16.19300 41.54100 43.86600
H  -17.45300 36.80800 41.71800
H  -17.99200 38.37500 40.83000
H  -19.05800 38.50900 43.25200
H  -18.85100 36.72300 43.10000
H  -19.92500 37.73500 41.97000
H  -13.10000 32.96600 43.28500
H  -14.52500 33.32300 42.13400
H  -14.48700 33.95000 43.74200
H  -9.74500 34.55600 39.54600
H  -6.14200 36.28300 41.59900
H  -6.44600 35.18500 43.12600
H  -6.52600 36.90100 43.12000
Mg -6.19100 24.96400 26.18200
C  -4.60700 26.59600 28.96200
C  -7.73900 23.01100 28.42300
C  -7.24300 23.04100 23.70300
C  -3.97000 26.61100 24.11300
N  -6.05000 24.85600 28.36800
C  -5.45600 25.58100 29.26800
C  -5.80800 25.26100 30.74800
C  -6.52000 23.93100 30.50100
C  -6.78500 23.90300 29.01200
C  -5.87400 22.58400 31.05800
C  -6.50400 26.38000 31.46600
C  -5.93900 26.78100 32.86600
H  -5.14200 25.75200 33.67600
N  -7.46500 23.36700 26.08500
C  -8.06900 22.75700 27.10700
C  -8.98900 21.81300 26.63900
C  -8.92100 21.82600 25.28300
C  -7.85700 22.78600 24.94600
C  -9.80300 20.91400 27.54000
C  -9.67700 20.99500 24.25400
O  -9.43000 21.03700 23.00900
C  -10.76300 20.13000 24.65000
N  -5.81000 24.96000 24.14600
C  -6.22700 23.91000 23.37500
C  -5.51100 23.87500 22.02100
C  -4.56400 25.19100 22.10000
C  -4.75000 25.60600 23.55300
C  -4.82600 22.50400 21.78000
C  -4.84200 26.29600 21.02700
C  -3.71700 26.59100 20.04500
N  -4.66000 26.48300 26.41300
C  -3.90100 26.98100 25.47900
C  -3.02800 27.96900 25.97100
C  -3.26100 27.87400 27.39600
C  -4.24800 26.92600 27.61600
C  -2.13100 28.92400 25.22300
C  -2.95000 28.38600 28.74100
O  -2.19000 29.29200 29.08100
C  -3.73600 27.49100 29.81100
C  -2.55500 26.86700 30.53600
O  -2.12000 25.69700 30.41200
O  -2.20600 27.63900 31.53500
C  -1.25800 27.09400 32.55000
H  -8.28900 22.41700 29.15600
H  -7.66500 22.68700 22.76000
H  -3.22300 27.12800 23.50800
H  -4.94100 24.93100 31.32000
H  -7.47900 23.95200 31.01800
H  -5.56700 21.91600 30.25400
H  -6.61300 22.03400 31.64200
H  -5.00200 22.78900 31.67900
H  -7.55200 26.13900 31.64500
H  -6.58500 27.26200 30.83000
H  -6.88000 26.91400 33.40000
H  -5.31100 27.66800 32.93800
H  -10.85300 20.94000 27.24700
H  -9.69400 21.09000 28.61000
H  -9.50300 19.88500 27.34200
H  -10.44900 19.34400 25.33700
H  -11.11100 19.60700 23.75900
H  -11.50200 20.83000 25.03900
H  -6.22400 23.90500 21.19700
H  -3.52100 24.87600 22.11900
H  -3.80700 22.81800 21.55200
H  -5.32500 21.97200 20.97000
H  -4.86100 22.01000 22.75000
H  -5.16100 27.13500 21.64600
H  -5.73700 25.88600 20.55800
H  -2.84000 25.94900 20.12900
H  -3.41000 27.63500 19.99400
H  -4.13500 26.41400 19.05400
H  -2.81900 29.65900 24.80400
H  -1.62100 28.42600 24.39900
H  -1.33600 29.32500 25.85200
H  -4.39700 28.08800 30.43900
H  -0.28600 26.98900 32.06800
H  -1.55000 26.10900 32.91300
H  -1.26200 27.82300 33.36000

