158

Mg 2.31900 -1.07800 44.78700
C  5.57700 -0.46700 43.94500
C  1.36800 1.57800 42.96800
C  -0.80200 -2.38300 44.91400
C  3.53600 -4.20100 46.23400
N  3.40700 0.32000 43.50000
C  4.73200 0.48600 43.40700
C  5.14500 1.65600 42.46700
C  3.80900 2.51900 42.50400
C  2.74900 1.44700 43.00900
C  3.86000 3.81500 43.40300
C  5.56700 1.30500 41.00300
C  6.63700 2.16700 40.51900
H  6.33200 3.05900 39.35300
N  0.45600 -0.39500 44.18000
C  0.29800 0.71700 43.41300
C  -1.10200 0.83000 43.23100
C  -1.79800 -0.25300 43.82400
C  -0.71900 -1.10600 44.35100
C  -1.75500 2.03500 42.50700
C  -3.27600 -0.39000 43.93900
O  -4.06300 0.36300 43.43000
C  -3.85000 -1.50700 44.71800
N  1.49600 -3.03000 45.49700
C  0.15500 -3.23700 45.48200
C  -0.09800 -4.70800 45.82800
C  1.21300 -5.21500 46.46300
C  2.15800 -4.09500 46.08600
C  -1.39900 -5.02200 46.72000
C  1.63500 -6.62200 45.95700
C  1.98200 -7.65700 47.02600
N  4.14000 -2.11800 45.10700
C  4.43300 -3.36900 45.73500
C  5.82800 -3.60800 45.71700
C  6.28300 -2.49800 45.01200
C  5.24600 -1.58300 44.69100
C  6.72400 -4.81100 46.19300
C  7.47800 -1.84700 44.53200
O  8.64500 -2.20900 44.63400
C  7.07300 -0.57200 43.80800
C  7.79000 0.63300 44.45400
O  7.88400 0.87900 45.65800
O  8.49500 1.32500 43.47400
C  9.23500 2.53700 43.91500
H  1.06900 2.45700 42.39400
H  -1.74900 -2.91100 44.78500
H  3.96400 -5.14100 46.58800
H  5.87000 2.29400 42.97200
H  3.38900 2.77800 41.53200
H  2.82500 4.00300 43.68900
H  4.24800 4.66900 42.84800
H  4.26900 3.59600 44.38900
H  4.80600 1.41600 40.23100
H  5.64600 0.22600 40.86800
H  7.35200 1.41600 40.18400
H  7.14600 2.71300 41.31200
H  -2.84100 1.96600 42.45700
H  -1.19500 2.09700 41.57400
H  -1.50400 2.87000 43.16200
H  -4.91900 -1.33000 44.83200
H  -3.41900 -1.54800 45.71900
H  -3.77400 -2.47600 44.22500
H  -0.14100 -5.23300 44.87400
H  1.08900 -5.15900 47.54500
H  -1.92000 -5.93500 46.43100
H  -2.02900 -4.13500 46.78300
H  -1.06600 -5.22800 47.73700
H  2.53200 -6.40600 45.37700
H  0.87800 -7.01800 45.28000
H  3.03500 -7.88000 47.19800
H  1.44100 -8.55100 46.71200
H  1.75200 -7.30500 48.03100
H  6.24300 -5.20000 47.09000
H  7.69100 -4.45700 46.55300
H  6.83200 -5.61100 45.46200
H  7.40300 -0.63600 42.77200
H  9.70200 3.03600 43.06600
H  10.03600 2.27600 44.60600
H  8.57100 3.31800 44.28800
Mg 46.18500 4.35300 47.02100
C  44.09500 7.09200 46.70000
C  43.49600 2.41400 46.07400
C  48.31700 1.72300 46.79200
C  49.03100 6.45900 47.02200
N  44.06700 4.74200 46.45100
C  43.46300 5.93800 46.33200
C  41.90800 5.75300 46.25600
C  41.74100 4.25200 46.03100
C  43.18100 3.75100 46.27500
C  40.72300 3.47300 46.91100
C  41.19100 6.59700 45.08900
C  42.02600 6.65100 43.74800
H  41.34900 6.11700 42.46300
N  45.95100 2.30600 46.64100
C  44.75900 1.69900 46.16300
C  44.93300 0.27500 45.97900
C  46.33000 0.04600 46.24300
C  46.98700 1.38000 46.64200
C  43.85000 -0.68000 45.54100
C  46.94800 -1.38200 46.14700
O  46.24100 -2.28700 45.80200
C  48.37600 -1.53800 46.44000
N  48.40300 4.12700 47.12000
C  48.97300 2.94200 46.93700
C  50.46400 2.93800 47.01100
C  50.75200 4.50300 46.85500
C  49.32400 5.11100 47.12300
C  50.96500 2.26800 48.31300
C  51.34500 5.01200 45.45200
C  51.67300 4.02700 44.35600
N  46.52400 6.31500 47.10300
C  47.70700 7.04400 47.05900
C  47.31700 8.44700 47.08300
C  45.90100 8.52400 47.04700
C  45.51900 7.23000 46.96400
C  48.26600 9.63000 46.91200
C  44.75800 9.38200 46.96300
O  44.67000 10.62100 46.92600
C  43.48100 8.47400 46.75500
C  42.55800 8.56500 47.85300
O  42.46400 7.80400 48.83600
O  41.75500 9.70300 47.73000
C  40.91300 10.07400 48.83100
H  42.69400 1.80700 45.65000
H  49.01900 0.89600 46.66500
H  49.88500 7.13800 46.99100
H  41.36700 6.05600 47.15300
H  41.67500 4.01400 44.96900
H  39.84900 4.03800 47.23400
H  41.21600 3.12800 47.82000
H  40.28200 2.59900 46.43000
H  40.98600 7.60200 45.45800
H  40.25800 6.04500 44.97500
H  42.89800 6.00800 43.86100
H  42.44500 7.63800 43.55100
H  44.03100 -1.23300 44.61900
H  42.88500 -0.19500 45.39700
H  43.78800 -1.43600 46.32400
H  48.53500 -1.19200 47.46100
H  48.95500 -0.99900 45.69000
H  48.60800 -2.59300 46.29100
H  50.95500 2.30600 46.27200
H  51.40200 4.82200 47.66900
H  51.69000 2.85900 48.87100
H  51.46000 1.33500 48.04300
H  50.12000 2.10500 48.98200
H  52.24400 5.51700 45.80700
H  50.71800 5.81300 45.06100
H  52.66400 3.66700 44.63200
H  51.63800 4.41800 43.33900
H  50.91500 3.24900 44.45100
H  49.24100 9.53500 47.38900
H  47.85500 10.59400 47.21100
H  48.47500 9.62900 45.84200
H  42.84100 8.82100 45.94400
H  41.07200 9.58300 49.79100
H  39.86100 9.95000 48.57200
H  40.99700 11.15100 48.97500

