158

Mg 53.57200 23.41400 44.63400
C  51.15800 25.78400 43.90600
C  51.69300 21.06700 43.00900
C  56.08200 21.08300 45.02000
C  55.78700 25.89400 45.33800
N  51.74500 23.42800 43.66800
C  50.91600 24.52200 43.39900
C  49.79700 24.17200 42.37300
C  49.76500 22.60700 42.59400
C  51.18600 22.36100 43.06600
C  48.66500 22.14600 43.51400
C  50.30000 24.44400 40.93100
C  49.33200 24.66200 39.78500
H  49.90200 25.20800 38.49300
N  53.82100 21.31900 44.28900
C  52.91600 20.56900 43.51800
C  53.38800 19.15600 43.54000
C  54.65100 19.13200 44.20400
C  54.90400 20.54000 44.57900
C  52.54200 18.05800 43.02000
C  55.43900 17.89800 44.32300
O  55.25900 16.85900 43.73400
C  56.72900 17.93600 45.25300
N  55.61600 23.42100 45.07400
C  56.49500 22.39600 45.27500
C  57.94100 22.85700 45.66500
C  57.79400 24.36900 45.51700
C  56.28100 24.58600 45.30400
C  58.54400 22.35600 46.99100
C  58.75400 25.09400 44.43300
C  58.98600 26.63800 44.36800
N  53.49000 25.45000 44.90200
C  54.47500 26.34300 45.15900
C  53.80500 27.65700 45.24300
C  52.58100 27.52600 44.69300
C  52.39600 26.11600 44.57200
C  54.44900 28.95100 45.69900
C  51.27400 28.17000 44.31000
O  50.92100 29.36500 44.41100
C  50.30800 27.09900 43.80200
C  49.90100 27.58200 42.46300
O  50.52500 27.88000 41.46300
O  48.55900 27.63900 42.49300
C  47.76600 27.91300 41.28000
H  51.14600 20.30600 42.45000
H  56.86200 20.32700 44.91100
H  56.43600 26.73400 45.59400
H  48.85200 24.62700 42.66900
H  49.74800 22.17300 41.59400
H  47.90100 22.90300 43.69200
H  48.97000 21.69600 44.45900
H  48.08400 21.45700 42.90200
H  50.95800 23.60800 40.69400
H  50.93400 25.33100 40.93900
H  48.51800 25.28000 40.16200
H  49.00400 23.62900 39.66700
H  52.50000 17.22800 43.72400
H  52.78900 17.63700 42.04500
H  51.47500 18.27300 43.07500
H  56.45200 18.60200 46.07000
H  57.63000 18.13600 44.67300
H  56.72500 16.92500 45.66000
H  58.58000 22.55300 44.83600
H  57.93000 24.93600 46.43800
H  58.02800 22.85800 47.80900
H  59.59600 22.61100 47.12000
H  58.45800 21.27100 47.05100
H  58.27400 24.87600 43.47800
H  59.67000 24.51600 44.31700
H  59.97100 26.97200 44.69200
H  58.39400 26.95300 45.22800
H  58.73500 27.03400 43.38400
H  55.30600 29.27900 45.11100
H  54.68300 29.08900 46.75500
H  53.71400 29.70000 45.40400
H  49.41100 27.07100 44.42000
H  48.19500 27.45900 40.38800
H  47.58200 28.98700 41.23400
H  46.87000 27.32400 41.47400
Mg 7.20100 54.06800 41.47300
C  6.76900 50.53200 41.54300
C  10.52600 53.23100 40.44600
C  7.71100 57.37100 40.91900
C  3.82100 54.45000 41.53600
N  8.45900 52.10900 40.99200
C  8.06800 50.81900 41.08300
C  9.23600 49.81600 40.96700
C  10.45500 50.73900 41.03900
C  9.75700 52.12000 40.80300
C  11.39100 50.71500 42.29400
C  9.29800 48.83200 39.79800
C  9.07800 49.48000 38.42900
H  7.72600 49.17100 37.74800
N  8.96200 55.16300 40.91000
C  10.18900 54.68000 40.46300
C  11.08900 55.82000 40.35500
C  10.27500 56.99400 40.45600
C  8.88100 56.56300 40.75600
C  12.55500 55.61600 40.07600
C  10.81300 58.41500 40.40100
O  11.97000 58.56600 40.04300
C  10.01100 59.58100 40.79700
N  5.93800 55.62600 41.32200
C  6.39600 56.94800 41.17600
C  5.15200 57.83800 41.14800
C  3.93100 56.96600 41.39200
C  4.56600 55.59600 41.39500
C  5.17600 59.14100 42.06500
C  2.89200 57.14400 40.23000
C  1.41800 56.74300 40.53200
N  5.60600 52.87100 41.64000
C  4.24000 53.07400 41.68600
C  3.49000 51.92200 41.93200
C  4.45600 50.95700 42.03400
C  5.70000 51.51500 41.73800
C  2.05300 51.80600 42.20400
C  4.73000 49.52500 42.28000
O  3.98100 48.66200 42.63500
C  6.19300 49.13000 41.78600
C  5.79700 48.35700 40.62800
O  5.24900 48.79700 39.61300
O  6.12400 46.98700 40.89200
C  5.89500 45.89500 39.86700
H  11.59800 53.05600 40.32900
H  7.79200 58.46000 40.88200
H  2.76700 54.59200 41.78700
H  9.28000 49.17200 41.84500
H  11.14000 50.54800 40.21300
H  11.23200 49.84300 42.93000
H  11.25500 51.61300 42.89600
H  12.44900 50.78200 42.04300
H  8.58500 48.02200 39.95000
H  10.22600 48.26100 39.83800
H  9.82700 49.17800 37.69700
H  9.26700 50.54900 38.52700
H  12.67200 55.10400 39.12100
H  12.88600 54.97200 40.89100
H  13.09700 56.56100 40.05600
H  10.70600 60.34300 41.15100
H  9.33000 59.34000 41.61300
H  9.47800 60.08300 39.99000
H  5.05200 58.23400 40.13700
H  3.59400 57.15700 42.41100
H  5.74000 59.88700 41.50600
H  5.80500 58.87600 42.91500
H  4.21300 59.33600 42.53700
H  3.26400 56.57200 39.38000
H  2.82700 58.21900 40.06100
H  1.31100 56.56200 41.60200
H  1.13500 55.82200 40.02200
H  0.80900 57.61300 40.28900
H  1.54600 51.26000 41.40800
H  1.63300 52.81200 42.17400
H  1.85400 51.36700 43.18100
H  6.71100 48.63100 42.60500
H  4.86100 45.55200 39.83600
H  6.64000 45.10700 39.97500
H  6.06300 46.32500 38.87900

