158

Mg 7.61000 2.40600 28.34300
C  9.32100 0.95400 31.09600
C  5.69000 4.10800 30.49400
C  5.92400 3.37900 25.74800
C  9.35700 0.01600 26.31000
N  7.52900 2.46700 30.60600
C  8.35400 1.89800 31.51100
C  8.07300 2.36300 32.94900
C  6.78400 3.28000 32.72600
C  6.64400 3.32500 31.20500
C  5.54600 3.00100 33.51300
C  9.38600 2.97000 33.47600
C  9.84300 2.47100 34.85300
H  10.36500 3.54400 35.81800
N  6.12900 3.71100 28.14300
C  5.40100 4.27800 29.11200
C  4.33200 5.12600 28.54600
C  4.48400 5.07300 27.19700
C  5.54100 3.95600 26.94100
C  3.48300 6.03200 29.34800
C  3.85300 5.89300 26.10100
O  4.18600 5.67100 24.94300
C  2.79900 6.92600 26.43900
N  7.54300 1.69000 26.31000
C  6.83800 2.42000 25.39600
C  7.07800 1.86900 23.98200
C  8.28000 0.88900 24.20200
C  8.43000 0.80600 25.68600
C  5.77500 1.16500 23.20000
C  9.66500 1.30100 23.54800
C  10.70600 2.08700 24.34700
N  8.90000 0.70300 28.65800
C  9.54600 -0.11100 27.72800
C  10.47300 -1.01600 28.35100
C  10.40600 -0.64200 29.71500
C  9.47000 0.42600 29.83300
C  11.39900 -1.96000 27.65500
C  10.94500 -0.88900 31.01500
O  11.80700 -1.68600 31.41600
C  10.23000 0.03600 32.02200
C  9.54700 -0.78100 33.10800
O  8.42100 -1.22100 33.06800
O  10.31200 -0.85000 34.21600
C  9.60200 -1.08800 35.49400
H  5.10400 4.59800 31.27500
H  5.27000 3.67500 24.92500
H  9.92600 -0.60900 25.61900
H  7.69500 1.45700 33.42300
H  7.04800 4.25500 33.13800
H  5.47900 3.70200 34.34500
H  5.49100 2.02500 33.99600
H  4.68600 3.16000 32.86300
H  9.24200 4.05000 33.51400
H  10.13500 2.87400 32.69100
H  10.64200 1.75800 34.65000
H  9.03600 1.98000 35.39800
H  2.44300 6.01300 29.02200
H  3.77000 7.08000 29.26500
H  3.45800 5.71900 30.39200
H  3.23600 7.54800 27.22000
H  1.85200 6.48100 26.74300
H  2.68000 7.62400 25.61000
H  7.32900 2.65200 23.26700
H  7.95000 -0.07600 23.81800
H  4.84400 1.37000 23.72900
H  5.86900 0.09100 23.35500
H  5.70600 1.41000 22.14000
H  9.38100 1.93400 22.70700
H  10.07700 0.39500 23.10400
H  11.64200 1.53100 24.39200
H  10.22800 2.35100 25.29100
H  11.04200 2.88400 23.68500
H  11.59800 -1.50000 26.68700
H  10.89700 -2.91100 27.47800
H  12.29900 -2.14800 28.24100
H  10.92400 0.65400 32.59100
H  10.18300 -0.96900 36.40800
H  9.23900 -2.11300 35.57800
H  8.70300 -0.47800 35.57700
Mg 1.83000 42.82200 25.35500
C  3.45000 42.86900 28.53300
C  -0.92700 41.81300 26.90200
C  0.63200 42.66200 22.23600
C  5.13400 43.68000 23.91600
N  1.36200 42.29000 27.53200
C  2.09000 42.50500 28.64700
C  1.18300 42.35300 29.88800
C  -0.16300 41.86500 29.27000
C  0.09500 42.02800 27.79700
C  -0.59100 40.40200 29.60100
C  1.05300 43.81400 30.53600
C  1.48800 43.98200 32.03500
H  0.90100 43.18000 33.15800
N  0.12400 42.38300 24.70600
C  -0.94400 41.97100 25.50200
C  -2.05300 41.80500 24.63600
C  -1.65000 42.18800 23.33000
C  -0.24100 42.41400 23.33300
C  -3.39800 41.24700 25.18200
C  -2.49100 42.30000 22.00800
O  -1.97500 42.68300 20.92100
C  -4.00300 42.10800 22.14500
N  2.81600 42.97300 23.38100
C  1.98900 42.99000 22.25500
C  2.80600 43.23900 21.00300
C  4.14300 43.74900 21.55100
C  4.06300 43.43600 23.03200
C  3.03200 41.96800 20.11700
C  4.40200 45.23100 21.30000
C  4.70900 45.65200 19.87600
N  3.83700 43.37300 25.99200
C  5.01600 43.60800 25.32800
C  6.04200 43.82800 26.31900
C  5.50200 43.44900 27.59300
C  4.16200 43.18300 27.32700
C  7.35500 44.32200 26.12800
C  5.84900 43.20500 28.98300
O  6.87300 43.28600 29.54600
C  4.47000 43.02800 29.70100
C  4.52100 41.77300 30.52200
O  4.87300 40.66800 30.19900
O  4.21400 42.10200 31.83100
C  4.51100 41.22800 32.91100
H  -1.88300 41.56600 27.36900
H  0.23000 42.65100 21.22100
H  6.15500 43.86800 23.57800
H  1.59000 41.62100 30.58600
H  -1.01300 42.49800 29.52400
H  -1.67300 40.28900 29.67000
H  -0.25400 40.07700 30.58600
H  -0.29500 39.73100 28.79500
H  0.00400 44.10800 30.51400
H  1.72400 44.41200 29.91900
H  1.26500 45.03000 32.23500
H  2.56900 43.88800 32.14500
H  -4.26000 41.89800 25.04100
H  -3.36400 41.04200 26.25200
H  -3.69400 40.36500 24.61500
H  -4.50800 42.04700 21.18100
H  -4.36200 42.86900 22.83700
H  -4.15200 41.14400 22.63100
H  2.34600 44.06300 20.45800
H  5.08700 43.29100 21.25500
H  4.07000 41.64900 20.02300
H  2.81000 42.18400 19.07200
H  2.59900 41.07200 20.56200
H  5.23400 45.49800 21.95200
H  3.53500 45.86100 21.49900
H  4.97900 44.85700 19.18000
H  5.56600 46.32600 19.89300
H  3.79500 46.14400 19.54300
H  7.82200 44.48600 27.09900
H  7.40200 45.15200 25.42400
H  7.97200 43.48900 25.79100
H  4.29500 43.85800 30.38500
H  5.59700 41.13100 32.90800
H  3.99500 40.27400 32.79700
H  4.11700 41.56100 33.87100

