158

Mg 35.00400 48.04700 26.54100
C  35.40000 46.25200 29.47600
C  33.99900 50.78100 28.41400
C  34.22200 49.51000 23.53600
C  35.78600 45.04600 24.71100
N  34.69000 48.41400 28.63700
C  35.05300 47.56500 29.68500
C  34.79700 48.21600 31.04500
C  33.99400 49.47200 30.62700
C  34.24400 49.58400 29.16600
C  32.41200 49.22200 30.90200
C  36.18800 48.57700 31.67600
C  36.35700 48.24600 33.17100
H  36.22200 49.39400 34.11900
N  34.28100 49.92600 26.03700
C  33.98800 50.91400 26.96500
C  33.86200 52.10900 26.11500
C  33.78200 51.78000 24.70800
C  34.07800 50.33800 24.68000
C  33.67500 53.47400 26.71600
C  33.58900 52.67900 23.48500
O  33.62000 52.21700 22.34200
C  33.32200 54.26000 23.72000
N  34.91100 47.33100 24.41600
C  34.56000 48.19600 23.39800
C  34.82200 47.57200 22.00200
C  35.41800 46.12800 22.35700
C  35.34100 46.14200 23.90900
C  33.56500 47.48700 21.04400
C  36.80300 45.91000 21.76600
C  36.74000 45.07600 20.38900
N  35.45400 46.03700 26.93300
C  35.71300 44.92200 26.11500
C  36.04800 43.77700 26.95600
C  35.92300 44.25100 28.26000
C  35.53500 45.60300 28.22500
C  36.45200 42.43300 26.61500
C  35.93200 43.88700 29.64200
O  36.07900 42.86600 30.22900
C  35.71900 45.18400 30.44400
C  34.56500 44.95300 31.37200
O  33.38300 44.96600 31.13600
O  35.12300 44.90700 32.63800
C  34.19200 44.85700 33.75800
H  33.62000 51.65100 28.95500
H  34.12400 49.86900 22.50900
H  36.07800 44.20700 24.07600
H  34.23900 47.46600 31.60600
H  34.26000 50.41200 31.11000
H  31.75600 49.30100 30.03500
H  32.38100 50.06200 31.59600
H  32.21200 48.32200 31.48200
H  36.41700 49.63500 31.55200
H  36.97400 48.06100 31.12500
H  37.36300 47.89000 33.39500
H  35.73700 47.43700 33.55600
H  32.72000 53.93500 26.46400
H  34.43900 54.18200 26.39500
H  33.80100 53.46200 27.79900
H  33.22700 54.74400 22.74800
H  34.23200 54.68900 24.13800
H  32.44000 54.40200 24.34500
H  35.55600 48.17900 21.47100
H  34.69800 45.35600 22.08700
H  33.77300 47.84900 20.03700
H  32.77200 48.01600 21.57300
H  33.28100 46.43700 20.96400
H  37.51000 45.33600 22.36500
H  37.29300 46.87500 21.63600
H  37.41300 45.44500 19.61500
H  35.72800 45.22200 20.01200
H  37.00100 44.05000 20.64900
H  37.48100 42.32400 26.95900
H  36.49400 42.36800 25.52800
H  35.79600 41.71200 27.10300
H  36.65900 45.34000 30.97200
H  34.62400 44.22500 34.53400
H  33.25600 44.40900 33.42600
H  33.95400 45.84600 34.15000
Mg -9.83300 16.84800 40.96700
C  -6.29900 16.61000 41.07000
C  -9.42900 20.22800 40.21600
C  -13.05800 16.97100 39.94200
C  -10.03800 13.49800 41.40200
N  -8.10500 18.21400 40.53300
C  -6.81500 17.85000 40.65300
C  -5.90600 19.02100 40.28800
C  -6.90600 20.23100 40.53800
C  -8.25700 19.50800 40.50100
C  -6.56200 21.15300 41.83200
C  -5.37500 19.06600 38.81500
C  -3.76700 18.85600 38.62000
H  -3.37300 17.57600 37.98700
N  -11.12900 18.44000 40.23500
C  -10.75600 19.69200 39.97600
C  -11.85500 20.44900 39.55200
C  -12.95800 19.55400 39.53900
C  -12.43400 18.26600 39.93700
C  -11.76300 21.95000 39.29500
C  -14.32200 19.92500 38.97200
O  -14.67100 21.06200 38.77300
C  -15.39500 18.90100 38.73000
N  -11.26800 15.31400 40.27500
C  -12.51900 15.69200 40.16700
C  -13.52900 14.59200 40.58400
C  -12.51900 13.38500 40.87400
C  -11.23500 14.11700 40.89800
C  -14.44000 14.93300 41.77600
C  -12.37200 12.21600 39.87200
C  -12.92600 10.89800 40.30000
N  -8.50600 15.30000 41.16000
C  -8.71600 13.94000 41.36700
C  -7.46900 13.28400 41.65100
C  -6.50600 14.28100 41.53300
C  -7.16100 15.51000 41.26200
C  -7.35300 11.84000 42.03500
C  -5.07500 14.54100 41.69100
O  -4.22300 13.80200 42.08900
C  -4.91500 16.17300 41.41700
C  -4.54100 16.74000 42.75900
O  -5.25600 17.02100 43.69500
O  -3.18300 16.75600 42.70700
C  -2.54800 17.20500 43.82500
H  -9.14300 21.28100 40.25500
H  -14.14500 17.03600 40.02700
H  -10.13000 12.46300 41.73900
H  -5.04500 19.11900 40.94800
H  -6.92300 20.91100 39.68700
H  -6.64900 22.22900 41.68000
H  -5.55300 20.98100 42.20700
H  -7.31700 20.93100 42.58700
H  -5.50400 20.05000 38.36300
H  -5.90800 18.32600 38.21800
H  -3.25200 18.88400 39.58000
H  -3.28400 19.67500 38.08700
H  -12.11500 22.53100 40.14800
H  -12.36400 22.21000 38.42400
H  -10.70700 22.21500 39.23200
H  -16.26700 19.35200 38.25700
H  -15.71200 18.50700 39.69600
H  -15.03100 18.06300 38.13500
H  -14.12900 14.36900 39.70200
H  -12.57800 13.06400 41.91400
H  -14.22000 14.48400 42.74400
H  -15.43800 14.56300 41.54100
H  -14.40900 16.01700 41.88800
H  -11.33600 11.93600 39.68300
H  -12.86400 12.40100 38.91800
H  -13.01800 10.84700 41.38500
H  -12.17700 10.13100 40.10300
H  -13.83600 10.59000 39.78500
H  -8.35400 11.41200 42.07800
H  -6.72200 11.63300 42.89900
H  -6.91000 11.41500 41.13400
H  -4.31100 16.37500 40.53200
H  -2.96300 16.67700 44.68300
H  -2.83100 18.24700 43.97000
H  -1.46400 17.11800 43.74300

