158

Mg 8.69400 3.68200 27.24100
C  10.12300 1.98900 29.85100
C  6.94400 5.61800 29.42100
C  7.15300 5.08900 24.63200
C  9.77800 1.15700 25.02200
N  8.52100 3.72000 29.45300
C  9.40700 3.05800 30.30500
C  9.22400 3.58500 31.63300
C  8.05600 4.70800 31.57200
C  7.81500 4.72300 30.05500
C  6.79100 4.29500 32.40500
C  10.56100 4.13200 32.21600
C  11.08500 3.63100 33.56500
H  10.97800 4.69300 34.74300
N  7.36900 5.30000 27.01900
C  6.66700 5.96200 28.06600
C  5.82000 6.96300 27.59400
C  5.95100 6.88500 26.16200
C  6.87700 5.74800 25.85600
C  4.97100 7.85500 28.42800
C  5.37400 7.86400 25.02600
O  5.75600 7.76100 23.85800
C  4.42500 8.98000 25.36900
N  8.41700 3.17300 25.17300
C  7.86900 4.02100 24.32400
C  8.02700 3.47600 22.78000
C  9.07900 2.32900 22.94800
C  9.04900 2.19200 24.44700
C  6.71600 3.03600 22.05200
C  10.48700 2.56000 22.38200
C  11.22200 1.36700 21.83800
N  9.70500 1.87300 27.33100
C  10.17700 0.95400 26.36900
C  11.00500 -0.02200 27.00700
C  11.05100 0.40100 28.40600
C  10.19700 1.51500 28.52500
C  11.80100 -1.11200 26.39900
C  11.62500 0.15300 29.65200
O  12.33600 -0.76400 30.07000
C  10.99700 1.09000 30.64300
C  10.37800 0.24200 31.75400
O  9.50700 -0.58200 31.68800
O  11.03300 0.50100 32.89100
C  10.53300 -0.05500 34.16300
H  6.41200 6.35400 30.02700
H  6.62300 5.50100 23.77100
H  10.10500 0.32400 24.39700
H  8.99500 2.71900 32.25400
H  8.28100 5.72900 31.88000
H  6.02100 3.98900 31.69800
H  6.48500 5.14100 33.02100
H  7.05000 3.42000 33.00100
H  10.39700 5.20900 32.22000
H  11.36500 3.95100 31.50200
H  12.16500 3.54600 33.44200
H  10.61000 2.72200 33.93300
H  5.00000 7.67000 29.50200
H  3.93100 7.76300 28.11400
H  5.37100 8.86400 28.33200
H  3.49000 8.59200 25.77300
H  4.13800 9.53400 24.47600
H  4.99200 9.66700 25.99900
H  8.59700 4.22300 22.22600
H  8.74300 1.39800 22.49100
H  5.87000 3.41300 22.62700
H  6.65300 1.94900 21.99500
H  6.69300 3.42700 21.03500
H  11.17600 2.82400 23.18500
H  10.45500 3.31100 21.59300
H  12.23900 1.34900 22.22800
H  11.34900 1.34300 20.75600
H  10.74700 0.42200 22.10400
H  11.40800 -1.46500 25.44600
H  11.90900 -1.96200 27.07300
H  12.81400 -0.71000 26.37000
H  11.75600 1.67100 31.16700
H  9.62400 0.41200 34.54200
H  11.25700 0.15000 34.95200
H  10.37100 -1.13300 34.13700
Mg 48.03600 34.16500 26.73600
C  46.32900 33.00700 29.50800
C  48.43400 37.30700 28.25100
C  49.07200 35.48200 23.85400
C  47.16000 31.25300 25.01700
N  47.57200 35.00900 28.69600
C  46.83100 34.32400 29.64800
C  46.54900 35.23700 30.93800
C  47.11300 36.64800 30.41400
C  47.72600 36.31700 29.00900
C  45.98300 37.63100 30.28800
C  47.28800 34.80500 32.24200
C  46.43200 34.68200 33.47000
H  46.16600 36.02000 34.16800
N  48.95000 36.02700 26.19800
C  49.05600 37.18600 26.95800
C  49.93800 38.11200 26.21000
C  50.08500 37.61100 24.86300
C  49.36800 36.34200 24.87300
C  50.47900 39.35000 26.95900
C  50.87200 38.21600 23.66900
O  50.93200 37.70500 22.53900
C  51.61800 39.50000 23.95600
N  48.12600 33.44700 24.70300
C  48.57300 34.16700 23.67600
C  48.56900 33.42600 22.34700
C  48.07400 31.99600 22.77700
C  47.78800 32.26700 24.21400
C  47.72300 34.19700 21.34500
C  49.01100 30.79400 22.61200
C  50.22400 30.81600 23.58900
N  46.91900 32.43300 27.10600
C  46.76700 31.30700 26.39500
C  46.01100 30.35300 27.25000
C  45.81400 30.97300 28.49300
C  46.41900 32.25500 28.37000
C  45.60800 29.01600 26.73700
C  45.22400 30.79400 29.74400
O  44.64700 29.80100 30.17400
C  45.44900 32.17600 30.44400
C  46.05700 31.74500 31.77800
O  47.24900 31.55700 31.99400
O  45.04600 31.43400 32.71300
C  45.41500 31.10800 34.05700
H  48.46200 38.26500 28.77300
H  49.53000 35.82300 22.92200
H  46.91500 30.25500 24.64600
H  45.49200 35.26900 31.20000
H  47.92600 37.03000 31.03000
H  45.72700 38.01700 29.30200
H  46.27400 38.49700 30.88300
H  45.09800 37.32000 30.84400
H  48.03500 35.54800 32.51900
H  47.98000 33.99500 32.01200
H  47.03300 33.98600 34.05400
H  45.48000 34.27800 33.12500
H  49.82700 39.53500 27.81300
H  50.55000 40.21100 26.29500
H  51.43900 39.08800 27.40300
H  52.16200 39.62800 24.89200
H  50.86500 40.27800 23.82900
H  52.24300 39.68000 23.08100
H  49.57800 33.30000 21.95500
H  47.11600 31.67500 22.37000
H  47.22400 35.06000 21.78500
H  46.98900 33.55500 20.85800
H  48.42400 34.56800 20.59700
H  49.34400 30.74600 21.57500
H  48.44500 29.86300 22.65300
H  50.42700 31.77700 24.06000
H  50.99400 30.38900 22.94600
H  49.93300 30.21300 24.44900
H  44.53100 28.98100 26.57400
H  45.84300 28.19500 27.41300
H  46.11200 28.77800 25.80000
H  44.51900 32.71000 30.63800
H  46.33500 31.63700 34.30600
H  45.58700 30.04400 34.22000
H  44.49200 31.38700 34.56400

