158

Mg 46.26500 25.76500 28.26300
C  47.37800 27.90600 30.88000
C  44.89200 23.72700 30.59900
C  45.38500 23.88900 25.79400
C  47.62500 28.12400 26.03800
N  46.17600 25.82200 30.51800
C  46.70500 26.79300 31.34600
C  46.20400 26.53600 32.76200
C  45.76600 25.02500 32.78700
C  45.52900 24.84500 31.17900
C  47.05600 24.17400 33.17400
C  45.12200 27.59000 33.18300
C  45.54100 28.29000 34.49700
H  44.60400 28.44300 35.71900
N  45.41300 23.93900 28.19900
C  44.88500 23.26800 29.24200
C  44.25200 22.02900 28.79600
C  44.41900 21.99200 27.34400
C  45.05400 23.33500 27.03800
C  43.70300 20.92600 29.74200
C  43.97500 20.96000 26.33400
O  44.16400 21.14300 25.15600
C  43.22800 19.84800 26.73700
N  46.39800 26.08100 26.20200
C  45.97900 25.11800 25.39700
C  46.68400 25.28800 23.98900
C  47.15600 26.75700 23.94800
C  47.02000 27.03000 25.46200
C  47.75300 24.15800 23.63200
C  46.27400 27.77600 23.11400
C  47.13000 28.48500 22.02700
N  47.30900 27.53800 28.35200
C  47.79200 28.40200 27.37700
C  48.63600 29.45700 27.89300
C  48.39700 29.31900 29.24700
C  47.56300 28.15200 29.50900
C  49.32200 30.59900 27.15400
C  48.57100 30.05500 30.52900
O  49.13100 31.11500 30.78300
C  47.92400 29.13300 31.66100
C  49.04900 28.77700 32.55000
O  50.05100 28.23200 32.24400
O  48.65700 28.95500 33.86200
C  49.57900 28.48400 34.91900
H  44.54400 23.03100 31.36500
H  45.28300 23.15000 24.99600
H  48.00200 28.88400 25.35000
H  46.98800 26.58900 33.51800
H  44.86700 24.85100 33.38000
H  46.76700 23.40400 33.89000
H  47.91100 24.62800 33.67600
H  47.38800 23.66100 32.27200
H  44.10900 27.23200 33.37100
H  45.16300 28.38000 32.43300
H  45.63800 29.33100 34.19100
H  46.52900 27.96200 34.82100
H  42.80000 20.43200 29.38600
H  43.38800 21.23000 30.74100
H  44.45500 20.15500 29.91100
H  43.75400 19.22800 27.46300
H  42.84300 19.22700 25.92800
H  42.30600 20.27300 27.13400
H  45.85400 25.22400 23.28600
H  48.22600 26.83200 23.75400
H  47.80800 23.50100 24.50000
H  48.72000 24.55500 23.32400
H  47.34900 23.63900 22.76200
H  45.85800 28.51400 23.79900
H  45.50500 27.26000 22.53900
H  46.75200 29.50700 22.04100
H  46.87300 28.08800 21.04500
H  48.21500 28.43900 22.12200
H  48.99800 30.60000 26.11400
H  50.38400 30.36300 27.22400
H  49.28000 31.53800 27.70600
H  47.18700 29.86400 31.99500
H  50.29000 29.26800 35.18000
H  50.06700 27.52300 34.75100
H  48.95100 28.32900 35.79600
Mg 48.40400 45.48500 42.71800
C  44.91600 45.01300 42.62800
C  48.82100 41.99700 42.21700
C  51.60800 46.00500 42.26000
C  47.72900 49.00200 42.59600
N  47.04500 43.76600 42.39100
C  45.62800 43.76300 42.36400
C  45.02000 42.34800 42.23400
C  46.27700 41.42300 42.27200
C  47.49500 42.45100 42.28200
C  46.27700 40.43200 43.46500
C  44.26100 42.26900 40.85900
C  44.87100 42.94600 39.62400
H  45.19300 42.08600 38.47400
N  50.08900 44.12800 42.38200
C  50.01500 42.80500 42.17900
C  51.34300 42.35100 41.96500
C  52.21100 43.45800 42.02200
C  51.35100 44.61700 42.28400
C  51.64500 40.90300 41.51600
C  53.67000 43.44600 41.92700
O  54.29100 42.40800 41.64500
C  54.41600 44.71900 42.32400
N  49.47300 47.25900 42.43700
C  50.82600 47.19200 42.33000
C  51.38500 48.53700 41.99200
C  50.21700 49.52700 42.23300
C  49.02400 48.56600 42.45100
C  52.63500 48.92300 42.93100
C  50.01000 50.49100 40.98000
C  50.21000 52.00400 41.26800
N  46.67600 46.80100 42.59000
C  46.58800 48.19900 42.58300
C  45.20600 48.62000 42.76900
C  44.57500 47.42300 42.78200
C  45.49300 46.35000 42.71700
C  44.77000 49.99800 42.88200
C  43.25700 46.79000 42.88000
O  42.14400 47.32000 43.05100
C  43.39700 45.31200 42.71000
C  42.91700 44.66200 43.94500
O  43.41300 44.66300 45.03200
O  41.84600 43.81700 43.64400
C  41.24200 43.10600 44.79800
H  48.95400 40.96200 41.89400
H  52.59100 46.38600 41.97800
H  47.56800 50.07900 42.67200
H  44.25000 42.27700 43.00200
H  46.35200 40.89000 41.32300
H  46.83000 40.91200 44.27200
H  46.62300 39.45000 43.14300
H  45.29600 40.40700 43.94000
H  43.26100 42.69600 40.93700
H  44.11400 41.23800 40.53900
H  45.83500 43.37000 39.90900
H  44.27600 43.80600 39.31800
H  50.80100 40.24200 41.71400
H  52.47100 40.45100 42.06300
H  51.82400 40.77900 40.44800
H  53.97600 45.23800 43.17600
H  54.50900 45.33800 41.43200
H  55.42300 44.42200 42.61700
H  51.67800 48.49400 40.94300
H  50.34400 50.12800 43.13300
H  52.97500 48.04800 43.48500
H  52.40600 49.59800 43.75500
H  53.42200 49.48600 42.42900
H  48.98200 50.30400 40.67100
H  50.73700 50.17600 40.23100
H  50.43600 52.39500 42.26000
H  49.31800 52.51200 40.90100
H  51.00400 52.25400 40.56400
H  43.96200 50.24200 42.19200
H  45.59700 50.69900 42.77100
H  44.29500 50.12600 43.85400
H  42.89700 44.95300 41.81000
H  41.99300 42.57900 45.38600
H  40.35200 42.50300 44.61700
H  40.93000 43.85300 45.52800

