158

Mg 8.27900 3.93900 27.73100
C  9.56000 2.41500 30.61200
C  6.50600 6.05600 29.49200
C  7.09900 5.18800 24.70900
C  10.04600 1.44100 25.82800
N  8.07000 4.12400 29.82900
C  8.72600 3.51200 30.87900
C  8.32900 4.10800 32.22000
C  7.26000 5.14900 31.78200
C  7.26600 5.14700 30.25900
C  5.83300 4.77300 32.35100
C  9.51500 4.76800 32.84900
C  9.44700 5.32700 34.30600
H  10.42600 4.61800 35.32500
N  6.92600 5.38200 27.19200
C  6.42400 6.24000 28.10800
C  5.68600 7.22800 27.46700
C  5.81800 6.97700 26.02700
C  6.60000 5.77700 25.93500
C  5.02700 8.24500 28.20100
C  5.15200 7.78700 24.82900
O  5.23500 7.47400 23.62700
C  4.48200 9.10200 25.17100
N  8.43800 3.28800 25.55300
C  7.88600 4.00200 24.52300
C  8.31200 3.43000 23.17800
C  9.27500 2.23900 23.52200
C  9.25200 2.29300 25.05000
C  7.16300 3.03300 22.22100
C  10.71700 2.43600 22.98000
C  11.42800 1.31300 22.23000
N  9.51500 2.28100 28.04400
C  10.13900 1.35500 27.22200
C  10.85100 0.40700 28.02100
C  10.66300 0.81400 29.36800
C  9.80800 1.92100 29.35200
C  11.52400 -0.86100 27.64600
C  11.04300 0.58200 30.74200
O  11.79500 -0.25700 31.26900
C  10.30700 1.51300 31.60900
C  9.44700 0.68200 32.45900
O  8.41300 0.07600 32.14100
O  9.91900 0.80600 33.79700
C  9.19700 0.15900 34.90100
H  5.82600 6.61300 30.14000
H  6.81500 5.73900 23.81000
H  10.43000 0.59800 25.24900
H  8.02200 3.35900 32.95000
H  7.52400 6.17400 32.04300
H  5.77900 4.16400 33.25300
H  5.14700 4.37300 31.60500
H  5.38100 5.68400 32.74300
H  9.76900 5.62200 32.22100
H  10.37900 4.11200 32.95600
H  8.50400 5.04100 34.77100
H  9.55800 6.41100 34.34300
H  5.24900 8.32300 29.26500
H  3.95100 8.07000 28.19000
H  5.16200 9.24900 27.80000
H  3.82100 9.52000 24.41200
H  5.23800 9.85100 25.40500
H  3.80700 8.99700 26.02100
H  8.73700 4.27400 22.63400
H  8.96200 1.21600 23.31400
H  6.13300 2.99700 22.57400
H  7.44900 2.08200 21.77300
H  7.10400 3.69500 21.35700
H  11.29300 2.67800 23.87400
H  10.68400 3.30200 22.31800
H  11.51800 1.76000 21.24000
H  10.75100 0.46000 22.27400
H  12.32200 1.10600 22.81800
H  12.56700 -0.70700 27.37100
H  11.02500 -1.32300 26.79500
H  11.32500 -1.51900 28.49200
H  11.14600 1.90300 32.18600
H  9.65100 -0.83100 34.93000
H  8.12100 0.00300 34.81500
H  9.34200 0.65100 35.86200
Mg -0.82100 34.53900 27.01000
C  -2.97600 32.80300 29.15200
C  -0.26300 36.79800 29.47200
C  0.96400 36.42600 24.81900
C  -2.24200 32.80700 24.27600
N  -1.35300 34.58100 29.11900
C  -2.14100 33.75600 29.82300
C  -2.30200 34.16500 31.27000
C  -1.59900 35.58300 31.35000
C  -1.07100 35.73300 29.86500
C  -2.57100 36.75700 31.63700
C  -1.76200 33.17400 32.36200
C  -2.32700 33.30400 33.78100
H  -1.64100 32.59300 35.01200
N  0.27700 36.35600 27.14100
C  0.35000 37.15300 28.24600
C  1.16200 38.38000 27.92800
C  1.51800 38.25800 26.61400
C  0.93600 36.96100 26.14800
C  1.43800 39.48200 28.84300
C  2.42000 39.19600 25.74200
O  2.74800 38.95600 24.61900
C  3.04600 40.40500 26.49400
N  -0.71900 34.56100 24.83200
C  0.21400 35.41700 24.23200
C  0.30800 35.05500 22.74300
C  -0.54800 33.71800 22.56200
C  -1.13700 33.62000 24.00000
C  -0.06800 36.18000 21.73000
C  0.22800 32.55100 22.06300
C  1.32200 31.99000 22.96800
N  -2.19600 33.02900 26.68800
C  -2.76400 32.57900 25.55900
C  -3.80000 31.58500 25.90500
C  -3.82400 31.62700 27.29200
C  -2.95200 32.56500 27.75600
C  -4.63900 30.75400 25.05000
C  -4.51600 31.02800 28.50300
O  -5.34800 30.19900 28.49400
C  -4.00300 31.79200 29.73900
C  -5.19400 32.44100 30.44400
O  -5.68600 33.54100 30.15500
O  -5.78800 31.49700 31.37000
C  -6.81700 32.12900 32.18900
H  -0.03200 37.45700 30.31100
H  1.42900 37.05100 24.05500
H  -2.76100 32.34500 23.43300
H  -3.38400 34.29100 31.30700
H  -0.76600 35.61700 32.05300
H  -2.19500 37.30000 32.50300
H  -3.55200 36.47000 32.01500
H  -2.75800 37.49600 30.85700
H  -0.72700 33.46100 32.54800
H  -1.75200 32.10900 32.13400
H  -3.29200 32.80600 33.68500
H  -2.49000 34.36500 33.96500
H  2.43900 39.56400 29.26700
H  0.78500 39.43500 29.71400
H  1.02100 40.41600 28.46700
H  2.15000 40.98000 26.72900
H  3.77900 40.89700 25.85300
H  3.64900 39.97500 27.29400
H  1.37600 34.94300 22.55600
H  -1.40500 33.77200 21.89200
H  -0.41400 37.14400 22.10200
H  -0.83400 35.86800 21.02000
H  0.85000 36.39800 21.18500
H  0.59800 32.72900 21.05300
H  -0.36200 31.65400 21.87600
H  1.32400 32.49600 23.93300
H  2.25200 32.32000 22.50500
H  1.14200 30.92100 23.08100
H  -4.21300 29.75400 24.97200
H  -4.90300 31.26000 24.12100
H  -5.57700 30.65600 25.59800
H  -3.54400 31.01800 30.35400
H  -7.51900 32.75900 31.64300
H  -6.31000 32.84600 32.83600
H  -7.45200 31.51500 32.82800

