158

Mg 26.01900 50.75200 27.08300
C  23.62300 51.99400 29.28600
C  28.05600 49.98800 29.54100
C  28.34200 49.93200 24.74300
C  23.96900 52.16000 24.44600
N  25.88400 51.09400 29.18500
C  24.79100 51.40800 29.93600
C  25.01700 51.07300 31.44900
C  26.46300 50.71800 31.46000
C  26.87900 50.61600 29.98400
C  27.36100 51.72400 32.23200
C  24.02800 49.95900 32.02000
C  23.52800 50.29000 33.46700
H  24.40400 51.14800 34.41700
N  27.87100 50.01700 27.10200
C  28.58000 49.73100 28.27500
C  29.76600 49.06000 27.94700
C  29.91300 49.17200 26.50100
C  28.68800 49.75000 26.06200
C  30.70200 48.51800 28.99500
C  31.11000 48.85500 25.61000
O  31.13800 49.19400 24.40200
C  32.47500 48.33900 26.20500
N  26.10900 51.02800 24.89200
C  27.13800 50.45500 24.15200
C  26.80700 50.59000 22.65000
C  25.41600 51.31600 22.61300
C  25.15500 51.55300 24.08200
C  27.90200 51.38100 21.87200
C  24.17400 50.64400 21.94300
C  23.94200 50.98500 20.46400
N  24.18000 51.92400 26.82800
C  23.44200 52.27200 25.74900
C  22.22700 52.92300 26.13600
C  22.23300 52.86600 27.55200
C  23.45600 52.26000 27.93600
C  21.20200 53.45600 25.17300
C  21.45000 53.09700 28.74100
O  20.34300 53.60000 28.82900
C  22.29900 52.52600 29.87300
C  22.46700 53.61600 30.85300
O  23.16200 54.64700 30.74700
O  21.62800 53.38300 31.85300
C  21.73100 54.49600 32.91700
H  28.61700 49.75600 30.44900
H  28.96500 49.49400 23.96000
H  23.58500 52.72900 23.59700
H  24.89400 52.07600 31.85700
H  26.61500 49.73600 31.90900
H  27.63500 51.50900 33.26500
H  26.88900 52.70400 32.16100
H  28.27700 51.77600 31.64300
H  24.67300 49.09600 32.18700
H  23.16600 49.76100 31.38200
H  23.37400 49.32600 33.95200
H  22.58000 50.82800 33.47500
H  30.46900 48.94000 29.97300
H  31.74800 48.78800 28.84800
H  30.64600 47.43100 29.04300
H  32.18800 47.34700 26.55300
H  32.80700 48.97400 27.02600
H  33.28400 48.19400 25.48900
H  26.78600 49.56700 22.27500
H  25.63200 52.30900 22.21700
H  28.04400 50.95200 20.88000
H  28.79900 51.15800 22.45000
H  27.77900 52.45300 21.71600
H  23.28100 50.73300 22.56200
H  24.49300 49.60200 21.95300
H  24.71700 51.65600 20.09500
H  22.94700 51.38700 20.27100
H  24.00800 50.05800 19.89400
H  21.39800 54.47100 24.82600
H  20.21200 53.51200 25.62700
H  21.13100 52.84100 24.27700
H  21.61700 51.72600 30.15900
H  21.21900 55.39000 32.55900
H  22.74100 54.67400 33.28700
H  21.12100 54.18300 33.76400
Mg -4.33300 25.05500 25.64200
C  -2.78100 26.53300 28.41900
C  -5.62300 22.69900 27.93400
C  -5.44100 23.25900 22.99200
C  -2.67200 27.26900 23.62600
N  -4.28000 24.70400 27.94900
C  -3.57300 25.48200 28.79700
C  -4.13000 25.13700 30.22500
C  -4.73500 23.73200 30.08700
C  -4.98600 23.74500 28.58000
C  -3.89600 22.53200 30.56800
C  -5.15900 26.20500 30.72200
C  -5.11400 26.25000 32.25500
H  -5.03600 24.87100 32.93000
N  -5.34200 23.29100 25.47400
C  -5.76800 22.53900 26.53200
C  -6.47800 21.42200 26.04900
C  -6.40400 21.43200 24.60000
C  -5.69400 22.69300 24.27300
C  -7.12400 20.47600 27.02100
C  -6.89100 20.48000 23.53800
O  -6.59600 20.56700 22.35100
C  -7.72700 19.24500 23.89500
N  -3.84500 25.07900 23.53900
C  -4.68600 24.38300 22.65700
C  -4.63500 25.01200 21.25500
C  -3.70800 26.24300 21.45000
C  -3.38900 26.22300 22.98300
C  -4.12800 24.08300 20.09900
C  -4.33700 27.59200 21.13300
C  -4.38900 27.98100 19.62000
N  -3.01300 26.65200 25.93700
C  -2.37000 27.45300 24.95800
C  -1.55100 28.43200 25.60500
C  -1.63600 28.10400 26.99300
C  -2.50800 26.98400 27.14200
C  -0.86900 29.51500 24.96300
C  -1.14600 28.39800 28.35600
O  -0.30800 29.18800 28.70600
C  -1.90100 27.43800 29.34500
C  -0.98200 26.71400 30.20300
O  -0.46000 25.69000 29.90500
O  -0.94400 27.32600 31.43100
C  -0.20300 26.51700 32.46000
H  -6.10400 22.04100 28.66000
H  -5.89600 22.79300 22.11600
H  -2.25200 27.97100 22.90300
H  -3.31400 25.12000 30.94800
H  -5.73200 23.72000 30.52800
H  -3.95900 21.67100 29.90200
H  -4.13500 22.14300 31.55800
H  -2.84300 22.77500 30.43000
H  -6.17300 25.92000 30.44100
H  -4.96700 27.14600 30.20700
H  -5.91700 26.90700 32.59100
H  -4.13600 26.68600 32.45900
H  -7.70400 20.96100 27.80700
H  -6.31000 19.86600 27.41200
H  -7.65500 19.69600 26.47700
H  -8.60400 19.47600 24.50000
H  -7.10200 18.54900 24.45400
H  -8.08200 18.68300 23.03100
H  -5.61100 25.26200 20.84000
H  -2.76000 26.05200 20.94800
H  -3.32200 23.42600 20.42600
H  -3.65500 24.70400 19.33900
H  -4.90900 23.52800 19.57900
H  -3.73200 28.40100 21.54100
H  -5.30900 27.76500 21.59600
H  -5.45100 28.12800 19.42400
H  -4.01800 27.19200 18.96500
H  -3.79700 28.88700 19.48700
H  0.03800 29.71100 25.53600
H  -1.41800 30.45000 24.84600
H  -0.61200 29.28500 23.92900
H  -2.60200 28.00200 29.96100
H  0.71800 27.08000 32.61600
H  0.09900 25.51200 32.16500
H  -0.77200 26.45600 33.38700

