158

Mg 54.18500 22.83500 45.41600
C  51.85700 24.98400 43.68400
C  52.43000 20.17100 44.15000
C  56.88500 21.19700 46.01400
C  55.86500 25.91000 46.30800
N  52.37200 22.66000 44.12800
C  51.62700 23.63000 43.53100
C  50.41300 23.07600 42.72700
C  50.42200 21.48400 43.22200
C  51.88200 21.42100 43.78000
C  49.33400 21.10600 44.30900
C  50.52500 23.10400 41.21200
C  49.11700 23.26900 40.46300
H  49.01700 22.55900 39.11000
N  54.60700 20.91900 45.09500
C  53.69600 19.91000 44.72600
C  54.47700 18.64700 44.74700
C  55.78700 18.97600 45.24900
C  55.83700 20.39600 45.48700
C  53.89200 17.39200 44.20800
C  56.86100 17.91900 45.41500
O  56.60900 16.72900 45.15800
C  58.32200 18.16700 45.97700
N  56.12200 23.56800 46.14300
C  57.06600 22.57500 46.35100
C  58.43300 23.21300 46.72800
C  57.96100 24.66900 47.08800
C  56.60200 24.76800 46.43300
C  59.42600 22.45700 47.68900
C  58.90700 25.84000 46.57600
C  59.11400 26.90300 47.63200
N  53.91900 25.01200 45.11100
C  54.62800 26.08300 45.60600
C  53.97800 27.32700 45.22500
C  52.84800 26.96900 44.47300
C  52.89300 25.54900 44.39400
C  54.45300 28.58700 45.76700
C  51.75100 27.42800 43.69900
O  51.42300 28.57300 43.53300
C  51.05700 26.16500 43.15200
C  51.27200 26.31300 41.70500
O  52.33700 26.16000 41.11300
O  50.12800 26.73600 41.10700
C  50.26700 27.27700 39.82200
H  51.87900 19.28300 43.83300
H  57.68600 20.52300 46.32700
H  56.37900 26.79900 46.67900
H  49.48600 23.51800 43.09000
H  50.08900 20.78500 42.45500
H  49.13900 20.03700 44.22000
H  48.43100 21.70800 44.20800
H  49.70900 21.33200 45.30700
H  50.84000 22.12100 40.86100
H  51.26900 23.86900 40.99100
H  48.90600 24.32600 40.30300
H  48.32400 22.88500 41.10500
H  52.94100 17.50900 43.68900
H  53.93900 16.57100 44.92400
H  54.61200 17.01100 43.48400
H  58.85500 19.00500 45.52800
H  58.92100 17.26000 45.89800
H  58.18700 18.25300 47.05500
H  58.88900 23.25400 45.73800
H  57.94200 24.83600 48.16500
H  59.64800 23.11800 48.52700
H  60.28000 22.24500 47.04500
H  59.04400 21.45000 47.85500
H  58.55200 26.32600 45.66700
H  59.92500 25.45200 46.61300
H  60.19600 27.02400 47.69700
H  58.49100 26.83500 48.52300
H  58.71500 27.80700 47.17100
H  55.41900 28.82800 45.32300
H  54.59700 28.50100 46.84400
H  53.68700 29.31300 45.49500
H  50.01700 26.19700 43.47800
H  50.86300 28.18200 39.93800
H  49.26500 27.55200 39.48900
H  50.70000 26.57400 39.11100
Mg -4.59900 25.72200 25.99500
C  -2.81200 27.02200 28.55600
C  -6.46800 23.89700 28.10200
C  -6.46700 24.43400 23.33400
C  -2.49000 27.17800 23.65500
N  -4.71100 25.60600 28.03400
C  -3.88500 26.18300 28.92400
C  -4.29500 25.92500 30.39600
C  -5.36300 24.80100 30.25700
C  -5.49300 24.69000 28.67100
C  -4.94000 23.36200 30.90400
C  -4.97500 27.19700 31.14600
C  -5.43500 26.94600 32.54300
H  -4.86700 25.82500 33.46300
N  -6.13600 24.23700 25.75000
C  -6.84400 23.68400 26.77800
C  -7.99000 22.86000 26.30200
C  -7.92400 22.90500 24.85400
C  -6.80700 23.87500 24.59700
C  -8.93600 22.09900 27.23000
C  -8.81000 22.34000 23.74900
O  -8.49500 22.36000 22.57000
C  -10.05900 21.65600 24.04700
N  -4.47800 25.74600 23.77600
C  -5.44000 25.23500 22.93900
C  -5.23800 25.72700 21.52300
C  -3.97300 26.60300 21.62900
C  -3.63800 26.54700 23.13800
C  -5.14200 24.58800 20.44900
C  -3.89500 28.02100 20.96900
C  -4.20800 29.29400 21.74700
N  -2.80600 26.72100 26.03800
C  -2.06100 27.30300 24.99500
C  -1.03000 28.13200 25.54800
C  -1.25300 28.00800 26.94100
C  -2.40400 27.20300 27.17900
C  -0.29700 29.10600 24.77700
C  -0.87700 28.62400 28.28100
O  -0.08300 29.48700 28.53000
C  -1.92500 28.00600 29.28500
C  -1.21300 27.32500 30.34800
O  -0.51100 26.35700 30.18100
O  -1.41400 28.02400 31.55400
C  -0.70700 27.49400 32.72100
H  -7.17200 23.37600 28.75400
H  -7.11800 24.25700 22.47500
H  -1.94300 27.70400 22.87000
H  -3.50400 25.51700 31.02500
H  -6.34500 25.04100 30.66400
H  -4.88800 22.64200 30.08700
H  -5.66900 23.01800 31.63800
H  -4.05000 23.54900 31.50400
H  -5.85100 27.44900 30.54700
H  -4.28200 28.03800 31.13900
H  -6.49400 26.75100 32.37300
H  -5.24700 27.87700 33.07800
H  -8.60800 22.33000 28.24300
H  -8.99300 21.04100 26.97500
H  -9.91700 22.53300 27.03400
H  -10.39700 21.08500 23.18300
H  -10.82200 22.41400 24.22300
H  -9.93300 21.05800 24.95000
H  -6.18900 26.24700 21.41000
H  -3.19500 26.11300 21.04200
H  -6.17700 24.47600 20.12500
H  -4.81100 23.59600 20.75500
H  -4.61000 24.92900 19.56100
H  -4.55500 28.04300 20.10100
H  -2.91500 28.09400 20.49700
H  -4.33400 29.07800 22.80800
H  -5.19700 29.61100 21.41800
H  -3.44900 30.07400 21.68500
H  -0.24800 29.99700 25.40300
H  -0.66300 29.47100 23.81800
H  0.73900 28.78200 24.67300
H  -2.58800 28.76000 29.70800
H  0.33900 27.24600 32.54100
H  -1.20800 26.60300 33.09600
H  -0.74200 28.14700 33.59300

