158

Mg 49.25800 46.33100 43.09300
C  46.10000 46.87500 42.12800
C  49.18000 43.24600 41.39000
C  52.75500 46.03500 43.23000
C  49.55500 49.72100 44.06400
N  47.80900 45.30400 41.79300
C  46.56500 45.61700 41.60500
C  45.88400 44.64700 40.63100
C  46.77500 43.33400 40.76600
C  47.99700 43.96000 41.37700
C  46.11900 42.27700 41.68500
C  46.01700 45.22000 39.18000
C  44.80200 45.04900 38.20900
H  45.00100 44.03500 37.15500
N  50.74700 44.78800 42.59500
C  50.47300 43.63400 41.81000
C  51.78000 42.90900 41.58500
C  52.73200 43.62000 42.30700
C  52.12900 44.86700 42.80000
C  51.94600 41.60500 40.86900
C  54.14900 43.21900 42.45400
O  54.41000 42.16600 41.96300
C  55.11900 44.02200 43.24100
N  50.90100 47.66500 43.51000
C  52.21100 47.30000 43.57200
C  53.08400 48.51400 44.03700
C  52.06800 49.59300 44.37400
C  50.74000 48.91600 44.03900
C  54.13000 48.24900 45.10800
C  52.16200 51.07900 43.76000
C  52.18600 52.23500 44.85300
N  48.09000 47.99500 43.22600
C  48.29300 49.25300 43.69000
C  46.94700 49.87100 43.80500
C  46.07700 48.94300 43.18800
C  46.86000 47.85100 42.78600
C  46.56000 51.19100 44.36900
C  44.67700 48.79200 42.80100
O  43.72300 49.52700 42.88700
C  44.67400 47.42500 42.12800
C  43.85700 46.47300 42.99900
O  44.36200 45.72500 43.81700
O  42.49000 46.66100 42.81000
C  41.52400 45.96700 43.69300
H  49.04400 42.28000 40.89900
H  53.81700 46.09000 43.48000
H  49.74600 50.75500 44.36000
H  44.82700 44.58500 40.88900
H  46.89500 42.89900 39.77400
H  46.32900 42.39400 42.74800
H  46.40000 41.27900 41.34800
H  45.02900 42.31000 41.67700
H  46.94200 44.89400 38.70400
H  46.26800 46.27900 39.24900
H  44.51500 46.01900 37.80200
H  43.95600 44.66600 38.77900
H  50.97300 41.36500 40.44100
H  52.22100 40.78100 41.52800
H  52.72100 41.65300 40.10400
H  56.02800 43.42600 43.33000
H  54.65900 44.15700 44.22000
H  55.44700 44.99000 42.86300
H  53.69000 48.78800 43.17400
H  51.86200 49.78000 45.42800
H  54.38100 47.23000 45.40200
H  53.77100 48.70100 46.03200
H  55.06700 48.74300 44.85400
H  51.42800 51.26300 42.97500
H  53.16500 51.25800 43.37300
H  51.66500 52.14100 45.80600
H  51.70600 53.09700 44.39100
H  53.23600 52.46400 45.03700
H  45.68400 51.09300 45.00900
H  46.24100 51.74000 43.48300
H  47.28900 51.78300 44.92300
H  44.39900 47.56600 41.08300
H  41.00900 45.15400 43.18100
H  40.76800 46.67500 44.03400
H  41.90900 45.36200 44.51400
Mg -5.70900 25.13900 26.34500
C  -4.39300 26.63000 29.28300
C  -7.52600 22.99300 28.17400
C  -7.07400 23.90500 23.56500
C  -3.71000 27.32500 24.53200
N  -5.90800 24.93700 28.49400
C  -5.34200 25.61400 29.53000
C  -5.95100 25.10300 30.93300
C  -6.51800 23.73400 30.49700
C  -6.64900 23.86600 28.96100
C  -5.53100 22.59700 30.92000
C  -7.06200 26.04600 31.49300
C  -7.56000 25.78400 32.89800
H  -6.68200 24.81700 33.83000
N  -7.20400 23.69800 25.86600
C  -7.78900 22.87600 26.79700
C  -8.75500 22.00100 26.12300
C  -8.56500 22.21000 24.72400
C  -7.57300 23.28400 24.62400
C  -9.74800 21.10600 26.87000
C  -9.26800 21.50700 23.57500
O  -8.93000 21.73900 22.41000
C  -10.42600 20.45300 23.79300
N  -5.42300 25.56700 24.37500
C  -6.13500 24.91600 23.33900
C  -5.62400 25.44200 21.95900
C  -4.72200 26.64200 22.33500
C  -4.63800 26.53800 23.84500
C  -4.93900 24.28900 21.09400
C  -5.24500 27.91300 21.78100
C  -5.16000 28.13700 20.20700
N  -4.18200 26.63700 26.77800
C  -3.43300 27.40100 25.89900
C  -2.37500 28.13200 26.68200
C  -2.79000 27.88100 28.03300
C  -3.89400 26.98700 28.04700
C  -1.40400 29.17000 26.17700
C  -2.61700 28.30400 29.43600
O  -1.88900 29.15400 29.89800
C  -3.64300 27.47100 30.26900
C  -2.88300 26.68700 31.29300
O  -2.46600 25.54700 31.20500
O  -2.87100 27.42400 32.52600
C  -2.06200 26.80200 33.53200
H  -8.06400 22.41700 28.93000
H  -7.50800 23.57500 22.61900
H  -3.00500 27.84700 23.88000
H  -5.15900 24.92900 31.66100
H  -7.42700 23.58400 31.07900
H  -4.47100 22.85100 30.90400
H  -5.68600 21.77800 30.21800
H  -5.75500 22.40500 31.96900
H  -7.83800 26.04400 30.72800
H  -6.66700 27.05800 31.41000
H  -8.55700 25.34400 32.88800
H  -7.57800 26.71600 33.46200
H  -9.56800 20.03400 26.78700
H  -10.80000 21.11100 26.58200
H  -9.71100 21.50700 27.88200
H  -10.75600 19.94700 22.88600
H  -11.31000 20.96700 24.17000
H  -10.11900 19.69600 24.51500
H  -6.52500 25.80000 21.46100
H  -3.72000 26.44000 21.95400
H  -5.39600 24.13500 20.11700
H  -5.24100 23.36600 21.58800
H  -3.86300 24.34900 20.93100
H  -4.60600 28.73700 22.09800
H  -6.25800 28.12200 22.12400
H  -4.90600 27.20500 19.70200
H  -4.52300 28.99500 19.99400
H  -6.15600 28.47200 19.91500
H  -1.97700 29.95700 25.68900
H  -0.57400 28.80000 25.57500
H  -0.78700 29.67800 26.91800
H  -4.42200 28.05800 30.75700
H  -2.50300 25.84300 33.80500
H  -2.04900 27.47600 34.38900
H  -1.03400 26.69000 33.19000

