158

Mg 1.06800 8.16200 27.24800
C  1.20200 10.58200 29.83400
C  1.45100 5.74100 29.76200
C  1.36200 5.66700 24.94200
C  1.28000 10.52800 24.92100
N  1.27700 8.18200 29.52500
C  1.10200 9.26000 30.35000
C  1.10900 8.89000 31.84300
C  1.30300 7.37300 31.79300
C  1.31200 7.04200 30.28500
C  2.62700 6.86100 32.56000
C  -0.14600 9.46800 32.56400
C  -0.02200 9.89000 34.08400
H  -0.66900 8.86800 35.03500
N  1.18000 5.99100 27.27100
C  1.33900 5.26300 28.42900
C  1.35400 3.85700 28.06800
C  1.17600 3.80200 26.65700
C  1.19700 5.18300 26.21000
C  1.53700 2.65700 28.99800
C  1.06600 2.58900 25.76800
O  0.84400 2.65800 24.55300
C  1.02900 1.23100 26.37200
N  1.26500 8.12200 25.26400
C  1.38500 7.00900 24.48300
C  1.43700 7.35300 22.98400
C  1.48000 8.91000 22.96700
C  1.28800 9.19900 24.47300
C  2.53800 6.70200 22.06900
C  0.31100 9.64300 22.18000
C  0.76100 10.56300 21.02300
N  1.18500 10.20500 27.30200
C  1.25100 11.04700 26.25200
C  1.41200 12.39500 26.79200
C  1.48600 12.30000 28.18400
C  1.27800 10.92400 28.43300
C  1.71600 13.59600 25.98200
C  1.70400 13.04800 29.44900
O  1.96300 14.23800 29.64700
C  1.42900 11.91000 30.58800
C  2.65800 11.84300 31.49900
O  3.71500 11.30000 31.28800
O  2.17100 12.42100 32.61700
C  3.11400 12.30800 33.75600
H  1.59300 4.96400 30.51700
H  1.23400 4.84300 24.23700
H  1.27500 11.41200 24.28000
H  1.98800 9.25000 32.37700
H  0.45000 6.88600 32.26500
H  3.19200 7.60700 33.11800
H  3.32500 6.37200 31.88100
H  2.29900 6.02100 33.17300
H  -0.97300 8.75800 32.56700
H  -0.59100 10.26700 31.97100
H  -0.39400 10.87000 34.38200
H  1.04400 9.93700 34.30900
H  2.23900 1.92500 28.59800
H  0.52700 2.32300 29.23600
H  2.04900 2.95000 29.91500
H  0.41000 1.06500 27.25400
H  2.05600 1.06400 26.69600
H  0.91100 0.41000 25.66500
H  0.49900 7.02900 22.53100
H  2.40800 9.30300 22.55100
H  3.39800 6.24400 22.55700
H  2.95300 7.43500 21.37700
H  2.04100 5.93600 21.47300
H  -0.35000 10.09200 22.92100
H  -0.39800 8.91200 21.79100
H  1.81400 10.84100 20.98000
H  0.14700 11.46200 20.97400
H  0.68100 10.10900 20.03500
H  2.53500 13.30200 25.32600
H  1.94700 14.46400 26.59900
H  0.80900 13.79900 25.41300
H  0.53600 12.15700 31.16300
H  3.98000 11.66300 33.61200
H  2.54200 11.85600 34.56600
H  3.19300 13.34300 34.08800
Mg 41.53000 40.70700 26.67800
C  40.99300 43.11100 29.29600
C  42.62600 38.63800 29.07000
C  42.28700 38.53600 24.10500
C  40.84900 43.11000 24.32600
N  41.81400 40.88200 28.89100
C  41.40600 41.89500 29.77500
C  41.52700 41.51400 31.19800
C  42.35500 40.19700 31.08200
C  42.17100 39.83100 29.62000
C  43.88600 40.29000 31.62300
C  40.20600 41.46900 32.04900
C  40.21700 42.28600 33.39100
H  39.54500 41.62800 34.56000
N  42.26900 38.85900 26.57100
C  42.61600 38.14200 27.68900
C  43.22900 36.86200 27.27000
C  43.12700 36.81900 25.83000
C  42.54200 38.09800 25.40400
C  43.82600 35.79100 28.20400
C  43.59100 35.71700 24.85100
O  43.55700 35.90200 23.61000
C  44.17500 34.36100 25.34900
N  41.51900 40.80200 24.48000
C  41.87700 39.80500 23.64800
C  41.70900 40.18200 22.14300
C  41.18200 41.63900 22.28500
C  41.18800 41.88700 23.79700
C  42.98400 39.99600 21.32200
C  39.74600 41.93700 21.62400
C  39.75800 43.03900 20.52600
N  40.98300 42.64500 26.68500
C  40.76900 43.54100 25.72200
C  40.42400 44.84200 26.23700
C  40.39500 44.71500 27.66400
C  40.83300 43.37300 27.90800
C  40.08900 46.06300 25.42800
C  40.05100 45.35100 28.94500
O  39.50100 46.41700 29.09600
C  40.50700 44.36200 30.06100
C  41.69000 45.13100 30.69300
O  42.77400 45.31000 30.10800
O  41.33000 45.46000 31.95100
C  42.45900 46.02500 32.81300
H  43.00800 37.92400 29.80300
H  42.51300 38.04500 23.15600
H  40.49500 43.91200 23.67500
H  42.13500 42.32000 31.61100
H  41.73600 39.56000 31.71400
H  44.09000 41.13300 32.28400
H  44.53400 40.22000 30.74900
H  44.04100 39.35700 32.16400
H  39.91100 40.44500 32.27400
H  39.38900 41.81000 31.41300
H  39.59100 43.11400 33.06100
H  41.18700 42.75300 33.56000
H  43.93200 36.13700 29.23200
H  44.87200 35.61900 27.94800
H  43.19000 34.90600 28.20900
H  44.52600 33.75000 24.51700
H  43.38100 33.90900 25.94500
H  45.07300 34.41500 25.96300
H  40.97900 39.46200 21.77500
H  41.96800 42.22400 21.80700
H  43.80400 39.77000 22.00300
H  43.26000 40.83500 20.68400
H  42.97500 39.21300 20.56300
H  38.99800 42.18000 22.37900
H  39.31600 41.06300 21.13400
H  39.76100 42.46300 19.60100
H  40.72500 43.53600 20.60900
H  38.94700 43.76600 20.56600
H  39.02300 46.28800 25.45100
H  40.36200 46.00200 24.37500
H  40.64900 46.86500 25.90900
H  39.69300 44.26000 30.77800
H  41.95800 46.89800 33.23200
H  43.35900 46.32200 32.27400
H  42.69100 45.24100 33.53400

