158

Mg 26.03800 1.59900 28.63000
C  27.81900 1.22200 31.59300
C  23.20400 1.97500 30.70300
C  24.18100 1.90700 25.85200
C  28.96400 1.14400 26.82500
N  25.68200 1.64600 30.90000
C  26.51500 1.43700 31.90300
C  25.86700 1.48400 33.29800
C  24.40400 1.85500 32.97400
C  24.38400 1.79800 31.44800
C  23.35900 0.87700 33.67000
C  26.51200 2.53900 34.23500
C  25.73200 2.93800 35.52800
H  26.42000 2.83400 36.87900
N  23.92200 1.79400 28.30800
C  22.97300 1.93400 29.27700
C  21.67000 1.99300 28.58400
C  21.93300 2.13200 27.19300
C  23.39900 1.94000 27.04100
C  20.41500 1.94500 29.32500
C  20.92600 2.30700 26.07200
O  21.31700 2.28600 24.91100
C  19.51000 2.51800 26.41100
N  26.42300 1.32000 26.61900
C  25.54900 1.63900 25.66700
C  26.17200 1.60100 24.27200
C  27.63800 1.11000 24.58400
C  27.72900 1.35800 26.14600
C  25.53400 0.70300 23.17100
C  28.65400 1.80700 23.64500
C  29.93000 1.07800 23.40200
N  27.98900 1.25400 29.05100
C  29.11200 1.08700 28.21100
C  30.28500 0.80500 28.98400
C  29.89600 0.99200 30.23200
C  28.45900 1.14800 30.29700
C  31.65300 0.53100 28.50600
C  30.36000 1.01300 31.67500
O  31.48600 0.92700 32.14300
C  29.06300 1.13200 32.51300
C  29.05000 -0.07200 33.39500
O  28.62600 -1.17500 33.13200
O  29.44400 0.29600 34.68100
C  29.16100 -0.57200 35.81700
H  22.32600 2.02400 31.35100
H  23.67300 2.27600 24.95800
H  29.81500 0.95300 26.16900
H  26.03000 0.51300 33.76600
H  24.07800 2.85000 33.27600
H  22.65200 1.34300 34.35700
H  23.88100 0.17100 34.31700
H  22.86200 0.33900 32.86300
H  26.67300 3.44000 33.64300
H  27.45300 2.14900 34.62200
H  24.93800 2.19300 35.58100
H  25.27800 3.91400 35.35800
H  19.78200 1.19300 28.85500
H  19.91900 2.89700 29.13400
H  20.30800 1.68800 30.37800
H  18.91800 2.57600 25.49800
H  19.33500 3.45100 26.94600
H  19.03200 1.71100 26.96700
H  26.10200 2.60300 23.84900
H  27.55500 0.02300 24.55800
H  25.79400 -0.34000 23.35000
H  25.85400 1.13900 22.22500
H  24.47200 0.79000 23.40400
H  28.94400 2.79200 24.01300
H  28.25700 1.95200 22.64100
H  29.89800 0.11800 23.91700
H  30.72600 1.74600 23.73400
H  30.02200 0.98300 22.32000
H  31.77600 1.20000 27.65400
H  31.69600 -0.51500 28.20200
H  32.42800 0.72200 29.24800
H  29.07000 2.05800 33.08800
H  30.00400 -0.45300 36.49700
H  29.18400 -1.62000 35.51600
H  28.14400 -0.40800 36.17300
Mg -10.73400 16.85500 41.08400
C  -7.27300 16.41400 41.24400
C  -10.23400 20.14600 40.47400
C  -13.95800 16.98300 39.95900
C  -11.06000 13.42900 41.76800
N  -8.89600 18.08900 40.72200
C  -7.60000 17.65200 40.80600
C  -6.62500 18.89700 40.60100
C  -7.54900 20.14300 40.81200
C  -8.97200 19.43800 40.63000
C  -7.41600 20.70400 42.21900
C  -5.96000 18.83400 39.13800
C  -4.35200 18.65900 39.04200
H  -3.90700 17.40400 38.35500
N  -11.95900 18.31400 40.40100
C  -11.55300 19.62200 40.22900
C  -12.59800 20.42900 39.71000
C  -13.68900 19.54500 39.50900
C  -13.22500 18.18000 39.93900
C  -12.34600 21.87100 39.30700
C  -15.04000 19.85200 38.90500
O  -15.13700 21.05100 38.59500
C  -16.14500 18.96300 38.58500
N  -12.30900 15.39200 40.80900
C  -13.58400 15.71200 40.50400
C  -14.53400 14.54700 40.66900
C  -13.59500 13.44900 41.22300
C  -12.18100 14.10200 41.25000
C  -15.70700 14.91100 41.58000
C  -13.72800 11.99000 40.62200
C  -13.16900 11.76200 39.19300
N  -9.49200 15.18300 41.47300
C  -9.78300 13.90000 41.78300
C  -8.51300 13.18800 42.08400
C  -7.51500 14.10800 41.89500
C  -8.16700 15.33300 41.56100
C  -8.33400 11.72600 42.45100
C  -6.11400 14.28700 41.92300
O  -5.20800 13.44400 42.16400
C  -5.84400 15.84500 41.46100
C  -5.10100 16.56600 42.51500
O  -5.57000 17.43000 43.23700
O  -3.75400 16.23300 42.44300
C  -2.96800 17.02700 43.35400
H  -9.91900 21.17400 40.28300
H  -14.96300 16.87900 39.54400
H  -11.31000 12.40900 42.06700
H  -5.80500 19.05300 41.30200
H  -7.43800 20.94200 40.07900
H  -7.44300 19.85000 42.89500
H  -8.14300 21.44500 42.55300
H  -6.48800 21.27600 42.19300
H  -6.27200 19.78100 38.69600
H  -6.46600 18.16900 38.43900
H  -3.79000 18.84900 39.95700
H  -4.10200 19.40000 38.28300
H  -12.88500 22.31400 38.47000
H  -11.29000 21.93800 39.04500
H  -12.57700 22.50400 40.16400
H  -16.73200 18.60100 39.42900
H  -15.74500 18.12200 38.02000
H  -16.83800 19.48500 37.92500
H  -14.91100 14.24700 39.69200
H  -13.90600 13.23900 42.24700
H  -15.70600 15.98700 41.75100
H  -15.54700 14.50700 42.57900
H  -16.57900 14.51100 41.06200
H  -14.81300 11.89500 40.58000
H  -13.38800 11.24600 41.34300
H  -13.89500 11.22300 38.58400
H  -12.24600 11.18300 39.22700
H  -12.89700 12.69100 38.69100
H  -7.26200 11.55200 42.36000
H  -8.86500 11.02700 41.80600
H  -8.62600 11.52200 43.48200
H  -5.22800 15.69600 40.57400
H  -1.93000 16.73500 43.19700
H  -3.24600 16.79400 44.38200
H  -2.94500 18.11300 43.26600

