158

Mg -2.54700 16.79300 27.36200
C  -3.37700 14.56900 29.83100
C  -3.01300 19.36700 29.63700
C  -2.04600 19.13000 24.91000
C  -2.76000 14.32100 24.96000
N  -3.26100 16.93000 29.38400
C  -3.43300 15.90100 30.20700
C  -3.74900 16.35800 31.66200
C  -3.63000 17.89600 31.56600
C  -3.27900 18.07600 30.09700
C  -4.84400 18.84800 32.02900
C  -2.83100 15.83300 32.85600
C  -2.74300 16.70200 34.18000
H  -2.79000 15.97400 35.46800
N  -2.55200 18.96900 27.28200
C  -2.69000 19.78300 28.37000
C  -2.44600 21.15200 27.94000
C  -2.22600 21.12500 26.48300
C  -2.25500 19.75400 26.16200
C  -2.42600 22.33700 28.84200
C  -1.91200 22.31100 25.57800
O  -1.70600 22.16100 24.37700
C  -1.80100 23.64800 26.15700
N  -2.49800 16.72300 25.29500
C  -2.19500 17.84100 24.56300
C  -2.34500 17.45700 23.11800
C  -2.31400 15.89800 23.07200
C  -2.56800 15.63300 24.50900
C  -3.67700 17.93800 22.46300
C  -0.99900 15.25000 22.57400
C  0.22300 15.64000 23.40200
N  -2.81600 14.78200 27.38000
C  -2.85200 13.88300 26.33800
C  -3.06900 12.59400 26.85400
C  -3.17100 12.72800 28.21100
C  -3.13300 14.09600 28.47500
C  -2.96700 11.37300 26.08000
C  -3.31400 12.09800 29.50000
O  -3.50700 10.92000 29.81200
C  -3.33800 13.25700 30.57100
C  -2.09800 13.26000 31.34600
O  -1.13500 13.95500 31.13500
O  -2.22500 12.26400 32.30600
C  -1.09400 12.18900 33.27600
H  -3.16000 20.19700 30.33200
H  -1.79800 19.86300 24.13900
H  -2.75000 13.54800 24.18800
H  -4.78400 16.08300 31.86700
H  -2.76500 18.31100 32.08400
H  -4.53200 19.75900 32.54200
H  -5.52100 18.31300 32.69500
H  -5.51900 19.10700 31.21400
H  -1.80800 15.87300 32.48300
H  -3.15600 14.83100 33.13500
H  -3.50400 17.47900 34.25500
H  -1.79300 17.23500 34.22300
H  -3.18100 23.06400 28.54100
H  -1.50400 22.91800 28.85600
H  -2.52400 22.18200 29.91700
H  -1.53300 24.36900 25.38500
H  -0.98400 23.65400 26.87800
H  -2.77000 23.93600 26.56400
H  -1.44400 17.83000 22.63100
H  -3.09000 15.42100 22.47100
H  -4.33500 18.59100 23.03500
H  -4.27900 17.13400 22.03800
H  -3.33100 18.45300 21.56700
H  -0.71000 15.59800 21.58300
H  -1.14800 14.18500 22.39800
H  0.01200 16.27700 24.26100
H  0.77900 16.25400 22.69400
H  0.85600 14.80600 23.70400
H  -2.36600 11.63500 25.20900
H  -3.96000 11.10100 25.72300
H  -2.53500 10.47600 26.52500
H  -4.13000 12.95800 31.25700
H  -0.76700 11.16800 33.47400
H  -1.50100 12.72200 34.13500
H  -0.12300 12.59800 33.00000
Mg 40.83200 10.34200 29.52100
C  42.70300 11.54700 32.23300
C  38.84400 8.80200 32.05900
C  39.04500 8.94800 27.00500
C  43.18400 11.38300 27.25900
N  40.89700 10.03000 31.93800
C  41.59900 10.86500 32.77900
C  41.04500 10.90900 34.25300
C  40.06000 9.71400 34.15200
C  39.88800 9.51400 32.68500
C  40.60600 8.46600 34.79700
C  40.49700 12.31600 34.66200
C  39.91700 12.37000 36.11300
H  40.59700 13.21800 37.16300
N  39.21200 9.10200 29.52400
C  38.51500 8.60000 30.68400
C  37.43300 7.71100 30.21400
C  37.41400 7.84100 28.77300
C  38.62100 8.66800 28.32700
C  36.60200 6.85100 31.08500
C  36.58500 6.96100 27.82400
O  36.77600 6.86300 26.60500
C  35.42600 6.19200 28.36500
N  41.07300 10.24800 27.43300
C  40.17000 9.68800 26.59900
C  40.56100 9.83800 25.12000
C  41.77100 10.83100 25.21900
C  42.07500 10.69600 26.69800
C  40.86400 8.52700 24.42700
C  41.44300 12.29000 24.75200
C  41.05100 13.34200 25.80500
N  42.60900 11.16700 29.68500
C  43.45100 11.51100 28.66900
C  44.60000 12.21200 29.25100
C  44.34700 12.20100 30.64000
C  43.13800 11.51800 30.86700
C  45.76200 12.73700 28.59800
C  44.91200 12.64900 31.84200
O  45.91400 13.29800 32.12400
C  43.82100 12.29200 32.95800
C  44.46500 11.63500 34.13300
O  44.83300 10.48900 34.21300
O  44.51200 12.50600 35.22000
C  44.95200 12.02300 36.57000
H  38.16900 8.31400 32.76400
H  38.63000 8.42000 26.14400
H  43.94300 11.72800 26.55400
H  41.85800 10.61500 34.91700
H  39.12400 10.01500 34.62300
H  40.34900 7.61600 34.16600
H  40.18000 8.44200 35.80000
H  41.67000 8.57000 35.01100
H  39.79700 12.64700 33.89500
H  41.29200 13.05400 34.55100
H  40.01900 11.34300 36.46300
H  38.87000 12.67200 36.12100
H  35.57000 7.19300 31.00900
H  36.87100 6.85400 32.14100
H  36.64000 5.81000 30.76200
H  34.75000 6.00900 27.53000
H  34.86300 6.80600 29.06800
H  35.74300 5.32000 28.93900
H  39.76600 10.44800 24.69200
H  42.68200 10.40400 24.80000
H  41.70500 8.60900 23.73800
H  39.98600 8.26100 23.83800
H  41.07300 7.77300 25.18600
H  40.58800 12.24500 24.07800
H  42.26300 12.57100 24.09200
H  41.10100 12.91000 26.80500
H  40.01700 13.65700 25.66600
H  41.79900 14.11400 25.62300
H  45.54000 12.75600 27.53200
H  46.65600 12.12800 28.73600
H  46.09300 13.69800 28.99100
H  43.63200 13.25400 33.43600
H  45.72200 11.25600 36.48000
H  44.12700 11.67100 37.19000
H  45.42600 12.87400 37.05800

