158

Mg 25.45400 -8.07900 47.79300
C  28.28000 -5.88300 47.05700
C  23.83400 -6.48000 45.19800
C  23.28800 -10.55100 47.68600
C  27.68500 -10.01000 49.74100
N  26.08700 -6.43600 46.28700
C  27.25600 -5.72600 46.13100
C  27.15400 -4.83500 44.92300
C  25.64400 -4.97200 44.52700
C  25.11500 -6.09000 45.36300
C  24.85900 -3.63100 44.59400
C  28.05000 -5.12200 43.71100
C  28.70200 -3.86900 43.09300
H  28.19600 -3.38100 41.74300
N  23.66500 -8.31300 46.82000
C  23.12900 -7.48800 45.83900
C  21.77800 -7.93100 45.50300
C  21.59400 -9.08300 46.29400
C  22.84700 -9.38200 47.00600
C  20.90800 -7.28600 44.48600
C  20.18000 -9.85100 46.48900
O  19.24200 -9.54400 45.81500
C  19.95200 -10.89900 47.49400
N  25.63500 -10.11000 48.46500
C  24.49500 -10.91700 48.39700
C  24.66600 -12.07200 49.33400
C  26.11000 -11.96700 49.86500
C  26.47400 -10.61000 49.36700
C  23.59600 -12.22600 50.43200
C  27.11200 -13.15300 49.28900
C  27.67500 -13.97400 50.43200
N  27.47900 -7.93400 48.44000
C  28.23100 -8.77600 49.22600
C  29.52500 -8.38900 49.26700
C  29.51700 -7.15800 48.56200
C  28.25300 -6.94000 48.03900
C  30.65000 -9.11800 49.82300
C  30.46100 -6.12100 48.13100
O  31.61700 -5.87300 48.47700
C  29.66300 -5.25000 47.09000
C  29.59900 -3.78100 47.41300
O  29.85300 -3.30800 48.51200
O  29.37000 -3.13800 46.26700
C  29.65600 -1.65700 46.29300
H  23.25800 -5.97700 44.41800
H  22.54200 -11.33900 47.81100
H  28.21300 -10.65900 50.44200
H  27.36500 -3.82800 45.28300
H  25.54000 -5.39000 43.52600
H  23.84600 -3.77400 44.21800
H  25.27900 -2.88900 43.91400
H  24.82900 -3.24400 45.61300
H  27.44200 -5.56700 42.92300
H  28.79500 -5.90400 43.85600
H  29.73800 -4.17300 42.94800
H  28.61200 -3.02400 43.77500
H  21.14100 -7.48400 43.44000
H  21.06800 -6.21100 44.40700
H  19.87500 -7.51200 44.75100
H  20.32000 -10.61900 48.48200
H  20.56200 -11.71600 47.10900
H  18.93000 -11.26600 47.58800
H  24.56400 -12.90600 48.64000
H  26.12000 -11.95400 50.95500
H  23.36800 -13.29200 50.41700
H  22.67000 -11.68000 50.25200
H  24.04700 -11.85100 51.35100
H  27.95300 -12.68900 48.77400
H  26.70900 -13.73900 48.46300
H  28.71100 -13.75800 50.69600
H  27.75000 -15.04900 50.26600
H  27.12100 -13.83300 51.36000
H  30.77500 -9.96000 49.14300
H  30.36200 -9.69500 50.70200
H  31.64100 -8.66900 49.88700
H  30.20400 -5.32700 46.14700
H  29.99400 -1.22500 47.23500
H  28.76900 -1.13100 45.93800
H  30.42900 -1.48200 45.54400
Mg 36.21500 1.32200 29.81800
C  34.03200 2.58200 32.35100
C  38.60600 1.30900 32.35800
C  38.40200 0.70500 27.48800
C  33.69700 1.87500 27.46500
N  36.28600 1.97500 32.05500
C  35.32000 2.44200 32.82400
C  35.68500 2.42400 34.32100
C  37.21300 2.37200 34.24500
C  37.42900 1.89600 32.77600
C  38.06800 3.72600 34.55300
C  35.16500 1.16600 35.10500
C  34.74200 1.33100 36.56500
H  35.69000 2.15600 37.42300
N  38.18900 0.88900 29.91400
C  38.97400 0.84100 31.00700
C  40.31100 0.39500 30.67600
C  40.23400 0.27400 29.21900
C  38.91300 0.57800 28.80600
C  41.39800 0.17900 31.64700
C  41.28200 -0.18700 28.22100
O  41.15700 -0.39000 27.01600
C  42.58300 -0.68900 28.87400
N  36.03800 1.37300 27.75800
C  37.18700 1.21200 27.01800
C  36.92100 1.38300 25.51600
C  35.36500 1.53100 25.43500
C  34.94400 1.46300 26.95000
C  37.78900 2.54400 24.80100
C  34.62000 0.55200 24.46700
C  34.14800 -0.73700 25.07800
N  34.23300 2.03700 29.86400
C  33.37300 2.22800 28.88100
C  32.12600 2.71100 29.41700
C  32.30400 2.81700 30.78400
C  33.60500 2.39100 31.04800
C  30.91300 3.00800 28.54200
C  31.58000 3.20300 31.99700
O  30.41000 3.48600 32.16200
C  32.78100 2.93100 33.16500
C  32.85500 4.11800 33.95100
O  33.37500 5.15500 33.61300
O  32.43700 3.87800 35.25200
C  32.97300 4.93200 36.17200
H  39.28700 1.21700 33.20700
H  39.05100 0.44200 26.65000
H  32.88300 1.92400 26.73900
H  35.27300 3.36700 34.67900
H  37.64500 1.66000 34.94800
H  38.81300 3.93300 33.78400
H  38.62400 3.61200 35.48400
H  37.38700 4.57200 34.64100
H  35.83400 0.34100 34.86000
H  34.17900 0.89200 34.72900
H  34.83100 0.33800 37.00700
H  33.73800 1.73200 36.69700
H  41.80700 -0.80600 31.42300
H  41.03000 0.10500 32.67000
H  42.24900 0.85600 31.57500
H  42.94200 0.01500 29.62500
H  43.35500 -0.93800 28.14500
H  42.25600 -1.64600 29.28000
H  37.17900 0.45600 25.00300
H  35.17700 2.52700 25.03400
H  37.06300 3.35200 24.88800
H  37.99900 2.18900 23.79200
H  38.65200 2.82500 25.40400
H  35.37600 0.24200 23.74600
H  33.86800 0.96700 23.79700
H  34.92100 -1.50300 25.13100
H  33.30200 -1.08900 24.48800
H  33.87200 -0.72700 26.13200
H  30.53500 2.01300 28.30800
H  31.16500 3.46300 27.58500
H  30.16900 3.58400 29.09300
H  32.38900 2.10900 33.76400
H  32.39700 4.96000 37.09700
H  32.98100 5.97000 35.83900
H  34.00000 4.69600 36.45000

