158

Mg 17.30100 -1.30800 27.51000
C  16.43500 0.55500 30.33200
C  19.02100 -3.49300 29.64300
C  18.34600 -2.94100 24.81400
C  15.75100 1.14600 25.55700
N  17.77500 -1.36500 29.65300
C  17.28400 -0.50700 30.60400
C  17.78400 -0.91100 32.02300
C  18.73600 -2.10300 31.73000
C  18.47100 -2.41100 30.27700
C  20.22700 -1.73800 32.08200
C  16.54600 -1.24100 33.01500
C  16.44200 -0.62700 34.41400
H  17.76200 -0.10500 35.09600
N  18.54800 -3.03900 27.18100
C  19.04400 -3.83300 28.25900
C  19.68000 -4.90900 27.57400
C  19.64700 -4.76400 26.19500
C  18.78400 -3.63400 25.98700
C  20.25900 -6.07700 28.37500
C  20.26100 -5.53800 25.05000
O  20.09400 -5.13400 23.91100
C  21.07500 -6.78800 25.28000
N  17.13500 -0.92700 25.47100
C  17.65300 -1.77100 24.57400
C  17.38100 -1.23300 23.22000
C  16.23200 -0.14200 23.38400
C  16.43200 0.12600 24.90500
C  18.63500 -0.54700 22.54900
C  14.74200 -0.60600 22.99000
C  14.01300 -0.11900 21.66600
N  16.15100 0.43300 27.84700
C  15.53500 1.32700 26.97000
C  14.76600 2.27700 27.75200
C  15.09000 1.99000 29.05400
C  15.92700 0.90400 29.04900
C  13.80600 3.35300 27.18200
C  14.86000 2.40900 30.37300
O  14.07900 3.24500 30.89700
C  15.77000 1.54200 31.22400
C  16.72400 2.39200 31.99200
O  17.82800 2.70000 31.64500
O  15.98200 2.96100 33.06000
C  16.73600 4.03400 33.76700
H  19.61100 -4.17700 30.25600
H  18.76500 -3.39200 23.91200
H  15.11900 1.80100 24.95400
H  18.31800 -0.06300 32.45100
H  18.43100 -3.00100 32.26600
H  20.78800 -2.32100 31.35200
H  20.41600 -2.29300 33.00100
H  20.58800 -0.71100 32.11600
H  16.59600 -2.30500 33.24700
H  15.60700 -1.01900 32.50800
H  16.00500 -1.33500 35.11700
H  15.84700 0.28400 34.34400
H  21.32400 -5.92700 28.19800
H  19.94200 -7.07100 28.06000
H  19.91300 -6.07600 29.40800
H  21.50100 -7.17900 24.35600
H  20.55000 -7.61300 25.76200
H  21.82700 -6.39100 25.96200
H  17.01400 -2.02600 22.56900
H  16.66400 0.64400 22.76500
H  19.42200 -0.67300 23.29300
H  18.57800 0.44000 22.09000
H  18.87800 -1.18400 21.69900
H  14.10900 -0.34000 23.83700
H  14.77200 -1.69200 22.89500
H  13.18500 0.46900 22.06100
H  13.58400 -0.90000 21.03800
H  14.55700 0.64500 21.10900
H  12.89100 2.95000 26.74800
H  14.30800 4.01300 26.47500
H  13.44900 3.98500 27.99500
H  15.07200 1.06500 31.91300
H  16.22400 4.99600 33.74900
H  17.73600 4.28300 33.41300
H  16.90100 3.75900 34.80900
Mg 54.97100 24.13300 45.35300
C  52.20800 26.45000 44.87400
C  52.92900 21.77900 44.08400
C  57.61600 22.43900 45.05000
C  56.76700 26.99500 46.52500
N  52.87900 24.14800 44.64600
C  51.99600 25.18600 44.40400
C  50.66000 24.63500 43.77700
C  50.76700 23.10100 43.99200
C  52.31300 22.97400 44.27400
C  49.97600 22.55800 45.14000
C  50.46300 25.09600 42.27200
C  49.01200 25.34500 41.87400
H  48.49900 24.84100 40.52600
N  55.26000 22.33800 44.58000
C  54.33300 21.48300 44.13700
C  54.98100 20.32500 43.66000
C  56.39300 20.57800 43.70400
C  56.48300 21.81700 44.49100
C  54.32200 19.03300 43.13700
C  57.53600 19.63500 43.17400
O  57.12700 18.62100 42.60500
C  58.97200 19.90900 43.35400
N  56.97000 24.71700 45.77000
C  57.86300 23.68300 45.60200
C  59.29700 24.18200 46.14300
C  58.93700 25.64800 46.63900
C  57.46900 25.80500 46.27300
C  60.14300 23.29200 47.15700
C  59.71200 26.78700 45.87400
C  60.55400 27.70100 46.74400
N  54.51700 26.21400 45.90100
C  55.40700 27.22100 46.33000
C  54.69300 28.47500 46.46400
C  53.44300 28.16600 45.92700
C  53.40100 26.83900 45.55400
C  55.22500 29.80200 46.86300
C  52.20600 28.79900 45.51000
O  51.80400 29.97800 45.60400
C  51.40900 27.68900 44.74500
C  51.39900 28.12400 43.34600
O  52.44600 28.34300 42.66800
O  50.12100 28.41400 42.93500
C  50.04800 28.92300 41.53800
H  52.32500 20.98500 43.63900
H  58.45500 21.75800 44.89700
H  57.31300 27.81700 46.99200
H  49.88300 25.10500 44.37900
H  50.56700 22.60000 43.04500
H  50.60900 22.15400 45.93100
H  49.40100 21.75200 44.68400
H  49.33200 23.29800 45.61400
H  50.92900 24.39300 41.58100
H  50.99400 26.04400 42.18000
H  48.92900 26.42800 41.78800
H  48.36700 24.83100 42.58800
H  54.79600 18.11600 43.48600
H  54.49900 18.92000 42.06800
H  53.24000 19.03700 43.26300
H  59.30500 20.92800 43.15500
H  59.57600 19.28500 42.69600
H  59.28800 19.69700 44.37600
H  59.91500 24.40100 45.27300
H  59.18000 25.68800 47.70000
H  59.96200 22.21700 47.13100
H  60.09400 23.80200 48.11900
H  61.16300 23.54000 46.86500
H  59.09200 27.47300 45.29600
H  60.41200 26.35900 45.15700
H  60.49900 28.73500 46.40400
H  61.62000 27.47600 46.77700
H  60.19000 27.76500 47.76900
H  54.76200 30.21200 47.76000
H  54.87600 30.57400 46.17700
H  56.30900 29.73000 46.76800
H  50.39000 27.57400 45.11600
H  48.99400 29.02200 41.27600
H  50.59200 28.29100 40.83500
H  50.37800 29.96100 41.56500

