158

Mg 47.91400 25.63600 27.98000
C  48.82200 27.51600 30.64200
C  47.39700 22.93700 30.20900
C  47.56000 23.43200 25.31000
C  49.18100 27.90000 25.76600
N  48.05000 25.29400 30.17200
C  48.27500 26.32600 31.06200
C  48.01000 25.90500 32.52500
C  47.60900 24.40000 32.44000
C  47.70700 24.15300 30.89000
C  48.43700 23.45000 33.36400
C  47.14700 26.94200 33.29500
C  46.27700 26.40100 34.48600
H  46.11600 27.32200 35.73400
N  47.43400 23.50900 27.80400
C  47.24700 22.64500 28.81600
C  47.03900 21.32500 28.24500
C  46.97100 21.40900 26.90100
C  47.36200 22.80300 26.61100
C  46.80200 20.17000 29.10400
C  46.58900 20.40400 25.86100
O  46.84100 20.58500 24.68400
C  45.94700 19.12500 26.34500
N  48.47900 25.59400 25.86700
C  48.02400 24.66500 24.92100
C  47.99200 25.10800 23.51400
C  48.56900 26.52800 23.64100
C  48.77900 26.69500 25.23000
C  48.67400 24.22500 22.48700
C  47.77400 27.65400 22.96900
C  47.39200 27.47900 21.45100
N  48.82100 27.33200 28.13200
C  49.22700 28.27800 27.13500
C  49.70800 29.43000 27.76600
C  49.54000 29.23800 29.08100
C  49.04800 27.90600 29.32800
C  50.24800 30.66700 27.03200
C  49.70600 29.86900 30.36700
O  50.20800 30.92800 30.71900
C  49.16500 28.78800 31.44800
C  50.24900 28.46800 32.46200
O  50.97800 27.47700 32.61600
O  50.15200 29.47900 33.42300
C  50.99900 29.39300 34.57300
H  47.19400 22.15600 30.94400
H  47.31100 22.81700 24.44200
H  49.46000 28.64000 25.01300
H  48.94500 26.09100 33.05400
H  46.56800 24.22400 32.71200
H  47.81900 22.97200 34.12500
H  49.17000 24.06200 33.89000
H  48.97500 22.64000 32.87100
H  46.53200 27.50100 32.59000
H  47.90000 27.55800 33.78700
H  46.83000 25.55600 34.89600
H  45.27700 26.30300 34.06300
H  46.84100 20.46700 30.15200
H  47.50300 19.36000 28.89800
H  45.81600 19.75200 28.90200
H  45.02400 19.29900 26.89900
H  46.65300 18.56900 26.96200
H  45.62300 18.60200 25.44600
H  46.91800 25.03700 23.34300
H  49.55800 26.66200 23.20400
H  48.84700 23.25200 22.94700
H  49.59400 24.70600 22.15400
H  48.04600 24.05900 21.61200
H  48.36500 28.56500 23.05600
H  46.89100 27.68800 23.60700
H  46.38100 27.08500 21.34100
H  48.11900 26.83200 20.95900
H  47.27100 28.43000 20.93200
H  49.96300 30.58200 25.98300
H  51.31100 30.79300 27.23600
H  49.69400 31.49200 27.47900
H  48.41900 29.36100 31.99800
H  50.50400 28.69700 35.25000
H  51.17700 30.37500 35.01200
H  51.84100 28.82600 34.17600
Mg 49.69100 47.42900 42.60400
C  46.27000 47.76700 41.63000
C  49.68600 44.42100 40.91000
C  52.95200 47.35200 43.01900
C  49.59400 50.67600 43.86000
N  48.09900 46.28300 41.36900
C  46.80800 46.61100 41.13800
C  46.08200 45.48200 40.38900
C  47.17100 44.30900 40.31300
C  48.39400 45.05700 40.84900
C  46.84100 42.98800 41.07800
C  45.43600 45.94100 39.03800
C  43.99400 45.66400 38.90500
H  43.34500 45.27100 37.59500
N  51.03100 45.98600 42.18100
C  50.88500 44.81300 41.47100
C  52.09300 44.08000 41.48800
C  53.07600 44.86800 42.13800
C  52.39400 46.19000 42.44400
C  52.23700 42.63900 40.88500
C  54.54900 44.50600 42.29600
O  55.05900 43.48300 41.85900
C  55.49600 45.50800 43.02500
N  51.13900 48.89300 43.15700
C  52.39500 48.59600 43.38200
C  53.16900 49.75600 44.06500
C  52.09300 50.80800 44.39500
C  50.85100 50.06700 43.75700
C  54.13000 49.39700 45.20600
C  52.23400 52.20100 43.93700
C  52.19700 53.32500 45.01900
N  48.30200 49.01800 42.61500
C  48.41700 50.24300 43.20400
C  47.15500 50.93200 43.15300
C  46.30100 49.97000 42.60200
C  47.01000 48.83400 42.28800
C  46.88900 52.35500 43.62400
C  44.89800 49.76200 42.18500
O  43.89400 50.48000 42.37700
C  44.84800 48.24900 41.49800
C  43.91400 47.56400 42.31700
O  44.14600 47.36800 43.53600
O  42.86500 47.02800 41.57500
C  42.10500 46.01000 42.27500
H  49.75600 43.48200 40.35700
H  54.01700 47.32500 43.26000
H  49.66700 51.62400 44.39700
H  45.27400 45.11000 41.01900
H  47.34400 44.06600 39.26500
H  45.76200 42.84900 41.13600
H  47.22700 42.98200 42.09800
H  47.34800 42.11000 40.67800
H  46.01600 45.56400 38.19600
H  45.59200 47.01600 39.12700
H  43.57900 46.65000 39.11100
H  43.55600 45.03000 39.67600
H  51.36400 42.00700 40.72400
H  52.88000 42.09500 41.57700
H  52.84900 42.68600 39.98400
H  55.57800 46.40800 42.41700
H  56.49100 45.08600 43.16100
H  55.03000 45.63700 44.00200
H  53.75800 50.13500 43.22900
H  51.90700 50.78200 45.46800
H  55.16300 49.50800 44.87500
H  53.97800 48.34800 45.46100
H  53.92800 49.99800 46.09200
H  51.46700 52.43800 43.20000
H  53.20900 52.41500 43.49900
H  53.20500 53.66000 45.26200
H  51.83300 52.94600 45.97400
H  51.55200 54.15500 44.73000
H  45.86000 52.67400 43.45900
H  47.53200 53.15800 43.26300
H  46.90900 52.38100 44.71300
H  44.46100 48.16100 40.48300
H  42.68400 45.08800 42.23000
H  41.20600 45.88700 41.67200
H  41.80800 46.22100 43.30200

