158

Mg 47.29900 35.95700 28.98600
C  45.78800 34.06700 31.41900
C  47.72400 38.54100 31.43900
C  48.11000 38.13500 26.56300
C  46.37800 33.50800 26.58300
N  46.91600 36.24300 31.15000
C  46.32300 35.26100 31.92200
C  46.46800 35.60200 33.42900
C  46.49000 37.19800 33.29200
C  47.04500 37.42600 31.86300
C  45.07900 37.77800 33.56400
C  47.78700 35.08400 34.01100
C  47.82300 34.67000 35.47400
H  47.00400 35.39200 36.47900
N  48.05000 37.98400 28.97400
C  48.14500 38.86500 30.05800
C  48.76100 40.08700 29.68100
C  48.91500 39.98200 28.25500
C  48.44200 38.64800 27.87400
C  48.94100 41.25500 30.64700
C  49.54000 40.93600 27.24100
O  49.97600 40.55600 26.19200
C  49.84000 42.36600 27.62900
N  47.22000 35.88200 26.94900
C  47.65600 36.89000 26.13700
C  47.48100 36.57200 24.64800
C  46.94400 35.06400 24.68400
C  46.93900 34.73100 26.18400
C  46.42500 37.50500 24.01100
C  47.84100 34.12900 23.83700
C  47.10900 33.01600 23.17300
N  46.25500 34.18000 28.95500
C  46.05700 33.23000 27.96300
C  45.43500 32.04800 28.51600
C  45.24200 32.35200 29.89300
C  45.86200 33.62200 30.06400
C  45.12300 30.75400 27.76800
C  44.72200 31.84200 31.12600
O  44.20100 30.78800 31.50500
C  44.94600 33.01000 32.10500
C  45.46500 32.45900 33.43700
O  46.58100 32.07400 33.61900
O  44.45300 32.30300 34.27700
C  44.68000 31.50000 35.46000
H  47.69600 39.35900 32.16200
H  48.15300 38.89400 25.77900
H  46.07400 32.73500 25.87400
H  45.61000 35.24800 34.00100
H  47.15500 37.66100 34.02100
H  45.18200 38.31000 34.50900
H  44.31500 37.00400 33.63700
H  44.82700 38.48000 32.76900
H  48.62900 35.74100 33.79400
H  47.99200 34.21800 33.38100
H  48.87100 34.64300 35.77200
H  47.33900 33.69700 35.55600
H  48.25200 41.34400 31.48600
H  48.84100 42.20500 30.12200
H  49.93000 41.22500 31.10300
H  50.71300 42.27400 28.27500
H  48.91100 42.69800 28.09100
H  49.91700 43.08000 26.80900
H  48.43300 36.61100 24.11900
H  45.89400 35.10200 24.39400
H  45.98800 38.09100 24.82000
H  45.68100 37.00800 23.38700
H  46.96100 38.18600 23.35000
H  48.52800 33.60500 24.50100
H  48.28400 34.69400 23.01700
H  47.11000 33.17500 22.09400
H  46.04400 32.94400 23.39200
H  47.57300 32.04600 23.35500
H  44.99700 29.86600 28.38800
H  45.90500 30.42800 27.08200
H  44.20700 30.92900 27.20400
H  44.00500 33.53200 32.28100
H  45.45900 30.75000 35.31800
H  43.72600 31.02400 35.68800
H  44.99500 32.07900 36.32800
Mg -8.67900 40.60400 42.10300
C  -7.90100 37.24800 41.07200
C  -5.97000 41.64600 40.46200
C  -9.99100 43.69200 42.07700
C  -11.74900 39.33800 43.23300
N  -7.29800 39.55000 40.78500
C  -6.99000 38.22600 40.68600
C  -5.68200 38.00200 39.99400
C  -4.87000 39.38000 40.23900
C  -6.08900 40.25800 40.55300
C  -3.98500 39.30900 41.45200
C  -5.90500 37.55900 38.52400
C  -5.44200 36.13900 38.02300
H  -4.52100 36.07800 36.73800
N  -8.06600 42.48800 41.41000
C  -6.85700 42.66500 40.80500
C  -6.64300 44.07400 40.66100
C  -7.73100 44.75900 41.10900
C  -8.68500 43.64200 41.54800
C  -5.44700 44.66000 39.91600
C  -8.01400 46.24300 41.09300
O  -7.17000 47.06800 40.65300
C  -9.33500 46.80300 41.64900
N  -10.68700 41.37200 42.61200
C  -10.89100 42.72200 42.67000
C  -12.20900 43.05700 43.27400
C  -12.83300 41.65900 43.49000
C  -11.70500 40.69200 43.05300
C  -12.28200 44.11700 44.43700
C  -14.14200 41.37800 42.69800
C  -15.33300 42.32000 42.85000
N  -9.63700 38.69800 42.36500
C  -10.86600 38.38500 42.83400
C  -10.94100 36.94900 42.86500
C  -9.85300 36.48100 42.12300
C  -9.09100 37.55800 41.81400
C  -12.10700 36.12000 43.45600
C  -9.14300 35.30700 41.68700
O  -9.39000 34.10500 41.74900
C  -7.88000 35.74900 40.92700
C  -6.75200 35.05300 41.44200
O  -6.29400 35.21700 42.53000
O  -6.35100 34.17400 40.52400
C  -5.12000 33.47200 40.78700
H  -5.01100 42.06000 40.14400
H  -10.41800 44.69200 42.18300
H  -12.64000 38.93300 43.71800
H  -4.98200 37.23900 40.33700
H  -4.22000 39.77100 39.45600
H  -4.45700 39.67800 42.36300
H  -3.07000 39.89200 41.34400
H  -3.64900 38.28800 41.63500
H  -5.30100 38.13300 37.82000
H  -6.95700 37.72800 38.29700
H  -6.32700 35.52500 37.85800
H  -4.81700 35.63100 38.75700
H  -5.94400 45.38000 39.26600
H  -4.97600 43.96000 39.22500
H  -4.75500 45.21800 40.54600
H  -10.20100 46.44100 41.09700
H  -9.29800 47.88900 41.56000
H  -9.30000 46.55400 42.71000
H  -12.85000 43.41900 42.47000
H  -13.05300 41.35300 44.51300
H  -11.35200 44.63600 44.66700
H  -12.67800 43.69900 45.36200
H  -12.93300 44.88700 44.02100
H  -14.40600 40.35000 42.94700
H  -13.87800 41.41100 41.64100
H  -15.64900 42.82000 41.93400
H  -15.22400 43.01100 43.68600
H  -16.22700 41.74800 43.09600
H  -11.68100 35.39800 44.15300
H  -12.52000 35.54300 42.62900
H  -12.90900 36.75300 43.83500
H  -8.06400 35.47600 39.88800
H  -4.61800 33.23400 39.84900
H  -5.36000 32.63000 41.43800
H  -4.42100 34.09300 41.34700

