158

Mg 3.47600 1.06200 44.35200
C  6.22600 3.25800 43.84700
C  1.53200 3.50200 42.71100
C  1.15700 -1.22200 43.80600
C  5.84900 -1.39100 45.26100
N  3.88500 3.03000 43.26000
C  5.00100 3.71500 43.36900
C  4.81500 5.11200 42.74300
C  3.31700 5.26900 42.80600
C  2.85800 3.86100 42.85700
C  2.74800 6.11300 43.97300
C  5.35500 5.25500 41.34200
C  5.42400 3.96700 40.51300
H  5.67000 4.10400 39.01400
N  1.59200 1.16000 43.52700
C  0.94400 2.25000 42.99900
C  -0.44700 1.93100 42.85600
C  -0.58400 0.54400 43.17200
C  0.75600 0.07400 43.57300
C  -1.43600 2.91800 42.29900
C  -1.90300 -0.26500 43.15100
O  -2.94900 0.22000 42.77400
C  -1.95900 -1.67600 43.41600
N  3.59100 -1.03100 44.38900
C  2.44600 -1.78500 44.16600
C  2.57600 -3.30900 44.57400
C  3.99400 -3.26300 45.23700
C  4.60300 -1.87600 44.90300
C  1.44100 -3.80100 45.50500
C  4.82400 -4.50300 44.86100
C  5.43200 -5.25100 45.99800
N  5.66100 0.95000 44.56500
C  6.44300 -0.13000 44.99300
C  7.82300 0.32900 44.94500
C  7.72100 1.69400 44.58200
C  6.43400 2.00900 44.30700
C  9.08400 -0.43800 45.44800
C  8.52600 2.87100 44.39800
O  9.76200 3.02400 44.44900
C  7.57600 3.92100 43.83800
C  7.63300 5.21900 44.58600
O  8.12200 6.27600 44.25600
O  6.94000 4.95300 45.79000
C  6.57500 6.20700 46.52500
H  0.85600 4.28000 42.34800
H  0.45700 -2.04000 43.62300
H  6.52100 -2.16900 45.62900
H  5.33200 5.90900 43.27700
H  2.81000 5.69300 41.93900
H  2.54900 7.15100 43.70700
H  3.38500 6.29400 44.83900
H  1.82100 5.76100 44.42500
H  6.31300 5.75500 41.48900
H  4.75100 5.94200 40.74900
H  4.45600 3.46700 40.55600
H  6.24600 3.31700 40.81200
H  -1.43100 2.98800 41.21100
H  -1.19100 3.91800 42.65700
H  -2.47900 2.70500 42.53400
H  -1.74100 -2.10700 44.39300
H  -1.40600 -2.11200 42.58300
H  -2.96400 -2.08900 43.32300
H  2.63400 -3.91000 43.66600
H  3.87100 -3.09100 46.30700
H  0.54200 -4.09400 44.96300
H  1.16000 -2.99200 46.18000
H  1.70000 -4.66700 46.11400
H  5.65300 -4.15300 44.24600
H  4.25600 -5.16200 44.20500
H  5.30300 -6.26600 45.62200
H  4.96800 -5.10100 46.97300
H  6.51900 -5.18800 46.04400
H  9.76100 -0.74400 44.65000
H  8.80100 -1.31800 46.02600
H  9.59900 0.12700 46.22500
H  8.06600 4.11200 42.88400
H  5.69400 5.92800 47.10300
H  6.43100 7.00700 45.79900
H  7.34200 6.40500 47.27400
Mg 8.56200 48.48900 25.25000
C  6.33100 48.55600 28.11900
C  11.00000 49.40100 27.43400
C  10.44000 48.40500 22.68000
C  5.60200 48.15200 23.24200
N  8.59100 48.92600 27.59100
C  7.64800 48.73100 28.52700
C  8.14100 49.28100 29.90000
C  9.55600 49.96500 29.53900
C  9.76500 49.31400 28.10200
C  9.68800 51.53100 29.62800
C  8.22300 48.18200 30.93400
C  7.58100 48.62100 32.22900
H  7.55400 47.61200 33.42400
N  10.51900 48.60600 25.07900
C  11.36700 49.04600 26.07600
C  12.73400 49.18400 25.49600
C  12.61500 48.82900 24.14500
C  11.18100 48.55500 23.91300
C  13.93800 49.74400 26.30100
C  13.67800 48.72000 23.13500
O  13.36700 48.43000 21.98900
C  15.07400 49.03900 23.37300
N  8.04300 48.24000 23.21000
C  9.06100 48.17000 22.36600
C  8.51900 47.91900 20.87900
C  7.02200 47.47800 21.22800
C  6.82500 47.91000 22.63700
C  8.70400 49.10500 19.90200
C  6.83600 45.91800 21.06900
C  5.69900 45.52200 20.09600
N  6.48200 48.50400 25.51100
C  5.46100 48.29500 24.64400
C  4.18500 48.30800 25.34800
C  4.52200 48.34900 26.65100
C  5.91300 48.48900 26.76000
C  2.86500 48.13100 24.75900
C  3.85800 48.43100 27.94000
O  2.68400 48.33000 28.25800
C  5.07300 48.54900 29.00700
C  4.86100 47.36200 29.94100
O  5.48800 46.30400 29.82000
O  3.97000 47.62600 30.95100
C  3.84300 46.60700 32.00100
H  11.77200 49.70100 28.14600
H  11.03800 48.51700 21.77300
H  4.70800 48.18100 22.61600
H  7.39400 50.03900 30.13400
H  10.38700 49.60600 30.14500
H  8.76600 52.10800 29.69500
H  10.27800 51.93600 28.80500
H  10.25900 51.75000 30.53000
H  9.26300 48.05200 31.23400
H  7.72800 47.34900 30.43600
H  6.54700 48.82000 31.94500
H  7.95800 49.61400 32.47200
H  13.68400 49.97100 27.33600
H  14.20800 50.65100 25.76000
H  14.72600 48.99200 26.25200
H  15.24200 50.08800 23.61800
H  15.63400 48.71800 22.49500
H  15.44800 48.42400 24.19100
H  9.15600 47.10900 20.52500
H  6.35900 48.10000 20.62600
H  8.97900 50.07000 20.33000
H  7.79600 49.18300 19.30400
H  9.52700 48.77500 19.26800
H  6.63100 45.51700 22.06200
H  7.72700 45.46500 20.63500
H  5.63600 46.35600 19.39700
H  4.76000 45.41500 20.64000
H  5.81900 44.52400 19.67500
H  2.45700 47.18700 25.11900
H  2.77600 48.14800 23.67200
H  2.29400 48.96100 25.17400
H  4.97900 49.48300 29.56100
H  4.41100 45.68100 31.91100
H  2.77000 46.42400 32.05900
H  4.11000 47.08400 32.94400

