158

Mg 17.54000 52.71000 26.73900
C  19.27000 51.29400 29.39700
C  15.01700 53.63800 28.94500
C  15.75800 53.74500 24.14200
C  19.89200 51.21300 24.46300
N  17.20400 52.57400 28.84600
C  18.13500 52.07500 29.76900
C  17.65400 52.37700 31.19500
C  16.13500 52.69500 30.94900
C  16.13900 53.01800 29.50200
C  15.10400 51.67300 31.43100
C  18.55700 53.54700 31.80300
C  18.53600 53.61900 33.40400
H  17.52100 52.66800 34.14600
N  15.68800 53.60100 26.61200
C  14.85400 54.03900 27.62500
C  13.77500 54.72100 27.14800
C  14.03400 54.83900 25.71200
C  15.22700 54.05200 25.39800
C  12.55200 55.09000 27.90900
C  13.16700 55.46300 24.60300
O  13.19100 55.09500 23.44600
C  12.02800 56.45400 25.05700
N  17.58800 52.15000 24.55600
C  16.83800 52.89800 23.72800
C  17.29600 52.76000 22.28700
C  18.58000 51.86100 22.40400
C  18.71900 51.74000 23.86500
C  16.23000 52.10100 21.35100
C  19.78300 52.38600 21.63300
C  20.42700 53.69400 22.19500
N  19.17300 51.37200 26.86300
C  20.05600 50.94100 25.84700
C  21.12100 50.26300 26.56400
C  20.87600 50.36600 27.97100
C  19.65500 51.06600 28.05500
C  22.23700 49.58400 25.95200
C  21.38300 50.11000 29.27400
O  22.47900 49.70100 29.66400
C  20.39300 50.70900 30.25700
C  19.86900 49.74600 31.14800
O  19.19300 48.79300 30.82700
O  20.33300 49.93800 32.41500
C  20.08900 48.81100 33.35100
H  14.27400 53.90000 29.70100
H  15.34900 54.32700 23.31400
H  20.60800 50.78200 23.76100
H  17.77800 51.40900 31.68200
H  15.81800 53.58200 31.49700
H  15.57700 50.84000 31.95100
H  14.65800 51.12200 30.60300
H  14.31800 52.07400 32.07100
H  18.21500 54.50200 31.40300
H  19.53900 53.28700 31.40800
H  18.40500 54.68400 33.59900
H  19.52700 53.23600 33.64700
H  12.55200 56.17700 27.98800
H  12.64400 54.85100 28.96800
H  11.59100 54.73900 27.53200
H  12.45900 56.99800 25.89700
H  11.09400 55.92500 25.24300
H  11.99900 57.16400 24.23100
H  17.57600 53.76400 21.96700
H  18.36800 50.87400 21.99300
H  16.54400 51.15000 20.92100
H  15.95900 52.64600 20.44600
H  15.32300 52.05500 21.95300
H  19.31500 52.75700 20.72100
H  20.50800 51.63400 21.32200
H  20.09500 53.79900 23.22800
H  20.14400 54.51400 21.53600
H  21.50300 53.51800 22.17800
H  23.01300 49.79500 26.68800
H  22.50700 50.10000 25.03000
H  22.19500 48.51300 25.75800
H  21.03600 51.50500 30.63500
H  20.49000 49.04300 34.33700
H  20.41300 47.81600 33.04600
H  19.00200 48.82700 33.43300
Mg -1.60100 34.44700 26.92800
C  -3.57800 32.95900 29.27400
C  -0.51500 36.69300 29.15300
C  0.15300 35.85400 24.42500
C  -3.21700 32.42400 24.42200
N  -2.21200 34.87200 28.98700
C  -2.90400 34.04700 29.80900
C  -2.68500 34.36600 31.30400
C  -1.84400 35.75100 31.12600
C  -1.50000 35.77700 29.66700
C  -2.53200 37.03800 31.56700
C  -2.01300 33.14500 32.04600
C  -1.29600 33.54800 33.33100
H  -1.52000 32.73300 34.62700
N  -0.33300 36.10100 26.83000
C  -0.09400 36.91900 27.87800
C  0.88300 37.92200 27.41400
C  1.11800 37.70600 26.03700
C  0.31700 36.48600 25.68400
C  1.40800 39.04900 28.27500
C  1.96800 38.49200 25.00300
O  2.02600 38.29800 23.81800
C  2.72400 39.64400 25.57400
N  -1.42500 34.11600 24.79400
C  -0.62500 34.81600 23.99300
C  -0.72400 34.40300 22.49900
C  -1.64100 33.22500 22.53100
C  -2.15900 33.25000 23.98200
C  -1.05200 35.60500 21.60000
C  -0.98200 31.92700 22.12600
C  0.07000 31.34700 23.06000
N  -3.08700 33.01700 26.77600
C  -3.60100 32.24300 25.75100
C  -4.53800 31.34700 26.26300
C  -4.60400 31.54800 27.66700
C  -3.67400 32.62200 27.92600
C  -5.37400 30.43500 25.40100
C  -5.20400 31.10600 28.89600
O  -6.08100 30.28700 29.11100
C  -4.42600 31.96900 30.02200
C  -5.47200 32.66900 30.85900
O  -6.10300 33.65800 30.49300
O  -5.54700 31.99100 32.02500
C  -6.45700 32.56300 32.99000
H  -0.04700 37.41400 29.82700
H  0.79200 36.35300 23.69400
H  -3.57000 31.84700 23.56500
H  -3.65100 34.55100 31.77400
H  -0.96000 35.70600 31.76200
H  -2.19700 37.29100 32.57300
H  -3.60400 36.85500 31.64300
H  -2.34000 37.88000 30.90200
H  -1.32300 32.59700 31.40400
H  -2.83900 32.48000 32.29800
H  -1.26700 34.59900 33.61800
H  -0.25000 33.31000 33.13900
H  1.35300 38.74800 29.32100
H  0.88900 39.98500 28.06500
H  2.47900 39.24500 28.23900
H  2.06000 40.29500 26.14300
H  3.21900 40.13700 24.73800
H  3.43400 39.13800 26.22800
H  0.29200 34.06500 22.29100
H  -2.56300 33.38400 21.97100
H  -0.19700 36.10700 21.14700
H  -1.67900 36.34100 22.10300
H  -1.76300 35.34200 20.81600
H  -0.65200 32.05500 21.09500
H  -1.65000 31.07900 21.97300
H  0.00100 31.83400 24.03300
H  1.05400 31.47500 22.60800
H  -0.08000 30.29200 23.28800
H  -6.43700 30.44300 25.64300
H  -4.93500 29.44200 25.49300
H  -5.32900 30.69100 24.34300
H  -3.84500 31.28200 30.63700
H  -7.36300 32.91600 32.49900
H  -6.02600 33.33000 33.63400
H  -6.88700 31.69200 33.48400

