158

Mg 2.59600 -1.11800 43.93600
C  6.08100 -0.31100 43.78300
C  1.93600 1.85100 42.50100
C  -0.51200 -2.24800 43.46300
C  3.62700 -4.22400 44.98200
N  3.93500 0.46200 43.20300
C  5.22600 0.67100 43.27300
C  5.72500 1.97900 42.66800
C  4.36400 2.76800 42.62200
C  3.31000 1.61500 42.81600
C  4.08600 4.12600 43.45600
C  6.42800 1.78100 41.31600
C  7.74800 2.58900 41.08100
H  8.24800 2.57700 39.64200
N  0.96600 -0.31100 43.10700
C  0.81900 0.93100 42.58100
C  -0.53700 1.25800 42.19500
C  -1.27700 0.04300 42.44900
C  -0.27000 -0.90200 43.04800
C  -0.93300 2.55900 41.50000
C  -2.70700 -0.07500 42.10400
O  -3.29100 0.70900 41.41000
C  -3.43000 -1.33800 42.47900
N  1.73000 -3.04800 44.05700
C  0.41000 -3.26000 43.93300
C  0.05100 -4.79300 44.16200
C  1.36000 -5.29600 44.80400
C  2.31600 -4.14100 44.65600
C  -1.32900 -5.01400 44.90000
C  1.91500 -6.62300 44.25400
C  2.15100 -7.78800 45.23500
N  4.47300 -2.05800 44.33000
C  4.70200 -3.30900 44.85700
C  6.07300 -3.52800 45.12000
C  6.70500 -2.29300 44.66700
C  5.66600 -1.51100 44.24600
C  6.68200 -4.87000 45.62600
C  7.97100 -1.67400 44.52500
O  9.10400 -2.10500 44.72700
C  7.64800 -0.25200 43.93400
C  8.01300 0.77100 45.00300
O  7.76100 0.66500 46.18200
O  8.79500 1.77400 44.41100
C  9.05800 2.86600 45.38300
H  1.77700 2.87100 42.14500
H  -1.54500 -2.58600 43.36100
H  4.03500 -5.15900 45.37100
H  6.40600 2.50600 43.33600
H  4.31600 3.21000 41.62700
H  3.09800 3.96300 43.88800
H  3.97800 5.01800 42.83800
H  4.79800 4.23000 44.27500
H  5.71100 1.99200 40.52300
H  6.60500 0.70700 41.25700
H  8.56000 2.17400 41.67900
H  7.61300 3.64600 41.30800
H  -0.62200 2.47600 40.45900
H  -0.61000 3.51000 41.92400
H  -2.01500 2.59000 41.62500
H  -4.50700 -1.26000 42.32600
H  -3.27400 -1.55900 43.53500
H  -3.14700 -2.17400 41.83900
H  -0.01500 -5.24200 43.17100
H  1.19100 -5.45100 45.87000
H  -2.10300 -4.32400 44.56200
H  -1.08600 -4.90900 45.95700
H  -1.53400 -6.05100 44.63700
H  2.83400 -6.43300 43.70000
H  1.14800 -7.02000 43.58900
H  3.18900 -8.11100 45.15400
H  1.58600 -8.64600 44.87100
H  1.81500 -7.66900 46.26500
H  6.77100 -5.73400 44.96600
H  6.16700 -5.10400 46.55800
H  7.72900 -4.66200 45.84800
H  8.21400 -0.04400 43.02600
H  8.06600 3.27900 45.56300
H  9.84800 3.53400 45.04000
H  9.47300 2.40100 46.27800
Mg 50.82500 45.89600 41.69300
C  47.81600 47.36100 40.71500
C  49.71200 42.98700 40.31500
C  54.08600 44.87800 41.70900
C  52.01700 49.17100 42.35600
N  49.00300 45.31800 40.56800
C  47.87100 46.04100 40.36800
C  46.64100 45.15200 39.91000
C  47.26400 43.68700 40.24700
C  48.74700 43.96000 40.45200
C  46.61300 42.93800 41.39900
C  46.30800 45.26700 38.37500
C  44.82600 45.42400 37.93800
H  44.24500 44.50400 36.85300
N  51.78100 44.16600 41.00500
C  51.14000 43.04900 40.44500
C  52.12600 42.07400 40.18300
C  53.37500 42.43700 40.72300
C  53.14400 43.85400 41.18000
C  51.78400 40.78500 39.50200
C  54.60700 41.65200 40.70100
O  54.59700 40.47600 40.26200
C  55.87300 42.29400 41.23000
N  52.80200 46.91700 41.94500
C  53.96700 46.17900 42.03900
C  55.16600 47.04100 42.51700
C  54.54500 48.46000 42.48900
C  53.04500 48.19500 42.20900
C  55.82600 46.46900 43.84800
C  55.04800 49.35700 41.31000
C  55.56200 50.72000 41.72800
N  50.03500 47.85600 41.79700
C  50.60800 49.01600 42.10000
C  49.63300 50.09100 41.97800
C  48.50100 49.49000 41.45000
C  48.86100 48.14300 41.24200
C  49.81500 51.52200 42.16900
C  47.17400 49.74200 40.92500
O  46.59500 50.83100 40.76900
C  46.60500 48.28600 40.57400
C  45.41200 47.78700 41.41300
O  45.39200 47.09500 42.43200
O  44.27500 48.18400 40.77800
C  43.08900 47.79200 41.56500
H  49.30200 42.07600 39.87400
H  55.09600 44.48200 41.83600
H  52.47000 50.10400 42.69900
H  45.71300 45.30200 40.46300
H  47.40100 43.03500 39.38500
H  46.01200 42.14300 40.95800
H  45.88300 43.49900 41.98200
H  47.34200 42.59300 42.13200
H  46.78900 44.39000 37.94100
H  46.82900 46.11200 37.92500
H  44.67800 46.46800 37.66200
H  44.17900 45.32500 38.80900
H  52.51300 40.62300 38.70800
H  50.76900 40.78900 39.10500
H  51.83000 39.98600 40.24300
H  55.70700 42.43100 42.29800
H  56.26800 43.12400 40.64400
H  56.63500 41.52300 41.11000
H  55.90900 46.90200 41.73200
H  54.78900 48.92300 43.44500
H  55.49000 45.47700 44.15000
H  55.64300 47.16200 44.67000
H  56.91500 46.45300 43.87100
H  54.20900 49.57700 40.65100
H  55.81900 48.83000 40.74700
H  55.01400 51.58300 41.34900
H  56.63500 50.86600 41.60100
H  55.40900 50.79300 42.80400
H  50.89300 51.63800 42.28800
H  49.29800 52.01600 42.99200
H  49.51000 51.93400 41.20800
H  46.34800 48.36800 39.51800
H  43.15100 47.70900 42.65000
H  42.66100 46.84300 41.24200
H  42.36100 48.57500 41.35800

