158

Mg 26.93600 50.64800 26.76100
C  24.94300 51.72600 29.36900
C  29.40700 49.73300 29.18100
C  29.06500 49.83000 24.23700
C  24.67000 51.86800 24.46100
N  27.17600 50.83600 28.98000
C  26.16600 51.21800 29.82200
C  26.56600 50.88300 31.30200
C  28.06600 50.31800 31.24700
C  28.23800 50.31000 29.69000
C  29.11200 51.21600 31.92000
C  25.64200 49.84800 31.78800
C  25.04400 50.10500 33.15700
H  25.87300 50.57900 34.40900
N  28.93900 49.84700 26.69100
C  29.72700 49.54900 27.76100
C  31.04300 48.95700 27.29600
C  31.05100 49.18500 25.84800
C  29.65500 49.64300 25.51800
C  32.10900 48.36000 28.24300
C  32.13700 48.88600 24.87500
O  32.08700 49.21900 23.73000
C  33.35800 48.21600 25.40500
N  26.86400 50.63200 24.67300
C  27.81400 50.25800 23.84000
C  27.43100 50.41000 22.32500
C  26.04400 51.02900 22.44300
C  25.86300 51.23700 23.95800
C  28.46200 51.22100 21.48100
C  24.90700 50.16900 21.76000
C  24.08900 49.11900 22.64400
N  25.15800 51.52500 26.86200
C  24.33600 51.98000 25.81900
C  23.19000 52.56900 26.38200
C  23.32200 52.42600 27.79600
C  24.59100 51.82000 28.03900
C  21.93600 53.14100 25.64300
C  22.73600 52.76500 29.08300
O  21.69900 53.37700 29.30000
C  23.71300 52.22800 30.11500
C  24.03000 53.36700 31.11800
O  24.91400 54.20000 30.92400
O  23.25300 53.18200 32.20900
C  23.41900 54.18200 33.23900
H  30.03200 49.21200 29.90900
H  29.70300 49.45600 23.43400
H  23.96300 52.23100 23.71200
H  26.46200 51.81300 31.86100
H  28.17700 49.30200 31.62800
H  28.62600 52.12300 32.28000
H  29.67100 51.55900 31.05000
H  29.76400 50.84200 32.71100
H  26.05600 48.86500 32.01400
H  24.85800 49.71200 31.04200
H  24.57200 49.18000 33.48500
H  24.24900 50.82400 32.95600
H  32.18700 47.27600 28.16200
H  31.90100 48.55500 29.29600
H  33.14500 48.68900 28.16100
H  33.06900 47.36600 26.02200
H  33.97300 48.96700 25.90000
H  33.90400 47.98000 24.49200
H  27.36600 49.37300 21.99500
H  25.99400 52.01800 21.98700
H  28.75100 50.65800 20.59400
H  29.26800 51.69700 22.04100
H  27.97400 52.04800 20.96500
H  25.29700 49.57400 20.93500
H  24.26100 50.94500 21.34900
H  23.03800 49.40900 22.64300
H  24.42900 49.03900 23.67700
H  24.25200 48.14200 22.19100
H  21.69500 52.57700 24.74200
H  22.20500 54.16100 25.36900
H  21.16200 53.03200 26.40300
H  23.20300 51.43200 30.65700
H  23.72700 53.70500 34.17000
H  22.43300 54.58900 33.46000
H  24.23700 54.88700 33.08800
Mg 0.99100 43.30900 26.24900
C  3.19100 43.30400 29.09600
C  -1.53300 42.38100 28.44400
C  -0.92100 42.69000 23.64100
C  3.86200 43.60300 24.12600
N  0.83300 43.05300 28.51800
C  1.85700 43.08200 29.44800
C  1.39600 42.88600 30.90300
C  -0.14600 42.49400 30.64100
C  -0.28800 42.74700 29.08500
C  -0.60700 40.99500 31.09900
C  1.54600 44.23900 31.64800
C  1.21300 44.25900 33.23400
H  1.02200 42.89300 34.01600
N  -0.94500 42.85300 26.01700
C  -1.85300 42.55300 27.04000
C  -3.11700 42.30800 26.43900
C  -3.01600 42.36300 25.04800
C  -1.62700 42.67600 24.84900
C  -4.34800 41.87500 27.23800
C  -4.03500 42.17200 23.98000
O  -3.76900 42.11200 22.76000
C  -5.51800 41.95400 24.23200
N  1.42800 43.15300 24.19900
C  0.44300 42.80400 23.34800
C  0.99900 42.86800 21.91700
C  2.39900 43.56700 21.97600
C  2.54700 43.42800 23.52300
C  1.04200 41.42100 21.22400
C  2.40700 44.96200 21.30900
C  2.03300 46.14000 22.11100
N  3.07600 43.57000 26.45400
C  4.10400 43.72600 25.52700
C  5.40000 43.91100 26.20200
C  5.09000 43.59400 27.53300
C  3.63800 43.53200 27.67500
C  6.79100 44.15500 25.46900
C  5.65200 43.36200 28.82500
O  6.82800 43.22700 29.19500
C  4.50100 43.33200 29.86700
C  4.57700 42.15900 30.76600
O  4.06000 41.04600 30.47900
O  5.02200 42.50400 31.97600
C  4.77600 41.68100 33.13100
H  -2.34100 42.29300 29.17400
H  -1.49100 42.62500 22.71200
H  4.69500 43.56800 23.42200
H  1.90800 42.10800 31.46900
H  -0.77200 43.19800 31.19100
H  -0.58100 40.39600 30.18900
H  -1.59000 40.95300 31.56900
H  0.14500 40.50000 31.71400
H  0.73600 44.92000 31.38900
H  2.39600 44.89400 31.45800
H  0.32000 44.86500 33.38900
H  1.99800 44.69200 33.85300
H  -4.87400 42.81500 27.39900
H  -3.90100 41.53500 28.17300
H  -4.99700 41.13400 26.77300
H  -5.56900 40.92000 24.57400
H  -5.97400 41.95500 23.24200
H  -5.97700 42.79000 24.75900
H  0.31200 43.46800 21.32000
H  3.20300 42.92000 21.62400
H  0.20400 40.79500 21.53200
H  2.06000 41.03700 21.29300
H  0.77200 41.66200 20.19600
H  1.81300 44.85800 20.40100
H  3.39400 45.12500 20.87500
H  2.73000 46.69600 22.73700
H  1.37500 45.82300 22.92000
H  1.58600 46.91700 21.49000
H  7.45100 43.28900 25.40800
H  7.36000 44.93200 25.97900
H  6.63900 44.41600 24.42200
H  4.63500 44.19300 30.52300
H  4.47000 40.65500 32.93100
H  4.10900 42.28100 33.75000
H  5.74900 41.59300 33.61500

