158

Mg -1.20200 17.73100 27.47500
C  -1.93600 15.68200 30.18600
C  -2.11800 20.43300 29.46700
C  -1.03800 19.65000 24.79200
C  -1.00400 14.83000 25.39200
N  -1.86900 18.00200 29.52000
C  -2.02000 17.00000 30.44700
C  -2.26900 17.56400 31.93300
C  -2.55200 19.09700 31.53600
C  -2.20100 19.19400 30.07900
C  -3.86400 19.76100 32.14400
C  -1.11200 17.40700 33.02100
C  -1.54600 16.90800 34.34800
H  -0.50500 16.95500 35.46200
N  -1.45200 19.75600 27.23100
C  -1.76700 20.74100 28.16400
C  -1.71300 22.06300 27.56900
C  -1.30800 21.84500 26.23000
C  -1.30200 20.39500 26.01000
C  -2.17200 23.31600 28.20300
C  -1.06900 22.84200 25.11800
O  -0.72700 22.57300 23.95100
C  -1.11600 24.29700 25.42400
N  -0.80600 17.29000 25.46100
C  -0.90100 18.29100 24.53900
C  -0.51200 17.81600 23.16000
C  -0.32900 16.25700 23.39500
C  -0.70100 16.07400 24.81400
C  -1.56700 18.03600 22.04800
C  1.15000 15.85500 23.01500
C  2.17900 15.77000 24.16200
N  -1.48600 15.70000 27.67900
C  -1.39400 14.69000 26.75200
C  -1.62400 13.46500 27.50900
C  -1.87700 13.83400 28.82100
C  -1.77500 15.17800 28.90400
C  -1.69100 12.18500 26.84100
C  -2.21800 13.24700 30.12000
O  -2.31500 12.07200 30.49300
C  -2.19700 14.48700 31.08500
C  -1.13600 14.21800 32.07800
O  0.04800 14.51400 31.98800
O  -1.69500 13.54100 33.14400
C  -0.85900 13.21200 34.31700
H  -2.31100 21.28500 30.12300
H  -0.75700 20.15600 23.86600
H  -0.79800 13.93600 24.80000
H  -3.15300 17.03100 32.28100
H  -1.85100 19.77800 32.02100
H  -4.33200 19.16500 32.92700
H  -4.59400 19.93900 31.35400
H  -3.62800 20.66500 32.70600
H  -0.66000 18.32500 33.39500
H  -0.28900 16.77700 32.68300
H  -2.02600 15.93400 34.25700
H  -2.25800 17.66800 34.67100
H  -2.97000 23.78000 27.62300
H  -1.36100 24.04200 28.13800
H  -2.57600 23.15700 29.20200
H  -0.36400 24.56400 26.16700
H  -2.12200 24.58900 25.72600
H  -0.96500 24.86500 24.50600
H  0.45000 18.24400 22.88000
H  -0.98900 15.68200 22.74400
H  -1.04100 17.89300 21.10400
H  -2.09600 18.98600 21.96800
H  -2.27400 17.20800 22.09200
H  1.54900 16.57100 22.29600
H  1.01800 14.88000 22.54700
H  3.02500 16.35100 23.79400
H  2.44500 14.71300 24.18500
H  1.93600 16.30800 25.07800
H  -1.97100 11.47400 27.61800
H  -0.71400 11.91700 26.44200
H  -2.39600 12.18400 26.01000
H  -3.21900 14.31200 31.42000
H  0.15800 13.59600 34.24500
H  -0.82200 12.12900 34.43500
H  -1.26400 13.64300 35.23300
Mg 1.63400 8.26900 27.34700
C  1.92000 10.11800 30.28800
C  1.46900 5.49800 29.26900
C  1.53800 6.47000 24.58400
C  1.84600 11.25900 25.54700
N  1.73700 7.89600 29.58900
C  1.73700 8.78700 30.57900
C  1.41800 8.18800 31.93800
C  1.52600 6.65400 31.55200
C  1.51200 6.64500 30.02600
C  2.75900 6.02200 32.10500
C  -0.02400 8.57200 32.42400
C  -0.35600 8.63800 33.94900
H  0.74900 8.25800 34.98300
N  1.67500 6.22100 26.94300
C  1.47100 5.29800 27.88700
C  1.33700 3.96400 27.29600
C  1.45400 4.25600 25.92000
C  1.62700 5.68700 25.74200
C  1.16900 2.67800 28.13100
C  1.45600 3.33900 24.79400
O  1.63000 3.72600 23.63700
C  1.10800 1.85100 25.03800
N  1.76900 8.76700 25.37400
C  1.71400 7.87400 24.38100
C  1.73900 8.57700 22.96600
C  1.42900 10.03500 23.34600
C  1.75700 10.01100 24.86300
C  3.11800 8.16000 22.32500
C  -0.05300 10.50600 22.99300
C  -0.57000 10.41300 21.47200
N  1.82300 10.35000 27.78900
C  1.95900 11.42500 26.96100
C  2.15100 12.57000 27.68800
C  2.17000 12.17000 29.01600
C  2.03000 10.75900 29.00600
C  2.15100 13.94100 27.12700
C  2.39700 12.57500 30.39200
O  2.73300 13.62700 30.89100
C  2.03500 11.25700 31.21900
C  2.93800 11.24000 32.40900
O  3.99400 10.66700 32.60600
O  2.28800 12.00200 33.35900
C  3.03100 12.05400 34.67800
H  1.37600 4.58400 29.85900
H  1.35900 5.91800 23.65800
H  2.01100 12.07600 24.84200
H  2.11700 8.50500 32.71200
H  0.72000 6.03700 31.94900
H  3.65300 6.47400 31.67400
H  2.81500 5.03600 31.64400
H  2.91700 5.98000 33.18300
H  -0.79400 7.84200 32.17600
H  -0.20300 9.55600 31.99100
H  -1.17500 7.94000 34.12600
H  -0.69000 9.65500 34.15600
H  0.83700 1.75000 27.66600
H  0.47000 2.88700 28.94100
H  2.13100 2.48400 28.60400
H  1.32200 1.31500 24.11300
H  0.10300 1.81900 25.45900
H  1.81800 1.38800 25.72400
H  0.92400 8.04300 22.47800
H  2.19400 10.65000 22.87200
H  3.51700 8.95000 21.69000
H  2.66000 7.42400 21.66400
H  3.89900 7.86100 23.02500
H  -0.06900 11.55300 23.29500
H  -0.82400 10.07500 23.63300
H  0.16400 9.98000 20.79300
H  -1.08500 11.31200 21.13400
H  -1.44300 9.76000 21.47100
H  1.65100 14.10000 26.17100
H  3.19100 14.21200 26.94500
H  1.65000 14.72600 27.69300
H  1.01800 11.51200 31.51700
H  2.43900 12.74600 35.27800
H  4.03400 12.46200 34.55300
H  3.15100 11.09400 35.18100

