158

Mg 40.02900 9.47200 29.45900
C  41.91600 10.76800 32.00600
C  37.85300 8.12500 31.68600
C  38.30200 8.17200 26.86500
C  42.69500 10.37200 27.14200
N  40.05000 9.32300 31.66600
C  40.75000 10.14600 32.48200
C  40.17400 10.16100 33.92000
C  38.98600 9.16200 33.83400
C  38.94900 8.84100 32.30500
C  39.08500 7.83100 34.67000
C  39.92300 11.63600 34.46500
C  40.50400 11.91600 35.81000
H  39.56700 12.44100 36.89900
N  38.35400 8.31100 29.26500
C  37.54700 7.97300 30.32800
C  36.35000 7.30500 29.83300
C  36.40800 7.43000 28.43100
C  37.73200 8.03100 28.08900
C  35.23600 6.69000 30.76800
C  35.33500 7.01000 27.37100
O  35.51800 7.04500 26.15400
C  34.04300 6.51700 27.77500
N  40.45200 9.33800 27.30000
C  39.54100 8.82300 26.47100
C  39.98500 8.85000 24.96000
C  41.32300 9.58100 25.15000
C  41.52500 9.76600 26.62900
C  40.20100 7.34500 24.46200
C  41.54500 10.87800 24.27100
C  40.94500 12.13700 24.82700
N  41.92900 10.37700 29.50200
C  42.93200 10.61200 28.52100
C  44.09200 11.19300 29.19000
C  43.69200 11.26900 30.60000
C  42.39400 10.72200 30.69400
C  45.48000 11.44700 28.55900
C  44.16000 11.66800 31.88100
O  45.24200 12.10200 32.31800
C  43.01500 11.35400 32.84600
C  43.53100 10.47200 33.92900
O  43.40800 9.24500 34.00800
O  44.19000 11.21500 34.87000
C  44.71800 10.60400 36.06100
H  37.12000 7.97700 32.48200
H  37.79400 7.67200 26.03800
H  43.47600 10.60000 26.41300
H  40.95300 9.76800 34.57400
H  38.05900 9.68100 34.07700
H  38.23500 7.84800 35.35200
H  39.97600 7.72300 35.28900
H  39.12300 6.96900 34.00400
H  38.83800 11.70600 34.53200
H  40.22100 12.18000 33.56900
H  41.22800 12.72300 35.70200
H  41.10200 11.04900 36.09000
H  35.40100 7.00700 31.79800
H  35.28900 5.60800 30.64800
H  34.27200 7.03500 30.39600
H  33.51200 7.32600 28.27600
H  34.37200 5.65700 28.35800
H  33.62000 6.03900 26.89200
H  39.28900 9.35200 24.28700
H  42.17900 8.98900 24.82500
H  39.98800 6.68800 25.30600
H  41.25900 7.22200 24.23100
H  39.55300 7.06200 23.63200
H  41.14300 10.58200 23.30200
H  42.56500 11.15000 23.99900
H  40.10400 12.36600 24.17200
H  41.66200 12.95700 24.88000
H  40.53000 11.99300 25.82400
H  45.89900 10.62800 27.97300
H  46.26500 11.70800 29.26900
H  45.30800 12.27300 27.86900
H  42.66100 12.23400 33.38200
H  43.90300 10.01100 36.47500
H  44.86800 11.42100 36.76700
H  45.56900 10.05900 35.65000
Mg 30.59800 57.79300 39.96300
C  27.93100 55.40500 39.12900
C  32.84600 55.26600 39.19800
C  32.95400 60.07700 39.84100
C  28.10600 60.27600 39.85200
N  30.42700 55.67800 39.22700
C  29.23100 54.91800 39.05300
C  29.63700 53.45800 38.66800
C  31.04400 53.43500 39.31300
C  31.48700 54.82400 39.24800
C  31.00500 52.86700 40.71900
C  29.69800 53.33200 37.09900
C  28.47900 52.67100 36.46300
H  27.55400 53.38200 35.41000
N  32.60100 57.67400 39.76800
C  33.33800 56.58700 39.33800
C  34.77200 56.95100 39.21700
C  34.84700 58.33600 39.40700
C  33.45100 58.75300 39.69400
C  35.88000 56.04400 38.96000
C  36.17100 59.19300 39.29000
O  37.24300 58.71100 38.99800
C  36.20400 60.68700 39.51000
N  30.60000 59.86200 39.92400
C  31.72300 60.62800 39.98700
C  31.42500 62.08800 40.20900
C  29.84400 62.21800 40.00800
C  29.46900 60.68500 39.90000
C  31.92500 62.65300 41.56600
C  29.35300 63.01200 38.78700
C  28.48800 64.26800 39.01300
N  28.43400 57.86200 39.72400
C  27.61300 58.96800 39.62900
C  26.23500 58.54500 39.42800
C  26.30700 57.17500 39.24500
C  27.64300 56.81500 39.39200
C  25.08800 59.47800 39.27600
C  25.49300 55.96400 38.96700
O  24.29500 55.77300 38.75700
C  26.56000 54.75300 38.87300
C  26.06800 53.59200 39.68800
O  26.60200 53.24400 40.75200
O  25.02900 52.91800 39.06400
C  24.57400 51.66300 39.64700
H  33.57500 54.45500 39.14000
H  33.69500 60.87600 39.92000
H  27.26800 60.97200 39.93400
H  28.97100 52.69300 39.06500
H  31.59400 52.67900 38.75200
H  30.02000 53.09600 41.12500
H  31.82300 53.29100 41.30200
H  31.05200 51.78100 40.79800
H  30.55200 52.72500 36.79900
H  29.65800 54.27800 36.55900
H  27.85200 52.18900 37.21400
H  28.89600 51.88700 35.83200
H  36.43100 56.41400 38.09500
H  35.71600 54.96700 38.93300
H  36.50200 56.28900 39.82100
H  35.52800 60.77000 40.36100
H  35.92400 61.22400 38.60400
H  37.22400 60.93100 39.80600
H  31.99700 62.66000 39.47700
H  29.49500 62.60200 40.96600
H  31.18200 62.93600 42.31100
H  32.56100 63.53000 41.44600
H  32.56400 61.95600 42.10700
H  28.81300 62.35300 38.10700
H  30.21400 63.24200 38.16000
H  28.38800 64.58400 40.05200
H  27.42900 64.17400 38.77400
H  28.84500 65.12300 38.43900
H  24.78700 59.87900 40.24400
H  24.27800 59.00300 38.72200
H  25.36200 60.37800 38.72500
H  26.44900 54.42200 37.84000
H  25.38200 50.94000 39.75600
H  23.87100 51.07600 39.05600
H  24.16500 51.80800 40.64700

