158

Mg -3.18000 17.09100 26.60300
C  -3.45200 14.96800 29.42200
C  -3.81800 19.75600 28.66200
C  -2.93000 18.96700 23.89900
C  -2.90900 14.22600 24.61900
N  -3.67900 17.29800 28.80000
C  -3.67900 16.30800 29.71200
C  -3.84000 16.90500 31.17200
C  -3.98400 18.44000 30.87100
C  -3.79300 18.51200 29.32600
C  -5.32900 19.06200 31.33300
C  -2.70700 16.42300 32.11300
C  -2.09700 17.42900 33.07400
H  -1.58700 16.89600 34.47000
N  -3.25700 19.08000 26.32300
C  -3.52600 20.05300 27.30800
C  -3.32000 21.35400 26.74100
C  -2.91600 21.11100 25.35500
C  -3.01100 19.65400 25.11500
C  -3.62000 22.61000 27.53000
C  -2.34500 22.02300 24.38000
O  -2.00700 21.78000 23.23900
C  -2.07100 23.44200 24.78700
N  -3.09400 16.58900 24.47100
C  -3.00300 17.61400 23.61700
C  -2.80100 17.07900 22.23500
C  -2.41700 15.54600 22.44200
C  -2.82600 15.39000 23.88500
C  -3.87300 17.47600 21.21500
C  -0.97800 15.13800 21.98500
C  0.21600 15.57900 22.85900
N  -3.32200 15.06200 26.84200
C  -3.09900 13.99200 25.97300
C  -3.31100 12.67300 26.58800
C  -3.37700 13.02200 27.96400
C  -3.40700 14.48200 28.08200
C  -3.17600 11.29100 25.96800
C  -3.49900 12.52900 29.34900
O  -3.61800 11.34600 29.73000
C  -3.53500 13.75600 30.32800
C  -2.44800 13.47200 31.38300
O  -1.20400 13.59900 31.30200
O  -2.98000 13.05200 32.54500
C  -2.14900 13.07400 33.75200
H  -3.98700 20.54400 29.39800
H  -2.59800 19.58100 23.05900
H  -2.65100 13.28800 24.12300
H  -4.74100 16.40400 31.52500
H  -3.22500 19.05600 31.35400
H  -6.05000 18.36800 31.76500
H  -5.90800 19.44400 30.49200
H  -5.09900 19.86900 32.02900
H  -1.83300 16.05900 31.57300
H  -3.13400 15.66100 32.76400
H  -2.80500 18.21400 33.33900
H  -1.17800 17.92900 32.77000
H  -4.29900 22.35100 28.34300
H  -4.22000 23.21100 26.84700
H  -2.69300 23.09400 27.83800
H  -3.05600 23.86400 24.98300
H  -1.55500 23.98100 23.99200
H  -1.33600 23.50000 25.59000
H  -1.90500 17.60200 21.90100
H  -3.08600 14.92800 21.84300
H  -4.40300 18.37100 21.53900
H  -4.56500 16.67700 20.94800
H  -3.48500 17.77900 20.24200
H  -0.72300 15.73500 21.10900
H  -0.97400 14.06800 21.77500
H  -0.22400 15.78100 23.83600
H  0.79900 16.43100 22.51100
H  0.95300 14.77900 22.92300
H  -2.95900 11.36000 24.90200
H  -4.05700 10.66900 26.12700
H  -2.39700 10.76000 26.51600
H  -4.54200 13.80700 30.74000
H  -2.14100 14.07900 34.17300
H  -1.11400 12.79800 33.55100
H  -2.68300 12.42500 34.44600
Mg -12.34700 16.73100 41.60200
C  -9.41700 14.79200 41.34200
C  -10.82300 19.25800 39.96700
C  -15.32000 18.15300 41.22900
C  -13.93900 13.62300 42.63700
N  -10.44600 16.94000 40.53300
C  -9.38800 16.08400 40.73400
C  -8.10400 16.66500 40.00400
C  -8.54000 18.11200 39.68400
C  -10.02000 18.11500 40.19100
C  -7.65800 19.27600 40.26100
C  -7.62500 15.84900 38.79500
C  -6.13700 16.16100 38.34600
H  -6.03000 16.55700 36.87500
N  -13.00200 18.58000 40.91900
C  -12.21500 19.49100 40.24500
C  -12.93400 20.66000 39.93100
C  -14.27400 20.37400 40.31500
C  -14.21800 19.01700 40.87400
C  -12.38100 21.97000 39.41200
C  -15.48300 21.29100 40.14200
O  -15.39200 22.45700 39.78600
C  -16.81200 20.81900 40.60100
N  -14.26800 15.91600 41.92100
C  -15.33700 16.81200 41.76200
C  -16.70300 16.11700 41.87500
C  -16.26500 14.72500 42.22900
C  -14.72700 14.72900 42.24500
C  -17.52900 16.87900 43.00400
C  -16.90100 13.59100 41.38100
C  -17.99500 12.80600 42.11500
N  -11.80300 14.63000 42.04300
C  -12.52200 13.54900 42.43600
C  -11.69500 12.39800 42.57600
C  -10.40000 12.84100 42.19800
C  -10.51200 14.23300 41.88500
C  -12.13100 10.99400 43.12200
C  -9.06600 12.46100 42.02400
O  -8.55000 11.41500 42.23600
C  -8.31800 13.65000 41.42900
C  -7.12900 14.03200 42.23400
O  -7.13900 14.42100 43.42300
O  -5.92700 13.85800 41.46900
C  -4.70200 14.30700 42.17800
H  -10.31200 20.12300 39.53800
H  -16.32700 18.44400 40.92300
H  -14.43800 12.66500 42.79800
H  -7.20600 16.64400 40.62200
H  -8.70000 18.29500 38.62100
H  -6.74400 18.87100 40.69500
H  -8.06800 19.77500 41.13800
H  -7.36800 20.03200 39.53100
H  -8.11900 16.11100 37.85900
H  -7.79500 14.78400 38.94800
H  -5.53900 15.26500 38.51000
H  -5.65400 16.82500 39.06400
H  -13.08800 22.49600 38.77100
H  -11.49000 21.68300 38.85500
H  -12.12700 22.67600 40.20200
H  -16.62000 20.54000 41.63700
H  -17.10100 19.96300 39.99200
H  -17.71900 21.41300 40.70800
H  -17.17900 16.16400 40.89600
H  -16.47800 14.56400 43.28600
H  -17.82600 16.21300 43.81400
H  -18.42900 17.11100 42.43300
H  -17.07800 17.74700 43.48300
H  -16.06000 12.91400 41.22900
H  -17.31400 13.89400 40.41800
H  -17.67300 11.82100 42.45400
H  -18.95300 12.74400 41.59800
H  -18.38600 13.27700 43.01600
H  -11.74500 10.28000 42.39400
H  -13.21500 10.97300 43.22900
H  -11.61600 10.78100 44.05900
H  -7.98400 13.22600 40.48200
H  -4.31700 13.46700 42.75600
H  -4.78800 15.23500 42.74200
H  -3.98000 14.47700 41.38000

