158

Mg 30.10000 59.08000 39.47700
C  27.29800 57.13200 38.45400
C  32.12700 56.45900 38.41600
C  32.76500 61.24500 39.46400
C  27.95200 61.83700 39.52900
N  29.77100 57.14500 38.34400
C  28.50600 56.58300 38.18100
C  28.65300 55.15100 37.83400
C  30.13700 54.75900 38.24700
C  30.72700 56.18600 38.27500
C  30.44700 54.08600 39.65500
C  28.34800 55.05800 36.31000
C  27.32200 53.94300 35.96000
H  26.42000 54.34400 34.85000
N  32.19900 58.86800 39.13300
C  32.75600 57.72700 38.68200
C  34.19400 57.93700 38.47500
C  34.47700 59.33700 38.79800
C  33.17800 59.89000 39.19800
C  35.14700 56.86600 37.87400
C  35.83600 60.05000 38.71100
O  36.77300 59.55200 38.13900
C  36.06900 61.44300 39.39500
N  30.25800 61.17500 39.52700
C  31.48800 61.72500 39.65300
C  31.35400 63.26800 39.85200
C  29.84500 63.54400 39.84200
C  29.29400 62.12400 39.58100
C  32.13700 63.89500 40.99400
C  29.36800 64.58900 38.87200
C  29.62300 66.05100 39.31000
N  28.01700 59.38700 39.35500
C  27.29900 60.58900 39.41200
C  25.80700 60.28300 39.31300
C  25.82300 58.95600 38.97100
C  27.16200 58.49400 38.82600
C  24.62700 61.29400 39.35500
C  24.96600 57.90700 38.48300
O  23.76200 57.88000 38.19700
C  25.88900 56.65200 38.11000
C  25.44000 55.58300 39.06800
O  25.51000 55.56900 40.31500
O  24.95000 54.49700 38.25500
C  24.48700 53.27100 38.99500
H  32.83200 55.63900 38.25900
H  33.46500 62.07500 39.57400
H  27.28500 62.70000 39.59300
H  27.94300 54.56200 38.41400
H  30.61700 54.22300 37.42800
H  29.49400 53.69800 40.01600
H  30.73600 54.89100 40.33100
H  31.20700 53.30800 39.57400
H  29.27500 55.03000 35.73700
H  27.75400 55.94200 36.07500
H  26.76100 53.70300 36.86300
H  27.83000 53.05300 35.58800
H  34.99600 56.70100 36.80700
H  34.86100 55.95200 38.39500
H  36.20400 56.95000 38.12500
H  37.12300 61.64500 39.58700
H  35.53000 61.29500 40.33000
H  35.55000 62.20900 38.81900
H  31.88800 63.63100 38.97400
H  29.52500 63.88500 40.82700
H  32.21000 63.19900 41.82900
H  31.72500 64.82000 41.39800
H  33.10200 64.17900 40.57400
H  28.28100 64.54900 38.81000
H  29.76500 64.47800 37.86300
H  30.13300 66.65000 38.55600
H  30.15200 66.04400 40.26200
H  28.63900 66.46800 39.52300
H  24.11900 61.00100 40.27400
H  23.97400 61.26100 38.48300
H  24.94800 62.32700 39.49200
H  25.73400 56.47200 37.04600
H  24.74500 52.37800 38.42500
H  23.44600 53.38700 39.29600
H  24.97200 53.16000 39.96500
Mg 16.21100 51.29400 24.40400
C  18.04800 50.71000 27.26800
C  13.57300 52.21400 26.32400
C  14.43700 51.60600 21.59100
C  18.99200 50.04800 22.55200
N  15.85500 51.47300 26.55800
C  16.78700 51.17100 27.55400
C  16.19500 51.59000 28.91600
C  14.66400 51.91100 28.67500
C  14.66400 51.76800 27.11300
C  13.66900 50.93600 29.33700
C  16.86900 52.81900 29.55900
C  17.05100 52.82800 31.10800
H  16.25500 51.77200 31.94300
N  14.23300 51.73800 23.96700
C  13.34800 52.23300 24.93400
C  12.19200 52.63700 24.21800
C  12.31700 52.39500 22.81800
C  13.75000 51.94000 22.72900
C  10.96900 53.18400 24.88200
C  11.39300 52.55900 21.62100
O  11.70800 52.17900 20.50500
C  10.11500 53.13900 21.79300
N  16.68900 51.03100 22.39400
C  15.79500 51.13900 21.35700
C  16.31900 50.95100 19.96800
C  17.79400 50.64500 20.33000
C  17.82000 50.52700 21.81900
C  15.65400 49.69600 19.39400
C  18.97300 51.49500 19.66700
C  20.09100 50.55100 19.10400
N  18.23400 50.59200 24.76000
C  19.21900 50.13000 23.92600
C  20.33400 49.72800 24.64200
C  19.99300 50.01800 26.02300
C  18.62400 50.44800 26.02300
C  21.62800 49.29500 24.06900
C  20.47000 49.96900 27.40200
O  21.48900 49.53300 27.88300
C  19.27200 50.44900 28.29200
C  18.96700 49.34700 29.26200
O  18.38500 48.30000 28.96300
O  19.44600 49.57400 30.53400
C  19.19500 48.58500 31.52200
H  12.82800 52.57700 27.03600
H  13.95400 51.78600 20.62900
H  19.75000 49.54400 21.94900
H  16.38900 50.69600 29.50800
H  14.34800 52.91700 28.95100
H  14.08400 50.07200 29.85700
H  13.07600 50.51200 28.52600
H  12.99700 51.43100 30.03800
H  16.41600 53.79500 29.38500
H  17.84500 52.94900 29.09000
H  16.85500 53.81800 31.52000
H  18.11300 52.61100 31.22100
H  11.30300 53.70400 25.78000
H  10.26700 52.40900 25.18900
H  10.35800 53.89800 24.32900
H  9.65900 52.37600 22.42300
H  9.62000 53.22700 20.82600
H  10.05400 54.11200 22.28100
H  16.12900 51.72700 19.22600
H  18.01700 49.60600 20.08700
H  16.22000 49.18000 18.61900
H  14.65300 49.92700 19.03100
H  15.45300 48.98800 20.19800
H  19.39700 51.97400 20.54900
H  18.53800 52.10800 18.87800
H  19.75700 49.52300 18.95800
H  20.86900 50.61100 19.86600
H  20.38800 50.87400 18.10600
H  22.16800 49.13500 25.00200
H  21.96500 50.20800 23.57700
H  21.70100 48.38100 23.48000
H  19.55300 51.39000 28.76500
H  18.13300 48.58500 31.76900
H  19.83400 48.91200 32.34200
H  19.46100 47.57400 31.21400

