158

Mg 47.31500 44.69300 42.72900
C  43.85600 44.15500 42.69500
C  47.74600 41.20300 42.31600
C  50.62300 45.14100 42.88000
C  46.79900 48.02700 42.56500
N  45.97000 42.94000 42.30000
C  44.54700 42.93400 42.39000
C  43.98300 41.52200 42.34200
C  45.29400 40.63300 42.07200
C  46.43000 41.62400 42.28600
C  45.40200 39.31000 42.92200
C  42.92700 41.32300 41.17600
C  43.22800 42.03200 39.76500
H  43.21300 41.16600 38.50000
N  49.00800 43.38000 42.63500
C  48.92400 42.04500 42.38400
C  50.28200 41.47400 42.23800
C  51.18700 42.58100 42.36400
C  50.28900 43.77000 42.61900
C  50.55600 39.98300 42.03700
C  52.64600 42.52100 42.32200
O  53.24200 41.48800 42.04700
C  53.53300 43.66500 42.64400
N  48.58200 46.29100 42.33700
C  49.89100 46.22900 42.64700
C  50.53900 47.60100 42.75400
C  49.29100 48.57200 42.55600
C  48.12000 47.58400 42.46000
C  51.51000 47.98600 43.99900
C  49.43100 49.59400 41.31300
C  49.46500 51.04900 41.63500
N  45.65400 45.91600 42.72400
C  45.57000 47.27900 42.70500
C  44.23700 47.71200 42.78600
C  43.45000 46.51200 42.85800
C  44.42900 45.44300 42.82900
C  43.79900 49.13800 42.81300
C  42.15000 45.89400 42.99300
O  41.04700 46.29000 43.11000
C  42.44100 44.29600 42.87200
C  41.95300 43.58800 44.14700
O  42.47600 43.65800 45.21600
O  40.80200 42.81500 43.92400
C  40.43200 41.85200 45.01300
H  47.92400 40.16100 42.04600
H  51.70200 45.29900 42.92300
H  46.74400 49.11400 42.47600
H  43.65900 41.29300 43.35700
H  45.18100 40.19100 41.08200
H  44.60800 39.32200 43.66900
H  46.32500 39.17000 43.48400
H  45.36000 38.50800 42.18500
H  41.94500 41.69800 41.46200
H  42.94700 40.23300 41.17600
H  44.18200 42.52900 39.94400
H  42.50600 42.84300 39.67000
H  50.06800 39.50800 41.18500
H  50.34200 39.42800 42.95000
H  51.62700 39.79700 41.94900
H  53.36100 44.52300 41.99400
H  54.57500 43.38700 42.48200
H  53.48600 43.95900 43.69200
H  51.12000 47.68800 41.83600
H  49.14800 49.08300 43.50800
H  51.22100 47.43400 44.89300
H  51.27100 49.02800 44.21300
H  52.55100 47.86900 43.69900
H  48.61700 49.42100 40.60900
H  50.33300 49.41100 40.72900
H  49.47500 51.26300 42.70400
H  48.55700 51.56700 41.32700
H  50.30700 51.48400 41.09700
H  42.85400 49.17300 43.35500
H  43.57700 49.61500 41.85800
H  44.53300 49.79100 43.28600
H  41.93600 43.90400 41.99000
H  39.56800 41.32900 44.60300
H  40.09300 42.40000 45.89200
H  41.33500 41.30500 45.28400
Mg -2.76700 34.66300 26.81400
C  -3.90600 32.78600 29.50200
C  -1.37300 36.88700 29.07400
C  -2.39300 36.71100 24.25500
C  -4.64100 32.46100 24.73400
N  -2.67700 34.79600 28.99700
C  -3.08800 33.84500 29.90800
C  -2.70400 34.19900 31.34100
C  -1.91400 35.55000 31.17200
C  -2.00500 35.79300 29.67600
C  -2.43900 36.78000 31.93900
C  -1.95300 32.97100 32.07500
C  -2.52400 32.66800 33.51900
H  -1.43400 32.62000 34.61300
N  -1.92600 36.52800 26.63100
C  -1.35400 37.20200 27.67900
C  -0.86400 38.44900 27.10600
C  -1.15600 38.53800 25.68600
C  -1.83500 37.22800 25.41300
C  -0.27600 39.54600 27.99200
C  -0.73700 39.58600 24.73900
O  -1.16100 39.58800 23.57400
C  0.24500 40.76000 25.09100
N  -3.43500 34.59100 24.81300
C  -3.02800 35.50700 23.87500
C  -3.60300 35.33900 22.50100
C  -4.05200 33.86400 22.56400
C  -4.03400 33.60300 24.12300
C  -4.67500 36.36800 22.05500
C  -3.21300 32.81700 21.65900
C  -2.25100 31.96200 22.35300
N  -3.93700 32.86000 26.99100
C  -4.62100 32.06400 26.04600
C  -5.21900 30.90000 26.65100
C  -5.02700 31.21700 28.00200
C  -4.25600 32.34000 28.17500
C  -6.01400 29.81200 26.06900
C  -5.27500 30.75900 29.31900
O  -5.91100 29.79400 29.63700
C  -4.57100 31.73100 30.41400
C  -5.59400 32.18800 31.39100
O  -6.38500 33.11500 31.30200
O  -5.68800 31.31500 32.50800
C  -6.62300 31.80500 33.52300
H  -0.66700 37.50100 29.63700
H  -2.32200 37.41700 23.42500
H  -5.08500 31.71900 24.06800
H  -3.63300 34.33100 31.89600
H  -0.83100 35.45300 31.25100
H  -3.26500 36.52200 32.60100
H  -2.76600 37.57600 31.27100
H  -1.73500 37.20300 32.65500
H  -0.87800 33.14500 32.12500
H  -2.11700 32.05600 31.50600
H  -2.99300 31.68800 33.61000
H  -3.27100 33.34700 33.93000
H  0.78500 39.66800 27.77600
H  -0.40600 39.48600 29.07200
H  -0.67700 40.53000 27.75000
H  -0.20200 41.58500 25.64600
H  0.48900 41.37600 24.22600
H  1.15800 40.31500 25.48600
H  -2.76100 35.42300 21.81400
H  -5.10800 33.83400 22.29600
H  -4.79700 37.08600 22.86600
H  -5.72500 36.12800 21.89000
H  -4.34300 36.88500 21.15400
H  -2.65800 33.33500 20.87800
H  -3.94100 32.05100 21.38900
H  -2.43300 30.89700 22.21100
H  -2.10900 32.10200 23.42500
H  -1.30600 32.20300 21.86600
H  -5.59600 29.68700 25.07100
H  -7.05900 30.10000 25.95100
H  -5.76900 28.86700 26.55400
H  -3.83800 31.14100 30.96200
H  -6.23400 32.65900 34.07700
H  -6.90800 30.99200 34.19000
H  -7.56500 32.03600 33.02400

