158

Mg 8.88100 47.87200 26.68200
C  6.95200 47.27700 29.52700
C  11.61100 48.29400 28.76800
C  10.58500 48.53400 24.08600
C  5.97100 47.48100 24.70800
N  9.22100 47.88400 28.87000
C  8.26200 47.60100 29.87100
C  8.86400 47.76600 31.24400
C  10.26900 48.43100 30.97300
C  10.37300 48.21000 29.42500
C  10.43200 49.99800 31.17900
C  8.77000 46.60600 32.22900
C  9.70000 46.57300 33.47300
H  9.25900 45.77200 34.70500
N  10.88400 48.15500 26.48200
C  11.85000 48.30100 27.42700
C  13.10600 48.51800 26.75200
C  12.83100 48.48700 25.31500
C  11.37100 48.33400 25.25100
C  14.38300 48.48600 27.47500
C  13.83700 48.66800 24.25400
O  13.46500 48.59600 23.10100
C  15.33300 48.94400 24.57800
N  8.28100 47.99300 24.70300
C  9.23000 48.35000 23.80400
C  8.65600 48.49600 22.36300
C  7.16300 48.06400 22.58100
C  7.08800 47.83500 24.01600
C  8.82700 49.92200 21.80200
C  6.81400 46.85100 21.73300
C  6.16700 47.09700 20.42100
N  6.90800 47.50700 26.99200
C  5.85600 47.36700 26.17100
C  4.67500 47.02400 26.82400
C  5.04600 46.98200 28.14100
C  6.37200 47.28000 28.20300
C  3.35100 46.74400 26.24300
C  4.60600 46.81500 29.49700
O  3.47400 46.53000 29.83300
C  5.77700 46.92000 30.44600
C  5.99900 45.63900 31.19200
O  6.68500 44.70500 30.85300
O  5.30700 45.67100 32.41000
C  5.43000 44.52800 33.26000
H  12.41700 48.54700 29.46000
H  11.12100 48.73800 23.15700
H  5.11400 47.37400 24.04000
H  8.16600 48.50600 31.63700
H  11.14900 47.94900 31.40100
H  10.18100 50.56600 30.28300
H  11.45500 50.22300 31.48200
H  9.79800 50.33500 31.99900
H  8.87600 45.66700 31.68500
H  7.76300 46.75100 32.62000
H  9.96500 47.58700 33.77300
H  10.65000 46.12400 33.18300
H  14.92900 47.66900 27.00400
H  14.31800 48.22200 28.53100
H  14.95100 49.40500 27.32400
H  15.78800 49.23800 23.63100
H  15.80100 47.99000 24.82000
H  15.41500 49.76100 25.29500
H  9.24200 47.86700 21.69300
H  6.52100 48.89600 22.29200
H  9.87800 50.20200 21.73900
H  8.32200 50.65100 22.43600
H  8.40300 50.01400 20.80200
H  6.19900 46.14300 22.28800
H  7.75700 46.34700 21.51900
H  6.07200 48.15000 20.15400
H  5.11900 46.80100 20.46800
H  6.75500 46.53400 19.69600
H  2.90400 45.92700 26.80900
H  3.52500 46.41000 25.22000
H  2.71900 47.61700 26.07800
H  5.59100 47.62200 31.25900
H  4.52100 43.95400 33.08400
H  5.43800 44.94400 34.26700
H  6.33600 43.92900 33.16600
Mg 0.44100 42.86900 25.87700
C  2.88800 42.49900 28.69000
C  -1.99800 42.22000 28.21300
C  -1.73000 42.82800 23.42200
C  3.16500 43.22000 23.76400
N  0.48900 42.33100 28.14500
C  1.50700 42.34700 29.05800
C  0.96300 42.20200 30.47700
C  -0.44300 41.52700 30.24000
C  -0.69900 42.05200 28.77200
C  -0.30700 39.99400 30.39400
C  0.79900 43.48100 31.23500
C  0.99800 43.42700 32.73900
H  1.03200 42.10200 33.53400
N  -1.60900 42.60600 25.79300
C  -2.41200 42.40100 26.81800
C  -3.76300 42.46100 26.39300
C  -3.73900 42.51300 25.01200
C  -2.33500 42.66200 24.68500
C  -4.92600 42.46600 27.39700
C  -4.89800 42.58800 24.02300
O  -4.80200 42.83200 22.79300
C  -6.27200 42.14900 24.57300
N  0.69300 43.03100 23.92100
C  -0.36500 43.00000 23.06200
C  0.11800 42.99700 21.59700
C  1.69000 43.15400 21.73600
C  1.87100 43.16700 23.22100
C  -0.24300 41.61800 20.91400
C  2.37900 44.41500 21.15300
C  2.09700 45.75700 21.90800
N  2.58200 42.88000 26.07800
C  3.51200 43.12700 25.13600
C  4.81300 43.03300 25.72600
C  4.66600 42.81000 27.12100
C  3.29200 42.77800 27.31200
C  6.11000 43.22500 24.97300
C  5.36800 42.60800 28.38700
O  6.52600 42.56100 28.74200
C  4.16300 42.42400 29.46500
C  4.29400 41.24100 30.35700
O  4.00300 40.05800 30.10700
O  4.92400 41.57800 31.54200
C  5.30000 40.52900 32.46700
H  -2.75700 42.07000 28.98400
H  -2.37800 42.78200 22.54500
H  4.09300 43.35100 23.20300
H  1.69900 41.54200 30.93600
H  -1.32400 41.83400 30.80400
H  -1.02600 39.62300 31.12400
H  0.69900 39.67800 30.67200
H  -0.56200 39.48000 29.46800
H  -0.22200 43.78400 31.00100
H  1.40800 44.21800 30.71200
H  0.26400 44.07000 33.22500
H  1.92700 43.95500 32.95100
H  -5.58900 43.30600 27.18700
H  -4.50800 42.76600 28.35800
H  -5.53700 41.57600 27.55000
H  -6.66800 42.87200 25.28600
H  -6.12800 41.18400 25.05900
H  -6.93500 42.11400 23.70800
H  -0.37300 43.75300 20.98400
H  2.20000 42.31800 21.25900
H  -0.67300 41.00600 21.70700
H  0.50700 41.00300 20.41600
H  -0.95800 41.92700 20.15200
H  1.90100 44.52800 20.18000
H  3.40300 44.14200 20.89500
H  2.13700 46.55800 21.17000
H  2.93100 45.94900 22.58300
H  1.13300 45.77700 22.41600
H  6.43900 44.26500 24.96900
H  6.02300 42.70500 24.02000
H  6.88100 42.70600 25.54200
H  4.29500 43.23500 30.18200
H  6.35000 40.52400 32.76200
H  5.02800 39.49400 32.26000
H  4.78300 40.88200 33.35900

