158

Mg 25.92500 -1.37900 29.52200
C  27.96000 -1.47400 32.39800
C  23.20100 -0.99100 31.45000
C  24.00800 -1.32200 26.76200
C  28.78300 -2.21100 27.65000
N  25.67500 -1.08700 31.70400
C  26.63800 -1.22200 32.67700
C  26.00600 -0.97300 34.07200
C  24.48100 -0.98600 33.71800
C  24.46200 -0.97900 32.18000
C  23.68600 -2.22500 34.29700
C  26.41900 0.30100 34.79200
C  26.69700 0.03700 36.24900
H  26.75200 1.23600 37.29800
N  23.86100 -1.26100 29.14400
C  22.89800 -1.09600 30.11800
C  21.57700 -1.16600 29.49100
C  21.83400 -0.96500 28.11100
C  23.28600 -1.17700 27.95100
C  20.26200 -1.24500 30.35100
C  20.82600 -0.55000 26.98100
O  21.05500 -0.50700 25.77000
C  19.40800 -0.39800 27.39300
N  26.32300 -1.83500 27.50700
C  25.36700 -1.68700 26.50500
C  26.02000 -1.67500 25.12400
C  27.52200 -2.10400 25.40300
C  27.53600 -2.15900 26.93100
C  25.31100 -2.61300 24.06900
C  28.68800 -1.23000 24.79700
C  28.67500 0.32900 25.02300
N  27.99700 -1.77100 29.85500
C  28.99800 -2.10500 29.02500
C  30.31800 -2.03000 29.72600
C  29.91500 -1.74000 31.04600
C  28.52100 -1.67100 31.11700
C  31.61900 -2.39400 29.11800
C  30.41200 -1.55000 32.44600
O  31.55200 -1.45700 32.85200
C  29.15500 -1.42100 33.34200
C  29.34000 -2.45600 34.42000
O  28.69100 -3.46600 34.31200
O  30.20300 -2.10700 35.37900
C  30.36700 -2.95600 36.53300
H  22.33300 -0.94000 32.11100
H  23.49800 -1.06000 25.83200
H  29.69500 -2.51200 27.13100
H  26.16900 -1.86200 34.68000
H  24.05600 -0.15100 34.27500
H  22.73300 -1.89100 34.70800
H  24.16200 -2.77900 35.10500
H  23.39400 -2.86600 33.46500
H  25.62200 1.03900 34.69800
H  27.25900 0.70100 34.22400
H  27.61500 -0.49000 36.50800
H  25.87600 -0.60700 36.56500
H  19.51500 -1.71500 29.71100
H  20.00200 -0.22100 30.62100
H  20.31700 -1.83000 31.26900
H  19.28100 0.21400 28.28600
H  19.04300 -1.42100 27.48000
H  18.81400 0.06200 26.60300
H  25.82600 -0.65800 24.78400
H  27.56400 -3.07800 24.91500
H  26.05300 -3.35300 23.77200
H  25.14000 -1.94600 23.22400
H  24.32300 -2.94600 24.38900
H  28.56600 -1.39100 23.72600
H  29.67700 -1.61600 25.04400
H  28.11900 0.58300 25.92500
H  28.35600 0.78700 24.08600
H  29.73400 0.56900 25.11900
H  32.31100 -1.62600 29.46400
H  31.67700 -2.49100 28.03400
H  31.99600 -3.33700 29.51300
H  29.26300 -0.48900 33.89500
H  30.33300 -4.03600 36.38800
H  29.57500 -2.70100 37.23700
H  31.37900 -2.70200 36.84800
Mg 26.01900 50.75200 27.08300
C  23.62300 51.99400 29.28600
C  28.05600 49.98800 29.54100
C  28.34200 49.93200 24.74300
C  23.96900 52.16000 24.44600
N  25.88400 51.09400 29.18500
C  24.79100 51.40800 29.93600
C  25.01700 51.07300 31.44900
C  26.46300 50.71800 31.46000
C  26.87900 50.61600 29.98400
C  27.36100 51.72400 32.23200
C  24.02800 49.95900 32.02000
C  23.52800 50.29000 33.46700
H  24.40400 51.14800 34.41700
N  27.87100 50.01700 27.10200
C  28.58000 49.73100 28.27500
C  29.76600 49.06000 27.94700
C  29.91300 49.17200 26.50100
C  28.68800 49.75000 26.06200
C  30.70200 48.51800 28.99500
C  31.11000 48.85500 25.61000
O  31.13800 49.19400 24.40200
C  32.47500 48.33900 26.20500
N  26.10900 51.02800 24.89200
C  27.13800 50.45500 24.15200
C  26.80700 50.59000 22.65000
C  25.41600 51.31600 22.61300
C  25.15500 51.55300 24.08200
C  27.90200 51.38100 21.87200
C  24.17400 50.64400 21.94300
C  23.94200 50.98500 20.46400
N  24.18000 51.92400 26.82800
C  23.44200 52.27200 25.74900
C  22.22700 52.92300 26.13600
C  22.23300 52.86600 27.55200
C  23.45600 52.26000 27.93600
C  21.20200 53.45600 25.17300
C  21.45000 53.09700 28.74100
O  20.34300 53.60000 28.82900
C  22.29900 52.52600 29.87300
C  22.46700 53.61600 30.85300
O  23.16200 54.64700 30.74700
O  21.62800 53.38300 31.85300
C  21.73100 54.49600 32.91700
H  28.61700 49.75600 30.44900
H  28.96500 49.49400 23.96000
H  23.58500 52.72900 23.59700
H  24.89400 52.07600 31.85700
H  26.61500 49.73600 31.90900
H  27.63500 51.50900 33.26500
H  26.88900 52.70400 32.16100
H  28.27700 51.77600 31.64300
H  24.67300 49.09600 32.18700
H  23.16600 49.76100 31.38200
H  23.37400 49.32600 33.95200
H  22.58000 50.82800 33.47500
H  30.46900 48.94000 29.97300
H  31.74800 48.78800 28.84800
H  30.64600 47.43100 29.04300
H  32.18800 47.34700 26.55300
H  32.80700 48.97400 27.02600
H  33.28400 48.19400 25.48900
H  26.78600 49.56700 22.27500
H  25.63200 52.30900 22.21700
H  28.04400 50.95200 20.88000
H  28.79900 51.15800 22.45000
H  27.77900 52.45300 21.71600
H  23.28100 50.73300 22.56200
H  24.49300 49.60200 21.95300
H  24.71700 51.65600 20.09500
H  22.94700 51.38700 20.27100
H  24.00800 50.05800 19.89400
H  21.39800 54.47100 24.82600
H  20.21200 53.51200 25.62700
H  21.13100 52.84100 24.27700
H  21.61700 51.72600 30.15900
H  21.21900 55.39000 32.55900
H  22.74100 54.67400 33.28700
H  21.12100 54.18300 33.76400

