158

Mg 16.94700 51.54600 26.25500
C  18.77700 50.41100 28.87100
C  14.42700 52.52400 28.56900
C  15.02300 52.66500 23.62600
C  19.12200 50.22300 23.95600
N  16.63900 51.41500 28.50400
C  17.56400 50.97900 29.35000
C  17.27400 51.25400 30.84800
C  15.70800 51.67900 30.68500
C  15.52200 51.88900 29.16000
C  14.71700 50.63700 31.26900
C  18.17800 52.35500 31.54100
C  18.68900 52.06400 32.92200
H  17.75000 51.46900 33.98600
N  15.00900 52.46100 26.16600
C  14.13900 52.77300 27.18100
C  13.01100 53.50200 26.62900
C  13.23400 53.58000 25.23500
C  14.42400 52.83600 24.96800
C  11.94200 54.17300 27.47000
C  12.35800 54.30900 24.17800
O  12.70800 54.50200 23.01200
C  11.16400 55.10700 24.76300
N  17.02100 51.50200 24.08700
C  16.22500 52.11300 23.25700
C  16.59800 51.90300 21.82700
C  18.06700 51.39500 21.97800
C  18.07400 50.96700 23.39500
C  15.73100 51.01100 20.97700
C  19.13600 52.51700 21.81300
C  20.34800 52.06500 20.95700
N  18.53800 50.58800 26.32200
C  19.38600 50.04900 25.32500
C  20.47100 49.36400 25.95400
C  20.19700 49.52900 27.29000
C  19.06900 50.26600 27.47800
C  21.54400 48.70900 25.21600
C  20.76500 49.09500 28.53500
O  21.71600 48.36200 28.84300
C  19.96700 49.95700 29.63300
C  19.71400 48.94000 30.69600
O  18.79700 48.13900 30.68900
O  20.68200 48.94200 31.66800
C  20.53300 48.09100 32.83600
H  13.74900 52.93800 29.31800
H  14.58700 53.25300 22.81600
H  19.83700 49.76000 23.27200
H  17.33500 50.28000 31.33300
H  15.54300 52.64300 31.16600
H  14.18700 51.17300 32.05700
H  15.27800 49.84300 31.76300
H  14.04400 50.17400 30.54700
H  17.59100 53.27300 31.58500
H  19.12100 52.41600 30.99900
H  18.97800 53.08400 33.17400
H  19.67100 51.59400 32.87100
H  10.91800 53.91500 27.19900
H  12.17300 55.23800 27.45900
H  11.99200 53.94500 28.53500
H  11.31400 55.75400 25.62800
H  10.39900 54.34800 24.92300
H  10.75600 55.81800 24.04500
H  16.46200 52.86400 21.33100
H  18.33700 50.56900 21.32000
H  14.78100 50.71700 21.42500
H  16.29600 50.18000 20.55500
H  15.43100 51.71600 20.20200
H  19.61800 52.81900 22.74300
H  18.64000 53.38400 21.37600
H  20.72000 52.80300 20.24700
H  20.07500 51.26100 20.27300
H  21.28700 51.79000 21.43900
H  21.17200 48.24500 24.30300
H  22.11300 47.98100 25.79400
H  22.16600 49.58600 25.03900
H  20.56100 50.78200 30.02500
H  20.16000 48.81900 33.55800
H  21.56100 47.90600 33.14800
H  19.73200 47.35400 32.77400
Mg -1.92000 35.04300 26.80500
C  -3.73800 33.24900 29.44900
C  -0.22100 36.80000 29.18800
C  -0.81200 37.12900 24.43800
C  -3.93000 33.41100 24.55600
N  -2.04100 35.08100 29.03900
C  -2.74900 34.27800 29.90600
C  -2.34300 34.59500 31.32000
C  -1.42700 35.81500 31.22300
C  -1.21000 35.94500 29.72500
C  -1.91100 37.07500 31.96800
C  -1.60900 33.33700 31.99600
C  -2.36700 32.71900 33.19300
H  -1.53100 32.28000 34.44400
N  -0.58600 36.63100 26.77900
C  0.02000 37.19100 27.85900
C  0.95500 38.21600 27.43200
C  0.82700 38.29500 26.07800
C  -0.26800 37.41700 25.71800
C  1.80300 38.98600 28.43100
C  1.50500 39.18700 25.16000
O  1.33400 39.34300 23.96800
C  2.59400 40.04800 25.78700
N  -2.31500 35.27100 24.78200
C  -1.74200 36.22400 23.98500
C  -2.21300 36.15100 22.55500
C  -3.10700 34.88700 22.51100
C  -3.18700 34.49600 24.05500
C  -2.94400 37.42300 22.07200
C  -2.61400 33.71300 21.66900
C  -1.18200 33.32200 21.96500
N  -3.50100 33.60000 26.88800
C  -4.13100 32.98700 25.90800
C  -4.97200 31.91700 26.45000
C  -4.87100 32.00400 27.85000
C  -3.98800 33.01000 28.08700
C  -5.67700 30.95900 25.55500
C  -5.34300 31.46300 29.16900
O  -6.16100 30.59900 29.42300
C  -4.65000 32.36400 30.29000
C  -5.72200 33.08300 30.95600
O  -6.25900 34.07200 30.58600
O  -6.12200 32.40900 32.07200
C  -7.13600 33.12400 32.84800
H  0.33400 37.30500 29.98200
H  -0.37700 37.65700 23.58600
H  -4.43200 32.71400 23.88300
H  -3.21200 34.87100 31.91700
H  -0.40200 35.56400 31.49500
H  -2.62800 36.78100 32.73400
H  -2.53600 37.63000 31.26800
H  -1.17600 37.77100 32.37300
H  -0.55100 33.39900 32.25100
H  -1.53200 32.63000 31.17000
H  -2.81900 31.79700 32.82800
H  -3.21100 33.32900 33.51300
H  2.86800 38.97200 28.19900
H  1.89800 38.41800 29.35700
H  1.51200 40.02600 28.57600
H  2.20800 40.63700 26.61800
H  3.06100 40.69700 25.04700
H  3.46300 39.52100 26.18300
H  -1.31400 36.08100 21.94300
H  -4.15800 35.04000 22.26500
H  -2.87200 38.12800 22.90000
H  -4.00500 37.25800 21.88100
H  -2.41300 37.79700 21.19700
H  -2.68300 33.97600 20.61400
H  -3.28500 32.88000 21.88000
H  -1.00300 32.29800 22.29200
H  -0.87300 34.00300 22.75800
H  -0.62600 33.55600 21.05700
H  -5.94100 30.02500 26.05200
H  -4.99000 30.81500 24.72100
H  -6.56000 31.48000 25.18500
H  -4.05000 31.70300 30.91600
H  -6.77300 33.89400 33.52900
H  -7.64500 32.35900 33.43600
H  -7.93200 33.49600 32.20500

