158

Mg 54.25100 23.20000 44.33100
C  51.98900 25.77400 43.43400
C  51.73700 20.85600 43.54700
C  56.59200 20.90400 44.40300
C  56.64200 25.72100 44.81100
N  52.08200 23.23100 43.47500
C  51.49900 24.44900 43.25300
C  50.10400 24.09800 42.60300
C  49.82100 22.60100 43.05100
C  51.26700 22.21200 43.37700
C  48.90500 22.31100 44.22800
C  50.09600 24.26400 41.05700
C  48.81300 24.88500 40.44400
H  48.31800 24.11300 39.14500
N  54.21500 21.20700 43.93500
C  53.07000 20.42200 43.73100
C  53.51000 19.01900 43.86100
C  54.91800 19.04100 44.04800
C  55.31800 20.44600 44.10600
C  52.60500 17.84600 43.56700
C  55.76400 17.81100 44.15400
O  55.22200 16.70400 44.05500
C  57.26700 17.81700 44.60800
N  56.43000 23.32900 44.28900
C  57.05000 22.21300 44.56400
C  58.53000 22.50600 44.72300
C  58.55200 24.05900 44.92000
C  57.17300 24.43500 44.65600
C  59.18700 21.71100 45.88500
C  59.64200 24.75900 44.03200
C  60.57800 25.71500 44.84900
N  54.36100 25.31200 44.28900
C  55.32200 26.20600 44.61600
C  54.82400 27.58700 44.55700
C  53.48500 27.47400 44.14700
C  53.28100 26.07300 43.91300
C  55.58000 28.79300 44.94100
C  52.27300 28.17300 43.84700
O  52.03400 29.37600 43.84900
C  51.27100 27.14500 43.22700
C  51.20400 27.55600 41.78300
O  52.14100 27.34500 40.99700
O  50.02300 28.12500 41.48700
C  49.74400 28.56200 40.13500
H  50.94000 20.12700 43.38300
H  57.50000 20.29700 44.42300
H  57.32800 26.48100 45.19100
H  49.36200 24.78400 43.01300
H  49.52400 21.95700 42.22300
H  48.31000 21.41800 44.03800
H  48.21400 23.15100 44.29800
H  49.49500 22.24900 45.14200
H  50.27400 23.30900 40.56200
H  50.96100 24.91300 40.91800
H  48.98900 25.91500 40.13600
H  47.98900 24.96700 41.15200
H  52.76600 16.88600 44.05700
H  52.68100 17.58600 42.51100
H  51.61000 18.18700 43.85300
H  57.81000 18.32300 43.80900
H  57.70200 16.82100 44.52200
H  57.36900 18.28000 45.58900
H  58.98500 22.22900 43.77200
H  58.71700 24.22900 45.98400
H  59.45900 20.71200 45.54500
H  58.40000 21.55000 46.62200
H  60.02000 22.21400 46.37600
H  59.13400 25.33800 43.26100
H  60.25800 23.93900 43.66400
H  60.41000 26.77700 44.66600
H  61.62000 25.44200 44.68200
H  60.39400 25.57900 45.91500
H  56.50100 28.99500 44.39500
H  55.70900 28.76100 46.02300
H  54.90100 29.62300 44.74700
H  50.28100 27.17700 43.68200
H  48.89400 28.02800 39.71000
H  50.59000 28.66400 39.45500
H  49.28700 29.55000 40.19000
Mg 48.60500 35.34200 26.30000
C  46.58200 34.11600 28.81300
C  48.84400 38.33600 27.97700
C  49.96000 36.71700 23.56200
C  47.53000 32.64500 24.31100
N  47.81100 36.16200 28.13600
C  47.16000 35.43700 29.11300
C  46.99600 36.25500 30.43900
C  47.30000 37.70500 29.93100
C  48.05900 37.41300 28.62900
C  46.08600 38.65100 29.80800
C  47.86400 35.67400 31.55200
C  47.32800 35.99800 33.01200
H  46.60600 37.35400 33.16000
N  49.42900 37.21300 25.92100
C  49.53600 38.26500 26.75200
C  50.22700 39.35900 26.05900
C  50.49900 38.92600 24.72100
C  49.93600 37.59200 24.67000
C  50.61300 40.63200 26.85400
C  51.22500 39.69700 23.63400
O  51.48300 39.15600 22.57400
C  51.65700 41.14600 23.77600
N  48.60000 34.83800 24.23700
C  49.40000 35.46300 23.42600
C  49.54700 34.77700 22.01800
C  48.81300 33.41600 22.28800
C  48.22200 33.62000 23.67700
C  48.89000 35.57500 20.83700
C  49.66800 32.03200 22.36800
C  49.17700 30.83700 21.51400
N  47.46700 33.64300 26.56300
C  47.14000 32.62200 25.63200
C  46.22600 31.71200 26.27900
C  45.93600 32.29200 27.56400
C  46.72100 33.44900 27.66700
C  45.60900 30.52400 25.75900
C  45.22000 32.07800 28.82200
O  44.48800 31.20600 29.19300
C  45.71200 33.24200 29.67400
C  46.38300 32.59200 30.80900
O  47.50000 32.02700 30.82900
O  45.62500 32.76900 31.96500
C  46.15100 31.99800 33.12600
H  48.96300 39.28400 28.50700
H  50.59600 36.94600 22.70400
H  47.27600 31.73800 23.75900
H  45.95300 36.14300 30.73400
H  48.01100 38.24000 30.56100
H  45.20500 38.10000 30.13700
H  45.74300 38.91800 28.80800
H  46.17200 39.47100 30.52000
H  48.78500 36.24700 31.44600
H  47.96800 34.59300 31.46500
H  48.19600 35.83100 33.64900
H  46.64700 35.23700 33.39300
H  51.46800 41.24200 26.56000
H  50.90800 40.29900 27.84900
H  49.78000 41.33000 26.93800
H  50.88300 41.78500 24.20200
H  51.72100 41.43300 22.72700
H  52.61500 41.48500 24.17000
H  50.60000 34.60500 21.79200
H  47.95300 33.25300 21.63900
H  48.08400 36.18900 21.24000
H  48.43600 34.85100 20.16100
H  49.56800 36.19800 20.25300
H  49.69500 31.66300 23.39300
H  50.63100 32.30400 21.93400
H  48.15700 31.06100 21.20000
H  49.24800 29.84100 21.95100
H  49.78800 30.86300 20.61200
H  45.43800 30.61100 24.68600
H  44.71200 30.19700 26.28400
H  46.41900 29.81300 25.92800
H  44.92500 33.82400 30.15500
H  46.15400 30.92000 32.96500
H  45.47900 32.16800 33.96600
H  47.18400 32.21700 33.39800

