158

Mg 24.66400 -8.29300 47.45300
C  27.11100 -6.19700 46.16600
C  22.59400 -7.30900 44.77500
C  22.65400 -10.96800 47.96000
C  27.18200 -9.86400 49.30700
N  24.86200 -7.06300 45.64100
C  25.93400 -6.16700 45.42300
C  25.63600 -5.24800 44.22000
C  24.14300 -5.54100 43.84200
C  23.84200 -6.74200 44.78800
C  23.19000 -4.30800 44.07200
C  26.72200 -5.31800 43.09000
C  27.55000 -3.96600 42.74300
H  27.64900 -3.52900 41.24400
N  22.77400 -8.90400 46.66600
C  22.08600 -8.33900 45.59800
C  20.76700 -9.00000 45.51200
C  20.70900 -9.93200 46.51000
C  22.09000 -9.96600 47.15700
C  19.79900 -8.59700 44.40500
C  19.50900 -10.75400 46.86500
O  18.54900 -10.75700 46.13700
C  19.41200 -11.72600 48.00400
N  24.79000 -10.08500 48.65000
C  23.83100 -11.00500 48.75800
C  24.22500 -12.24600 49.49600
C  25.72600 -11.94600 49.86800
C  25.90600 -10.47400 49.29100
C  23.32300 -12.56600 50.77600
C  26.72100 -12.96800 49.29400
C  27.42300 -13.80300 50.40000
N  26.70500 -7.92900 47.91400
C  27.57600 -8.71300 48.60100
C  28.86200 -8.11300 48.48300
C  28.72300 -7.05700 47.60300
C  27.39100 -7.08100 47.23400
C  30.21400 -8.55000 48.97600
C  29.44700 -6.03500 46.93900
O  30.55600 -5.60800 47.07000
C  28.40600 -5.40600 45.99700
C  28.23800 -3.99000 46.36900
O  27.57300 -3.55000 47.30400
O  28.88700 -3.17800 45.46700
C  28.71100 -1.71400 45.67500
H  21.90900 -6.74200 44.14000
H  21.95700 -11.78100 48.17400
H  27.99900 -10.42600 49.76400
H  25.66800 -4.28700 44.73400
H  24.09000 -5.86500 42.80200
H  22.79600 -4.13000 45.07200
H  22.26600 -4.31200 43.49400
H  23.69900 -3.39100 43.77600
H  26.43100 -5.62400 42.08500
H  27.41500 -6.12500 43.32800
H  28.54200 -4.25300 43.09200
H  27.14000 -3.17100 43.36500
H  18.75400 -8.57900 44.71200
H  19.87500 -9.30000 43.57500
H  19.96700 -7.68900 43.82700
H  19.83800 -11.16000 48.83200
H  19.95600 -12.62400 47.71200
H  18.40200 -11.98400 48.32500
H  24.25100 -13.06800 48.78200
H  25.74800 -11.78000 50.94500
H  22.70400 -13.41300 50.48000
H  22.57600 -11.79800 50.97200
H  23.86500 -12.90100 51.66000
H  27.49300 -12.48700 48.69300
H  26.14900 -13.60400 48.61900
H  26.72200 -14.41500 50.96800
H  27.99600 -13.11000 51.01400
H  28.15900 -14.45600 49.93100
H  30.26700 -9.42600 49.62200
H  30.72800 -7.73000 49.47900
H  30.75700 -8.71400 48.04600
H  28.77400 -5.62400 44.99400
H  29.53700 -1.21000 45.17400
H  28.73600 -1.54700 46.75100
H  27.73700 -1.35100 45.34500
Mg 26.24200 50.91800 25.72200
C  24.06600 52.26400 28.05600
C  28.43700 50.13500 28.30200
C  28.54700 50.00300 23.41100
C  24.23400 52.08500 23.19900
N  26.23600 51.18900 27.95700
C  25.19800 51.64900 28.68900
C  25.46600 51.44100 30.22700
C  26.99800 50.99800 30.28800
C  27.23400 50.70600 28.76900
C  27.98500 52.16200 30.61200
C  24.54800 50.32900 30.97000
C  24.19400 50.41800 32.48000
H  25.10200 51.19300 33.41600
N  28.18100 50.15500 25.84800
C  28.89100 49.87100 27.01900
C  30.17300 49.25800 26.65400
C  30.30400 49.44200 25.24900
C  28.97900 49.90700 24.74700
C  31.23200 48.77200 27.69200
C  31.43500 49.12100 24.31200
O  31.41100 49.33000 23.10800
C  32.76100 48.57900 24.90600
N  26.46400 51.11900 23.63300
C  27.39600 50.55800 22.86000
C  27.06100 50.71600 21.37500
C  25.63600 51.34000 21.35500
C  25.43800 51.53600 22.81700
C  28.24300 51.51000 20.64900
C  24.57900 50.47200 20.50700
C  24.00800 49.17400 21.04100
N  24.42600 51.98600 25.61300
C  23.69100 52.44700 24.53500
C  22.39500 53.00400 25.04100
C  22.50400 52.91000 26.39300
C  23.75300 52.32500 26.70800
C  21.38300 53.65400 24.14600
C  21.80400 53.27200 27.57300
O  20.67400 53.79400 27.76500
C  22.83300 52.83000 28.77200
C  23.23100 53.98500 29.64000
O  24.03300 54.88800 29.43500
O  22.70100 53.92000 30.84200
C  23.09600 54.78800 31.95400
H  29.14100 49.85900 29.09000
H  29.24400 49.57500 22.68800
H  23.61800 52.45400 22.37600
H  25.26300 52.41300 30.67700
H  27.20300 50.10700 30.88000
H  28.10400 52.24600 31.69200
H  27.54600 53.07100 30.19800
H  28.94200 52.07600 30.09800
H  25.08100 49.38000 30.90600
H  23.55600 50.24800 30.52400
H  24.15300 49.43200 32.94300
H  23.17000 50.77700 32.59000
H  31.69900 47.82200 27.43400
H  30.80900 48.59600 28.68100
H  31.96100 49.58100 27.74700
H  33.52100 48.46000 24.13300
H  32.51700 47.57700 25.25600
H  33.07000 49.20600 25.74200
H  26.99600 49.73700 20.89900
H  25.55900 52.34900 20.94800
H  28.99500 51.82500 21.37300
H  27.77900 52.43700 20.31300
H  28.64700 50.97000 19.79300
H  25.02600 50.28200 19.53100
H  23.72100 51.14100 20.45100
H  22.92500 49.16500 20.92200
H  24.04900 49.03200 22.12100
H  24.46700 48.31700 20.54800
H  21.73400 53.84900 23.13300
H  21.10800 54.57300 24.66400
H  20.51600 53.00100 24.04900
H  22.33600 52.12600 29.44000
H  22.12000 55.22700 32.15800
H  23.93500 55.44400 31.72000
H  23.35200 54.20800 32.84000

