158

Mg -2.36500 16.96600 26.15800
C  -2.28000 14.63300 28.75400
C  -2.93500 19.27200 28.50700
C  -2.63500 19.17500 23.70500
C  -2.16900 14.55100 23.80000
N  -2.97300 16.88000 28.42600
C  -2.59600 15.84700 29.26900
C  -2.83200 16.31000 30.71700
C  -3.00700 17.89100 30.63900
C  -2.83100 18.06400 29.10000
C  -4.41700 18.40100 31.15000
C  -1.61700 16.06700 31.65000
C  -1.47400 16.76100 33.03200
H  -1.71000 16.07300 34.36700
N  -2.70600 18.92100 26.06600
C  -2.89900 19.77200 27.18100
C  -3.10700 21.12300 26.73000
C  -3.07200 21.08900 25.28000
C  -2.84300 19.66900 24.96000
C  -3.33100 22.22000 27.78900
C  -3.13700 22.20500 24.25400
O  -3.14700 22.09700 23.03700
C  -3.26100 23.57300 24.84500
N  -2.46800 16.85400 23.98700
C  -2.56000 17.88800 23.20200
C  -2.40400 17.55500 21.67400
C  -2.27700 15.95600 21.73700
C  -2.32700 15.72100 23.26700
C  -3.55700 18.02400 20.85800
C  -0.93200 15.44700 21.06500
C  0.36900 15.85100 21.78100
N  -2.26000 15.08600 26.26800
C  -2.09700 14.19600 25.14200
C  -1.90200 12.89900 25.67400
C  -2.01200 13.07700 27.07400
C  -2.26200 14.34800 27.40300
C  -1.83400 11.64700 25.01700
C  -1.80700 12.25800 28.27600
O  -1.40200 11.09200 28.43800
C  -2.10700 13.26600 29.49100
C  -0.97400 13.04400 30.40300
O  0.08100 13.62300 30.19700
O  -1.31700 12.26800 31.43500
C  -0.23200 11.83200 32.27900
H  -3.01400 20.06700 29.25200
H  -2.72900 19.93800 22.93000
H  -1.88400 13.74200 23.12400
H  -3.72800 15.80900 31.08300
H  -2.18200 18.35800 31.17500
H  -4.33900 18.96000 32.08300
H  -5.01900 17.51600 31.35600
H  -4.95300 19.03900 30.44700
H  -0.70700 15.96500 31.05900
H  -1.86300 15.06500 32.00200
H  -1.99000 17.71000 33.17500
H  -0.42000 17.03100 33.09700
H  -3.77900 23.08100 27.29300
H  -2.34600 22.52300 28.14500
H  -3.96200 21.94700 28.63500
H  -4.32200 23.71500 25.05200
H  -2.95900 24.31700 24.10800
H  -2.65300 23.58700 25.74900
H  -1.51000 18.06300 21.31400
H  -3.15000 15.60000 21.19000
H  -3.32300 18.99400 20.42100
H  -4.44800 18.06000 21.48500
H  -3.64900 17.37100 19.99000
H  -0.79600 15.99200 20.13000
H  -0.96000 14.35900 21.00300
H  0.16900 16.53600 22.60400
H  1.02900 16.38900 21.10100
H  0.83800 14.97900 22.23900
H  -1.40000 11.84500 24.03700
H  -2.84000 11.23000 25.05500
H  -1.15300 11.11900 25.68600
H  -2.98800 12.83700 29.97000
H  -0.05800 12.67300 32.95000
H  0.64100 11.54700 31.69000
H  -0.59000 11.02000 32.91200
Mg 1.82700 -2.64100 44.34800
C  5.39700 -2.47000 43.82800
C  1.60000 0.19900 42.33900
C  -1.33500 -3.32700 44.05200
C  2.38600 -5.86900 45.71600
N  3.44100 -1.26700 43.26100
C  4.83900 -1.42700 43.14000
C  5.41000 -0.36800 42.15700
C  4.17400 0.50900 41.75200
C  2.94200 -0.19400 42.50100
C  4.31800 2.03700 42.05300
C  6.27600 -1.02900 40.94100
C  7.62900 -0.43000 40.58500
H  7.68800 0.86600 39.83000
N  0.22800 -1.61600 43.51300
C  0.38400 -0.43300 42.78000
C  -0.94000 0.03000 42.43800
C  -1.91000 -0.94100 42.83400
C  -1.03100 -1.97500 43.54000
C  -1.03500 1.44200 41.87300
C  -3.39900 -0.87700 42.66300
O  -3.96800 0.04200 42.10000
C  -4.30500 -1.79900 43.30000
N  0.75100 -4.35900 44.84000
C  -0.58100 -4.34600 44.67600
C  -1.16100 -5.67200 45.16600
C  0.04700 -6.57900 45.46600
C  1.11400 -5.57400 45.34000
C  -2.28700 -5.45100 46.32800
C  0.23900 -7.79300 44.52700
C  0.65800 -9.15000 45.28900
N  3.48200 -3.83600 44.93600
C  3.57400 -5.13000 45.35800
C  4.97000 -5.49900 45.59400
C  5.65800 -4.42700 45.13500
C  4.74900 -3.49300 44.55000
C  5.44400 -6.81200 46.15600
C  7.04500 -4.03800 44.91500
O  8.02000 -4.56500 45.23000
C  6.92500 -2.78200 43.85800
C  7.68900 -1.59100 44.31700
O  7.30600 -0.64300 44.97000
O  8.98200 -1.63100 43.80300
C  9.77700 -0.43700 43.91200
H  1.51400 1.04500 41.65500
H  -2.35700 -3.67900 43.89700
H  2.55200 -6.87600 46.10300
H  6.09300 0.28400 42.70200
H  3.84600 0.48700 40.71300
H  5.33800 2.29600 42.33700
H  3.61700 2.28000 42.85100
H  3.99800 2.63200 41.19800
H  5.64200 -1.02900 40.05400
H  6.46600 -2.07800 41.16700
H  8.12200 -1.18300 39.97000
H  8.27600 -0.30100 41.45200
H  -2.07100 1.64100 41.59800
H  -0.46300 1.42000 40.94600
H  -0.54100 2.18100 42.50500
H  -5.37900 -1.65200 43.19000
H  -3.91800 -1.98400 44.30300
H  -4.13500 -2.70700 42.72100
H  -1.64800 -6.04800 44.26600
H  0.00400 -6.90800 46.50400
H  -2.67100 -4.44000 46.19000
H  -1.86300 -5.35400 47.32700
H  -3.01600 -6.25100 46.19800
H  1.05500 -7.58700 43.83400
H  -0.69900 -8.01200 44.01700
H  -0.11800 -9.91500 45.24700
H  0.84600 -9.14300 46.36200
H  1.60500 -9.44200 44.83500
H  5.57700 -6.75400 47.23600
H  6.44800 -7.02400 45.78800
H  4.71200 -7.58000 45.90900
H  7.26000 -3.07700 42.86300
H  10.32900 -0.44900 44.85200
H  9.15800 0.45500 43.82500
H  10.61300 -0.46900 43.21200

