158

Mg 36.24600 49.50400 25.78700
C  36.22700 47.43800 28.61500
C  34.95200 52.14300 27.85100
C  35.63400 51.33100 22.98300
C  37.12400 46.68800 23.89900
N  35.58900 49.70700 27.92300
C  35.74300 48.77500 28.88400
C  35.49400 49.29300 30.30700
C  34.82700 50.66800 30.01800
C  35.17200 50.89500 28.53700
C  33.41000 50.96500 30.50800
C  36.74200 49.43200 31.13600
C  36.55600 48.87300 32.57300
H  35.25300 49.13000 33.29300
N  35.54300 51.45400 25.50500
C  35.06800 52.37500 26.42300
C  34.78900 53.60400 25.79000
C  34.89600 53.35300 24.36000
C  35.30800 51.99300 24.28500
C  34.25800 54.81200 26.59200
C  34.65500 54.28400 23.11600
O  34.81300 54.00200 21.96300
C  33.86100 55.56100 23.44500
N  36.56100 49.12200 23.77800
C  36.14100 49.98900 22.81800
C  36.36400 49.39000 21.43400
C  37.15300 48.13600 21.76100
C  36.92700 47.93700 23.23400
C  35.11600 49.22500 20.47900
C  38.65900 48.15700 21.31100
C  39.02100 47.03600 20.31400
N  36.78300 47.58900 26.14000
C  37.02900 46.54700 25.30800
C  37.26100 45.32000 25.96700
C  36.98800 45.61500 27.29000
C  36.67600 46.97800 27.37000
C  37.61800 44.02200 25.28100
C  36.91300 45.08500 28.61700
O  37.13400 44.00800 29.05200
C  36.43200 46.32800 29.56500
C  35.26400 45.77700 30.40000
O  34.12100 45.74800 30.01600
O  35.67500 45.30900 31.67200
C  34.56100 44.78500 32.51900
H  34.63400 52.91900 28.55100
H  35.52400 51.86800 22.03900
H  37.43600 45.86400 23.25500
H  34.77100 48.61000 30.75300
H  35.31200 51.44400 30.61000
H  32.97400 50.03400 30.87000
H  32.74500 51.23500 29.68800
H  33.32700 51.78500 31.22100
H  37.17000 50.43400 31.16500
H  37.62700 48.96000 30.70700
H  37.11600 49.56700 33.19900
H  36.83100 47.82100 32.64900
H  34.45100 55.75700 26.08400
H  34.77800 54.99500 27.53200
H  33.21000 54.69100 26.86500
H  33.13500 55.29000 24.21100
H  33.42100 55.81700 22.48100
H  34.49600 56.41300 23.68800
H  36.97000 50.09900 20.86900
H  36.61200 47.27400 21.37100
H  34.25400 49.46700 21.10100
H  34.94100 48.18100 20.22000
H  35.26400 49.85400 19.60200
H  39.27200 47.88200 22.16900
H  38.97200 49.17400 21.07500
H  39.14000 47.59900 19.38800
H  38.15800 46.38200 20.18500
H  39.91000 46.54900 20.71400
H  38.67300 43.99500 25.00900
H  36.96600 43.92500 24.41300
H  37.45000 43.15400 25.91900
H  37.24700 46.55900 30.25100
H  34.82300 45.09100 33.53100
H  34.36800 43.71300 32.54100
H  33.63100 45.28400 32.24400
Mg 8.89200 48.61000 25.48100
C  7.05100 48.56200 28.49200
C  11.60100 49.88000 27.35900
C  10.67400 48.86700 22.62300
C  6.02000 47.98200 23.76900
N  9.35900 49.04400 27.75600
C  8.41400 48.94300 28.76900
C  8.90100 49.45800 30.07300
C  10.29500 50.10400 29.62300
C  10.50100 49.68400 28.13400
C  10.51700 51.62700 29.90300
C  8.86200 48.61200 31.35800
C  9.87000 48.91400 32.54700
H  9.24800 48.75600 33.97600
N  10.94400 49.15100 25.06800
C  11.91900 49.53700 26.00300
C  13.20100 49.55300 25.25600
C  12.92700 49.26700 23.87000
C  11.44800 49.08600 23.77800
C  14.52800 49.91700 25.90400
C  13.88600 49.33400 22.69000
O  13.49900 49.15100 21.53100
C  15.44000 49.61700 22.75900
N  8.39100 48.50600 23.46700
C  9.31900 48.46000 22.52700
C  8.69700 48.25500 21.14900
C  7.25800 47.75400 21.51700
C  7.16800 48.09900 22.99200
C  8.74800 49.48200 20.18700
C  6.85900 46.20800 21.28600
C  6.60000 45.92100 19.79100
N  7.01400 48.28700 26.00600
C  5.90700 48.04100 25.17300
C  4.71300 47.84300 25.90900
C  5.13200 48.05800 27.24000
C  6.53700 48.30400 27.23600
C  3.26800 47.62600 25.34600
C  4.70700 48.14400 28.60300
O  3.59200 48.08500 29.03600
C  5.93600 48.46100 29.49000
C  6.00400 47.24000 30.31100
O  6.84300 46.32700 30.23300
O  5.02800 47.15600 31.21900
C  5.27200 46.26600 32.40200
H  12.49700 50.18600 27.90300
H  11.19100 48.90600 21.66300
H  5.05300 47.80700 23.29200
H  8.26100 50.29600 30.35000
H  11.13100 49.57300 30.07800
H  11.56200 51.87000 30.09800
H  9.86200 52.04600 30.66700
H  10.43400 52.17600 28.96500
H  9.19000 47.62900 31.02000
H  7.85300 48.44300 31.73300
H  10.05800 49.97800 32.39700
H  10.80500 48.36000 32.46600
H  14.63200 49.67200 26.96100
H  14.88400 50.91100 25.63000
H  15.27500 49.24400 25.48400
H  15.78000 49.99800 21.79600
H  15.97100 48.71700 23.06800
H  15.56500 50.40200 23.50500
H  9.20200 47.40000 20.70000
H  6.57800 48.39100 20.95200
H  9.31300 49.32300 19.26800
H  9.27400 50.29300 20.69100
H  7.74700 49.85200 19.96200
H  5.94600 46.01900 21.85000
H  7.67800 45.52300 21.50300
H  6.62500 46.84600 19.21400
H  5.65300 45.39800 19.66200
H  7.43500 45.30400 19.46000
H  2.59700 47.88000 26.16700
H  3.04500 46.68900 24.83600
H  2.96200 48.43000 24.67700
H  5.70100 49.32600 30.11100
H  4.35300 46.11100 32.96600
H  6.02500 46.69500 33.06300
H  5.65600 45.29100 32.10000

