158

Mg 1.68500 8.10300 27.91200
C  2.35500 10.57100 30.46400
C  1.58500 5.76700 30.27000
C  1.15900 5.99600 25.42200
C  2.21100 10.74400 25.60300
N  2.01500 8.17400 30.12600
C  2.04400 9.26800 30.94200
C  1.64600 8.87500 32.43100
C  1.83200 7.30300 32.31500
C  1.72900 7.03900 30.83200
C  3.07000 6.79200 32.90700
C  0.15400 9.28000 32.87600
C  -0.14500 9.50000 34.28000
H  0.97800 9.11100 35.29500
N  1.54500 6.15900 27.85400
C  1.60700 5.32100 28.92600
C  1.58100 3.96100 28.51700
C  1.29300 3.98500 27.09900
C  1.34400 5.40600 26.72800
C  1.84700 2.78100 29.38900
C  1.06100 2.83200 26.11800
O  1.10300 3.05300 24.92700
C  1.05800 1.41200 26.62200
N  1.57500 8.37800 25.85300
C  1.38300 7.32900 25.00800
C  1.22900 7.79100 23.55500
C  1.67800 9.35000 23.60200
C  1.87900 9.49300 25.13400
C  2.03100 7.00600 22.51700
C  0.73900 10.23600 22.80700
C  -0.77900 10.24800 23.36900
N  2.19600 10.29000 27.94500
C  2.38500 11.16400 26.98200
C  2.72200 12.49700 27.56800
C  2.64100 12.30800 28.93500
C  2.39000 10.94500 29.10800
C  2.87900 13.69400 26.83100
C  2.75800 12.96000 30.25600
O  3.08600 14.08800 30.57000
C  2.48100 11.79500 31.28900
C  3.39900 11.67400 32.39300
O  4.61200 11.38400 32.35100
O  2.64700 12.02900 33.50000
C  3.41800 12.11800 34.70900
H  1.50000 5.03000 31.07100
H  0.87900 5.33200 24.60100
H  2.48700 11.45600 24.82200
H  2.43200 9.31600 33.04300
H  0.96900 6.79100 32.74000
H  3.72600 7.55900 33.32000
H  3.64800 6.17600 32.21800
H  2.74800 6.08200 33.66900
H  -0.40300 8.42500 32.49500
H  -0.15400 10.17200 32.33100
H  -0.99800 8.86700 34.52400
H  -0.42200 10.54200 34.44200
H  2.56600 2.20700 28.80500
H  0.97400 2.13300 29.46300
H  2.32100 3.00700 30.34400
H  0.48600 0.85200 25.88200
H  0.45600 1.45500 27.52900
H  2.11700 1.20300 26.77900
H  0.18300 7.59300 23.32000
H  2.69800 9.50700 23.25300
H  2.43800 6.10100 22.96700
H  2.77300 7.61100 21.99500
H  1.39500 6.65400 21.70500
H  0.74000 9.88300 21.77600
H  1.06000 11.27500 22.73000
H  -1.45100 9.89200 22.58800
H  -0.99900 11.25600 23.72000
H  -0.86600 9.59100 24.23500
H  2.10700 13.70800 26.06200
H  3.90100 13.66800 26.45400
H  2.62700 14.58500 27.40700
H  1.47600 11.90100 31.69700
H  2.86000 12.38100 35.60800
H  4.20100 12.86300 34.56900
H  3.89300 11.14700 34.84900
Mg -11.60400 38.19300 43.45200
C  -9.03500 35.97900 42.46100
C  -10.41200 40.46800 41.31700
C  -14.50700 39.93600 43.78400
C  -13.17200 35.39200 44.90600
N  -9.83900 38.15500 42.05200
C  -8.92700 37.19500 41.77000
C  -7.89700 37.70400 40.85100
C  -8.25900 39.21500 40.58800
C  -9.59100 39.32700 41.41300
C  -7.20800 40.30400 40.77900
C  -7.85400 36.82700 39.51200
C  -6.68000 35.85000 39.39200
H  -5.49000 36.39000 38.58600
N  -12.25100 39.94800 42.74100
C  -11.61100 40.81300 41.91800
C  -12.29800 42.07000 41.81600
C  -13.48800 41.94500 42.56800
C  -13.42900 40.55800 43.12500
C  -11.76400 43.26300 40.99400
C  -14.59200 42.94900 42.64800
O  -14.40500 43.94000 41.94900
C  -15.80900 42.87100 43.51000
N  -13.58500 37.72300 44.15500
C  -14.58500 38.62900 44.17500
C  -15.85900 38.01600 44.74200
C  -15.39000 36.60600 45.12700
C  -13.97300 36.58000 44.69800
C  -16.44900 38.81500 45.90300
C  -16.12900 35.48600 44.45100
C  -16.36800 34.10300 45.25900
N  -11.17500 36.26400 43.78200
C  -11.77700 35.26200 44.56200
C  -11.01900 34.05700 44.63600
C  -9.84800 34.32800 43.95200
C  -10.05500 35.58400 43.33800
C  -11.24300 32.88600 45.46500
C  -8.57000 33.82000 43.56600
O  -7.94300 32.78800 43.85900
C  -7.97200 34.79500 42.52300
C  -6.62900 35.15300 42.97400
O  -5.71400 34.34400 42.99800
O  -6.44900 36.43500 43.44700
C  -5.07100 36.71300 43.97100
H  -10.01800 41.19000 40.59900
H  -15.48400 40.41300 43.67700
H  -13.59700 34.51500 45.40000
H  -6.92800 37.64200 41.34700
H  -8.72900 39.33500 39.61200
H  -7.16400 41.00400 39.94400
H  -6.25600 39.81600 40.98700
H  -7.42500 41.04200 41.55100
H  -7.78100 37.60500 38.75300
H  -8.78000 36.26400 39.39700
H  -7.06800 34.88700 39.06200
H  -6.24100 35.68700 40.37600
H  -12.27700 43.27000 40.03300
H  -10.69400 43.10000 40.86700
H  -11.91600 44.13300 41.63400
H  -16.54500 42.20600 43.05700
H  -16.27400 43.85600 43.55500
H  -15.51800 42.60700 44.52600
H  -16.60600 37.98700 43.94900
H  -15.43400 36.31000 46.17500
H  -16.64100 38.29600 46.84300
H  -17.40000 39.26400 45.61600
H  -15.79200 39.62200 46.22800
H  -15.63300 35.19500 43.52500
H  -17.14800 35.73800 44.15800
H  -15.99400 33.28500 44.64400
H  -17.42700 33.89200 45.40900
H  -15.89100 34.28400 46.22200
H  -12.02200 33.08700 46.20100
H  -10.37500 32.66800 46.08700
H  -11.38400 32.03800 44.79500
H  -7.92600 34.28800 41.56000
H  -4.43800 36.80100 43.08700
H  -4.57100 35.92400 44.53300
H  -5.09800 37.65800 44.51300

