158

Mg 47.76300 25.56400 28.41300
C  48.95000 27.78900 30.85400
C  46.63800 23.46500 30.82800
C  46.92900 23.50800 25.92600
C  49.63200 27.62900 26.01400
N  47.79500 25.64800 30.57300
C  48.34100 26.60000 31.38700
C  47.95000 26.28400 32.86100
C  47.44500 24.75700 32.80900
C  47.28300 24.57500 31.31100
C  48.38100 23.76500 33.46600
C  47.04100 27.42300 33.36500
C  47.69900 27.95400 34.74900
H  46.68400 28.29200 35.87600
N  46.75800 23.70500 28.36000
C  46.43400 23.01900 29.49800
C  45.84800 21.78700 29.05200
C  45.96800 21.74000 27.61600
C  46.59100 23.03800 27.22200
C  45.12800 20.81500 30.01700
C  45.66100 20.64400 26.62700
O  45.70500 20.78300 25.37900
C  45.09500 19.39900 27.10500
N  48.43300 25.50800 26.29500
C  47.77100 24.55400 25.51500
C  48.06300 24.83100 24.04800
C  48.85100 26.19500 24.01400
C  48.99200 26.49200 25.49500
C  48.87400 23.59100 23.29600
C  48.24600 27.38600 23.25100
C  49.24200 28.08200 22.30300
N  49.09800 27.29500 28.41700
C  49.72000 27.97600 27.39000
C  50.40600 29.14400 27.95300
C  50.12800 29.08600 29.32300
C  49.26900 28.00900 29.54300
C  51.31800 30.01700 27.24100
C  50.35300 29.70900 30.58500
O  51.08800 30.65400 30.81900
C  49.65600 28.85300 31.65400
C  50.55200 28.31300 32.68500
O  51.23700 27.30700 32.56100
O  50.50700 29.12700 33.83200
C  51.28500 28.70100 35.05200
H  46.30300 22.65700 31.48200
H  46.56800 22.88000 25.10800
H  50.18900 28.13600 25.22300
H  48.93700 26.32400 33.32300
H  46.47100 24.76400 33.29700
H  47.86200 23.21000 34.24700
H  49.28500 24.26100 33.81900
H  48.74400 22.96200 32.82500
H  45.99900 27.15700 33.54300
H  47.05200 28.18700 32.58800
H  48.22200 28.90500 34.64700
H  48.39500 27.25100 35.20600
H  44.12400 20.69500 29.61100
H  44.92200 21.20000 31.01600
H  45.77200 19.94000 30.10600
H  44.84900 18.68100 26.32300
H  44.18300 19.52100 27.68800
H  45.82400 18.87300 27.72200
H  47.07400 24.94700 23.60400
H  49.88000 26.05800 23.68100
H  49.11500 22.69400 23.86700
H  49.73200 24.10900 22.86800
H  48.16100 23.17600 22.58300
H  47.71000 28.10400 23.87200
H  47.52000 26.82200 22.66700
H  50.29000 27.81600 22.43900
H  49.09800 29.16300 22.29500
H  49.07700 27.85300 21.25000
H  50.69700 30.90600 27.12700
H  51.67900 29.55800 26.32000
H  52.17800 30.32100 27.83800
H  48.97000 29.54600 32.14000
H  52.26100 28.29300 34.78900
H  50.71100 27.86500 35.45100
H  51.25500 29.50900 35.78400
Mg 6.34900 55.52200 41.25000
C  3.54100 53.46100 40.83600
C  8.33600 53.18900 40.12200
C  8.76100 57.94800 41.13100
C  4.06700 57.93300 42.31500
N  5.88100 53.64100 40.47900
C  4.70600 52.97900 40.27600
C  5.05000 51.66100 39.56200
C  6.54100 51.43100 39.89900
C  7.02700 52.81400 40.21700
C  6.93500 50.42400 40.97000
C  4.71800 51.83300 38.05300
C  3.93400 50.64300 37.49800
H  4.74100 49.95500 36.35500
N  8.26400 55.58400 40.58800
C  8.92800 54.50500 40.14300
C  10.25300 54.87600 39.87000
C  10.42800 56.22200 40.15900
C  9.10100 56.65400 40.66100
C  11.28200 53.99500 39.38700
C  11.73500 57.06600 39.94100
O  12.86600 56.59400 39.70200
C  11.76000 58.59800 40.04600
N  6.38200 57.69000 41.49100
C  7.57900 58.40400 41.58500
C  7.37600 59.80100 42.33900
C  5.76000 59.80600 42.47200
C  5.34700 58.36300 42.06000
C  8.07900 59.85600 43.68200
C  5.05700 60.92500 41.60300
C  3.87000 61.63800 42.31000
N  4.29500 55.64800 41.71600
C  3.51900 56.68700 42.20200
C  2.15500 56.23800 42.45500
C  2.13600 55.00700 41.90000
C  3.41300 54.70900 41.42500
C  0.96000 57.01700 42.97400
C  1.19800 53.92200 41.64600
O  -0.03500 53.76400 41.75900
C  2.15900 52.84700 40.88400
C  1.51300 52.64400 39.50100
O  1.43500 53.45300 38.59800
O  0.96100 51.35500 39.61300
C  0.26100 50.85000 38.45600
H  9.12100 52.47100 39.87500
H  9.60900 58.60000 41.35000
H  3.38100 58.72100 42.63300
H  4.50300 50.77800 39.89100
H  7.11200 51.14800 39.01400
H  6.03700 50.10500 41.50000
H  7.57500 50.85900 41.73700
H  7.52400 49.57000 40.63500
H  5.60500 51.88900 37.42200
H  4.14800 52.75400 37.93100
H  2.99700 51.04100 37.10900
H  3.61400 49.89200 38.22100
H  10.84600 53.07200 39.00500
H  12.03100 53.64400 40.09700
H  11.80900 54.38400 38.51700
H  12.50500 59.07600 39.41100
H  12.01700 58.71700 41.09900
H  10.80000 59.05200 39.80000
H  7.67000 60.61500 41.67700
H  5.53200 60.00400 43.51900
H  7.99700 58.81300 43.98900
H  7.50600 60.49000 44.35800
H  9.06200 60.28700 43.49200
H  4.66900 60.39300 40.73400
H  5.85500 61.62100 41.34400
H  3.78400 61.29900 43.34200
H  2.95500 61.43000 41.75500
H  4.09800 62.70200 42.25100
H  1.41500 57.96300 43.26500
H  0.59700 56.51300 43.86900
H  0.27900 57.09900 42.12700
H  2.07400 51.88500 41.39000
H  -0.65700 50.49100 38.92100
H  0.78800 50.03000 37.96800
H  0.13500 51.65000 37.72700

