158

Mg 0.46900 7.54900 26.71400
C  1.21500 9.91500 29.37700
C  0.67400 5.03100 28.95700
C  0.08500 5.65000 24.21300
C  1.22200 10.41900 24.52300
N  1.10900 7.53900 28.84200
C  1.07600 8.53000 29.79000
C  0.92000 8.00800 31.19500
C  1.07100 6.45000 30.99600
C  0.91600 6.31700 29.46800
C  2.47300 5.93500 31.43500
C  -0.31500 8.51500 31.88700
C  -0.46600 8.37800 33.44300
H  0.59500 7.56800 34.08600
N  0.42600 5.61400 26.61500
C  0.54200 4.70100 27.61200
C  0.38200 3.35500 27.05300
C  0.24400 3.45400 25.68000
C  0.24800 4.94600 25.43600
C  0.45600 2.06200 27.89500
C  0.02200 2.35500 24.61600
O  -0.06000 2.69100 23.37900
C  -0.15400 0.92600 24.99700
N  0.78800 7.95100 24.68900
C  0.42600 6.95100 23.82100
C  0.43800 7.39000 22.29100
C  0.46600 8.97900 22.48600
C  0.90600 9.13900 23.93800
C  1.70000 6.83000 21.47200
C  -0.84100 9.72900 22.21600
C  -0.86400 11.05800 21.50300
N  1.08100 9.84600 26.88100
C  1.33900 10.78300 25.92400
C  1.56000 12.11400 26.57100
C  1.48000 11.80600 27.93500
C  1.27500 10.38400 28.04100
C  1.88800 13.46100 26.00800
C  1.70100 12.38100 29.26900
O  1.93400 13.53800 29.67700
C  1.38400 11.19000 30.27000
C  2.45000 11.07000 31.27500
O  3.63600 10.75800 31.08800
O  1.97600 11.42500 32.49400
C  2.78900 10.98100 33.67300
H  0.75700 4.23100 29.69600
H  -0.24100 5.05500 23.35700
H  1.11900 11.35600 23.97200
H  1.71400 8.42100 31.81800
H  0.31100 5.95700 31.60300
H  2.42400 4.84600 31.40200
H  2.80700 6.13300 32.45300
H  3.20100 6.20100 30.66900
H  -1.22800 8.12500 31.43500
H  -0.48100 9.58700 31.78200
H  -1.41100 7.90000 33.69700
H  -0.56300 9.32900 33.96600
H  1.20900 1.39700 27.47200
H  -0.53900 1.63900 27.75900
H  0.62000 2.20100 28.96400
H  0.70900 0.68200 25.61600
H  -0.02400 0.35100 24.08000
H  -1.14100 0.84500 25.45200
H  -0.45300 7.03300 21.77400
H  1.16500 9.41000 21.76900
H  2.19200 7.65300 20.95300
H  1.38800 6.15400 20.67600
H  2.42900 6.32300 22.10500
H  -1.17500 9.98800 23.22100
H  -1.52800 9.01900 21.75400
H  0.06900 11.32600 21.00700
H  -1.14600 11.78100 22.26900
H  -1.64800 10.94500 20.75500
H  1.10500 13.74200 25.30500
H  2.86500 13.52100 25.52800
H  1.83400 14.19500 26.81200
H  0.40200 11.30100 30.72900
H  3.41800 10.11700 33.46000
H  2.10800 10.64200 34.45300
H  3.37400 11.79000 34.11000
Mg 26.61700 50.49100 26.68000
C  24.94400 52.03000 29.42400
C  29.12300 49.60100 28.98300
C  28.57400 49.20400 24.10100
C  24.57000 52.00700 24.48400
N  26.89400 50.71100 29.00500
C  26.05300 51.27800 29.91500
C  26.50300 51.12900 31.39900
C  27.90900 50.32700 31.19500
C  27.98400 50.17100 29.64600
C  29.02500 50.97900 31.88800
C  25.50400 50.27300 32.30500
C  24.82900 51.16700 33.40300
H  25.73200 51.58900 34.58800
N  28.53700 49.54400 26.48900
C  29.34200 49.22300 27.60200
C  30.59600 48.49800 27.11500
C  30.45000 48.51700 25.65100
C  29.10200 49.06900 25.34600
C  31.67500 48.14300 28.02900
C  31.44700 48.08700 24.57400
O  31.31500 48.24100 23.35200
C  32.65800 47.31500 24.97100
N  26.58100 50.66000 24.58200
C  27.47100 49.98800 23.73200
C  27.03300 50.12100 22.29500
C  25.73800 51.06700 22.33400
C  25.54200 51.18700 23.89600
C  28.29700 50.69500 21.48100
C  24.35500 50.65600 21.62000
C  23.94100 51.60800 20.45100
N  24.99200 51.67400 26.87700
C  24.30800 52.30700 25.84500
C  23.25200 53.10800 26.48800
C  23.47700 53.07000 27.90300
C  24.55700 52.18000 28.04700
C  22.22600 53.88400 25.81300
C  23.06900 53.64000 29.16800
O  22.38200 54.60600 29.40700
C  24.00600 52.94500 30.22400
C  24.67900 54.13700 30.70700
O  25.67400 54.63100 30.21000
O  24.07000 54.59400 31.86000
C  24.62500 55.55200 32.79500
H  29.82400 49.32300 29.77200
H  29.00400 48.72200 23.22000
H  23.88400 52.32400 23.69600
H  26.68600 52.11800 31.81900
H  27.76400 49.33700 31.62800
H  29.23100 50.33000 32.74000
H  28.86800 51.99000 32.26200
H  29.94900 51.05800 31.31600
H  25.99200 49.43900 32.81000
H  24.88500 49.82000 31.53100
H  24.00700 50.54100 33.75100
H  24.38000 52.10300 33.06900
H  31.33000 48.08600 29.06200
H  32.47100 48.87200 27.87800
H  31.95800 47.18600 27.59100
H  33.27600 47.91500 25.63900
H  33.22800 47.10900 24.06500
H  32.39500 46.33500 25.36800
H  26.70300 49.12300 22.00800
H  25.97400 52.04600 21.91700
H  28.84800 49.93000 20.93400
H  28.98900 51.09700 22.22100
H  28.08500 51.50100 20.77900
H  23.53800 50.57000 22.33600
H  24.36300 49.72700 21.05100
H  24.74600 52.30100 20.20700
H  23.16800 52.26800 20.84500
H  23.68900 51.02900 19.56300
H  22.63000 54.53500 25.03800
H  21.71900 54.56000 26.50100
H  21.46300 53.16000 25.52800
H  23.46800 52.47700 31.04900
H  24.92100 56.54600 32.45700
H  25.55900 55.10600 33.13800
H  23.83600 55.54700 33.54700

