158

Mg 29.89700 57.73600 40.09800
C  26.89200 56.09500 39.55900
C  31.53000 54.92400 38.94100
C  32.74400 59.57400 39.72900
C  28.09300 60.65800 40.92900
N  29.25800 55.74200 39.45300
C  28.01100 55.26500 39.21800
C  27.93900 53.82500 38.62100
C  29.39900 53.37900 38.82500
C  30.12700 54.75600 39.10700
C  29.81300 52.37400 39.97300
C  27.26900 53.74000 37.19200
C  28.25600 53.53900 35.97200
H  27.73400 53.85400 34.53100
N  31.83700 57.32900 39.48700
C  32.30000 56.06500 39.03700
C  33.71500 56.20500 38.61100
C  34.09900 57.51900 38.89600
C  32.88400 58.18100 39.42500
C  34.49000 55.09700 37.99900
C  35.48700 58.04800 38.85600
O  36.37100 57.40500 38.34500
C  35.98200 59.37400 39.39600
N  30.34100 59.81800 40.29000
C  31.59200 60.27900 40.01000
C  31.63600 61.78900 40.12300
C  30.22700 62.14300 40.64600
C  29.47200 60.81400 40.57400
C  32.75600 62.42100 40.96500
C  29.50400 63.27600 39.83700
C  28.18200 63.89100 40.31900
N  27.91900 58.29100 40.45700
C  27.34100 59.54700 40.73500
C  25.97600 59.34900 40.78500
C  25.73200 58.06800 40.39200
C  26.97700 57.43400 40.07600
C  25.01500 60.46700 41.11300
C  24.66600 57.02300 40.13700
O  23.44600 57.09000 40.31200
C  25.37400 55.72900 39.55200
C  25.03600 54.52500 40.24700
O  25.02200 54.46600 41.48300
O  24.58900 53.54700 39.41300
C  24.58400 52.11300 39.73800
H  32.01000 54.07300 38.45500
H  33.54900 60.29200 39.55900
H  27.60200 61.57000 41.27500
H  27.22200 53.22000 39.17600
H  29.91800 53.01300 37.93900
H  30.09100 51.43800 39.48700
H  28.98500 52.28300 40.67500
H  30.74200 52.63200 40.48100
H  26.78700 54.69400 36.98300
H  26.59900 52.88400 37.11100
H  28.30200 52.45000 35.95900
H  29.23100 53.94800 36.23500
H  33.96800 54.14100 38.01700
H  35.32200 54.89700 38.67400
H  34.86400 55.42000 37.02800
H  35.40600 59.61600 40.28900
H  35.75600 60.19400 38.71400
H  37.05700 59.35700 39.57100
H  31.84800 62.03300 39.08200
H  30.27300 62.50100 41.67400
H  33.03000 61.71100 41.74600
H  32.53200 63.39100 41.40800
H  33.61100 62.76000 40.38100
H  29.23800 62.94300 38.83400
H  30.11900 64.17600 39.83200
H  27.35300 63.34300 39.87200
H  28.21400 64.96500 40.13300
H  28.16700 63.80200 41.40500
H  24.93000 60.98100 40.15500
H  25.39600 61.19100 41.83300
H  24.05700 60.13500 41.51100
H  25.08200 55.54200 38.51900
H  25.38600 51.59100 39.21800
H  23.72300 51.67000 39.23700
H  24.65100 51.77600 40.77300
Mg -2.14100 34.87800 26.36100
C  -3.76900 32.88200 28.73800
C  -0.52100 36.49900 28.94900
C  -0.95600 36.86800 24.06400
C  -3.75200 32.97400 23.86700
N  -2.18300 34.68700 28.61600
C  -2.89900 33.80900 29.36900
C  -2.74900 34.14600 30.82400
C  -1.70600 35.35500 30.84400
C  -1.51100 35.54000 29.35900
C  -2.26100 36.61800 31.56500
C  -2.22700 32.88000 31.67800
C  -2.98500 32.50000 32.98500
H  -2.23900 32.40900 34.36100
N  -0.94900 36.58500 26.48400
C  -0.29500 37.02400 27.61400
C  0.68700 38.00800 27.21100
C  0.56000 38.09300 25.77700
C  -0.52100 37.21700 25.40700
C  1.40100 38.89400 28.14000
C  1.37700 39.03600 24.81100
O  1.09700 39.18300 23.59600
C  2.56200 39.75400 25.35600
N  -2.43400 35.06300 24.28600
C  -1.83100 35.98800 23.51400
C  -2.07000 35.70400 22.05100
C  -2.52600 34.24200 22.06100
C  -2.91600 34.05600 23.51400
C  -3.08400 36.67600 21.38800
C  -1.53600 33.12800 21.54400
C  -0.06900 33.24600 21.93200
N  -3.58100 33.19000 26.26100
C  -4.17000 32.58100 25.13000
C  -5.00200 31.51900 25.63000
C  -4.95900 31.58800 27.04100
C  -4.06500 32.62800 27.39000
C  -5.79000 30.46800 24.84800
C  -5.43500 31.08600 28.27300
O  -6.19300 30.17100 28.55400
C  -4.71700 31.99000 29.46200
C  -5.76900 32.71500 30.14300
O  -6.34000 33.69800 29.73700
O  -5.96000 32.09200 31.38200
C  -6.92800 32.70400 32.33300
H  0.06000 36.90700 29.77900
H  -0.50700 37.39100 23.21700
H  -4.12600 32.36200 23.04400
H  -3.73400 34.48200 31.14700
H  -0.76600 35.04300 31.29800
H  -3.19700 36.40300 32.08000
H  -2.55600 37.28800 30.75800
H  -1.54300 37.09400 32.23300
H  -1.17400 33.01500 31.92700
H  -2.21700 31.91200 31.17600
H  -3.34200 31.49700 32.75100
H  -3.70600 33.30600 33.12700
H  2.41300 38.51500 28.28300
H  0.88200 38.95300 29.09700
H  1.45000 39.90900 27.74500
H  2.13700 40.64300 25.82200
H  3.09000 39.94300 24.42200
H  3.09000 39.01500 25.95900
H  -1.12100 35.76100 21.51800
H  -3.50900 34.17600 21.59400
H  -4.05900 36.24600 21.16100
H  -2.60900 36.98100 20.45500
H  -3.27900 37.48200 22.09600
H  -1.56600 33.09700 20.45500
H  -1.95500 32.21800 21.97100
H  0.58200 33.26000 21.05800
H  0.23200 32.35900 22.49100
H  0.13800 34.08200 22.60000
H  -5.61100 29.45500 25.20700
H  -5.41800 30.52900 23.82500
H  -6.87000 30.61500 24.85000
H  -4.24900 31.25600 30.11800
H  -6.40700 32.87700 33.27500
H  -7.77200 32.04300 32.52800
H  -7.24100 33.67000 31.93800

