158

Mg 23.93900 -6.71600 47.05100
C  26.51600 -4.59300 45.93600
C  21.86300 -5.29400 44.63700
C  21.73300 -9.33600 47.31000
C  26.35500 -8.48500 48.75300
N  24.18300 -4.98700 45.55400
C  25.34500 -4.30700 45.28800
C  25.11400 -3.39000 44.07900
C  23.55100 -3.60300 43.70100
C  23.13700 -4.70100 44.69200
C  22.72800 -2.28700 43.73200
C  26.11400 -3.67800 42.87200
C  27.11000 -2.48700 42.54300
H  27.05900 -1.78500 41.23300
N  22.06100 -7.17600 46.20200
C  21.35900 -6.39600 45.33600
C  20.02000 -6.98200 45.03400
C  19.97500 -8.18400 45.79700
C  21.24600 -8.26400 46.54600
C  19.01200 -6.30800 44.08200
C  18.71900 -9.08700 45.91900
O  17.62700 -8.87800 45.40700
C  18.80300 -10.37600 46.77400
N  24.00000 -8.65600 47.76400
C  22.98500 -9.50700 47.93300
C  23.31100 -10.73300 48.87500
C  24.83500 -10.41700 49.32500
C  25.08000 -9.05300 48.62600
C  22.30100 -10.81200 50.07100
C  25.75200 -11.62300 49.03100
C  26.68700 -12.14300 50.19300
N  25.96600 -6.57200 47.44800
C  26.83300 -7.33700 48.20000
C  28.12200 -6.71800 48.23700
C  28.03300 -5.67100 47.33900
C  26.74200 -5.61500 46.88900
C  29.37600 -7.07700 49.05100
C  28.76200 -4.52900 46.77800
O  29.89000 -4.09500 46.98500
C  27.82800 -3.74000 45.77400
C  27.60400 -2.38200 46.41000
O  26.82400 -2.10700 47.33100
O  28.28500 -1.38600 45.78400
C  27.88600 0.05100 46.12000
H  21.17000 -4.75100 43.99100
H  21.07200 -10.14800 47.62100
H  27.03800 -8.94700 49.46900
H  25.21900 -2.33200 44.32400
H  23.37100 -3.99500 42.70000
H  23.40100 -1.49100 43.41500
H  22.43400 -2.20300 44.77900
H  21.92300 -2.42300 43.00900
H  25.70400 -3.97100 41.90600
H  26.72500 -4.54500 43.12600
H  28.12900 -2.86100 42.63800
H  27.02500 -1.81500 43.39700
H  19.15100 -5.22800 44.02100
H  17.96800 -6.46600 44.35200
H  19.16900 -6.90500 43.18300
H  18.95400 -10.08200 47.81300
H  19.66700 -10.88300 46.34400
H  17.91700 -11.01100 46.75100
H  23.25500 -11.65000 48.28800
H  24.83900 -10.06000 50.35500
H  21.52800 -10.04400 50.07400
H  22.80700 -10.75000 51.03500
H  21.76700 -11.76100 50.01000
H  26.47900 -11.34700 48.26800
H  25.16500 -12.46700 48.66800
H  27.63000 -11.59700 50.21000
H  26.74200 -13.23000 50.24900
H  26.13600 -11.77100 51.05800
H  30.02400 -6.20300 49.11100
H  29.69700 -7.95100 48.48500
H  29.15900 -7.48900 50.03600
H  28.19200 -3.70200 44.74700
H  27.99900 0.59200 45.18000
H  28.54000 0.49200 46.87200
H  26.85700 0.29900 46.38100
Mg 16.19400 51.64400 24.99000
C  18.06000 50.67300 27.81100
C  13.75500 52.78400 27.13500
C  14.49900 52.46000 22.39300
C  18.77600 50.25400 22.88500
N  15.97100 51.66500 27.24500
C  16.87500 51.34700 28.18000
C  16.46300 51.62400 29.63300
C  14.95400 52.14300 29.36900
C  14.81200 52.13900 27.78400
C  13.72500 51.38000 30.12600
C  17.30400 52.52100 30.51300
C  17.25000 52.39700 32.05500
H  16.23100 51.41300 32.61200
N  14.38400 52.53300 24.80700
C  13.57000 53.00100 25.80200
C  12.46300 53.67900 25.20900
C  12.69900 53.72000 23.82100
C  13.91200 52.87700 23.64200
C  11.14600 54.00900 25.91700
C  11.83200 54.24900 22.75000
O  12.10700 54.00200 21.58400
C  10.45400 55.01500 23.03600
N  16.62600 51.34700 22.97300
C  15.61200 51.75800 22.11400
C  16.02000 51.52600 20.63300
C  17.50300 51.12900 20.67000
C  17.65700 50.89100 22.24200
C  15.11800 50.56900 19.84000
C  18.57100 52.09500 20.23500
C  19.22300 51.67800 18.91100
N  18.04900 50.57200 25.23800
C  19.00300 50.09500 24.28300
C  19.96900 49.36600 25.05900
C  19.74600 49.63700 26.42400
C  18.53000 50.33800 26.49600
C  21.06900 48.62500 24.40500
C  20.28900 49.52000 27.75800
O  21.31800 49.04500 28.18700
C  19.22900 50.15800 28.73100
C  18.70500 49.08200 29.65900
O  17.78900 48.28500 29.40600
O  19.40500 49.19600 30.85200
C  19.05000 48.12300 31.76500
H  12.98500 53.19500 27.79100
H  14.16900 52.89400 21.44600
H  19.54700 49.87000 22.21300
H  16.40900 50.60100 30.00600
H  14.93100 53.21200 29.57700
H  13.39300 51.97700 30.97600
H  13.96400 50.44000 30.62300
H  12.93700 51.20700 29.39400
H  16.92200 53.50800 30.24900
H  18.34900 52.42000 30.21700
H  16.97700 53.40400 32.37000
H  18.26500 52.20900 32.40500
H  11.07000 55.09700 25.92700
H  11.18800 53.49100 26.87500
H  10.26700 53.61100 25.41000
H  9.64900 54.31800 23.27000
H  10.27700 55.60900 22.13900
H  10.72900 55.68800 23.84800
H  15.91100 52.47700 20.11300
H  17.77500 50.21700 20.13700
H  14.67000 51.17100 19.04900
H  14.36200 50.23600 20.55100
H  15.54300 49.72000 19.30500
H  19.31800 52.06500 21.02800
H  18.33000 53.15600 20.29700
H  19.36700 52.48600 18.19400
H  18.50500 51.06700 18.36400
H  20.17600 51.20100 19.13800
H  20.62600 48.26600 23.47600
H  21.37200 47.79600 25.04600
H  21.86400 49.28100 24.05100
H  19.66800 50.99700 29.27200
H  18.78000 47.18900 31.27300
H  18.27400 48.46000 32.45200
H  19.93400 47.73700 32.27400

