158

Mg 9.02400 4.42500 28.04100
C  10.35600 2.80000 30.91200
C  7.46000 6.52000 30.22700
C  7.64100 5.76400 25.37800
C  10.52000 1.95000 26.00500
N  8.94200 4.56300 30.36900
C  9.57600 3.85500 31.29800
C  9.31700 4.41600 32.75600
C  8.42800 5.64000 32.40100
C  8.29900 5.60700 30.89100
C  6.98100 5.42200 33.07400
C  10.66000 4.70000 33.59000
C  10.61200 5.65700 34.80000
H  11.12800 5.18900 36.12700
N  7.81300 6.02200 27.77500
C  7.18500 6.71100 28.83000
C  6.34800 7.65800 28.26100
C  6.40600 7.49400 26.85800
C  7.30200 6.35100 26.61100
C  5.57000 8.72400 29.02100
C  5.68000 8.26300 25.79300
O  5.78900 8.02900 24.58300
C  4.56400 9.33000 26.16400
N  9.20500 3.95600 25.88200
C  8.34600 4.64700 25.09500
C  8.64500 4.24900 23.66700
C  9.52200 2.94600 23.80200
C  9.74400 2.93100 25.29600
C  7.31800 4.07200 22.86100
C  10.76200 2.92900 22.90500
C  10.76800 1.82500 21.79200
N  10.25300 2.78900 28.31500
C  10.74800 1.85600 27.38600
C  11.58400 0.89100 28.12100
C  11.42700 1.24700 29.47800
C  10.63700 2.39400 29.52800
C  12.22700 -0.35600 27.60400
C  11.78600 0.84600 30.82900
O  12.50000 -0.08000 31.19700
C  11.22400 1.86700 31.76600
C  10.34100 1.23100 32.75900
O  9.23300 0.86800 32.52900
O  10.96300 1.18900 33.94800
C  10.12900 0.47200 34.95200
H  6.83300 7.18100 30.83000
H  7.29500 6.34400 24.52100
H  11.00800 1.18700 25.39600
H  8.72600 3.75300 33.38700
H  8.95300 6.52500 32.76100
H  6.63600 6.36500 33.49900
H  7.07900 4.64800 33.83400
H  6.28300 5.12500 32.29200
H  11.40400 4.97200 32.84100
H  10.85700 3.80500 34.18000
H  9.60700 5.96900 35.08300
H  11.13200 6.57100 34.51400
H  5.94300 8.84000 30.03900
H  4.52800 8.41500 28.93800
H  5.60200 9.74000 28.62800
H  3.87100 8.95300 26.91500
H  3.96900 9.64400 25.30600
H  5.02200 10.25100 26.52500
H  9.20300 5.01300 23.12500
H  8.95800 2.03100 23.62400
H  7.31400 3.13800 22.29900
H  7.24200 4.94600 22.21500
H  6.47600 4.15600 23.54800
H  11.63700 2.64100 23.48900
H  10.98800 3.88800 22.43900
H  11.40600 1.06900 22.24900
H  11.21700 2.24000 20.89000
H  9.79400 1.37300 21.60300
H  11.47800 -1.08800 27.30400
H  12.96100 -0.69300 28.33600
H  12.70800 -0.00500 26.69100
H  12.06000 2.38100 32.24000
H  9.21500 1.03300 35.14500
H  10.61300 0.44600 35.92800
H  9.90400 -0.54900 34.64600
Mg -10.18600 40.49500 39.31500
C  -9.23200 37.05200 38.87000
C  -6.95100 41.26200 38.77200
C  -11.17800 43.60400 38.57600
C  -13.56100 39.38000 39.10100
N  -8.37300 39.25500 38.69400
C  -8.17700 37.89200 38.72200
C  -6.73800 37.53200 38.61100
C  -6.04300 38.91500 38.87100
C  -7.23000 39.92300 38.85200
C  -5.24900 38.98400 40.21600
C  -6.28400 36.93800 37.22400
C  -6.72100 37.56000 35.88300
H  -7.64600 36.77700 34.94500
N  -9.14700 42.26900 38.91000
C  -7.82000 42.39600 38.65900
C  -7.52100 43.76900 38.53100
C  -8.71400 44.45000 38.20100
C  -9.72900 43.41200 38.51400
C  -6.10300 44.28200 38.32000
C  -8.92300 45.90000 37.66700
O  -7.95500 46.58500 37.38100
C  -10.25000 46.54000 37.44800
N  -12.10600 41.36200 38.97700
C  -12.19800 42.68700 38.82400
C  -13.63300 43.11800 38.86900
C  -14.40700 41.80800 39.08000
C  -13.33300 40.76700 39.07600
C  -13.85900 44.26600 39.93900
C  -15.54800 41.52800 38.05500
C  -16.81600 42.49100 38.05600
N  -11.19500 38.67300 39.17900
C  -12.59200 38.37900 39.10100
C  -12.80800 36.92900 39.04600
C  -11.46300 36.40000 38.95700
C  -10.55000 37.46500 38.98500
C  -14.21700 36.25800 38.90400
C  -10.72900 35.21000 38.79600
O  -11.19700 34.07200 38.77000
C  -9.26900 35.60600 38.65700
C  -8.62400 34.81800 39.64200
O  -8.91000 34.82200 40.86300
O  -7.59500 34.01800 39.13400
C  -6.77400 33.17200 40.03500
H  -5.91500 41.60600 38.77700
H  -11.51500 44.63700 38.46600
H  -14.60000 39.04800 39.04900
H  -6.60000 36.88000 39.47400
H  -5.32100 39.16200 38.09300
H  -5.26700 40.00900 40.58500
H  -4.21100 38.77200 39.95700
H  -5.56000 38.31800 41.02100
H  -6.61500 35.90400 37.13300
H  -5.19400 36.95000 37.22000
H  -5.81200 37.63800 35.28800
H  -7.00600 38.60400 36.01200
H  -5.90100 45.15200 38.94400
H  -5.86600 44.51700 37.28200
H  -5.39900 43.47400 38.51900
H  -10.66700 46.70800 38.44000
H  -10.82300 45.85700 36.82100
H  -10.23500 47.46300 36.86800
H  -13.85700 43.41600 37.84500
H  -14.89200 41.74400 40.05400
H  -14.65800 44.02600 40.64000
H  -14.16800 45.17700 39.42500
H  -12.93100 44.45500 40.47800
H  -15.94100 40.53000 38.25100
H  -15.12800 41.38700 37.05900
H  -16.87200 42.93400 37.06100
H  -16.74500 43.24300 38.84200
H  -17.79200 42.01600 38.15700
H  -15.01900 36.58200 39.56800
H  -14.04400 35.19100 39.04300
H  -14.47800 36.43500 37.86000
H  -8.98300 35.26100 37.66300
H  -7.14400 33.38000 41.03900
H  -5.72300 33.38900 39.84400
H  -6.84200 32.09100 39.91000

