158

Mg 25.11000 -4.93500 46.10300
C  27.17900 -3.03200 44.37200
C  22.63300 -4.49200 43.59500
C  23.22100 -7.73200 47.17000
C  27.75300 -6.09300 47.99200
N  24.94200 -3.90200 44.14000
C  25.96700 -3.12900 43.69600
C  25.71000 -2.46300 42.36300
C  24.12000 -2.57700 42.30400
C  23.83400 -3.80300 43.38000
C  23.25300 -1.28100 42.77000
C  26.51600 -3.14100 41.26400
C  27.31100 -2.25200 40.28800
H  26.74400 -2.27500 38.83900
N  23.12400 -5.73500 45.70300
C  22.28300 -5.40800 44.62400
C  21.02300 -5.96900 44.79800
C  21.08500 -7.00000 45.79800
C  22.52700 -6.82200 46.30100
C  19.83200 -5.53000 43.88800
C  20.02300 -8.02100 46.24300
O  18.89600 -8.10400 45.68300
C  20.29600 -9.07300 47.37100
N  25.41600 -6.60900 47.39200
C  24.49800 -7.64000 47.64600
C  25.24200 -8.71300 48.45100
C  26.52600 -8.11700 48.92700
C  26.58900 -6.82100 48.08500
C  24.48500 -9.45000 49.52900
C  27.80400 -9.05100 48.76100
C  28.43100 -9.33300 50.10400
N  27.06600 -4.65300 46.23700
C  27.99900 -5.02000 47.13900
C  29.23900 -4.33100 46.97800
C  28.90800 -3.40400 45.99100
C  27.63400 -3.74800 45.49600
C  30.58200 -4.38500 47.75500
C  29.42400 -2.26500 45.18500
O  30.51500 -1.74500 45.15900
C  28.32900 -2.00400 44.12500
C  27.97900 -0.56600 44.32100
O  27.18700 -0.08700 45.10500
O  28.62100 0.20600 43.40200
C  28.57800 1.64200 43.48600
H  21.91400 -4.29700 42.79700
H  22.78700 -8.71800 47.35200
H  28.62800 -6.33000 48.60100
H  25.90600 -1.39100 42.32200
H  23.77400 -2.82300 41.30000
H  22.81300 -1.45600 43.75100
H  22.52200 -1.05000 41.99500
H  23.93200 -0.45500 42.98100
H  25.84000 -3.73100 40.64400
H  27.24000 -3.81300 41.72500
H  28.32600 -2.64200 40.36700
H  27.39400 -1.20200 40.56900
H  20.03800 -4.65100 43.27800
H  18.93100 -5.42800 44.49300
H  19.63200 -6.34000 43.18600
H  19.41700 -9.63000 47.69600
H  20.74200 -8.62000 48.25700
H  21.01300 -9.81900 47.02800
H  25.41400 -9.51300 47.73100
H  26.42600 -7.92400 49.99500
H  24.03300 -10.35100 49.11500
H  23.58300 -8.93700 49.86400
H  25.11200 -9.75200 50.36800
H  28.53400 -8.60500 48.08600
H  27.38100 -9.87800 48.18900
H  28.48200 -10.42200 50.11600
H  27.89400 -9.06500 51.01400
H  29.46900 -9.01900 50.20700
H  30.92200 -5.42000 47.73500
H  30.26500 -4.07900 48.75200
H  31.33000 -3.63600 47.49500
H  28.85400 -2.12000 43.17700
H  29.53300 2.16500 43.52100
H  27.95400 2.03700 44.28800
H  28.13400 2.04700 42.57700
Mg -10.45400 39.20000 40.21700
C  -8.66200 36.31700 39.07800
C  -7.58100 41.15400 39.60800
C  -12.44300 41.93800 40.22800
C  -13.32400 37.16700 40.19900
N  -8.37900 38.77800 39.53000
C  -7.97400 37.60300 38.99000
C  -6.69400 37.75200 38.24700
C  -6.16200 39.09300 38.86600
C  -7.41800 39.74000 39.39100
C  -5.21500 38.89300 40.10500
C  -6.76300 37.84000 36.72100
C  -6.17200 36.70800 35.89100
H  -7.00300 36.16100 34.69800
N  -10.06000 41.26900 39.97600
C  -8.81500 41.90200 39.71800
C  -8.99200 43.32300 39.61100
C  -10.34900 43.58800 39.85400
C  -11.02700 42.24500 40.05400
C  -7.82200 44.26800 39.24100
C  -10.98900 44.93000 39.83000
O  -10.29500 45.88200 39.53900
C  -12.48600 45.13500 39.94900
N  -12.57000 39.52200 40.17500
C  -13.11800 40.73300 40.34100
C  -14.64200 40.71600 40.38200
C  -14.89300 39.11400 40.18000
C  -13.54700 38.56800 40.17300
C  -15.09900 41.16300 41.74600
C  -15.70100 38.89100 38.91500
C  -16.58600 37.57900 38.82800
N  -10.88500 37.12000 39.99600
C  -12.06800 36.47700 40.12500
C  -11.78300 35.08000 40.14500
C  -10.47400 34.95500 39.66100
C  -9.97200 36.24700 39.62300
C  -12.75300 34.08300 40.57300
C  -9.37600 34.02300 39.26300
O  -9.34000 32.79200 39.40400
C  -8.21500 34.92000 38.73400
C  -6.89000 34.53000 39.41500
O  -6.61200 34.67800 40.59100
O  -6.02700 33.96300 38.50700
C  -4.72700 33.51100 38.98700
H  -6.67600 41.73000 39.40400
H  -13.18500 42.72700 40.36400
H  -14.21200 36.53300 40.24900
H  -6.12500 36.87500 38.55400
H  -5.65800 39.66000 38.08400
H  -4.22500 39.19800 39.76500
H  -5.24800 37.85700 40.44300
H  -5.41400 39.53300 40.96500
H  -6.44700 38.81000 36.33500
H  -7.81200 37.83100 36.42300
H  -6.01700 35.88700 36.59100
H  -5.14500 36.89000 35.57400
H  -8.14800 45.09000 38.60400
H  -7.09000 43.65900 38.71000
H  -7.20300 44.66900 40.04300
H  -12.82100 46.17100 39.89600
H  -12.92400 44.69300 40.84400
H  -13.02500 44.69800 39.10900
H  -14.95400 41.34600 39.54900
H  -15.34200 38.67600 41.07100
H  -15.58000 42.14100 41.72100
H  -14.28400 41.29000 42.45800
H  -15.81300 40.41500 42.09100
H  -14.99300 38.95700 38.08900
H  -16.35800 39.75700 38.83700
H  -16.07400 36.72900 38.37600
H  -17.57500 37.82700 38.44200
H  -16.78800 37.32400 39.86800
H  -12.92000 34.23100 41.64000
H  -12.28600 33.10500 40.45400
H  -13.67400 34.21700 40.00600
H  -8.15300 34.80800 37.65100
H  -4.44300 32.75700 38.25300
H  -4.95800 33.10300 39.97100
H  -3.97100 34.28100 39.13900

