158

Mg -0.08400 6.80600 25.90800
C  0.96900 9.29600 27.98200
C  -0.16900 4.61900 28.56700
C  -0.99700 4.33000 23.77400
C  0.66400 8.98200 23.13900
N  0.23600 7.02000 28.08900
C  0.66300 8.14600 28.69000
C  0.79400 7.80000 30.24200
C  0.69100 6.28600 30.30900
C  0.25000 5.87800 28.90100
C  2.02100 5.55500 30.69400
C  -0.14800 8.69500 31.09000
C  -0.45800 8.20400 32.50500
H  0.80800 7.81000 33.21500
N  -0.57900 4.69000 26.14900
C  -0.53000 4.00700 27.37200
C  -0.80800 2.62300 27.12500
C  -1.05400 2.49700 25.69800
C  -0.91600 3.89400 25.15400
C  -0.94500 1.62700 28.22900
C  -1.45000 1.24700 24.93600
O  -1.55700 1.39700 23.72000
C  -1.53700 -0.20500 25.63400
N  -0.03300 6.63500 23.73500
C  -0.63800 5.58000 23.15400
C  -0.99700 5.86000 21.64900
C  -0.47200 7.38400 21.47800
C  0.11400 7.68200 22.86300
C  -0.37700 4.79700 20.68700
C  -1.60000 8.52100 21.10600
C  -2.36200 9.36300 22.11300
N  0.52200 8.77200 25.59100
C  0.84800 9.48000 24.44600
C  1.19000 10.82800 24.77300
C  1.21400 10.82000 26.18600
C  0.92300 9.50500 26.60000
C  1.65000 11.90200 23.74500
C  1.48500 11.65200 27.44000
O  1.86700 12.79900 27.56000
C  1.37400 10.56800 28.63300
C  2.69500 10.69500 29.27900
O  3.64000 10.01600 28.96600
O  2.69900 11.58100 30.30700
C  3.96300 11.58800 31.00800
H  -0.26500 4.06300 29.50200
H  -1.44500 3.64500 23.05100
H  0.77400 9.53500 22.20300
H  1.79800 8.11200 30.53200
H  -0.09800 6.03000 31.01600
H  2.83600 6.24700 30.90500
H  2.36400 4.90300 29.89100
H  1.95900 4.95500 31.60100
H  -1.00600 8.96100 30.47200
H  0.34100 9.65000 31.28200
H  -1.22500 7.43200 32.56000
H  -0.92500 9.06900 32.97700
H  -1.99400 1.33000 28.22700
H  -0.70200 2.04100 29.20800
H  -0.31700 0.76000 28.02500
H  -1.87600 -0.81200 24.79500
H  -2.36500 -0.13900 26.34100
H  -0.61000 -0.53800 26.10200
H  -2.08400 5.84100 21.57700
H  0.34700 7.46700 20.76300
H  0.02600 3.85600 21.06100
H  0.43700 5.31100 20.17600
H  -1.16100 4.59800 19.95600
H  -2.20700 7.98000 20.38000
H  -1.03000 9.27400 20.56200
H  -2.11900 10.37900 21.80400
H  -2.11300 9.18300 23.15900
H  -3.45200 9.34300 22.10100
H  0.78200 12.27200 23.20100
H  2.53500 11.71000 23.13700
H  1.78800 12.72400 24.44700
H  0.53100 10.92200 29.22600
H  4.85700 11.33300 30.43800
H  3.91000 11.01200 31.93100
H  4.07900 12.59700 31.40500
Mg 25.00500 1.06000 29.67200
C  27.05600 1.08100 32.63200
C  22.22700 0.90500 31.65500
C  23.15900 0.69600 26.82000
C  27.96300 0.87600 27.76800
N  24.74200 0.91900 31.91600
C  25.68600 1.15400 32.87500
C  24.95300 1.25400 34.28900
C  23.41000 1.04500 33.87600
C  23.46200 0.98200 32.39200
C  22.56500 -0.13000 34.52000
C  25.27000 2.55200 35.07900
C  25.49600 2.38300 36.57200
H  24.86300 3.49800 37.48900
N  22.96300 0.99300 29.31300
C  21.97500 0.91100 30.25300
C  20.71500 0.76900 29.53500
C  21.02800 0.79200 28.15000
C  22.44400 0.83800 28.03200
C  19.34500 0.73200 30.21300
C  19.95600 0.68000 27.06400
O  20.15700 0.87000 25.92500
C  18.48500 0.26400 27.41700
N  25.51500 0.80900 27.65000
C  24.56200 0.69300 26.60600
C  25.22900 0.67000 25.23400
C  26.67900 1.00600 25.54900
C  26.71200 0.80900 27.09000
C  24.91400 -0.40200 24.23900
C  27.02000 2.42900 25.05500
C  26.59100 3.65200 25.95300
N  27.01500 0.80700 30.09400
C  28.09700 0.64900 29.20200
C  29.33000 0.45100 29.92200
C  28.98000 0.62900 31.20300
C  27.55000 0.84500 31.31700
C  30.72000 0.23400 29.43700
C  29.51600 0.70100 32.56600
O  30.70200 0.65600 32.92100
C  28.24800 1.09600 33.54900
C  28.10300 0.09000 34.55000
O  27.42700 -0.93000 34.46800
O  28.69300 0.46800 35.74500
C  28.84500 -0.54200 36.82700
H  21.33600 0.94200 32.28500
H  22.59900 0.48500 25.90700
H  28.83800 0.90100 27.11500
H  25.21500 0.39100 34.90200
H  22.84400 1.94900 34.10200
H  23.21100 -0.46900 35.33000
H  22.37000 -0.94100 33.81900
H  21.63500 0.25200 34.94300
H  24.39600 3.16800 34.86500
H  26.04700 3.23400 34.73400
H  26.58000 2.43700 36.67400
H  25.28600 1.36600 36.90200
H  18.69800 1.44700 29.70500
H  19.51200 1.10300 31.22400
H  18.88700 -0.25700 30.22100
H  18.50300 -0.59700 28.08600
H  18.04200 -0.01100 26.46000
H  17.90800 1.10900 27.79200
H  24.68200 1.52300 24.83400
H  27.40800 0.25500 25.24700
H  24.23100 -1.12700 24.68100
H  25.87100 -0.89100 24.05800
H  24.61400 -0.04100 23.25500
H  26.69900 2.54500 24.02000
H  28.10700 2.35900 25.09600
H  27.11200 3.50100 26.89800
H  25.51600 3.49100 26.04300
H  26.79900 4.58100 25.42300
H  31.38200 0.84300 30.05300
H  30.88700 0.50100 28.39300
H  31.08900 -0.78400 29.55600
H  28.38900 2.07500 34.00700
H  29.15700 -1.51200 36.44200
H  27.89300 -0.77400 37.30400
H  29.47300 -0.24900 37.66800

