158

Mg 8.17300 1.17000 28.23800
C  9.68000 -0.37700 31.11400
C  6.18900 2.82400 30.44900
C  6.44600 2.18700 25.63500
C  9.79000 -1.21200 26.23100
N  8.09400 1.24400 30.55700
C  8.89000 0.68300 31.45500
C  8.73200 1.24300 32.83200
C  7.39600 2.14500 32.63700
C  7.18000 2.09500 31.13600
C  6.15100 1.76400 33.45300
C  10.01200 2.02900 33.35200
C  10.22900 1.95300 34.92400
H  9.01300 1.69600 35.85600
N  6.62100 2.46100 28.11400
C  5.94200 3.02200 29.11900
C  4.94100 3.92100 28.57000
C  5.10600 3.88000 27.10600
C  6.05700 2.81400 26.88900
C  3.92300 4.68400 29.33600
C  4.40200 4.73000 25.95200
O  4.64000 4.51400 24.76400
C  3.63600 5.93200 26.25000
N  8.10400 0.53800 26.22200
C  7.38500 1.24200 25.32000
C  7.66100 0.79900 23.87700
C  8.80400 -0.25400 24.01800
C  8.88400 -0.32800 25.55500
C  6.33600 0.18500 23.32800
C  10.13900 0.24400 23.26900
C  11.21400 0.92400 24.11600
N  9.45500 -0.37400 28.51500
C  9.99300 -1.29300 27.61300
C  10.91200 -2.20400 28.34800
C  10.81300 -1.84800 29.67500
C  9.92700 -0.81400 29.79700
C  11.70400 -3.23400 27.73200
C  11.40400 -2.19400 31.01100
O  12.28100 -3.03700 31.31700
C  10.63400 -1.25400 31.96700
C  9.88400 -2.08300 32.98700
O  8.76200 -2.58000 32.84000
O  10.65100 -2.14500 34.20100
C  9.94800 -2.84200 35.26400
H  5.52400 3.39100 31.10500
H  5.89400 2.61900 24.79900
H  10.43400 -1.86500 25.63800
H  8.54400 0.43000 33.53300
H  7.65400 3.18800 32.81600
H  5.91500 2.67100 34.01000
H  6.40100 1.01700 34.20600
H  5.18800 1.60000 32.97000
H  9.87600 3.08800 33.13200
H  10.91100 1.68100 32.84200
H  10.91400 2.73800 35.24400
H  10.87400 1.07600 34.98000
H  3.02600 4.31300 28.84100
H  4.10400 5.74300 29.14800
H  3.81000 4.49600 30.40400
H  3.59600 6.70200 25.47900
H  4.24900 6.35700 27.04500
H  2.62900 5.73700 26.61800
H  7.93000 1.74300 23.40400
H  8.52600 -1.25400 23.68400
H  5.50500 0.31800 24.02000
H  6.42500 -0.86400 23.04300
H  5.93600 0.75100 22.48700
H  9.87600 0.96800 22.49800
H  10.51200 -0.65600 22.78000
H  10.80500 1.33200 25.03900
H  11.65000 1.75400 23.55900
H  11.89000 0.12400 24.41700
H  11.10000 -3.88900 27.10400
H  12.09300 -3.88500 28.51600
H  12.56900 -2.85200 27.19100
H  11.31600 -0.68600 32.60000
H  9.21500 -2.21800 35.77600
H  10.76800 -3.01900 35.95900
H  9.45800 -3.78800 35.03100
Mg 39.42100 9.38500 29.51700
C  41.58200 10.93200 32.03500
C  37.58000 8.13400 31.93700
C  37.81100 7.67700 27.12800
C  42.05000 10.05300 27.26100
N  39.59100 9.67100 31.65300
C  40.40600 10.38300 32.53100
C  39.91200 10.29000 33.97200
C  38.84900 9.18300 33.89700
C  38.62500 8.98300 32.40400
C  39.16600 7.90700 34.69800
C  39.38500 11.62700 34.49000
C  39.12700 11.56400 36.00700
H  40.08100 12.29000 37.03600
N  37.82200 8.19800 29.49600
C  37.14000 7.82300 30.61600
C  35.93900 7.10800 30.23500
C  35.96200 7.06700 28.82800
C  37.25500 7.61900 28.43700
C  34.94400 6.50900 31.17900
C  34.92200 6.52400 27.85400
O  34.89500 6.78700 26.68800
C  33.80400 5.69000 28.38800
N  39.85600 8.93400 27.47300
C  39.04900 8.17800 26.66600
C  39.51400 8.13300 25.18000
C  40.91500 8.94800 25.31100
C  40.93800 9.35800 26.79800
C  39.56800 6.77600 24.54300
C  40.95100 10.15900 24.30600
C  40.34700 11.57200 24.75800
N  41.47300 10.30000 29.58000
C  42.37000 10.50400 28.58300
C  43.46600 11.27400 29.03000
C  43.23300 11.50200 30.43300
C  41.99500 10.86700 30.68200
C  44.60600 11.81100 28.22100
C  43.71400 12.08100 31.71800
O  44.73100 12.73000 31.93100
C  42.62000 11.74300 32.77600
C  43.35800 11.05500 33.92000
O  43.70400 9.89100 34.01000
O  43.59200 11.96100 34.91200
C  44.00900 11.50700 36.22500
H  36.91100 7.82500 32.74200
H  37.50800 6.98300 26.34100
H  42.80700 10.23500 26.49600
H  40.68900 9.96200 34.66200
H  37.89500 9.47800 34.33300
H  39.30100 7.03800 34.05400
H  38.32600 7.70400 35.36200
H  40.08000 8.05100 35.27400
H  38.45600 11.89700 33.98800
H  40.11700 12.39000 34.22700
H  39.07900 10.52700 36.33700
H  38.16700 12.05800 36.15400
H  33.97100 7.00000 31.15200
H  35.29700 6.67400 32.19600
H  34.84600 5.42600 31.10500
H  34.22100 4.98900 29.11200
H  33.43300 5.12400 27.53400
H  33.03000 6.33000 28.81100
H  38.77400 8.73000 24.64700
H  41.77600 8.30000 25.14800
H  39.62500 6.03900 25.34400
H  40.49800 6.68300 23.98000
H  38.66100 6.72200 23.94100
H  40.38600 9.80200 23.44500
H  41.94100 10.06400 23.86100
H  39.61200 11.24000 25.49100
H  39.91100 12.02800 23.86900
H  40.98400 12.33100 25.21400
H  44.31200 12.04400 27.19800
H  45.36000 11.06100 27.98000
H  44.91700 12.74000 28.69800
H  42.26900 12.71200 33.13000
H  43.57200 10.55200 36.51500
H  43.82500 12.23100 37.01900
H  45.09200 11.39800 36.28800

