158

Mg -1.44500 17.64800 27.59600
C  -2.14700 15.30300 30.12300
C  -2.32600 20.11700 29.65300
C  -0.99700 19.80300 25.03400
C  -0.98000 15.01800 25.22800
N  -2.10800 17.60600 29.66900
C  -2.13000 16.60600 30.57800
C  -2.22100 17.16200 32.05800
C  -2.42700 18.71800 31.83600
C  -2.34300 18.84700 30.28300
C  -3.73800 19.35600 32.47300
C  -1.10700 16.57700 33.02900
C  -0.55300 17.44400 34.17900
H  0.16800 16.75700 35.30600
N  -1.56200 19.68400 27.42700
C  -1.95000 20.58200 28.37200
C  -1.76100 22.00300 27.91300
C  -1.35300 21.89500 26.55200
C  -1.25800 20.44000 26.28100
C  -1.88800 23.22300 28.84600
C  -1.01200 23.05300 25.66000
O  -0.54700 22.92700 24.55300
C  -1.33800 24.41200 26.07700
N  -0.87400 17.42800 25.41600
C  -0.82700 18.47700 24.61600
C  -0.70700 18.05700 23.11800
C  -0.57100 16.50100 23.24400
C  -0.79700 16.25100 24.76700
C  -1.98100 18.56000 22.40600
C  0.86800 15.93000 22.80800
C  2.08400 16.39200 23.68400
N  -1.62500 15.62600 27.61000
C  -1.38700 14.72100 26.58700
C  -1.55500 13.40000 27.15900
C  -1.85500 13.54600 28.54100
C  -1.88100 14.95000 28.78400
C  -1.32600 12.17600 26.37800
C  -2.14100 12.82500 29.73800
O  -2.22100 11.61300 29.96100
C  -2.26500 13.97800 30.87500
C  -1.11600 13.68000 31.78800
O  0.04600 14.01200 31.71500
O  -1.60400 12.83900 32.81200
C  -0.67700 12.46200 33.84400
H  -2.50900 20.91000 30.38200
H  -0.83800 20.44600 24.16600
H  -0.87900 14.14800 24.57500
H  -3.16700 16.85200 32.50100
H  -1.49300 19.11700 32.23100
H  -3.43700 20.21500 33.07300
H  -4.22600 18.62400 33.11600
H  -4.40500 19.72500 31.69400
H  -0.19900 16.41200 32.44900
H  -1.54000 15.66700 33.44500
H  -1.23900 18.18700 34.58600
H  0.33000 17.87700 33.71000
H  -0.95700 23.77300 28.71200
H  -1.97000 22.88900 29.88100
H  -2.69100 23.89300 28.53800
H  -2.33100 24.52600 26.51200
H  -1.19700 25.21200 25.35000
H  -0.61400 24.72300 26.82900
H  0.18000 18.54200 22.71100
H  -1.33100 15.98700 22.65700
H  -1.79900 19.20700 21.54800
H  -2.69700 19.06300 23.05700
H  -2.48600 17.77800 21.83800
H  1.04500 16.37900 21.83100
H  0.80700 14.86600 22.57800
H  1.75600 17.07800 24.46400
H  2.75000 17.02700 23.10000
H  2.62500 15.60500 24.20800
H  -2.05700 11.94300 25.60400
H  -1.18900 11.26900 26.96700
H  -0.37700 12.24200 25.84600
H  -3.24000 13.91800 31.35800
H  -0.37500 13.32900 34.43200
H  0.29200 12.12400 33.47700
H  -1.03500 11.60300 34.41100
Mg 40.96200 8.98600 30.05500
C  42.65200 10.33300 32.66100
C  38.63600 7.62900 32.28400
C  39.42900 7.34700 27.47600
C  43.67000 9.60100 27.92100
N  40.74800 8.98600 32.22300
C  41.48400 9.73700 33.10000
C  41.00600 9.61700 34.53400
C  39.68800 8.78100 34.40300
C  39.67000 8.38500 32.87500
C  39.55600 7.54600 35.31100
C  40.80500 10.97700 35.14600
C  40.32800 10.98400 36.62200
H  40.98000 11.89800 37.57700
N  39.17800 7.75100 29.91200
C  38.38000 7.34200 30.96400
C  37.19700 6.67100 30.35400
C  37.36600 6.67700 28.97900
C  38.72000 7.29000 28.70300
C  35.95600 6.31300 31.14800
C  36.38400 6.31300 27.84300
O  36.62300 6.49300 26.63300
C  35.01000 5.82100 28.19400
N  41.41000 8.53500 27.98000
C  40.63400 7.86600 27.13700
C  41.17700 7.77800 25.74800
C  42.42000 8.75000 25.83700
C  42.50800 8.99800 27.37800
C  41.55300 6.25600 25.43800
C  42.22900 10.08800 25.09000
C  43.33200 10.73900 24.25900
N  42.79000 9.85900 30.17300
C  43.79400 10.06800 29.24400
C  44.95200 10.73500 29.87200
C  44.53300 10.86500 31.24400
C  43.20200 10.26600 31.37000
C  46.16600 11.32200 29.27700
C  44.97000 11.29800 32.51700
O  46.00300 11.84400 32.80000
C  43.77000 11.07000 33.44700
C  44.27300 10.18900 34.55200
O  44.62700 8.98500 34.45900
O  44.14100 10.81500 35.76200
C  44.39800 9.95800 36.94200
H  37.91700 7.33600 33.05300
H  38.98400 6.79700 26.64500
H  44.43000 9.78700 27.16000
H  41.76500 9.05000 35.07200
H  38.75700 9.33600 34.51600
H  40.47500 7.27800 35.83300
H  39.25800 6.65300 34.76100
H  38.74000 7.81800 35.98000
H  39.97400 11.34600 34.54500
H  41.68100 11.62200 35.07500
H  40.37800 9.97300 37.02400
H  39.26400 11.22100 36.63700
H  35.74400 5.26400 30.93900
H  35.07700 6.94200 31.00800
H  36.23100 6.40300 32.19900
H  34.43700 6.65800 28.59100
H  35.01400 5.05600 28.97100
H  34.55800 5.44500 27.27600
H  40.44800 7.97400 24.96100
H  43.33700 8.24000 25.54300
H  41.22700 5.52300 26.17600
H  42.61500 6.11900 25.23500
H  41.11900 5.96600 24.48100
H  41.83300 10.81500 25.79900
H  41.42500 10.05200 24.35500
H  43.38000 11.81200 24.44200
H  43.13000 10.65900 23.19100
H  44.31000 10.26600 24.35000
H  46.42200 10.79300 28.35900
H  47.03700 11.26400 29.93000
H  46.04200 12.35200 28.94300
H  43.39700 11.99400 33.88900
H  45.43200 9.96900 37.28800
H  43.96500 8.95800 36.91500
H  43.93100 10.49700 37.76700

