158

Mg -2.08300 34.66200 27.03300
C  -4.13600 33.44700 29.59200
C  -0.80600 36.90900 29.37700
C  -0.43400 35.99800 24.47200
C  -3.87900 32.59800 24.80100
N  -2.65800 35.35500 29.23100
C  -3.31500 34.52900 30.09100
C  -3.10600 34.88800 31.56700
C  -2.13300 36.09400 31.43000
C  -1.81900 36.14600 29.88400
C  -2.64100 37.45500 31.96800
C  -2.60900 33.66600 32.45700
C  -3.40800 33.44000 33.71500
H  -2.65600 32.70900 34.74400
N  -0.93300 36.30600 26.93200
C  -0.45400 37.04800 27.98000
C  0.49500 38.03400 27.54000
C  0.60500 37.72900 26.13000
C  -0.24500 36.60600 25.75300
C  1.11900 39.06600 28.41800
C  1.53700 38.40500 25.23300
O  1.70100 37.95500 24.10400
C  2.18000 39.68200 25.55100
N  -2.25300 34.36000 24.91600
C  -1.36100 34.97200 24.09600
C  -1.39100 34.44200 22.65000
C  -2.40800 33.20500 22.81100
C  -2.85600 33.39300 24.23600
C  -1.90800 35.37000 21.51300
C  -1.65600 31.89900 22.78200
C  -2.24500 30.67300 22.09400
N  -3.64800 33.29600 27.12600
C  -4.25200 32.55100 26.14700
C  -5.23400 31.71200 26.70100
C  -5.18600 32.01300 28.03900
C  -4.21400 33.02500 28.23600
C  -6.11800 30.71100 26.01600
C  -5.66700 31.68600 29.36500
O  -6.50200 30.90800 29.70400
C  -5.03700 32.59100 30.37800
C  -6.17100 33.27100 31.06000
O  -6.86200 34.24500 30.64200
O  -6.46700 32.62000 32.22300
C  -7.70000 33.07100 32.92600
H  -0.13800 37.36900 30.10800
H  0.22600 36.30000 23.65600
H  -4.28700 31.88000 24.08600
H  -4.06700 35.28600 31.89100
H  -1.21500 35.84600 31.96300
H  -2.71300 38.20500 31.18000
H  -2.06600 37.84600 32.80700
H  -3.64100 37.43600 32.40100
H  -1.61200 33.86500 32.85100
H  -2.62800 32.72600 31.90600
H  -4.20000 32.73400 33.46500
H  -3.85300 34.35200 34.11100
H  2.20900 39.08500 28.39100
H  0.82200 39.07300 29.46600
H  0.85200 40.09000 28.16100
H  1.48800 40.44700 25.90200
H  2.67300 39.99000 24.62900
H  2.93600 39.38100 26.27700
H  -0.38400 34.04900 22.51400
H  -3.25400 33.09500 22.13300
H  -2.70800 34.89000 20.94900
H  -1.13000 35.65800 20.80700
H  -2.36900 36.18100 22.07700
H  -1.27700 31.56100 23.74700
H  -0.79200 32.13300 22.16100
H  -1.72900 30.56700 21.14000
H  -3.31500 30.81300 21.93800
H  -2.13500 29.79000 22.72500
H  -6.01800 29.80100 26.60800
H  -5.87000 30.59500 24.96100
H  -7.06700 31.24700 26.05000
H  -4.47900 32.04600 31.13900
H  -7.33600 33.65900 33.76800
H  -8.23100 32.18700 33.27900
H  -8.40600 33.71800 32.40600
Mg -5.86300 25.76300 26.81100
C  -4.74000 27.33300 29.84300
C  -7.50100 23.59100 28.78300
C  -6.49000 24.00000 24.03000
C  -3.46400 27.67800 25.09200
N  -5.95700 25.46800 29.17800
C  -5.56400 26.25900 30.18700
C  -6.15500 25.86800 31.49500
C  -6.84300 24.51900 31.06900
C  -6.80500 24.50900 29.55300
C  -6.31700 23.21800 31.64900
C  -7.13500 26.91300 32.09800
C  -7.02100 27.30100 33.62000
H  -6.43500 26.19400 34.49800
N  -7.02600 24.10800 26.36900
C  -7.59900 23.30500 27.32300
C  -8.35600 22.33000 26.63200
C  -8.00900 22.40300 25.22300
C  -7.11600 23.54100 25.14500
C  -9.15200 21.21200 27.40900
C  -8.30500 21.49300 24.08500
O  -7.80700 21.62200 22.97800
C  -9.33400 20.41600 24.26800
N  -5.08500 25.88700 24.83100
C  -5.50100 24.98500 23.88500
C  -4.62100 25.19900 22.61000
C  -3.80900 26.49400 22.88300
C  -4.06400 26.62200 24.38100
C  -3.71700 24.03000 22.11600
C  -4.21700 27.63000 21.94900
C  -5.34100 28.66600 22.49100
N  -4.48300 27.27600 27.28400
C  -3.63300 28.00900 26.46500
C  -2.93400 28.96600 27.27700
C  -3.44800 28.82400 28.58700
C  -4.27300 27.76000 28.54300
C  -1.88900 29.82600 26.62000
C  -3.44300 29.33900 29.96400
O  -2.99600 30.33600 30.46500
C  -4.24700 28.34700 30.82700
C  -3.26400 27.83200 31.83700
O  -2.45700 26.93200 31.67200
O  -3.44400 28.47100 33.05000
C  -2.46000 28.22000 34.08600
H  -8.14100 22.92700 29.36700
H  -6.51900 23.31000 23.18400
H  -2.78900 28.22200 24.42900
H  -5.28500 25.55100 32.07000
H  -7.90400 24.60900 31.30300
H  -5.46400 22.81800 31.09900
H  -7.14200 22.50700 31.60500
H  -6.08600 23.44300 32.69000
H  -8.15500 26.64000 31.82800
H  -6.90700 27.84700 31.58400
H  -8.01800 27.63800 33.90600
H  -6.40700 28.19400 33.73300
H  -10.14900 21.13100 26.97500
H  -9.34800 21.42300 28.46000
H  -8.59600 20.27400 27.40300
H  -9.15000 19.75100 25.11200
H  -9.32300 19.84400 23.34000
H  -10.34900 20.81200 24.24500
H  -5.43900 25.32900 21.90100
H  -2.78500 26.21700 22.63100
H  -2.65100 24.11700 22.32600
H  -3.99200 23.75800 21.09700
H  -3.95700 23.16800 22.73800
H  -4.61600 27.23400 21.01500
H  -3.37800 28.29300 21.73800
H  -5.95400 29.04200 21.67100
H  -4.94700 29.48200 23.09600
H  -6.12200 28.24100 23.12100
H  -2.33100 30.31000 25.75000
H  -1.03000 29.19400 26.39200
H  -1.55200 30.59200 27.31800
H  -5.05400 28.91100 31.29400
H  -2.91700 28.23900 35.07600
H  -1.55800 28.80400 33.90100
H  -2.19700 27.16200 34.06800

