158

Mg 25.29000 1.34100 29.21900
C  27.25400 1.04500 32.19400
C  22.57600 1.43500 31.38200
C  23.46200 1.07200 26.54900
C  28.09800 0.54800 27.41400
N  25.05000 1.26700 31.59400
C  25.95000 1.24600 32.56900
C  25.26800 1.36300 33.92900
C  23.73900 1.22100 33.66000
C  23.79500 1.29300 32.09800
C  23.19200 -0.11100 34.26100
C  25.71400 2.74100 34.66200
C  26.32800 2.58000 36.06500
H  26.16200 3.74400 37.12000
N  23.30600 1.37700 28.98500
C  22.32200 1.44400 29.97200
C  21.08100 1.40500 29.35900
C  21.22700 1.29500 27.90800
C  22.73400 1.20800 27.73800
C  19.76400 1.63900 30.12700
C  20.16700 1.14000 26.76400
O  20.39300 1.26400 25.55800
C  18.68300 1.03600 27.12600
N  25.71700 1.04600 27.21200
C  24.77700 1.02800 26.24600
C  25.35700 0.94600 24.87400
C  26.88100 0.66900 25.14800
C  26.92100 0.80100 26.68200
C  24.73300 -0.06700 23.89900
C  27.83700 1.60900 24.41500
C  29.15700 1.01600 23.86500
N  27.28700 0.84000 29.68800
C  28.30500 0.54700 28.83600
C  29.52000 0.31000 29.58100
C  29.17700 0.51100 30.90300
C  27.79100 0.81100 30.92100
C  30.88800 -0.09500 29.08300
C  29.64900 0.51200 32.26200
O  30.76500 0.32000 32.73800
C  28.46700 1.02100 33.16700
C  28.28900 0.02400 34.29300
O  27.49800 -0.92400 34.31500
O  29.05700 0.41400 35.34500
C  28.99000 -0.53100 36.49800
H  21.75900 1.35700 32.10100
H  22.94600 1.21100 25.59600
H  28.95400 0.29900 26.78300
H  25.60900 0.56400 34.58700
H  23.13800 2.04900 34.03700
H  23.61600 -0.30700 35.24500
H  23.48500 -0.88300 33.54900
H  22.11300 -0.10100 34.41500
H  24.76400 3.21100 34.91600
H  26.30700 3.25500 33.90600
H  27.41100 2.52400 35.95500
H  25.86500 1.68900 36.48800
H  19.34300 0.63700 30.04800
H  19.18400 2.41800 29.63300
H  19.79600 1.94400 31.17300
H  18.29100 1.91100 27.64500
H  18.65400 0.24800 27.87900
H  18.09400 0.75400 26.25400
H  25.20000 1.94600 24.47000
H  27.19800 -0.37200 25.08200
H  25.41400 -0.87900 23.64300
H  24.30700 0.35300 22.98800
H  23.89200 -0.62600 24.30900
H  28.07400 2.44700 25.07000
H  27.35000 2.03000 23.53600
H  28.96000 -0.03700 23.66500
H  29.94400 1.08300 24.61600
H  29.40700 1.55200 22.94900
H  31.35100 0.86500 28.85600
H  30.81600 -0.73900 28.20700
H  31.46300 -0.62700 29.84100
H  28.68700 2.05700 33.42400
H  28.17100 -0.19800 37.13500
H  29.94700 -0.58800 37.01700
H  28.74700 -1.57500 36.30000
Mg 46.50700 25.68800 28.64600
C  47.88300 27.78300 31.24200
C  45.57900 23.47100 31.21100
C  45.95500 23.49600 26.29800
C  48.09200 27.81300 26.34600
N  46.78900 25.65300 30.97900
C  47.16000 26.71600 31.74000
C  46.80300 26.43200 33.27100
C  46.40300 24.88700 33.18800
C  46.17100 24.67900 31.69500
C  47.41000 23.93300 33.84200
C  45.75200 27.49900 33.84000
C  46.21600 28.25900 35.13500
H  45.31200 28.02700 36.37100
N  45.75100 23.75300 28.74300
C  45.44000 23.00900 29.79900
C  44.89300 21.79100 29.29100
C  45.07600 21.72400 27.89200
C  45.66000 22.98500 27.59200
C  44.38800 20.60600 30.19400
C  44.56800 20.68400 26.87600
O  44.71500 20.96200 25.67700
C  43.85100 19.36400 27.28200
N  46.99700 25.68100 26.54600
C  46.61100 24.60900 25.81500
C  47.16700 24.81600 24.30600
C  47.52900 26.30100 24.31000
C  47.59900 26.65500 25.81800
C  48.27500 23.77600 23.84700
C  46.61700 27.17300 23.32400
C  47.33300 27.69100 22.04500
N  47.58700 27.47100 28.70200
C  48.14400 28.22600 27.72600
C  48.80500 29.41800 28.18800
C  48.79200 29.26400 29.61300
C  48.03400 28.09100 29.87100
C  49.47500 30.38200 27.22400
C  49.21100 29.91600 30.86700
O  49.88600 30.89300 31.05600
C  48.52000 28.92800 31.94900
C  49.51700 28.47500 33.04100
O  50.30800 27.56900 32.86100
O  49.30900 29.18500 34.21000
C  50.08700 28.64400 35.42700
H  45.25700 22.77800 31.99100
H  45.80900 22.89400 25.39900
H  48.39500 28.50700 25.56000
H  47.67900 26.52400 33.91200
H  45.46200 24.91600 33.73700
H  48.39700 24.28900 33.54600
H  47.29100 22.89600 33.53000
H  47.35600 24.03000 34.92600
H  44.84600 26.93000 34.04800
H  45.51500 28.26500 33.10200
H  46.27900 29.28800 34.78200
H  47.17000 27.95200 35.56200
H  43.41400 20.33500 29.78600
H  44.38100 20.86400 31.25300
H  44.97400 19.68900 30.12300
H  44.50700 18.81100 27.95400
H  43.84800 18.75100 26.38100
H  42.79200 19.46200 27.52400
H  46.40300 24.74200 23.53200
H  48.57800 26.46300 24.05900
H  47.71100 23.11700 23.18700
H  48.70000 23.30200 24.73200
H  49.09700 24.38600 23.47200
H  46.20300 27.98200 23.92700
H  45.81700 26.51100 22.99300
H  48.40300 27.49900 22.12300
H  47.21500 28.77200 22.11600
H  46.86500 27.40800 21.10200
H  49.68900 31.31900 27.73700
H  48.77000 30.57600 26.41600
H  50.28200 29.79800 26.78100
H  47.67600 29.41700 32.43400
H  50.64700 27.72600 35.24800
H  49.38900 28.38800 36.22500
H  50.73200 29.50000 35.62400

