158

Mg -1.55500 17.28900 26.35100
C  -2.59900 15.25100 29.02700
C  -2.78400 20.04600 28.02000
C  -1.09700 19.01200 23.50000
C  -1.20500 14.30300 24.32800
N  -2.50600 17.61300 28.33800
C  -2.85800 16.61600 29.21800
C  -3.32500 17.31400 30.48500
C  -3.88700 18.64900 29.85900
C  -2.96800 18.85800 28.69000
C  -5.38000 18.65300 29.48100
C  -2.13300 17.53000 31.39300
C  -2.36600 17.09600 32.88700
H  -1.21400 16.67000 33.74100
N  -1.71700 19.25300 25.88300
C  -2.15100 20.23900 26.75300
C  -1.95100 21.48000 26.04700
C  -1.45100 21.20200 24.74100
C  -1.39500 19.79800 24.66600
C  -2.42700 22.81500 26.68800
C  -1.12900 22.12600 23.59300
O  -0.78800 21.75100 22.47500
C  -1.19400 23.53000 23.82500
N  -1.42100 16.66400 24.20000
C  -1.09400 17.65100 23.34500
C  -0.98500 17.07200 21.87400
C  -0.61800 15.54500 22.24100
C  -1.16600 15.46900 23.67900
C  -2.18000 17.32800 21.00400
C  0.89600 15.08100 22.20600
C  1.90700 15.86200 23.01300
N  -1.76700 15.25300 26.57900
C  -1.53500 14.14400 25.75800
C  -1.90800 12.97300 26.47000
C  -2.19500 13.32200 27.78300
C  -2.12900 14.71800 27.76000
C  -1.76300 11.59500 25.87200
C  -2.47400 12.78900 29.10900
O  -2.52400 11.63100 29.46400
C  -2.89800 14.01300 29.93800
C  -2.18000 13.94300 31.23800
O  -1.03300 14.18800 31.39700
O  -3.06700 13.55500 32.20400
C  -2.46800 12.99400 33.42600
H  -3.21100 20.94800 28.46200
H  -1.15700 19.48200 22.51700
H  -1.17300 13.47500 23.61700
H  -4.08200 16.65300 30.90800
H  -3.71800 19.48700 30.53600
H  -5.78200 17.64700 29.35600
H  -5.40700 19.17100 28.52300
H  -5.98100 19.03800 30.30600
H  -1.75200 18.55000 31.33500
H  -1.18500 17.12600 31.03800
H  -3.02800 16.23500 32.79600
H  -2.92400 17.90300 33.36100
H  -2.87800 22.80700 27.68000
H  -3.19300 23.20100 26.01600
H  -1.47800 23.34900 26.74400
H  -2.21600 23.76300 24.12500
H  -0.84000 24.09800 22.96500
H  -0.60200 23.73600 24.71700
H  -0.09300 17.50000 21.41700
H  -1.25200 14.89500 21.63700
H  -2.79800 18.05700 21.52900
H  -2.75700 16.40300 21.01400
H  -1.84200 17.58400 20.00000
H  1.03100 15.30300 21.14800
H  0.86000 14.00100 22.35400
H  1.45200 16.64900 23.61300
H  2.64000 16.28600 22.32700
H  2.36300 15.04900 23.57900
H  -2.12900 11.63800 24.84600
H  -2.19700 10.78400 26.45700
H  -0.71000 11.42900 25.64600
H  -3.95700 13.83900 30.13000
H  -1.72800 13.73200 33.73500
H  -1.90000 12.07600 33.27900
H  -3.16000 12.84700 34.25600
Mg 8.97300 3.08900 28.09100
C  10.04300 1.43300 30.98800
C  7.17700 5.24400 30.01200
C  7.23200 4.05900 25.27500
C  10.14900 0.36400 26.20200
N  8.54400 3.36200 30.24000
C  9.26300 2.59400 31.19400
C  8.90700 3.07000 32.57000
C  7.99400 4.31800 32.27600
C  7.82100 4.33500 30.76700
C  6.60100 4.15600 33.00300
C  10.17900 3.40800 33.32600
C  10.30400 2.99100 34.76400
H  10.80300 4.00100 35.85400
N  7.65900 4.60400 27.62700
C  7.11600 5.41600 28.55600
C  6.24600 6.40200 27.97100
C  6.33300 6.09400 26.59200
C  7.10700 4.86000 26.39800
C  5.55600 7.49600 28.70200
C  5.57900 6.84500 25.44900
O  5.79000 6.59200 24.29800
C  4.73100 7.95700 25.72000
N  8.93100 2.45400 25.93500
C  8.07700 2.93500 25.04900
C  8.16500 2.12700 23.69500
C  9.41400 1.20900 24.04000
C  9.44100 1.32400 25.48400
C  6.87500 1.43500 23.34700
C  10.74700 1.60200 23.33500
C  11.68400 0.45100 22.87200
N  10.01200 1.35500 28.47500
C  10.45400 0.37600 27.58800
C  11.28500 -0.58300 28.31000
C  11.16600 -0.24000 29.65100
C  10.36400 0.89000 29.67700
C  12.03400 -1.67200 27.68700
C  11.51500 -0.58000 31.04200
O  12.16000 -1.50600 31.49900
C  10.78600 0.49700 31.92100
C  9.88400 -0.10200 32.95500
O  8.73000 -0.37700 32.64400
O  10.59800 -0.36100 34.07600
C  9.72600 -0.91800 35.15700
H  6.61100 5.93900 30.63600
H  6.53300 4.41000 24.51400
H  10.50200 -0.48800 25.61700
H  8.36600 2.24100 33.02500
H  8.37600 5.28800 32.59300
H  6.35800 5.09000 33.51100
H  6.47800 3.31500 33.68600
H  5.82500 4.09800 32.24000
H  10.45100 4.46300 33.35100
H  11.06500 2.95500 32.88100
H  10.99100 2.16000 34.92500
H  9.31500 2.64700 35.06400
H  5.86200 7.60600 29.74200
H  4.49300 7.25800 28.65600
H  5.52800 8.41600 28.11900
H  4.11200 7.79000 26.60200
H  4.14000 8.09000 24.81300
H  5.40200 8.76200 26.01700
H  8.27900 2.86800 22.90400
H  9.13700 0.19700 23.74500
H  7.10200 0.37900 23.19800
H  6.36400 1.61800 22.40200
H  6.16300 1.47700 24.17100
H  11.33100 2.18200 24.05000
H  10.51700 2.34600 22.57300
H  12.61600 0.48800 23.43700
H  11.99000 0.46600 21.82600
H  11.24200 -0.53600 23.01100
H  11.41000 -2.54200 27.48500
H  12.88800 -1.95100 28.30500
H  12.46900 -1.34900 26.74100
H  11.50400 0.95300 32.60200
H  9.13200 -1.74700 34.77100
H  9.03000 -0.21800 35.62000
H  10.39300 -1.37700 35.88700

