158

Mg 47.84800 24.86700 28.14800
C  48.60200 27.02100 30.89800
C  47.62700 22.24200 30.49100
C  47.31700 22.82200 25.65200
C  49.03600 27.31400 25.87900
N  48.01100 24.62800 30.42600
C  48.30500 25.68400 31.30600
C  48.28500 25.17400 32.76400
C  48.26200 23.67700 32.56900
C  47.91200 23.50800 31.10500
C  49.62200 22.94600 33.00500
C  47.06100 25.71000 33.57400
C  47.42500 26.67100 34.74600
H  46.42500 26.62300 35.83400
N  47.41300 22.78700 28.12800
C  47.25100 21.92500 29.13900
C  46.68300 20.69700 28.62300
C  46.45900 20.96900 27.27200
C  47.10100 22.21400 26.96100
C  46.46500 19.46700 29.48400
C  45.65300 20.10100 26.27900
O  45.38600 20.41500 25.12200
C  44.88200 18.97500 26.87000
N  48.28700 25.00200 26.06600
C  47.78400 24.04900 25.28400
C  47.81300 24.47400 23.76200
C  48.19400 26.03500 23.93300
C  48.52300 26.10400 25.38600
C  48.61300 23.60000 22.79500
C  46.99000 26.91400 23.50600
C  47.18200 27.87000 22.31900
N  48.65500 26.80700 28.33600
C  49.16300 27.62900 27.27500
C  49.64200 28.84300 27.97200
C  49.37400 28.70500 29.38200
C  48.82800 27.38200 29.56000
C  50.23600 30.02400 27.28900
C  49.46600 29.35000 30.66100
O  49.91400 30.43900 30.96400
C  48.91100 28.24500 31.68800
C  50.05700 28.01000 32.54900
O  50.92100 27.17600 32.49300
O  49.97800 28.96600 33.61100
C  50.99500 28.87700 34.64500
H  47.54100 21.45800 31.24600
H  46.95100 22.19100 24.83900
H  49.36500 28.06300 25.15600
H  49.16700 25.50100 33.31400
H  47.43200 23.22900 33.11500
H  50.09300 22.31600 32.25100
H  49.39900 22.22900 33.79500
H  50.31000 23.69300 33.40200
H  46.64100 24.86500 34.11900
H  46.33200 26.01100 32.82200
H  47.53400 27.68100 34.34900
H  48.37600 26.30600 35.13200
H  45.42800 19.13400 29.52600
H  46.74900 19.62400 30.52400
H  47.07400 18.67700 29.04400
H  45.61500 18.26000 27.24200
H  44.33500 18.57800 26.01500
H  44.22400 19.35500 27.65100
H  46.76500 24.45100 23.46500
H  49.11900 26.24000 23.39400
H  48.92400 22.71300 23.34600
H  49.51900 24.15300 22.54500
H  48.06200 23.36300 21.88500
H  46.74900 27.59800 24.32000
H  46.17600 26.24600 23.22400
H  46.29400 27.81000 21.69000
H  48.06800 27.52600 21.78400
H  47.28800 28.92000 22.59300
H  50.88400 30.41500 28.07300
H  49.50100 30.78800 27.03800
H  50.78200 29.57000 26.46100
H  48.07500 28.68500 32.23000
H  50.83500 28.10000 35.39200
H  50.96300 29.85400 35.12900
H  51.96700 28.82300 34.15400
Mg -9.94900 39.16000 39.63000
C  -8.53900 36.07900 39.38100
C  -6.73300 40.38200 38.57600
C  -11.39900 42.13800 38.77900
C  -13.03400 37.82400 40.05700
N  -7.75000 38.38900 39.24400
C  -7.54700 37.06100 39.09400
C  -6.02200 36.77300 38.70600
C  -5.45200 38.19700 38.94200
C  -6.69800 39.05200 38.92100
C  -4.61800 38.31400 40.30500
C  -5.87000 36.01100 37.37000
C  -5.16700 36.72600 36.22200
H  -5.65600 36.33400 34.76500
N  -9.20600 41.01200 38.91800
C  -7.87100 41.24700 38.47300
C  -7.79100 42.67600 38.10100
C  -9.09200 43.21400 38.15600
C  -9.98700 42.11400 38.57600
C  -6.52000 43.40400 37.71600
C  -9.42800 44.59800 37.60000
O  -8.61100 45.36100 37.15000
C  -10.86600 45.03700 37.55200
N  -11.97800 39.90200 39.27900
C  -12.29200 41.18500 39.13000
C  -13.84200 41.35800 39.08500
C  -14.32500 39.92800 39.50400
C  -13.06800 39.11800 39.60700
C  -14.43800 42.57800 39.88400
C  -15.45600 39.39700 38.63100
C  -15.12200 38.95500 37.23100
N  -10.64600 37.38400 39.83100
C  -11.91300 36.96000 40.17100
C  -11.81300 35.55700 40.45200
C  -10.56100 35.16600 39.99500
C  -9.85100 36.27700 39.67100
C  -12.92500 34.62300 40.86900
C  -9.74200 33.98000 39.70600
O  -9.92600 32.79700 39.74900
C  -8.38300 34.52800 39.21900
C  -7.36700 33.69800 39.99400
O  -7.27100 33.57600 41.20400
O  -6.60100 33.01500 39.09400
C  -5.53200 32.31400 39.70300
H  -5.80600 40.82900 38.21000
H  -12.00000 43.03900 38.63900
H  -13.98200 37.33700 40.29600
H  -5.51500 36.16900 39.45900
H  -4.75700 38.58100 38.19500
H  -4.25400 37.40500 40.78300
H  -5.28200 38.65000 41.10100
H  -3.75400 38.96500 40.16800
H  -6.84900 35.69600 37.01000
H  -5.31300 35.09200 37.55000
H  -4.10900 36.49800 36.35100
H  -5.38400 37.79300 36.27200
H  -6.33100 43.22200 36.65800
H  -5.66700 43.06200 38.30200
H  -6.55100 44.49300 37.73100
H  -11.26100 45.02100 38.56700
H  -11.44400 44.35100 36.93200
H  -10.95300 46.05200 37.16400
H  -13.95600 41.56100 38.02000
H  -14.81000 39.98600 40.47900
H  -15.10100 42.19000 40.65700
H  -15.10600 43.17000 39.25900
H  -13.68300 43.21000 40.35200
H  -16.25700 40.13100 38.53900
H  -15.89400 38.52700 39.12100
H  -15.59300 39.71600 36.61000
H  -15.51600 37.95300 37.06100
H  -14.08600 38.76300 36.94900
H  -12.67600 33.60300 40.57400
H  -13.84100 34.80400 40.30700
H  -13.24100 34.74000 41.90500
H  -8.37700 34.42100 38.13500
H  -5.93700 31.57700 40.39700
H  -4.83400 32.89600 40.30500
H  -4.86000 31.77700 39.03300

