158

Mg 30.29500 57.99100 39.75700
C  27.32300 56.11000 39.21800
C  32.13300 55.38100 38.72400
C  32.87900 59.95500 39.87300
C  28.13800 60.87400 40.15700
N  29.66800 56.04700 38.92500
C  28.51700 55.39300 39.02000
C  28.61700 53.90400 38.71000
C  30.17900 53.71100 38.67500
C  30.72900 55.14000 38.82700
C  30.93000 52.79300 39.67100
C  27.86900 53.47600 37.39900
C  27.53400 54.60400 36.37000
H  27.71700 54.20700 34.95900
N  32.26500 57.65100 39.42600
C  32.81700 56.54300 38.95600
C  34.27500 56.73800 38.84400
C  34.57700 58.04200 39.21500
C  33.21900 58.61000 39.53300
C  35.28800 55.70300 38.43700
C  35.96500 58.66100 39.41700
O  36.94500 58.02500 39.05500
C  36.23900 59.95900 40.08800
N  30.45300 60.11400 40.04600
C  31.66900 60.60800 40.17100
C  31.73900 62.17900 40.22000
C  30.14500 62.43800 40.52800
C  29.52300 61.09700 40.10800
C  32.62400 62.85500 41.19800
C  29.49900 63.66900 39.80600
C  28.81300 64.69000 40.70600
N  28.19300 58.43700 39.67500
C  27.50400 59.62600 39.95300
C  26.12300 59.39700 39.85700
C  25.93900 58.04600 39.66300
C  27.24900 57.47800 39.54000
C  25.10400 60.46800 39.84400
C  25.01700 56.91900 39.48400
O  23.80400 56.93100 39.44900
C  25.89200 55.56500 39.28700
C  25.68400 54.69400 40.48700
O  26.46000 54.50800 41.40400
O  24.45300 54.18500 40.31500
C  24.23200 53.10600 41.34200
H  32.76700 54.52500 38.48300
H  33.79000 60.53300 40.04600
H  27.57700 61.80000 40.30100
H  28.10800 53.46900 39.56900
H  30.56100 53.37400 37.71100
H  31.19500 53.39500 40.54000
H  31.80200 52.31200 39.22700
H  30.25600 52.07100 40.13300
H  27.04000 52.77900 37.52300
H  28.60300 52.80100 36.95800
H  28.04700 55.55100 36.53800
H  26.47600 54.82000 36.51600
H  34.86500 55.27200 37.52900
H  35.28300 54.85700 39.12400
H  36.31900 55.97200 38.20700
H  35.88600 60.76500 39.44500
H  37.31700 60.10000 40.16200
H  35.89600 60.04400 41.11900
H  31.90200 62.49700 39.19000
H  30.07100 62.50800 41.61400
H  32.09900 63.44400 41.94900
H  33.37800 63.46800 40.70500
H  33.21800 62.09300 41.70300
H  28.74300 63.36100 39.08300
H  30.28900 64.13600 39.21800
H  29.17900 65.66900 40.39600
H  29.04000 64.51500 41.75700
H  27.74200 64.51900 40.59500
H  24.88900 60.69500 38.80000
H  25.55900 61.33800 40.31600
H  24.28100 59.98900 40.37300
H  25.61100 54.90800 38.46400
H  24.11600 53.46400 42.36500
H  25.01900 52.35400 41.39700
H  23.27800 52.60900 41.16200
Mg 27.12500 49.92800 26.86100
C  25.09900 51.07000 29.49200
C  29.50400 49.12700 29.19000
C  29.03800 49.25500 24.27100
C  24.72900 51.45000 24.67400
N  27.13800 49.98500 29.12100
C  26.27900 50.54100 29.98700
C  26.77400 50.31200 31.51000
C  28.19900 49.75300 31.35000
C  28.31000 49.66300 29.75800
C  29.40500 50.54000 32.03500
C  25.80100 49.43200 32.32900
C  25.59200 49.86100 33.78900
H  24.94300 48.75000 34.70400
N  28.99700 49.27400 26.77100
C  29.87200 48.98600 27.79800
C  31.08600 48.49200 27.22600
C  31.03200 48.76100 25.87200
C  29.62500 49.10000 25.56200
C  32.18200 48.12500 28.12000
C  32.14500 48.61900 24.83500
O  31.99900 48.87600 23.66600
C  33.46900 48.10700 25.28300
N  26.98800 50.42800 24.76300
C  27.83300 49.87100 23.90400
C  27.42000 50.09300 22.48300
C  26.01100 50.60500 22.60200
C  25.91300 50.87800 24.09900
C  28.39000 51.03900 21.66800
C  24.82600 49.61600 22.02900
C  24.59600 48.27000 22.85100
N  25.29900 51.04200 27.00500
C  24.43300 51.53100 26.02300
C  23.32200 52.27400 26.67000
C  23.56000 52.08300 28.00900
C  24.75900 51.30200 28.15700
C  22.24000 53.12400 26.12200
C  23.01000 52.38600 29.28300
O  21.92900 53.01500 29.52600
C  23.93300 51.79800 30.31400
C  24.47000 52.96300 31.08800
O  25.56500 53.47600 30.96900
O  23.57300 53.31200 32.08400
C  24.03200 53.90400 33.31300
H  30.14100 48.69500 29.96500
H  29.71400 48.96400 23.46400
H  24.03200 51.97200 24.01500
H  26.91800 51.29700 31.95400
H  28.33900 48.77100 31.80200
H  29.00700 51.47500 32.43100
H  30.14300 50.67000 31.24400
H  29.89600 49.94500 32.80500
H  26.04600 48.37400 32.23600
H  24.85800 49.49000 31.78600
H  24.92000 50.71900 33.80500
H  26.57600 50.12000 34.18100
H  31.85700 47.85800 29.12500
H  32.76600 49.02900 28.29100
H  32.83300 47.32200 27.77400
H  34.20300 48.49400 24.57600
H  33.58800 47.02700 25.37200
H  33.73600 48.50000 26.26400
H  27.40900 49.11800 21.99600
H  25.84800 51.62700 22.26300
H  27.95600 52.03800 21.62300
H  28.59500 50.57200 20.70500
H  29.30200 50.97700 22.26100
H  24.99500 49.42600 20.96900
H  23.89500 50.18200 22.05400
H  24.96300 48.40700 23.86800
H  25.04900 47.34500 22.49500
H  23.52800 48.06600 22.91900
H  22.48000 53.31400 25.07500
H  22.15000 54.03700 26.71100
H  21.35800 52.50000 26.26400
H  23.32800 51.15700 30.95500
H  25.08700 53.68200 33.47500
H  23.42700 53.56600 34.15400
H  23.82600 54.97200 33.36500

