158

Mg 49.54300 45.58900 42.94100
C  46.12000 45.95000 42.15200
C  49.27400 42.22500 42.19700
C  52.87000 45.46300 42.82900
C  49.72300 49.21700 42.71600
N  47.86200 44.30800 42.14200
C  46.57000 44.58900 42.00700
C  45.76400 43.31500 41.75000
C  46.76400 42.17800 42.14700
C  48.03600 42.91200 42.27600
C  46.39500 41.52300 43.47500
C  45.14200 43.23000 40.31300
C  46.01400 42.80500 39.06700
H  45.84700 43.66000 37.80600
N  50.85900 44.06900 42.83400
C  50.57000 42.67500 42.52300
C  51.77100 41.89500 42.62600
C  52.83100 42.83800 42.88900
C  52.22500 44.18900 42.88800
C  51.77900 40.38400 42.49300
C  54.29800 42.49400 43.10400
O  54.67600 41.35300 43.15000
C  55.29300 43.50500 43.40300
N  51.06300 47.17600 42.82300
C  52.36300 46.81500 42.81900
C  53.21200 48.09000 42.66100
C  52.31000 49.23200 42.33300
C  50.90700 48.52900 42.74300
C  54.14100 48.30700 43.95500
C  52.58200 49.75300 40.89300
C  53.90900 50.42700 40.65000
N  48.22400 47.26600 42.55400
C  48.42300 48.62800 42.55900
C  47.15700 49.31900 42.42700
C  46.25200 48.29600 42.24600
C  46.93100 47.07800 42.37200
C  46.93100 50.83500 42.54700
C  44.86400 48.04100 41.91100
O  43.99700 48.85800 41.64100
C  44.77900 46.51300 41.81500
C  43.73300 45.90300 42.63600
O  42.99600 45.07500 42.10600
O  43.63900 46.39700 43.85500
C  42.43200 45.87200 44.61200
H  49.31000 41.14600 42.03100
H  53.95600 45.41600 42.73200
H  49.79000 50.30700 42.75100
H  44.91300 43.36200 42.42900
H  46.74600 41.43100 41.35300
H  45.50800 42.02800 43.85600
H  47.23100 41.68000 44.15700
H  46.23100 40.45600 43.33100
H  44.69100 44.21000 40.16000
H  44.26900 42.58700 40.43000
H  45.67200 41.81700 38.76000
H  47.07500 42.66500 39.27700
H  51.88300 40.01800 41.47200
H  50.91600 40.06300 43.07600
H  52.62800 40.01200 43.06600
H  55.64700 44.03100 42.51700
H  56.20300 43.13500 43.87400
H  54.87700 44.16700 44.16200
H  53.88800 47.77400 41.86600
H  52.54500 49.94100 43.12700
H  55.20000 48.10100 43.80400
H  53.83500 47.64900 44.76800
H  54.02600 49.22800 44.52600
H  51.81600 50.50900 40.72100
H  52.48000 48.93300 40.18300
H  53.67500 51.45900 40.38800
H  54.39100 49.97400 39.78400
H  54.51700 50.26200 41.53900
H  47.18200 51.12000 43.56900
H  45.89900 51.16900 42.65600
H  47.59500 51.38900 41.88300
H  44.53300 46.49200 40.75400
H  41.71400 45.24900 44.08000
H  41.85900 46.72600 44.97200
H  42.79400 45.31600 45.47700
Mg 1.34500 41.76800 25.75000
C  3.21400 41.95000 28.76400
C  -1.23100 40.62800 27.76700
C  -0.39300 41.35500 23.03700
C  4.21300 42.72400 23.98900
N  1.06700 41.40600 28.12800
C  1.93000 41.71600 29.09500
C  1.35400 41.67100 30.50300
C  -0.11700 41.15500 30.07000
C  -0.11300 41.02100 28.54900
C  -0.60500 39.84100 30.89400
C  1.46800 43.05700 31.28200
C  2.10900 43.11700 32.64800
H  1.72700 42.05700 33.66700
N  -0.44400 40.90400 25.43300
C  -1.38400 40.58400 26.35700
C  -2.59100 39.99800 25.64900
C  -2.44500 40.37300 24.28500
C  -1.06000 40.91300 24.14600
C  -3.66600 39.29800 26.38700
C  -3.39700 40.28800 23.17900
O  -3.21700 40.68800 22.08600
C  -4.72100 39.85400 23.43900
N  1.85800 41.94000 23.79400
C  0.91600 41.73100 22.82300
C  1.61200 41.81000 21.44000
C  2.95600 42.43800 21.73900
C  3.03100 42.39200 23.26900
C  1.73000 40.47000 20.73400
C  3.08600 43.89700 21.12800
C  4.32400 44.08200 20.38000
N  3.33100 42.22600 26.19200
C  4.34800 42.57300 25.38300
C  5.50300 42.72000 26.16600
C  5.15800 42.44700 27.49400
C  3.73600 42.19100 27.48200
C  6.80900 43.26400 25.77400
C  5.73600 42.22600 28.78200
O  6.85400 42.29600 29.22600
C  4.43200 42.10500 29.69700
C  4.76200 40.91600 30.57900
O  4.52500 39.75100 30.29500
O  5.35300 41.34200 31.73400
C  5.63600 40.38400 32.76300
H  -2.10100 40.38000 28.37800
H  -0.87300 41.25000 22.06200
H  5.14300 43.03600 23.51000
H  1.89700 40.89400 31.04100
H  -0.86000 41.87600 30.41000
H  -1.29900 40.27400 31.61500
H  0.26400 39.51800 31.46700
H  -1.15700 39.10300 30.31100
H  0.42900 43.37700 31.35900
H  1.96200 43.74400 30.59600
H  1.73600 44.04000 33.09300
H  3.19000 43.15000 32.50900
H  -3.36500 38.95900 27.37800
H  -3.98400 38.42000 25.82500
H  -4.54600 39.93300 26.48800
H  -5.15900 40.40900 24.26900
H  -4.74500 38.77000 23.54500
H  -5.29800 40.06300 22.53900
H  0.95100 42.44500 20.85000
H  3.84900 41.86400 21.49300
H  1.45900 39.56600 21.28000
H  2.77900 40.39800 20.44600
H  1.12600 40.52800 19.82900
H  3.03800 44.65700 21.90800
H  2.24500 44.10000 20.46500
H  4.86200 44.86100 20.92100
H  4.05400 44.47100 19.39800
H  4.84700 43.12900 20.30500
H  6.68100 44.08400 25.06700
H  7.24700 42.42200 25.23800
H  7.41600 43.60400 26.61200
H  4.23700 42.94800 30.36000
H  5.50400 40.76100 33.77700
H  6.49200 39.70900 32.73000
H  4.75300 39.75100 32.67300

