158

Mg 35.27700 48.59900 25.19800
C  35.70200 46.73100 28.11000
C  34.62600 51.32600 27.18600
C  34.74200 50.28900 22.45500
C  35.89000 45.62100 23.36900
N  34.85500 48.89800 27.35300
C  35.26200 48.07100 28.35900
C  35.35500 48.72500 29.73500
C  34.55500 50.09200 29.42700
C  34.65700 50.13300 27.91200
C  33.10900 50.20000 30.01300
C  36.80600 48.97000 30.26900
C  37.00600 49.14500 31.76600
H  35.84800 49.03100 32.78300
N  34.78800 50.53600 24.86800
C  34.60500 51.48100 25.79000
C  34.45500 52.77600 25.14400
C  34.46000 52.57900 23.75700
C  34.64300 51.04100 23.61100
C  34.38300 54.18700 25.74500
C  34.22000 53.55200 22.54500
O  34.42200 53.20100 21.36400
C  33.79900 54.92400 22.77400
N  35.21500 48.04600 23.19000
C  35.06800 48.95600 22.26800
C  35.42700 48.43600 20.86700
C  35.71100 46.89200 21.13900
C  35.57800 46.82000 22.65900
C  34.24200 48.52200 19.90000
C  37.15200 46.48500 20.69700
C  38.34400 47.00100 21.53300
N  35.52200 46.53900 25.59700
C  35.90000 45.49100 24.80100
C  36.50000 44.34700 25.59000
C  36.35600 44.83500 26.89400
C  35.76400 46.14200 26.87100
C  37.08900 43.06600 25.07000
C  36.72900 44.43600 28.23600
O  37.27300 43.40500 28.65100
C  36.27300 45.67700 29.08600
C  35.12300 45.24700 30.01500
O  33.91100 45.24600 29.74800
O  35.62900 44.94100 31.18500
C  34.69600 44.77200 32.35300
H  34.48500 52.24000 27.76700
H  34.63100 50.79500 21.49300
H  36.15900 44.81700 22.68200
H  34.67100 48.10600 30.31700
H  35.08200 50.99600 29.73100
H  32.39900 50.56100 29.26900
H  32.97300 50.86500 30.86600
H  32.82300 49.24600 30.45700
H  37.17100 49.95200 29.96700
H  37.46600 48.19300 29.88100
H  37.53100 50.07800 31.97100
H  37.66200 48.37100 32.16400
H  35.32500 54.70100 25.55500
H  34.31400 54.11000 26.83000
H  33.53300 54.83700 25.53900
H  32.79400 54.83000 23.18400
H  33.71000 55.42500 21.80900
H  34.54800 55.49200 23.32600
H  36.32900 48.92200 20.49400
H  34.98000 46.23400 20.67000
H  34.26400 47.65800 19.23600
H  34.36800 49.45900 19.35700
H  33.29200 48.51800 20.43400
H  37.23800 46.80200 19.65800
H  37.14300 45.40300 20.56700
H  39.27500 47.10500 20.97500
H  38.53000 46.26100 22.31100
H  38.11600 47.95300 22.01300
H  37.00000 42.95400 23.98900
H  36.62700 42.21800 25.57600
H  38.15000 43.07500 25.32000
H  37.11200 46.10400 29.63500
H  33.80200 45.38100 32.22400
H  35.31700 45.09900 33.18700
H  34.51700 43.71100 32.53100
Mg -10.53900 39.71700 40.46700
C  -9.22800 36.80800 39.10100
C  -7.44400 41.31400 39.69300
C  -12.06600 42.55900 40.58900
C  -13.50700 38.06700 41.19100
N  -8.57800 39.08000 39.43400
C  -8.25300 37.83000 38.99600
C  -6.81400 37.77400 38.48300
C  -6.20900 39.04400 39.03900
C  -7.50000 39.90700 39.44300
C  -5.28400 38.72600 40.21600
C  -6.67100 37.76100 36.86700
C  -5.88700 36.59300 36.15600
H  -6.62200 35.75800 35.10300
N  -9.78300 41.75000 40.35600
C  -8.53700 42.18200 40.01600
C  -8.57700 43.60000 39.93500
C  -9.95600 44.00400 40.03800
C  -10.68900 42.76200 40.39600
C  -7.35300 44.35900 39.57900
C  -10.50600 45.38000 39.85300
O  -9.76600 46.34900 39.62800
C  -11.94900 45.73100 40.02000
N  -12.45200 40.25500 41.08400
C  -12.83300 41.46800 40.97800
C  -14.33400 41.67100 41.29700
C  -14.75000 40.24800 41.72100
C  -13.52500 39.46100 41.35000
C  -14.76000 42.74200 42.38300
C  -16.13700 39.66600 41.18200
C  -17.18300 39.21500 42.17700
N  -11.31500 37.80800 40.22700
C  -12.57500 37.29200 40.43400
C  -12.56900 35.89800 40.05900
C  -11.26600 35.65900 39.51600
C  -10.55600 36.84500 39.65300
C  -13.60300 34.92500 40.28000
C  -10.49300 34.62800 38.84700
O  -10.66600 33.56000 38.32000
C  -9.09200 35.35700 38.69700
C  -8.07800 34.63200 39.56000
O  -8.10300 34.62600 40.77200
O  -7.10500 33.96400 38.84400
C  -5.94700 33.48000 39.65700
H  -6.47000 41.78000 39.53000
H  -12.63900 43.48700 40.53800
H  -14.45600 37.57600 41.41800
H  -6.39900 36.82600 38.82400
H  -5.76900 39.61600 38.22200
H  -5.34400 37.76200 40.72200
H  -5.42500 39.45000 41.01800
H  -4.28900 38.96900 39.84300
H  -6.20900 38.68500 36.51800
H  -7.67000 37.80500 36.43400
H  -5.62300 35.79100 36.84600
H  -4.95900 37.01100 35.76800
H  -7.03200 44.20400 38.54800
H  -6.53300 44.01400 40.20900
H  -7.38500 45.43300 39.76100
H  -12.48700 45.09800 39.31400
H  -12.23200 46.73400 39.69800
H  -12.17900 45.53100 41.06700
H  -14.96800 41.84500 40.42700
H  -14.80500 40.34200 42.80600
H  -13.90800 42.74300 43.06300
H  -15.61500 42.49100 43.01100
H  -14.79200 43.80500 42.14300
H  -15.96100 38.94200 40.38600
H  -16.60200 40.50400 40.66200
H  -18.03500 39.88900 42.08200
H  -16.79100 39.17100 43.19300
H  -17.51600 38.20100 41.95500
H  -14.28600 34.95100 39.43100
H  -14.14800 35.11800 41.20400
H  -13.20800 33.91100 40.21900
H  -8.77100 35.22800 37.66300
H  -5.15500 33.34600 38.92100
H  -6.10300 32.51500 40.13800
H  -5.47000 34.14800 40.37500

