158

Mg 40.55000 41.49200 27.13200
C  39.98000 43.60600 29.75700
C  41.54500 39.13000 29.33800
C  41.49100 39.63200 24.53000
C  39.76600 44.02800 24.93500
N  40.59600 41.36300 29.27000
C  40.18800 42.33800 30.18300
C  40.11900 41.85500 31.63800
C  40.80200 40.37700 31.43900
C  41.00300 40.30500 29.90300
C  42.09900 40.16800 32.31800
C  38.61700 41.96500 32.14300
C  38.38600 41.17900 33.35600
H  37.62400 41.87500 34.50600
N  41.42400 39.64700 26.98600
C  41.79700 38.81000 28.02200
C  42.30600 37.58700 27.49200
C  42.29400 37.66400 26.08500
C  41.76300 39.03700 25.78500
C  42.73500 36.42300 28.34800
C  42.69500 36.68400 25.01500
O  42.56800 36.94600 23.82600
C  43.37200 35.49600 25.41000
N  40.57500 41.70600 25.01200
C  40.91900 40.77000 24.13000
C  40.75600 41.16900 22.66600
C  39.95200 42.58000 22.84600
C  40.10400 42.79700 24.35900
C  42.16800 41.46300 21.91200
C  38.42100 42.38600 22.41100
C  37.68200 41.19200 22.98400
N  40.02700 43.39600 27.24100
C  39.73100 44.36300 26.29200
C  39.46800 45.65900 26.91100
C  39.57100 45.36000 28.23400
C  39.96100 44.05100 28.40900
C  39.08500 46.89100 26.14700
C  39.49400 45.91500 29.54300
O  39.19500 47.02000 29.92100
C  39.73900 44.77800 30.61100
C  40.90600 45.16300 31.52000
O  41.89900 45.74900 31.13900
O  40.63400 44.75500 32.81300
C  41.72700 44.93600 33.75100
H  41.89500 38.44300 30.11200
H  41.67600 39.00000 23.65900
H  39.58800 44.77900 24.16400
H  40.77800 42.42600 32.29300
H  40.11900 39.55100 31.64100
H  42.84200 39.65700 31.70500
H  41.76400 39.48400 33.09700
H  42.61100 41.05400 32.69500
H  38.03700 41.48500 31.35500
H  38.25700 42.99200 32.19900
H  39.30100 40.76800 33.78200
H  37.76500 40.33100 33.06900
H  42.03700 35.60200 28.18600
H  42.81300 36.67700 29.40500
H  43.74200 36.23400 27.97500
H  42.70300 34.82900 25.95400
H  44.25600 35.71700 26.00700
H  43.83400 34.92400 24.60500
H  40.26900 40.39900 22.06800
H  40.36100 43.45700 22.34400
H  43.05900 41.11000 22.43100
H  42.31800 42.52400 21.70900
H  42.19900 41.10200 20.88400
H  38.47600 42.23200 21.33400
H  37.84700 43.30800 22.50800
H  38.25000 40.57500 23.68000
H  37.36400 40.54200 22.16900
H  36.77800 41.53800 23.48500
H  38.45500 46.73800 25.27000
H  39.99400 47.38700 25.80700
H  38.45300 47.46700 26.82400
H  38.86300 44.87400 31.25300
H  42.73900 45.11500 33.38800
H  41.71100 44.06000 34.39900
H  41.46400 45.77700 34.39200
Mg 6.09500 57.12200 42.15600
C  5.30700 53.46300 41.92600
C  9.07200 56.21200 40.54000
C  6.46400 60.23800 41.84100
C  2.81000 57.53100 43.29000
N  7.01600 55.03800 41.36300
C  6.53400 53.75400 41.33900
C  7.54400 52.71100 40.72800
C  8.78500 53.65300 40.48400
C  8.30800 55.04200 40.83600
C  10.08100 53.24000 41.25500
C  7.00800 52.09200 39.50000
C  7.53900 50.67000 39.23700
H  7.05400 50.11000 37.87900
N  7.54100 58.10600 41.37600
C  8.71500 57.68900 40.77600
C  9.44500 58.77800 40.37800
C  8.74800 59.95200 40.69700
C  7.54500 59.45400 41.31100
C  10.84900 58.58800 39.70200
C  9.40300 61.36900 40.57600
O  10.43300 61.62400 39.97400
C  8.70800 62.57500 41.30800
N  4.65200 58.67600 42.22200
C  5.26600 59.87200 42.39800
C  4.23900 60.86400 42.91500
C  2.97200 60.05200 43.27300
C  3.51900 58.67600 42.94100
C  4.70500 61.87100 43.97200
C  1.67400 60.45300 42.42700
C  0.28000 60.29700 43.06200
N  4.47100 55.84100 42.72200
C  3.25400 56.22300 43.21000
C  2.54800 54.99500 43.58300
C  3.33400 53.89400 43.15900
C  4.46700 54.43600 42.55400
C  1.26400 54.99900 44.20800
C  3.43700 52.45600 43.16100
O  2.71300 51.59400 43.63900
C  4.74000 52.11900 42.36600
C  4.46200 51.02300 41.33900
O  3.68400 51.02800 40.38900
O  5.22900 49.94600 41.73600
C  4.91200 48.70100 41.04000
H  10.06300 56.07200 40.10300
H  6.75000 61.29200 41.82100
H  1.84800 57.81500 43.72300
H  7.67500 51.95700 41.50400
H  9.08500 53.66700 39.43600
H  9.94400 52.42100 41.96200
H  10.39300 54.08100 41.87400
H  10.95500 52.89700 40.70100
H  7.08400 52.67200 38.58000
H  5.92900 52.00300 39.62400
H  7.27400 49.98700 40.04400
H  8.62000 50.80800 39.22200
H  11.39400 57.80700 40.23100
H  11.44200 59.50200 39.65400
H  10.69900 58.06500 38.75800
H  8.74800 62.48600 42.39300
H  7.78400 62.68600 40.74000
H  9.39200 63.40500 41.13100
H  4.06900 61.45900 42.01800
H  2.67900 60.18000 44.31500
H  5.67300 62.22100 43.61500
H  5.03000 61.41900 44.90900
H  4.11200 62.77800 44.08900
H  1.54000 59.70000 41.65100
H  1.77500 61.43300 41.96200
H  -0.45400 60.69300 42.35900
H  0.25500 60.68200 44.08100
H  0.01200 59.25000 43.20400
H  0.77200 54.03100 44.10900
H  0.67200 55.79900 43.76300
H  1.21900 55.09500 45.29300
H  5.36900 51.71800 43.16000
H  3.84100 48.64400 40.84700
H  5.26100 47.84000 41.61100
H  5.40500 48.56100 40.07800

