158

Mg 2.38100 -1.76000 43.82600
C  5.69200 -0.88300 43.25200
C  1.40000 1.00800 42.19100
C  -0.74800 -3.07000 43.60900
C  3.57700 -4.98100 44.93000
N  3.51100 -0.13000 42.82700
C  4.82800 0.09100 42.73900
C  5.17600 1.48600 42.11000
C  3.76100 2.03800 41.78500
C  2.81800 0.99800 42.50700
C  3.43700 3.40900 42.40100
C  6.05700 1.42300 40.82100
C  7.06200 2.57200 40.55500
H  6.81100 3.42000 39.25200
N  0.55000 -1.03200 43.09700
C  0.37300 0.06900 42.41100
C  -1.02600 0.16100 41.97900
C  -1.75400 -0.89700 42.58500
C  -0.64500 -1.75700 43.08100
C  -1.55200 1.34100 41.22100
C  -3.20100 -1.04200 42.58100
O  -3.87700 -0.24100 41.97000
C  -3.90500 -2.20600 43.14200
N  1.54400 -3.84100 44.00200
C  0.22400 -3.98100 44.03700
C  -0.18400 -5.30900 44.64200
C  1.16200 -5.98300 45.12000
C  2.19400 -4.90400 44.63200
C  -1.24100 -5.16100 45.79600
C  1.58600 -7.34300 44.53800
C  2.18400 -8.35000 45.50300
N  4.16900 -2.63400 44.18800
C  4.52300 -3.87900 44.75700
C  5.95600 -3.95400 45.07000
C  6.40300 -2.71300 44.48400
C  5.31500 -2.00700 43.86100
C  6.84700 -4.93800 45.82600
C  7.60000 -1.96800 44.19900
O  8.76600 -2.19400 44.48300
C  7.15800 -0.78900 43.41800
C  7.53300 0.47300 44.07400
O  7.22000 0.71500 45.21600
O  8.19400 1.37700 43.21600
C  8.57700 2.66900 43.86600
H  0.96600 1.86100 41.66500
H  -1.77500 -3.41400 43.74900
H  4.09000 -5.90400 45.20700
H  5.65600 2.15000 42.82900
H  3.56600 2.24300 40.73300
H  2.83900 3.21500 43.29100
H  2.90400 4.09600 41.74300
H  4.41000 3.83900 42.63700
H  5.37100 1.36800 39.97600
H  6.56900 0.46000 40.80400
H  8.09400 2.23400 40.64100
H  6.98300 3.34100 41.32400
H  -2.54000 1.65800 41.55400
H  -1.58500 1.00900 40.18300
H  -0.92900 2.23300 41.28300
H  -3.90000 -2.18200 44.23200
H  -3.49000 -3.16900 42.84300
H  -4.92300 -2.27700 42.76100
H  -0.64400 -5.91700 43.86300
H  1.09400 -6.01100 46.20800
H  -1.03200 -5.61300 46.76500
H  -2.04700 -5.80200 45.43900
H  -1.75900 -4.20200 45.80300
H  2.30300 -7.13400 43.74500
H  0.66400 -7.78000 44.15500
H  1.66000 -9.29400 45.65300
H  2.33800 -7.93400 46.49900
H  3.23400 -8.53800 45.27900
H  7.39500 -5.67200 45.23300
H  6.20800 -5.42400 46.56200
H  7.69000 -4.42100 46.28400
H  7.50700 -0.81000 42.38500
H  9.60700 2.57900 44.21100
H  8.06900 2.78500 44.82300
H  8.32300 3.49600 43.20300
Mg 16.74700 52.30500 26.70500
C  18.73100 50.80600 29.18600
C  14.50600 53.39800 29.12600
C  14.80100 53.37800 24.26800
C  18.66700 50.61300 24.31400
N  16.60900 51.98100 28.94900
C  17.57900 51.42700 29.70500
C  17.28200 51.68700 31.18200
C  15.80100 52.35900 31.12500
C  15.52500 52.52500 29.66000
C  14.70000 51.62600 31.86000
C  18.35600 52.76200 31.79000
C  18.83600 52.62100 33.22800
H  17.78900 52.20100 34.20300
N  14.95300 53.40100 26.71700
C  14.20400 53.79900 27.80700
C  13.17900 54.64100 27.36100
C  13.14900 54.55900 25.96600
C  14.31600 53.76000 25.57400
C  12.21200 55.27100 28.41700
C  12.06500 55.18800 24.98700
O  12.21000 54.91900 23.77800
C  10.97600 56.11300 25.44300
N  16.77900 52.08000 24.50000
C  15.89700 52.70000 23.77000
C  16.38300 52.59900 22.26500
C  17.69400 51.78800 22.31600
C  17.79500 51.51200 23.82800
C  15.40000 52.07200 21.30600
C  18.86500 52.64600 21.80000
C  19.03700 52.61700 20.24000
N  18.35900 50.97300 26.65000
C  19.01800 50.36000 25.57800
C  20.05300 49.55300 26.10300
C  19.98900 49.70000 27.51500
C  18.92900 50.56500 27.76800
C  21.20300 48.81000 25.53400
C  20.66300 49.27700 28.73000
O  21.63700 48.60100 28.97200
C  19.84800 49.96500 29.87000
C  19.41700 49.00400 30.91100
O  18.79600 48.00200 30.59200
O  19.86400 49.35900 32.17600
C  19.73800 48.48000 33.30800
H  13.85100 53.85600 29.87100
H  14.20300 53.71800 23.42100
H  19.40300 50.17700 23.63500
H  17.31800 50.73100 31.70600
H  15.91700 53.34100 31.58200
H  13.85300 51.38400 31.21900
H  14.23800 52.16400 32.68800
H  15.08200 50.66600 32.20700
H  18.05300 53.77400 31.52200
H  19.24600 52.47300 31.23100
H  19.27300 53.60400 33.40200
H  19.72000 51.98400 33.23000
H  11.49000 55.88300 27.87700
H  12.71400 55.88300 29.16700
H  11.72000 54.51600 29.03100
H  11.40200 57.02400 25.86300
H  10.27900 55.56200 26.07500
H  10.42400 56.37100 24.53900
H  16.56100 53.60900 21.89500
H  17.75200 50.82800 21.80200
H  15.72000 51.18400 20.76100
H  15.21300 52.89000 20.61000
H  14.39200 51.87100 21.66900
H  19.83700 52.29600 22.15000
H  18.74900 53.64400 22.22300
H  19.92600 52.07300 19.92100
H  19.17400 53.64000 19.88700
H  18.22000 52.07900 19.75900
H  22.07400 49.44800 25.39000
H  20.92100 48.49100 24.53000
H  21.48100 47.99600 26.20400
H  20.56900 50.66900 30.28600
H  20.73000 48.60700 33.74100
H  19.67100 47.41200 33.09800
H  19.07300 48.84800 34.08900

