158

Mg 3.30700 -0.37800 43.98200
C  6.25700 1.57000 44.14400
C  1.71400 2.33300 42.57700
C  0.61800 -2.34700 43.68600
C  5.10500 -3.09400 45.14800
N  4.06000 1.62300 43.21400
C  5.22600 2.23000 43.48600
C  5.27500 3.69500 42.99500
C  3.72900 4.01400 42.94700
C  3.06700 2.59200 42.91100
C  3.32300 4.95200 44.11400
C  6.03500 3.97900 41.64300
C  6.51700 2.64400 40.89600
H  7.02900 2.94600 39.49700
N  1.42200 -0.01800 43.19900
C  0.91300 1.12700 42.62600
C  -0.57400 0.93000 42.33500
C  -0.90900 -0.35600 42.74000
C  0.36600 -1.00300 43.21300
C  -1.44100 2.00500 41.72200
C  -2.31000 -0.90000 42.73300
O  -3.23300 -0.14300 42.41300
C  -2.82200 -2.29400 43.18900
N  2.97000 -2.49200 44.10300
C  1.72200 -3.01700 44.13200
C  1.76500 -4.53500 44.41400
C  3.24000 -4.82200 44.82300
C  3.83100 -3.42000 44.65300
C  0.60400 -5.09700 45.26200
C  4.05400 -5.86700 43.94400
C  4.69900 -6.91000 44.77800
N  5.32300 -0.80700 44.47200
C  5.91400 -1.88100 44.98900
C  7.29500 -1.66900 45.42300
C  7.45200 -0.29900 45.13300
C  6.24500 0.19200 44.51800
C  8.15800 -2.67900 46.16900
C  8.36700 0.85500 45.19300
O  9.48900 0.87400 45.67000
C  7.61400 2.09500 44.54700
C  7.58000 3.26600 45.48100
O  8.45400 4.10800 45.53500
O  6.53800 3.19100 46.34300
C  6.57200 4.08300 47.49900
H  1.05200 3.13200 42.23700
H  -0.23000 -3.01500 43.52300
H  5.59700 -4.00300 45.50000
H  5.80600 4.18800 43.80900
H  3.53100 4.56600 42.02800
H  3.12800 4.46700 45.07000
H  2.56200 5.65500 43.77500
H  4.18300 5.57800 44.34900
H  6.99200 4.48500 41.76900
H  5.41000 4.60400 41.00600
H  5.79000 1.83800 40.79800
H  7.36400 2.27000 41.47100
H  -2.03300 2.47800 42.50600
H  -2.02000 1.78900 40.82400
H  -0.73400 2.75300 41.36400
H  -2.69700 -2.34700 44.27100
H  -2.33100 -3.13200 42.69300
H  -3.87000 -2.39500 42.90700
H  1.56000 -5.02600 43.46300
H  3.28400 -5.19000 45.84800
H  0.98400 -5.99200 45.75300
H  -0.24800 -5.29200 44.61000
H  0.38800 -4.38200 46.05600
H  4.81100 -5.36900 43.33800
H  3.49600 -6.37200 43.15600
H  3.95300 -7.21300 45.51200
H  5.60300 -6.50700 45.23500
H  4.95400 -7.86800 44.32500
H  7.90900 -2.76800 47.22700
H  9.11200 -2.15200 46.17000
H  8.32700 -3.66100 45.72600
H  8.26900 2.44500 43.74900
H  5.97200 4.98300 47.37200
H  7.57000 4.41800 47.78100
H  6.28400 3.45800 48.34400
Mg -2.35500 34.49500 27.30300
C  -3.26700 32.39900 29.90700
C  -0.50200 36.35900 29.40000
C  -2.02200 36.75500 24.88000
C  -4.19900 32.48000 25.05600
N  -2.01500 34.34600 29.48700
C  -2.39000 33.36900 30.32900
C  -1.83900 33.67800 31.77100
C  -0.85700 34.96600 31.53800
C  -1.16400 35.30400 30.06500
C  -1.07600 36.09900 32.55100
C  -1.03700 32.52900 32.24200
C  -1.48500 31.93200 33.52000
H  -0.38500 32.03100 34.63000
N  -1.46400 36.30500 27.20200
C  -0.75400 36.95000 28.14100
C  0.00100 38.09000 27.62900
C  -0.60900 38.35000 26.33600
C  -1.40400 37.05000 26.06500
C  0.96300 38.89500 28.47900
C  -0.42800 39.54500 25.31400
O  -0.88800 39.50000 24.20900
C  0.29800 40.75200 25.76300
N  -2.97800 34.58000 25.26300
C  -2.75400 35.66300 24.50400
C  -3.36400 35.46300 23.09900
C  -3.66600 33.97400 23.06400
C  -3.64400 33.63400 24.57200
C  -4.59800 36.35300 22.86700
C  -2.62600 33.09900 22.18600
C  -3.29000 32.24300 21.11300
N  -3.44600 32.70900 27.43900
C  -4.17500 32.04800 26.45600
C  -4.89500 30.94500 27.01800
C  -4.58200 30.99800 28.45200
C  -3.71700 32.11400 28.59900
C  -5.69600 29.87900 26.29000
C  -4.83900 30.48400 29.75600
O  -5.62000 29.58100 30.07400
C  -3.98100 31.35500 30.72200
C  -4.91400 31.97500 31.75500
O  -5.59600 32.98900 31.61700
O  -4.75700 31.31300 32.94000
C  -5.57000 31.75700 34.05200
H  0.25100 36.64900 30.13700
H  -1.95600 37.49700 24.08200
H  -4.65600 31.73600 24.40000
H  -2.68600 33.96500 32.39500
H  0.21600 34.77200 31.51800
H  -0.14700 36.22200 33.10700
H  -1.82100 35.64500 33.20500
H  -1.32500 37.01300 32.01200
H  0.01800 32.79800 32.18800
H  -1.09800 31.74000 31.49200
H  -1.70300 30.88000 33.33800
H  -2.36600 32.48500 33.84800
H  1.48300 38.23600 29.17400
H  0.47900 39.67700 29.06400
H  1.59200 39.36900 27.72500
H  0.18300 41.47900 24.95900
H  1.38200 40.76000 25.88300
H  -0.01600 41.18100 26.71400
H  -2.64200 35.73500 22.32800
H  -4.64600 33.69900 22.67500
H  -5.11200 36.48100 23.82000
H  -5.24200 35.85500 22.14200
H  -4.46500 37.25300 22.26600
H  -2.14400 32.41700 22.88600
H  -1.79100 33.70100 21.82800
H  -4.12300 32.84400 20.75100
H  -3.55300 31.25700 21.49800
H  -2.69400 32.03100 20.22600
H  -5.27000 28.88800 26.44200
H  -5.67400 30.03300 25.21200
H  -6.69700 29.81800 26.71700
H  -3.26100 30.73000 31.25000
H  -4.92500 32.28200 34.75500
H  -5.84000 30.80400 34.50700
H  -6.40200 32.40200 33.77100

