158

Mg 48.80300 35.30100 27.81700
C  46.60400 33.48400 29.86000
C  48.40700 37.89600 29.82800
C  50.14300 37.25900 25.33000
C  48.29700 32.67700 25.40100
N  47.69400 35.56800 29.64300
C  47.00500 34.70800 30.35100
C  46.91000 35.15000 31.85900
C  47.17900 36.67700 31.77000
C  47.83800 36.74800 30.40300
C  45.91800 37.59300 31.87200
C  48.00500 34.40700 32.78800
C  48.03900 34.92400 34.24500
H  46.86000 35.79500 34.73900
N  49.18300 37.27200 27.59600
C  49.03100 38.18900 28.59000
C  49.47500 39.52100 28.07300
C  50.12400 39.27200 26.81100
C  49.77000 37.90700 26.51700
C  49.43100 40.81600 28.90300
C  51.02600 40.18900 25.99100
O  51.50300 39.92600 24.92700
C  51.31100 41.57400 26.55300
N  49.09200 34.99800 25.64100
C  49.83000 35.99100 24.95100
C  50.30000 35.47900 23.54900
C  49.85200 33.94200 23.65800
C  49.03700 33.79300 24.94000
C  49.87900 36.29100 22.31300
C  51.02600 32.93100 23.68800
C  51.50500 32.46700 22.29900
N  47.86300 33.33400 27.68400
C  47.69300 32.48000 26.65000
C  46.86000 31.36400 27.06600
C  46.39100 31.69900 28.29100
C  47.02300 32.91300 28.59500
C  46.68900 30.01300 26.42300
C  45.49900 31.33400 29.38600
O  44.87000 30.26500 29.45800
C  45.48500 32.55100 30.40900
C  45.86200 32.06000 31.76500
O  46.64400 31.14300 31.96900
O  45.05000 32.61300 32.71500
C  45.11600 31.96500 34.00400
H  48.22800 38.72800 30.51200
H  50.69500 37.88300 24.62400
H  48.19700 31.95400 24.58800
H  45.86500 34.97200 32.11300
H  47.84400 37.00300 32.57000
H  44.97700 37.05600 31.99200
H  45.73600 38.00900 30.88100
H  46.06200 38.37200 32.62100
H  48.96100 34.51300 32.27600
H  47.72800 33.35900 32.89800
H  48.98900 35.43900 34.39200
H  48.02000 34.08500 34.94000
H  48.74900 41.53000 28.44100
H  50.44600 41.20800 28.97000
H  49.01300 40.59800 29.88600
H  51.84300 42.16900 25.81000
H  52.01500 41.57700 27.38400
H  50.35800 42.07100 26.73600
H  51.38600 35.51900 23.46100
H  49.24800 33.62900 22.80600
H  49.05900 35.84100 21.75300
H  50.75100 36.50900 21.69600
H  49.51600 37.24700 22.69000
H  50.74200 32.08100 24.30800
H  51.89800 33.31500 24.21800
H  52.57900 32.28200 22.34400
H  51.49200 33.20700 21.49800
H  51.09800 31.50800 21.97900
H  47.45000 29.80100 25.67200
H  45.73100 30.14500 25.92000
H  46.59400 29.24400 27.18900
H  44.45200 32.89100 30.34100
H  45.96500 32.53200 34.38600
H  45.17700 30.88200 33.89100
H  44.21500 32.20300 34.56900
Mg 1.54000 41.83500 25.63000
C  2.57700 42.23400 29.02800
C  -1.56100 40.89400 26.88700
C  0.47800 41.63500 22.52700
C  4.75500 42.77500 24.57400
N  0.60000 41.76900 27.73900
C  1.21900 41.89000 28.94800
C  0.25000 41.74800 30.09600
C  -1.00900 40.99100 29.42000
C  -0.66400 41.17400 27.91400
C  -1.28700 39.47800 29.86500
C  0.00900 43.05300 30.77400
C  -0.74100 43.01600 32.13200
H  -1.47100 41.74600 32.60200
N  -0.33600 41.34100 24.80100
C  -1.48000 41.02500 25.49200
C  -2.40700 40.59200 24.50500
C  -1.93100 40.92100 23.24500
C  -0.58100 41.38200 23.48200
C  -3.82700 40.15500 24.84800
C  -2.54000 40.69400 21.83800
O  -2.03500 41.25900 20.85200
C  -3.81700 39.90500 21.67100
N  2.51200 42.06800 23.84000
C  1.85000 41.89700 22.68500
C  2.84100 42.05100 21.47800
C  4.19500 42.35800 22.19700
C  3.81300 42.51800 23.61300
C  2.71800 40.84900 20.50500
C  4.94500 43.56100 21.63600
C  5.02700 43.60500 20.13000
N  3.33000 42.39300 26.54600
C  4.56000 42.80800 25.98000
C  5.50500 43.06600 27.11200
C  4.82000 42.77000 28.27400
C  3.48800 42.42400 27.91300
C  6.94300 43.39100 26.99400
C  4.91900 42.65400 29.72300
O  5.87300 42.85100 30.48400
C  3.49000 42.23100 30.27700
C  3.57300 40.87600 30.91700
O  4.28200 39.95200 30.56300
O  2.65800 40.75000 31.95600
C  2.54100 39.41600 32.50600
H  -2.51000 40.48800 27.24200
H  0.17100 41.68700 21.48000
H  5.81500 42.93000 24.36200
H  0.58000 41.03300 30.85000
H  -1.87800 41.60300 29.66300
H  -1.31900 38.73100 29.07100
H  -2.25400 39.49300 30.36800
H  -0.57200 39.11400 30.60300
H  -0.57600 43.65000 30.07500
H  1.00700 43.48400 30.85100
H  -1.31200 43.94400 32.13100
H  0.14300 43.15400 32.75500
H  -4.58600 40.45000 24.12400
H  -4.21500 40.56800 25.77900
H  -3.79300 39.10000 25.11800
H  -3.81700 39.02900 22.32000
H  -3.84700 39.58200 20.63000
H  -4.71000 40.49100 21.88900
H  2.46000 42.84400 20.83400
H  4.86200 41.49700 22.22700
H  3.35500 40.03300 20.84500
H  2.89800 41.11500 19.46300
H  1.68700 40.49600 20.54700
H  5.94800 43.31800 21.98700
H  4.62800 44.51200 22.06500
H  4.71300 44.49900 19.59100
H  4.46900 42.79200 19.66500
H  6.06400 43.32600 19.94500
H  7.27600 43.30300 25.96000
H  7.55400 42.66700 27.53200
H  7.16200 44.33200 27.49800
H  3.07500 42.90700 31.02500
H  2.20600 38.64800 31.80900
H  1.83700 39.44300 33.33700
H  3.51000 39.15500 32.93300

