158

Mg 41.52500 8.72900 29.92100
C  43.25700 10.07400 32.71500
C  39.04200 7.60600 32.11200
C  40.20200 6.94100 27.42700
C  44.40400 9.15600 28.04900
N  41.26000 8.70000 32.21500
C  42.04600 9.48700 33.11700
C  41.35700 9.48200 34.49100
C  40.14100 8.46600 34.32200
C  40.13900 8.20700 32.77100
C  40.27500 7.17900 35.06800
C  41.07800 10.94900 34.94900
C  40.71300 11.06100 36.46100
H  41.58900 11.93000 37.36500
N  39.80000 7.59400 29.76800
C  38.88100 7.33400 30.76600
C  37.68300 6.77100 30.06900
C  37.98200 6.71900 28.67700
C  39.38300 7.03800 28.57300
C  36.44700 6.23800 30.82000
C  37.02400 6.39300 27.50900
O  37.51700 6.17700 26.41800
C  35.47600 6.32100 27.66600
N  42.21400 8.04200 27.97900
C  41.49400 7.30200 27.10800
C  42.20500 6.94400 25.79100
C  43.49900 7.81300 26.03100
C  43.36900 8.42000 27.46100
C  42.53500 5.42500 25.71000
C  43.81100 8.86600 24.98800
C  42.69500 9.97400 24.75900
N  43.40100 9.59200 30.19000
C  44.49300 9.64800 29.35900
C  45.55900 10.39500 29.94600
C  45.14700 10.63400 31.28800
C  43.83900 10.04300 31.38500
C  46.82200 10.83800 29.17800
C  45.46400 11.19400 32.60000
O  46.50200 11.73300 32.99000
C  44.29800 10.84900 33.52200
C  44.80000 10.04500 34.71400
O  45.41700 8.98100 34.67500
O  44.59100 10.81800 35.85900
C  44.90600 10.13900 37.16300
H  38.14300 7.38400 32.69100
H  39.76700 6.51100 26.52300
H  45.27500 9.28900 27.40400
H  42.06600 8.96800 35.14000
H  39.31700 9.13100 34.58000
H  39.59400 7.24200 35.91700
H  41.25700 7.21000 35.54100
H  40.13800 6.31900 34.41300
H  40.13300 11.34100 34.57200
H  41.97400 11.56600 34.88800
H  40.69900 10.06800 36.91000
H  39.73000 11.52800 36.52800
H  36.65300 6.30000 31.88800
H  36.19800 5.25200 30.42900
H  35.56400 6.80700 30.52800
H  35.13600 7.33200 27.89000
H  35.22900 5.61000 28.45400
H  35.04500 5.92700 26.74600
H  41.69600 7.28600 24.89000
H  44.39800 7.19800 26.07800
H  41.75400 5.02800 26.35800
H  43.53800 5.23800 26.09400
H  42.20900 5.07600 24.73000
H  43.95200 8.29900 24.06800
H  44.66800 9.41700 25.37600
H  42.37300 9.75400 23.74100
H  43.20200 10.93600 24.83700
H  41.81100 9.86400 25.38700
H  46.52700 11.72300 28.61300
H  47.25900 10.06900 28.54100
H  47.74300 11.07500 29.71000
H  43.78000 11.75600 33.83400
H  44.49300 9.13000 37.19500
H  44.47800 10.51900 38.09100
H  45.98100 10.05400 37.32100
Mg -0.41900 43.98000 26.03000
C  1.53100 43.61100 28.84100
C  -3.22400 42.88800 27.96400
C  -2.29200 43.57100 23.21100
C  2.43100 44.50600 24.18200
N  -0.82000 43.26500 28.05400
C  0.15400 43.43600 29.07800
C  -0.44400 43.26400 30.46400
C  -1.90700 42.84500 30.13700
C  -1.97000 42.92600 28.60600
C  -2.28900 41.38000 30.66200
C  -0.27000 44.54300 31.34600
C  0.21800 44.33800 32.80000
H  -0.10600 43.08000 33.51400
N  -2.53500 43.52700 25.64900
C  -3.50800 43.20000 26.58600
C  -4.78000 43.03200 25.88900
C  -4.53000 43.23300 24.54000
C  -3.03700 43.45700 24.36200
C  -6.04700 42.75200 26.57900
C  -5.40900 43.16900 23.36600
O  -5.03000 43.44400 22.20500
C  -6.83500 42.80400 23.61300
N  0.00100 44.06400 24.07700
C  -0.89600 43.91900 23.08700
C  -0.25900 44.10800 21.71400
C  1.09600 44.66600 22.05900
C  1.22800 44.33700 23.57700
C  -0.22900 42.83500 20.89700
C  1.22600 46.16200 21.84300
C  1.31700 46.53100 20.36300
N  1.59700 44.11800 26.42400
C  2.65100 44.39600 25.62200
C  3.84100 44.63500 26.36200
C  3.42400 44.29400 27.67200
C  2.10800 43.95800 27.63700
C  5.08200 45.15200 25.85700
C  3.92700 44.14300 29.03100
O  4.99900 44.29600 29.55900
C  2.60100 43.86200 29.89000
C  2.87100 42.62000 30.78700
O  2.56300 41.45900 30.56000
O  3.70000 42.95100 31.85900
C  4.13300 41.84000 32.77100
H  -4.14800 42.55700 28.44300
H  -2.60800 43.48700 22.16900
H  3.41400 44.63200 23.72300
H  -0.06300 42.34600 30.91400
H  -2.59300 43.57200 30.57200
H  -2.98600 41.71000 31.43200
H  -1.48800 40.93400 31.25100
H  -2.75000 40.68000 29.96500
H  -1.25300 45.01300 31.39000
H  0.43200 45.23000 30.87400
H  -0.23600 45.14700 33.37200
H  1.28100 44.56600 32.87100
H  -6.95400 43.25900 26.25000
H  -6.07200 43.03400 27.63200
H  -6.17600 41.67300 26.66600
H  -7.07500 42.01600 24.32700
H  -7.24500 42.58700 22.62600
H  -7.37400 43.65600 24.02700
H  -0.92800 44.76400 21.15800
H  1.95300 44.23600 21.54000
H  -0.92800 42.09800 21.29300
H  0.69700 42.26100 20.91900
H  -0.54300 43.13200 19.89700
H  2.10500 46.56700 22.34500
H  0.39000 46.68300 22.30900
H  0.63200 47.34100 20.11200
H  1.21900 45.69700 19.66700
H  2.31400 46.91700 20.15100
H  4.93500 45.50200 24.83600
H  5.85300 44.38300 25.90800
H  5.48800 45.91500 26.52100
H  2.57700 44.79600 30.45000
H  4.84600 42.43500 33.34100
H  4.59200 41.06900 32.15200
H  3.39300 41.36200 33.41300

