158

Mg 35.97400 2.47600 30.62300
C  33.51100 3.83600 32.93400
C  38.16300 2.41400 33.42000
C  38.49200 2.03100 28.57700
C  33.61700 2.78100 28.13800
N  35.85700 3.13000 32.84200
C  34.73600 3.53900 33.56800
C  34.96500 3.64300 35.09500
C  36.53400 3.52000 35.09100
C  36.87400 2.83900 33.74000
C  37.34900 4.78200 35.41800
C  34.11700 2.55700 35.87900
C  33.58300 2.90000 37.27900
H  34.28100 3.93500 38.19600
N  37.96000 2.10800 30.91400
C  38.66500 2.11800 32.12800
C  39.96100 1.45400 31.85500
C  40.10700 1.39000 30.50900
C  38.87000 1.88300 29.90700
C  40.95000 1.07600 33.01100
C  41.27700 0.87800 29.79500
O  41.28200 0.68700 28.59500
C  42.69000 0.55600 30.54100
N  36.06000 2.56000 28.60100
C  37.23600 2.24500 27.99900
C  36.93000 2.14400 26.48800
C  35.38800 2.20900 26.32400
C  34.96300 2.42600 27.85500
C  37.72600 3.31900 25.65800
C  34.75600 0.86200 25.70800
C  33.53500 1.11900 24.76600
N  33.98900 3.27600 30.44900
C  33.15100 3.20800 29.36200
C  31.82900 3.61600 29.74200
C  31.98400 3.98700 31.10600
C  33.30400 3.72400 31.49400
C  30.70200 3.66200 28.76800
C  31.20500 4.51800 32.25500
O  30.04500 4.92600 32.41000
C  32.19800 4.40700 33.50800
C  32.33300 5.79500 34.00000
O  32.78200 6.78700 33.40200
O  31.90300 5.77500 35.27500
C  31.92100 7.08500 35.93000
H  38.78500 2.36300 34.31600
H  39.29200 1.90500 27.84400
H  32.97300 2.78500 27.25700
H  34.61300 4.63300 35.38500
H  36.69700 2.77600 35.87100
H  36.73700 5.67400 35.55300
H  38.01100 5.09100 34.60900
H  37.91800 4.79300 36.34700
H  34.73800 1.67200 36.02000
H  33.30900 2.15300 35.26900
H  33.46900 1.96000 37.81800
H  32.55000 3.23100 37.17600
H  40.46700 1.18000 33.98300
H  41.73300 1.83400 33.00100
H  41.43700 0.10300 32.94300
H  42.71900 -0.40400 31.05500
H  42.94500 1.33400 31.26000
H  43.45900 0.59500 29.76800
H  37.23700 1.14100 26.19200
H  35.07900 3.05900 25.71600
H  37.14200 4.23600 25.58700
H  37.95400 2.90900 24.67400
H  38.63600 3.55600 26.21000
H  34.44200 0.21800 26.53000
H  35.50200 0.39500 25.06500
H  33.76300 1.07900 23.70100
H  33.04800 2.06200 25.01400
H  32.81600 0.36300 25.08100
H  29.93700 4.37300 29.08100
H  30.31300 2.64400 28.74300
H  31.12700 3.98400 27.81800
H  31.65900 3.84600 34.27100
H  32.86700 7.55000 36.20700
H  31.37500 6.81300 36.83400
H  31.43600 7.80900 35.27500
Mg 34.57700 48.98600 26.25700
C  35.02000 46.62200 28.85000
C  33.85600 51.25300 28.62300
C  33.86600 50.96500 23.80000
C  34.89000 46.23500 24.01200
N  34.65500 48.99000 28.52700
C  34.78700 47.90700 29.31400
C  34.76800 48.36400 30.81200
C  34.20400 49.79100 30.77300
C  34.25900 50.05200 29.19900
C  32.78800 49.93700 31.27100
C  36.17700 48.27200 31.43100
C  36.15000 47.78800 32.89000
H  36.06800 48.87300 33.94300
N  34.00500 50.89700 26.18200
C  33.83000 51.71900 27.24000
C  33.61800 53.09500 26.83400
C  33.58000 53.02800 25.36900
C  33.83500 51.59100 25.06000
C  33.36400 54.28600 27.74400
C  33.20400 54.08800 24.40800
O  33.22100 53.85800 23.21100
C  32.81500 55.45000 24.82000
N  34.27100 48.57600 24.24500
C  34.09300 49.62400 23.42200
C  33.89600 49.16100 21.97800
C  34.31000 47.65900 22.04500
C  34.59000 47.50500 23.52000
C  32.43800 49.27600 21.38100
C  35.55500 47.41500 21.18000
C  36.98100 48.09300 21.41500
N  34.93200 46.89500 26.36000
C  35.00800 45.94200 25.34000
C  35.39200 44.66700 25.90500
C  35.40300 44.90500 27.34500
C  35.10300 46.25400 27.58400
C  35.59100 43.49300 25.03800
C  35.57500 44.24100 28.57500
O  35.77600 43.04700 28.91400
C  35.40900 45.41300 29.63000
C  34.37600 45.07100 30.65600
O  33.16900 45.01300 30.49700
O  35.00000 44.68000 31.84800
C  34.01300 44.28200 32.84300
H  33.78000 52.10100 29.30600
H  33.70200 51.63900 22.95700
H  34.95500 45.36900 23.35100
H  34.04700 47.73100 31.33000
H  34.97800 50.37900 31.26600
H  32.47600 49.06800 31.84900
H  31.97500 50.05800 30.55500
H  32.63800 50.81800 31.89600
H  36.60000 49.27500 31.38100
H  36.86000 47.61900 30.88900
H  37.10700 47.28700 33.03900
H  35.35100 47.07600 33.09800
H  32.38000 54.68900 27.50100
H  34.03600 55.11300 27.51000
H  33.26900 54.12900 28.81800
H  31.91200 55.58700 25.41500
H  32.65200 56.03700 23.91600
H  33.67100 55.84200 25.36900
H  34.64800 49.76500 21.47100
H  33.46100 47.00200 21.85500
H  32.07500 48.27500 21.14600
H  32.52400 49.87300 20.47400
H  31.79700 49.73900 22.13100
H  35.32400 47.60100 20.13100
H  35.76900 46.35300 21.29200
H  37.36700 48.46700 20.46700
H  37.62500 47.27600 21.74200
H  36.96100 48.82500 22.22200
H  34.74500 43.22700 24.40500
H  35.75100 42.69700 25.76500
H  36.56300 43.60800 24.55700
H  36.40800 45.49600 30.05900
H  33.62700 45.13900 33.39500
H  34.35600 43.61200 33.63100
H  33.21500 43.67200 32.41800

