158

Mg 1.60300 -0.92900 44.12800
C  4.89100 0.10900 43.62000
C  0.46500 1.79400 42.52000
C  -1.43900 -2.51500 44.00900
C  3.04300 -4.11300 45.05300
N  2.55700 0.63200 43.10200
C  3.88600 0.96000 43.21400
C  4.11300 2.48200 42.76300
C  2.65500 2.98300 42.47300
C  1.82800 1.71600 42.70200
C  2.22400 4.25200 43.20700
C  4.98500 2.51100 41.45500
C  5.15300 1.32100 40.41600
H  6.45900 1.25200 39.68600
N  -0.28100 -0.37600 43.35400
C  -0.49500 0.82100 42.80000
C  -1.91400 0.82300 42.46500
C  -2.52100 -0.33900 42.93000
C  -1.38200 -1.15500 43.42000
C  -2.46200 1.95100 41.81600
C  -3.97400 -0.75500 42.75800
O  -4.80000 0.00800 42.30800
C  -4.52600 -2.11800 43.01700
N  0.92500 -2.95700 44.50300
C  -0.39700 -3.31300 44.45000
C  -0.60600 -4.76400 44.97300
C  0.80300 -5.25000 45.19200
C  1.64900 -4.04200 44.88100
C  -1.49700 -4.83700 46.24100
C  1.16600 -6.60100 44.55100
C  0.88300 -7.86100 45.43200
N  3.61000 -1.90600 44.28700
C  3.97200 -3.14700 44.72700
C  5.39600 -3.15400 44.83700
C  5.80300 -1.85400 44.47700
C  4.70100 -1.18900 43.95300
C  6.19800 -4.23300 45.31700
C  6.95200 -0.93700 44.40600
O  8.12600 -1.16300 44.82500
C  6.36100 0.41100 43.87200
C  6.40400 1.38700 44.99900
O  5.85200 1.38200 46.07600
O  7.29900 2.45500 44.64300
C  7.65400 3.48300 45.61100
H  0.16400 2.73100 42.04800
H  -2.42000 -2.97700 44.13800
H  3.42800 -5.05800 45.44000
H  4.57500 3.05900 43.56400
H  2.53800 3.23300 41.41800
H  1.45300 4.03500 43.94600
H  1.80200 4.95600 42.49000
H  3.04600 4.65500 43.79900
H  5.89200 2.86400 41.94600
H  4.70900 3.44500 40.96500
H  4.38400 1.54300 39.67700
H  4.86000 0.39700 40.91500
H  -2.08700 1.80500 40.80300
H  -2.27300 2.86900 42.37100
H  -3.52700 1.86100 41.60200
H  -4.07400 -2.93600 42.45600
H  -5.57600 -2.10300 42.72400
H  -4.45000 -2.36900 44.07500
H  -0.98800 -5.29900 44.10300
H  0.95600 -5.39700 46.26100
H  -2.13900 -3.96100 46.32500
H  -0.96900 -4.86100 47.19400
H  -2.29000 -5.58300 46.18800
H  2.22800 -6.64700 44.30800
H  0.70200 -6.74400 43.57500
H  0.48900 -8.74900 44.93700
H  0.13100 -7.61000 46.18000
H  1.81500 -8.13100 45.92800
H  5.67900 -4.53500 46.22600
H  7.17300 -3.80900 45.56000
H  6.26300 -5.12200 44.69100
H  7.05500 0.75900 43.10700
H  6.92500 3.51300 46.42100
H  7.65100 4.39700 45.01800
H  8.64700 3.23300 45.98300
Mg 36.12700 48.77500 24.06100
C  36.57400 47.04700 27.24200
C  34.86800 51.36800 25.97900
C  35.83700 50.35800 21.28700
C  37.43900 46.03800 22.49000
N  35.63600 49.04800 26.33800
C  36.03500 48.34600 27.45300
C  35.62000 49.01000 28.79900
C  34.99000 50.34500 28.27100
C  35.11100 50.25500 26.75900
C  33.54500 50.70600 28.75700
C  36.85900 49.11900 29.71800
C  36.86700 48.42000 31.13200
H  35.52000 48.43400 31.99000
N  35.53200 50.61200 23.68200
C  34.98600 51.54100 24.64800
C  34.55800 52.72200 23.89800
C  34.77600 52.45700 22.49900
C  35.36100 51.09300 22.43700
C  33.94900 53.89000 24.54000
C  34.38600 53.19500 21.23000
O  34.49000 52.73100 20.08600
C  33.67400 54.48900 21.34000
N  36.41100 48.17600 22.12100
C  36.34800 49.06600 21.13700
C  36.63700 48.44200 19.73100
C  37.36400 47.20700 20.18800
C  37.06300 47.11900 21.66800
C  35.39500 48.10200 18.90500
C  38.89300 47.15600 19.81400
C  39.79300 47.96300 20.76200
N  36.82000 46.85600 24.67000
C  37.29300 45.87000 23.88800
C  37.64000 44.73800 24.70200
C  37.36400 45.10900 26.01400
C  36.79500 46.41300 25.96700
C  38.30000 43.42600 24.29500
C  37.55400 44.71800 27.40100
O  38.07300 43.75300 27.98000
C  36.91800 45.94400 28.18000
C  35.73400 45.46800 29.03000
O  34.56100 45.62300 28.72900
O  36.17800 44.95200 30.20300
C  35.11600 44.47200 31.16400
H  34.43800 52.21800 26.51300
H  35.92500 50.87900 20.33200
H  37.77900 45.13000 21.98900
H  34.82500 48.43000 29.26800
H  35.64200 51.14200 28.62900
H  33.06800 49.78200 29.08500
H  32.88500 50.99800 27.94000
H  33.43900 51.44200 29.55300
H  37.08500 50.17000 29.90100
H  37.74300 48.66700 29.26900
H  37.62500 48.96500 31.69300
H  37.26100 47.40500 31.07000
H  32.87400 53.87800 24.71500
H  34.14400 54.84200 24.04800
H  34.30800 53.94800 25.56800
H  33.19600 54.78300 20.40600
H  34.34600 55.20400 21.81600
H  32.89600 54.23300 22.05900
H  37.26900 49.04700 19.08000
H  36.84300 46.32800 19.80700
H  35.26800 48.82500 18.09900
H  34.55200 47.97300 19.58300
H  35.48600 47.16800 18.35100
H  39.09500 47.58100 18.83100
H  39.21800 46.12300 19.94200
H  40.58100 48.47200 20.20700
H  40.18000 47.47600 21.65600
H  39.22900 48.76400 21.23900
H  38.48700 43.32300 23.22600
H  37.70700 42.65500 24.78800
H  39.27100 43.34200 24.78200
H  37.63500 46.24200 28.94500
H  34.98000 43.39200 31.21300
H  34.10500 44.87300 31.08400
H  35.47400 44.79100 32.14300

