158

Mg 2.43700 -1.08000 44.61700
C  5.91000 -0.45600 44.20200
C  1.93900 1.50400 42.47000
C  -0.70200 -2.29000 43.88400
C  3.37700 -4.45100 45.72700
N  3.75800 0.34800 43.49400
C  5.13300 0.49100 43.43500
C  5.62900 1.58200 42.38600
C  4.27100 2.26000 42.01200
C  3.23300 1.31600 42.73700
C  4.12200 3.72400 42.45100
C  6.36700 0.87000 41.20700
C  7.90200 0.90700 41.19200
H  8.79300 1.38300 40.02000
N  0.72200 -0.29700 43.60400
C  0.74400 0.79300 42.75800
C  -0.52200 0.98800 42.26200
C  -1.37000 -0.04500 42.74900
C  -0.49300 -0.98100 43.42300
C  -0.95100 2.17800 41.46600
C  -2.88100 -0.09200 42.41600
O  -3.34400 0.80100 41.76400
C  -3.63700 -1.23900 43.02200
N  1.52700 -3.09400 44.69100
C  0.20400 -3.20300 44.41100
C  -0.23100 -4.63700 44.66400
C  1.07500 -5.38700 45.07300
C  2.06500 -4.24100 45.16700
C  -1.38100 -4.83800 45.71300
C  1.53900 -6.59400 44.30900
C  0.48400 -7.70400 44.03400
N  4.22400 -2.14600 45.20300
C  4.41000 -3.41000 45.72800
C  5.80000 -3.59400 46.05100
C  6.38400 -2.39000 45.53000
C  5.42900 -1.56000 44.95200
C  6.38000 -4.87900 46.67400
C  7.64700 -1.66800 45.35800
O  8.79100 -1.93700 45.76800
C  7.40300 -0.39400 44.50000
C  7.73800 0.80900 45.33400
O  7.39000 0.94800 46.46600
O  8.59500 1.62500 44.59700
C  8.86600 2.91400 45.28300
H  1.72500 2.42400 41.92200
H  -1.68900 -2.74900 43.79200
H  3.63200 -5.43600 46.12500
H  6.25400 2.34400 42.85100
H  4.03300 2.12800 40.95600
H  5.02300 4.08600 42.94600
H  3.36300 3.77100 43.23200
H  3.80200 4.18600 41.51700
H  6.00700 1.28900 40.26800
H  6.10600 -0.18800 41.22600
H  8.05400 -0.17200 41.19600
H  8.29000 1.39700 42.08500
H  -1.74200 1.97000 40.74600
H  -0.08500 2.56900 40.93300
H  -1.32100 3.00800 42.06900
H  -4.67200 -1.05100 42.73500
H  -3.39800 -1.33700 44.08100
H  -3.29600 -2.16700 42.56300
H  -0.59300 -5.06400 43.72800
H  1.02800 -5.60600 46.14000
H  -1.51000 -4.00200 46.40100
H  -1.17100 -5.65400 46.40400
H  -2.22700 -5.05400 45.06100
H  2.32400 -7.03500 44.92400
H  2.13900 -6.32300 43.44000
H  0.86200 -8.56200 44.59000
H  0.50700 -7.76100 42.94600
H  -0.53600 -7.54400 44.38400
H  5.82800 -5.24900 47.53700
H  7.40600 -4.60700 46.92300
H  6.39800 -5.67000 45.92400
H  8.02300 -0.49100 43.60900
H  9.72600 2.88500 45.95300
H  7.99700 3.32000 45.80000
H  9.17900 3.56000 44.46300
Mg 24.83300 -5.48200 46.00100
C  27.27600 -3.45800 44.61500
C  22.56300 -4.12800 43.86100
C  22.94000 -8.09200 46.66000
C  27.50100 -7.07600 47.94300
N  24.97900 -4.08800 44.43300
C  26.02100 -3.31300 44.01200
C  25.70200 -2.29400 42.95100
C  24.12800 -2.15500 43.19600
C  23.85000 -3.52800 43.87100
C  23.61900 -1.01100 44.04400
C  26.23700 -2.65900 41.57200
C  26.76600 -1.49300 40.70800
H  26.21500 -1.41200 39.23900
N  22.88700 -6.01800 45.30400
C  22.10500 -5.31800 44.56500
C  20.93100 -6.10500 44.28000
C  20.94000 -7.25700 45.13300
C  22.24800 -7.17600 45.78500
C  19.92200 -5.66000 43.18800
C  19.86200 -8.20400 45.23900
O  18.82500 -7.91400 44.66700
C  20.03700 -9.40000 46.09500
N  25.26600 -7.30300 47.11800
C  24.18200 -8.14800 47.32500
C  24.58900 -9.35200 48.25300
C  26.03700 -8.95400 48.67600
C  26.31100 -7.66500 47.87400
C  23.50300 -9.65800 49.35100
C  27.15400 -10.08100 48.40500
C  27.54500 -11.01000 49.61100
N  26.87400 -5.22800 46.40600
C  27.82300 -5.89100 47.14300
C  29.07400 -5.19600 47.06400
C  28.90500 -4.21200 46.10600
C  27.57500 -4.30500 45.67800
C  30.23900 -5.64400 47.84500
C  29.63300 -3.28400 45.29700
O  30.82100 -3.01000 45.26100
C  28.54900 -2.73200 44.35500
C  28.61100 -1.29400 44.60700
O  28.66900 -0.66900 45.66300
O  28.70200 -0.58100 43.44500
C  28.51600 0.90200 43.47500
H  21.79500 -3.71300 43.20600
H  22.28900 -8.89000 47.02000
H  28.30200 -7.58000 48.48800
H  26.13600 -1.36100 43.31100
H  23.58800 -2.20400 42.25000
H  24.19100 -0.08600 43.97500
H  23.47200 -1.41800 45.04400
H  22.64800 -0.74300 43.62800
H  25.42700 -3.15300 41.03700
H  26.92500 -3.49000 41.72600
H  27.83600 -1.65000 40.84500
H  26.65900 -0.52800 41.20300
H  20.36700 -5.03400 42.41400
H  19.03000 -5.26200 43.67200
H  19.52100 -6.49000 42.60800
H  19.37700 -10.25100 45.92900
H  19.78200 -9.19400 47.13500
H  21.01200 -9.74600 45.75200
H  24.62100 -10.28400 47.68900
H  26.06200 -8.78400 49.75300
H  22.56000 -9.13200 49.19700
H  23.97800 -9.38800 50.29400
H  23.14100 -10.68600 49.36800
H  28.08700 -9.65000 48.04100
H  26.66500 -10.70300 47.65500
H  28.55800 -10.77900 49.94200
H  27.45100 -12.05100 49.30100
H  26.88500 -10.79300 50.45100
H  31.10000 -5.17900 47.36600
H  30.36200 -6.70800 47.64500
H  30.11500 -5.26400 48.85900
H  28.83100 -2.89400 43.31400
H  27.50000 0.98100 43.08900
H  29.19500 1.30900 42.72600
H  28.67500 1.43300 44.41300

