158

Mg 47.23700 16.84200 27.51600
C  45.55800 16.45000 30.55800
C  49.69000 18.70400 29.36600
C  48.57900 17.77000 24.69400
C  44.47700 15.43900 25.83500
N  47.50900 17.59500 29.67400
C  46.73700 17.15600 30.77400
C  47.42500 17.57800 32.12000
C  48.69000 18.38300 31.67800
C  48.63300 18.21600 30.11900
C  48.68300 19.84100 32.19700
C  47.79800 16.23400 32.97800
C  47.66000 16.39200 34.54700
H  47.56200 17.83400 35.07600
N  48.91000 18.02100 27.07800
C  49.78800 18.66600 27.96600
C  50.93100 19.06300 27.15500
C  50.65700 18.81600 25.78700
C  49.35800 18.16900 25.77700
C  52.19700 19.61600 27.69200
C  51.37000 19.14800 24.46200
O  50.92900 18.94800 23.31900
C  52.89300 19.71500 24.52800
N  46.51800 16.84300 25.61300
C  47.35000 17.21300 24.60500
C  46.75700 16.99700 23.18700
C  45.47300 16.18500 23.52800
C  45.45400 16.11000 25.09500
C  46.44500 18.33400 22.40000
C  45.38400 14.77200 22.84200
C  43.97700 14.51900 22.33300
N  45.34700 16.02500 28.05100
C  44.41400 15.40500 27.26700
C  43.33000 14.94500 28.03100
C  43.71600 15.27700 29.38900
C  44.99000 15.94700 29.33300
C  42.08700 14.20700 27.53400
C  43.33200 15.20900 30.74800
O  42.35100 14.78200 31.30000
C  44.42900 15.94100 31.58100
C  43.72600 16.99600 32.32300
O  42.92200 17.80500 31.85000
O  44.14200 16.96700 33.69700
C  43.57100 17.88800 34.61600
H  50.50300 19.16700 29.92900
H  48.91700 17.91500 23.66500
H  43.63800 15.00500 25.28600
H  46.73900 18.20300 32.69100
H  49.62200 17.87300 31.92500
H  48.73200 20.62900 31.44600
H  49.52300 19.98900 32.87600
H  47.77100 20.11000 32.72900
H  48.79200 15.87800 32.70400
H  47.17800 15.40000 32.65200
H  48.59500 15.98200 34.92900
H  46.80900 15.78500 34.85700
H  52.35500 20.54900 27.15000
H  53.06000 19.00200 27.43600
H  52.14400 19.84500 28.75700
H  52.99200 20.61900 25.12800
H  53.32300 19.92000 23.54800
H  53.58900 18.97600 24.92400
H  47.41800 16.33000 22.63400
H  44.61100 16.78500 23.23700
H  45.38800 18.60000 22.37500
H  46.80800 18.22300 21.37900
H  46.94200 19.08000 23.02000
H  45.70200 14.06500 23.60800
H  46.05500 14.55900 22.01000
H  44.05300 14.01200 21.37100
H  43.39300 15.42700 22.18800
H  43.42900 13.82300 22.96900
H  42.24700 13.14100 27.70000
H  41.82100 14.41700 26.49800
H  41.18100 14.37500 28.11500
H  44.85700 15.13900 32.18200
H  43.94100 17.54200 35.58100
H  42.49400 17.97100 34.47000
H  43.99000 18.87300 34.40900
Mg -12.50600 38.31000 41.15000
C  -10.24400 35.62800 40.41600
C  -10.44100 40.35300 39.50200
C  -14.96000 40.39000 41.27300
C  -14.54500 35.90500 42.73700
N  -10.71700 38.01200 39.87500
C  -9.95200 36.84100 39.75900
C  -8.71000 37.12200 38.88900
C  -8.66000 38.64400 38.86200
C  -10.00600 39.03600 39.48500
C  -7.48900 39.21100 39.58600
C  -8.72400 36.35200 37.54900
C  -7.71300 35.20400 37.21200
H  -6.57900 35.59400 36.20300
N  -12.67000 40.13700 40.55700
C  -11.67400 40.88300 39.97100
C  -12.11500 42.26700 39.82700
C  -13.39600 42.33700 40.46700
C  -13.77300 40.90000 40.75300
C  -11.38000 43.32900 39.18500
C  -14.13600 43.59100 40.70100
O  -13.71400 44.66600 40.37300
C  -15.40600 43.64700 41.40900
N  -14.52000 38.06600 41.72200
C  -15.32800 39.15500 41.79500
C  -16.66800 38.98900 42.50900
C  -16.51800 37.53700 42.92400
C  -15.06500 37.12000 42.53400
C  -16.84600 40.09000 43.66000
C  -17.41800 36.49700 42.18400
C  -18.68500 36.10400 42.95900
N  -12.46500 36.08000 41.49200
C  -13.34300 35.40700 42.29900
C  -12.76100 34.07700 42.46700
C  -11.58900 34.05300 41.66600
C  -11.47400 35.31100 41.05200
C  -13.38900 32.95900 43.27700
C  -10.43900 33.24500 41.18600
O  -10.24900 32.03200 41.31200
C  -9.44400 34.34900 40.51500
C  -8.12400 34.39500 41.19900
O  -7.29000 33.49600 41.10700
O  -7.98300 35.62300 41.84800
C  -6.71700 35.65800 42.67000
H  -9.88300 41.12200 38.96300
H  -15.69900 41.18500 41.39500
H  -15.13800 35.21100 43.33500
H  -7.94500 36.79400 39.59300
H  -8.76700 38.97800 37.83000
H  -7.51700 38.80800 40.59800
H  -7.35900 40.28400 39.72800
H  -6.66300 38.77200 39.02500
H  -8.57100 37.07500 36.74800
H  -9.71400 35.99300 37.26600
H  -8.23500 34.31400 36.86000
H  -7.14300 34.85200 38.07200
H  -11.82400 43.91400 38.38000
H  -10.46900 43.12400 38.62200
H  -11.20600 44.03500 39.99700
H  -15.48000 44.69100 41.71300
H  -15.37800 43.14300 42.37500
H  -16.29100 43.28700 40.88300
H  -17.28200 39.10500 41.61600
H  -16.53800 37.41000 44.00700
H  -17.13800 39.79300 44.66700
H  -17.67900 40.63000 43.21000
H  -15.97400 40.74300 43.68400
H  -16.96100 35.53700 41.94300
H  -17.87200 36.97400 41.31600
H  -18.76100 35.01900 42.88400
H  -19.57900 36.29100 42.36500
H  -18.74100 36.43300 43.99700
H  -13.00800 31.98600 42.96900
H  -14.46800 33.11100 43.26300
H  -13.03600 33.08900 44.30000
H  -9.17700 34.07000 39.49600
H  -6.72200 36.65300 43.11400
H  -5.88600 35.58800 41.96700
H  -6.63600 35.08400 43.59300

