158

Mg 25.86300 1.77100 29.22600
C  27.81100 1.55200 32.18600
C  23.17300 2.21700 31.14600
C  24.18400 1.89700 26.37700
C  28.86200 0.73700 27.43400
N  25.60500 2.07300 31.41600
C  26.48300 1.91100 32.42100
C  25.84700 2.20700 33.83700
C  24.35100 2.29000 33.46500
C  24.31400 2.21700 31.87600
C  23.56500 1.14700 34.10400
C  26.42500 3.44900 34.57800
C  26.95400 3.28700 36.01900
H  26.65300 4.39000 37.13400
N  23.89900 1.96200 28.87800
C  22.91500 2.09200 29.80400
C  21.62800 2.17600 29.08500
C  21.90400 2.27900 27.66900
C  23.38800 2.00900 27.58000
C  20.33100 2.35300 29.84700
C  21.00500 2.60000 26.57500
O  21.37200 2.56100 25.38900
C  19.55400 2.95500 26.81400
N  26.43600 1.39200 27.23000
C  25.52000 1.57400 26.21700
C  26.13100 1.26100 24.81600
C  27.50500 0.63200 25.14200
C  27.63600 0.93600 26.67100
C  25.19800 0.27900 23.96500
C  28.71700 1.25000 24.37800
C  29.10500 2.69900 24.69600
N  27.87700 1.24200 29.65100
C  28.98700 0.91300 28.88300
C  30.19100 0.74300 29.69400
C  29.73100 0.98600 30.98000
C  28.32100 1.27900 30.89500
C  31.53400 0.40200 29.15100
C  30.17000 1.14500 32.29500
O  31.26600 1.07600 32.83600
C  28.90200 1.49600 33.19900
C  28.79800 0.52500 34.31500
O  28.48400 -0.67300 34.19000
O  29.28100 1.07400 35.51000
C  29.61600 0.17600 36.65900
H  22.25400 2.44600 31.69000
H  23.78300 2.07000 25.37600
H  29.76100 0.47600 26.87100
H  26.12000 1.31300 34.39800
H  23.95400 3.26700 33.74200
H  23.30400 0.38500 33.37100
H  22.67000 1.43300 34.65600
H  24.17300 0.48500 34.72100
H  25.77900 4.32600 34.54500
H  27.36200 3.67400 34.06800
H  28.03900 3.17900 36.02200
H  26.63000 2.27700 36.27000
H  20.42500 2.11900 30.90700
H  19.53300 1.69000 29.51200
H  20.19500 3.42400 29.70000
H  18.99600 2.06800 27.11400
H  19.14000 3.35600 25.88900
H  19.48100 3.71700 27.59000
H  26.29100 2.17100 24.23700
H  27.51300 -0.45500 25.07200
H  24.27900 0.00400 24.48200
H  25.72000 -0.63300 23.67600
H  24.79200 0.87100 23.14400
H  28.47400 1.22100 23.31600
H  29.63900 0.70200 24.57300
H  29.98900 2.51900 25.30700
H  28.35700 3.31500 25.19700
H  29.53500 3.22800 23.84600
H  32.06700 1.27500 28.77500
H  31.33700 -0.23500 28.28900
H  32.11800 -0.13700 29.89700
H  29.02900 2.53000 33.52000
H  30.42600 0.56500 37.27500
H  29.94800 -0.84400 36.46300
H  28.75500 -0.04800 37.28900
Mg 41.50000 8.71700 29.45500
C  43.29700 10.04900 32.20100
C  39.16200 7.59600 31.67000
C  39.79200 7.54200 26.83200
C  44.13100 9.76300 27.28000
N  41.38700 8.65800 31.69900
C  42.16200 9.31900 32.60200
C  41.61500 9.13200 34.00200
C  40.41800 8.17300 33.79500
C  40.31200 8.09200 32.32400
C  40.56600 6.81300 34.53300
C  41.34000 10.53000 34.73600
C  41.42500 10.43400 36.28800
H  41.37300 11.72300 37.25200
N  39.70200 7.68200 29.31800
C  38.80700 7.38800 30.34200
C  37.52800 6.91500 29.72900
C  37.66100 7.09800 28.29900
C  39.11000 7.41700 28.11100
C  36.37900 6.34200 30.56400
C  36.58600 7.02200 27.21900
O  36.82400 7.35100 26.02600
C  35.19000 6.65600 27.67000
N  42.04500 8.49000 27.30800
C  41.07600 8.03100 26.47200
C  41.57800 8.17200 25.07700
C  42.98700 8.79600 25.16700
C  43.06700 9.01700 26.68400
C  41.53300 6.87200 24.24300
C  43.15800 10.16700 24.29100
C  42.57200 11.48100 24.92600
N  43.39800 9.62100 29.65200
C  44.31400 10.04100 28.69300
C  45.28800 10.91500 29.33200
C  44.94800 10.93600 30.67800
C  43.80400 10.13600 30.82300
C  46.42100 11.52000 28.50400
C  45.39800 11.34700 32.01300
O  46.40600 11.98200 32.34700
C  44.27500 10.79300 33.00200
C  45.00900 9.86300 33.99600
O  45.64400 8.82000 33.77300
O  45.01400 10.59500 35.20800
C  45.54600 9.84500 36.40700
H  38.27500 7.45700 32.29100
H  39.24700 7.13100 25.98000
H  44.81700 10.16600 26.53200
H  42.35500 8.62900 34.62500
H  39.47000 8.63400 34.07200
H  39.61600 6.67600 35.04800
H  41.43600 6.81600 35.18900
H  40.62600 6.02200 33.78600
H  40.35000 10.85600 34.41600
H  41.93300 11.39500 34.44100
H  42.32800 9.90400 36.59100
H  40.59500 9.82600 36.64800
H  36.36500 6.36200 31.65400
H  36.21400 5.35600 30.13000
H  35.60600 7.03100 30.22400
H  34.53100 6.48000 26.82000
H  34.73900 7.53700 28.12700
H  35.03200 5.78700 28.30800
H  40.88100 8.90200 24.66400
H  43.67300 8.00200 24.87100
H  40.52500 6.81800 23.83100
H  41.80200 5.94000 24.74000
H  42.23100 6.76100 23.41300
H  42.59000 10.09000 23.36400
H  44.19600 10.39400 24.04700
H  41.97600 11.36100 25.83100
H  41.81000 11.85900 24.24500
H  43.36300 12.21100 25.09500
H  47.03400 10.77600 27.99600
H  46.90600 12.30800 29.08000
H  45.78300 11.95800 27.73700
H  43.86500 11.56500 33.65200
H  46.10600 8.97800 36.05700
H  44.67300 9.47500 36.94500
H  46.23900 10.39200 37.04500

