158

Mg -2.39100 17.26600 26.26700
C  -2.97400 14.74300 28.72300
C  -3.09300 19.57800 28.43200
C  -2.44000 19.44400 23.73800
C  -2.80800 14.63100 23.88900
N  -3.15200 17.14900 28.32200
C  -3.06200 16.05100 29.22300
C  -3.13700 16.55300 30.64900
C  -3.41900 18.06400 30.46700
C  -3.27500 18.31100 28.99800
C  -4.69600 18.53700 31.14200
C  -1.88800 16.18000 31.52700
C  -1.82200 16.98100 32.82900
H  -1.76300 16.22300 34.12200
N  -2.45300 19.30700 26.18500
C  -2.72200 20.12800 27.25900
C  -2.45500 21.53000 26.79800
C  -2.23100 21.45300 25.35100
C  -2.37800 20.04900 25.00300
C  -2.67900 22.68100 27.70200
C  -1.81300 22.51700 24.33400
O  -1.67200 22.32800 23.15000
C  -1.60400 23.89400 24.78200
N  -2.60100 17.04500 24.14900
C  -2.52900 18.12000 23.32400
C  -2.74500 17.76500 21.87400
C  -2.76300 16.21900 21.93800
C  -2.68200 15.92100 23.43300
C  -4.05300 18.43800 21.40100
C  -1.65200 15.56000 21.06400
C  -2.14200 14.81400 19.85900
N  -2.68000 15.13800 26.28200
C  -2.69000 14.24000 25.23600
C  -2.77300 12.86000 25.74700
C  -2.81700 12.99300 27.11700
C  -2.89200 14.41800 27.37400
C  -2.98800 11.55300 24.93600
C  -2.94500 12.30100 28.35600
O  -2.96700 11.06500 28.57200
C  -3.09700 13.36300 29.43100
C  -1.90400 13.09800 30.34800
O  -0.86200 13.68900 30.31500
O  -2.33100 12.17600 31.28400
C  -1.50600 12.10700 32.55700
H  -3.14700 20.21300 29.31900
H  -2.36100 20.08400 22.85700
H  -2.84900 13.85100 23.12600
H  -3.93600 16.06300 31.20600
H  -2.51500 18.56000 30.82000
H  -5.37600 18.86400 30.35600
H  -4.48200 19.41200 31.75600
H  -5.16100 17.73100 31.71000
H  -0.93700 16.26300 31.00100
H  -1.88100 15.13000 31.82100
H  -2.62700 17.70700 32.93900
H  -0.90300 17.55600 32.71400
H  -3.02500 22.46800 28.71400
H  -3.41000 23.38900 27.31000
H  -1.70200 23.14800 27.82200
H  -0.97700 23.96300 25.67100
H  -2.54400 24.33200 25.11900
H  -1.24900 24.48600 23.93900
H  -1.90900 18.19700 21.32400
H  -3.73800 15.85900 21.60800
H  -4.38900 19.15400 22.15000
H  -4.81700 17.70200 21.14700
H  -3.86800 19.09100 20.54800
H  -1.12200 14.81700 21.66100
H  -0.86200 16.23900 20.74500
H  -2.72500 13.93000 20.11600
H  -1.21800 14.50900 19.36900
H  -2.66400 15.47300 19.16500
H  -4.04000 11.27600 24.87300
H  -2.43600 10.71000 25.35000
H  -2.58700 11.67800 23.93000
H  -4.04200 13.12200 29.91900
H  -1.31500 13.11800 32.91900
H  -0.59100 11.57700 32.29500
H  -1.93100 11.46300 33.32700
Mg 17.06900 52.79300 26.43400
C  18.67300 51.10000 29.10700
C  14.48100 53.67500 28.56700
C  15.50900 54.29800 23.83800
C  19.41300 51.44400 24.36200
N  16.54200 52.25500 28.55200
C  17.36300 51.63900 29.48300
C  16.93200 51.90800 30.92600
C  15.45900 52.45900 30.63500
C  15.47500 52.91000 29.18700
C  14.32700 51.44100 30.96500
C  17.83700 52.96500 31.66600
C  18.31500 52.60200 33.06500
H  17.43800 53.13500 34.27400
N  15.24300 53.93400 26.23500
C  14.35300 54.18500 27.25300
C  13.30100 54.92700 26.69600
C  13.53000 55.11000 25.29600
C  14.80200 54.40200 25.03400
C  12.09200 55.50100 27.50200
C  12.81300 56.02600 24.33200
O  13.19400 56.03000 23.20300
C  11.68000 56.88500 24.71400
N  17.36000 52.82100 24.32300
C  16.64500 53.55500 23.42500
C  17.22200 53.45400 21.98000
C  18.42100 52.52900 22.23700
C  18.41400 52.28000 23.74600
C  16.16000 53.01800 21.01200
C  19.85700 53.15900 21.76000
C  20.10400 53.20400 20.21600
N  18.76900 51.56200 26.61200
C  19.59100 51.08700 25.68100
C  20.65800 50.33400 26.24100
C  20.45500 50.42700 27.64400
C  19.22700 51.12600 27.79300
C  21.81300 49.76400 25.46800
C  20.92700 50.12100 28.96900
O  21.95900 49.59400 29.42300
C  19.75300 50.44400 29.95000
C  19.11200 49.22800 30.58800
O  18.17500 48.51800 30.20600
O  19.66800 49.19900 31.81100
C  19.22600 48.16800 32.71600
H  13.68400 53.92200 29.27100
H  15.03400 54.76800 22.97400
H  20.00200 51.07900 23.51900
H  16.79000 51.04800 31.58000
H  15.22900 53.33100 31.24800
H  14.38100 50.58400 30.29400
H  13.30800 51.82600 30.93500
H  14.54800 51.16200 31.99500
H  17.43300 53.96200 31.84000
H  18.71900 52.98500 31.02500
H  19.38000 52.82000 33.14100
H  18.37900 51.51900 33.17400
H  12.11000 56.58100 27.35700
H  12.19400 55.28600 28.56500
H  11.18800 55.04500 27.10000
H  12.07300 57.55100 25.48200
H  10.85500 56.22500 24.98300
H  11.38700 57.52500 23.88100
H  17.65000 54.42900 21.74300
H  18.28200 51.60600 21.67400
H  16.06400 51.93600 21.10400
H  16.38100 53.35700 20.00000
H  15.14600 53.37200 21.19600
H  20.61100 52.55900 22.27000
H  19.87200 54.20100 22.07900
H  20.40700 54.21900 19.96000
H  19.19300 52.83800 19.74100
H  20.94300 52.54900 19.98400
H  22.21500 50.67800 25.03000
H  21.41300 49.06200 24.73600
H  22.65300 49.40500 26.06200
H  20.07700 51.13300 30.73100
H  18.16000 48.08300 32.50100
H  19.35500 48.69900 33.65900
H  19.86700 47.28700 32.70600

