158

Mg 26.23800 48.98800 27.01600
C  24.27700 50.32900 29.49700
C  28.71100 48.37200 29.19500
C  28.41000 48.34600 24.41800
C  24.00600 50.35000 24.65400
N  26.45300 49.21100 29.12300
C  25.49600 49.75000 29.97900
C  25.85900 49.45500 31.46300
C  27.43100 49.08400 31.33900
C  27.52900 48.91700 29.79800
C  28.41600 50.18200 31.85400
C  25.00700 48.31900 32.05700
C  24.96700 48.20800 33.56800
H  25.74900 49.15500 34.48800
N  28.27100 48.39100 26.82000
C  29.13700 48.21500 27.84300
C  30.36600 47.82200 27.38400
C  30.28600 47.74800 25.99400
C  28.92200 48.16600 25.64900
C  31.50600 47.41600 28.23100
C  31.31700 47.53700 24.95500
O  31.15400 47.62200 23.75000
C  32.77200 47.41600 25.46700
N  26.32200 49.59000 24.89600
C  27.26300 48.98700 24.07600
C  26.83700 49.08500 22.57700
C  25.39200 49.56500 22.68100
C  25.24700 49.90800 24.13500
C  27.77300 49.89500 21.70000
C  24.44200 48.47000 22.20700
C  24.01600 47.44100 23.24900
N  24.51800 50.10600 27.01700
C  23.66700 50.56500 25.99600
C  22.49500 51.17100 26.52200
C  22.70300 51.10800 27.89000
C  23.93600 50.40900 28.12200
C  21.42100 51.80900 25.69500
C  22.13200 51.40600 29.22000
O  21.07000 51.89800 29.54400
C  23.18500 50.94000 30.29300
C  23.64000 52.09400 31.17800
O  24.40500 52.98300 30.83000
O  22.95800 52.02600 32.35700
C  23.29100 53.06100 33.35800
H  29.45100 48.24800 29.98800
H  28.89300 47.89400 23.55000
H  23.29000 50.45000 23.83600
H  25.64800 50.42700 31.90800
H  27.58700 48.14800 31.87500
H  27.91000 51.13200 32.02800
H  29.12700 50.47900 31.08300
H  28.98900 49.77300 32.68700
H  25.54900 47.44700 31.69100
H  24.02300 48.31600 31.58900
H  25.19600 47.21400 33.95200
H  23.93600 48.47300 33.80200
H  31.21900 47.23900 29.26800
H  32.17000 48.28000 28.25400
H  32.23200 46.68100 27.88200
H  32.83700 46.40700 25.87500
H  32.96300 48.24400 26.14900
H  33.39800 47.65800 24.60800
H  26.73400 48.11900 22.08100
H  25.26500 50.40400 21.99800
H  28.64300 50.26500 22.24300
H  27.28800 50.73100 21.19500
H  28.20300 49.21100 20.96800
H  24.84800 47.91700 21.36000
H  23.56900 48.95200 21.76900
H  24.58900 47.55800 24.16900
H  24.15900 46.45400 22.80800
H  22.98300 47.67300 23.50800
H  21.06000 51.04500 25.00600
H  21.83900 52.69500 25.21800
H  20.51500 52.08200 26.23600
H  22.83100 50.11400 30.91000
H  22.92600 54.06500 33.14300
H  24.37700 53.13800 33.32400
H  23.09300 52.75000 34.38400
Mg 16.77400 50.84800 27.17000
C  18.61600 49.66400 29.80400
C  14.32300 52.08400 29.31000
C  14.80700 51.78800 24.54000
C  18.90000 49.13900 24.91700
N  16.47200 50.75400 29.30700
C  17.40200 50.34100 30.18600
C  16.93600 50.74700 31.62100
C  15.43400 51.21100 31.48800
C  15.32600 51.26400 29.92700
C  14.42500 50.14200 32.02300
C  17.87000 51.81600 32.24100
C  17.96300 51.93500 33.78400
H  17.20200 50.96300 34.70300
N  14.93300 51.94000 26.96700
C  14.09500 52.39900 27.96200
C  13.02400 53.21000 27.37800
C  13.13100 53.11700 25.98800
C  14.28700 52.24800 25.75500
C  12.02300 53.91100 28.31400
C  12.35800 53.92500 24.96600
O  12.60900 53.84100 23.77400
C  11.17400 54.79000 25.34500
N  16.76600 50.48500 25.00500
C  15.86100 50.94800 24.15700
C  16.14800 50.58000 22.65800
C  17.58500 50.00800 22.76300
C  17.79400 49.84100 24.31600
C  15.04600 49.67600 21.93100
C  18.64100 50.92900 22.07500
C  19.79100 50.22500 21.32400
N  18.41500 49.59500 27.30100
C  19.25200 49.05100 26.30700
C  20.31600 48.42300 27.01100
C  20.10900 48.54300 28.36900
C  18.90700 49.36900 28.48600
C  21.36500 47.61900 26.32800
C  20.56900 48.30200 29.62200
O  21.62700 47.74000 29.91400
C  19.58800 48.96200 30.67500
C  18.93300 47.86200 31.43700
O  18.04000 47.16600 30.99600
O  19.51400 47.59800 32.61800
C  19.00700 46.38700 33.28500
H  13.53300 52.52700 29.92100
H  14.20300 52.19500 23.72600
H  19.52500 48.63000 24.18000
H  17.06800 49.88700 32.27800
H  15.24400 52.11100 32.07200
H  14.94300 49.23300 32.32800
H  13.70700 50.04700 31.20900
H  13.86600 50.44100 32.90900
H  17.55200 52.83200 32.00900
H  18.86500 51.83000 31.79700
H  17.75700 52.97300 34.04300
H  19.00300 51.70000 34.00700
H  11.73100 54.91900 28.01900
H  12.38200 54.12300 29.32100
H  11.10900 53.33300 28.45000
H  10.50200 54.04300 25.76700
H  10.81200 54.99900 24.33800
H  11.53000 55.65300 25.90800
H  16.11000 51.55300 22.16700
H  17.56900 49.09000 22.17500
H  14.40500 50.30900 21.31700
H  14.49500 49.11900 22.68900
H  15.46900 49.01500 21.17500
H  19.19800 51.59400 22.73500
H  18.10600 51.54800 21.35400
H  20.73900 50.50600 21.78300
H  19.97300 50.51100 20.28800
H  19.67300 49.14300 21.39200
H  21.12300 47.44800 25.27900
H  21.56900 46.67400 26.83100
H  22.25700 48.24100 26.40300
H  20.07200 49.68000 31.33700
H  17.98300 46.47300 33.64800
H  19.61700 46.16400 34.16100
H  19.22500 45.45800 32.75800

