158

Mg 1.43500 -1.55400 44.17400
C  4.87700 -0.97600 43.51000
C  0.68500 1.23900 42.41100
C  -1.72300 -2.56800 44.40000
C  2.40400 -4.68400 45.70400
N  2.61500 -0.10100 43.05900
C  3.96300 -0.07000 42.86100
C  4.39000 1.15600 42.03600
C  3.06200 1.91900 41.85200
C  2.04600 0.98200 42.43800
C  3.13000 3.24700 42.60200
C  5.00500 0.63200 40.73900
C  6.46000 1.10000 40.55200
H  6.63700 2.22800 39.53400
N  -0.30300 -0.75400 43.53500
C  -0.40800 0.46200 42.89400
C  -1.81200 0.79300 42.69800
C  -2.61000 -0.28300 43.37500
C  -1.54100 -1.24100 43.79300
C  -2.21600 2.09300 42.08300
C  -4.10200 -0.24900 43.42600
O  -4.69000 0.67000 42.86200
C  -5.06600 -1.34000 44.02900
N  0.45900 -3.47200 44.91200
C  -0.85200 -3.58700 44.83100
C  -1.35300 -4.95300 45.38400
C  -0.03900 -5.60300 45.89400
C  1.02100 -4.53200 45.43500
C  -2.40700 -4.81800 46.48100
C  0.28700 -7.03800 45.37000
C  0.25200 -8.25600 46.25800
N  3.24300 -2.62800 44.60800
C  3.45200 -3.82800 45.22000
C  4.90000 -4.08500 45.26100
C  5.48800 -2.94700 44.69900
C  4.47700 -2.11500 44.20900
C  5.59800 -5.24900 45.98400
C  6.86400 -2.34900 44.43500
O  7.97600 -2.63300 44.70400
C  6.42000 -1.03400 43.56800
C  6.94300 0.09500 44.36800
O  6.49200 0.52700 45.37600
O  7.99500 0.73800 43.71200
C  8.59300 1.95900 44.30000
H  0.33000 2.13100 41.89100
H  -2.78600 -2.79700 44.49100
H  2.81200 -5.59700 46.14100
H  5.14200 1.72700 42.58100
H  2.77700 2.18400 40.83400
H  4.12600 3.58200 42.89100
H  2.54700 3.19100 43.52100
H  2.59500 3.93800 41.95100
H  4.30600 0.80200 39.92000
H  4.98900 -0.45500 40.66200
H  7.13600 0.30400 40.23900
H  6.99500 1.47800 41.42300
H  -3.19800 1.92400 41.64200
H  -1.58200 2.41500 41.25700
H  -2.37400 2.87400 42.82600
H  -4.64600 -1.85000 44.89600
H  -5.30900 -2.10300 43.28900
H  -5.86900 -0.71700 44.42100
H  -1.69100 -5.64100 44.61000
H  -0.10800 -5.63200 46.98200
H  -2.81500 -3.81200 46.56600
H  -2.04600 -5.06500 47.47900
H  -3.24800 -5.50400 46.38000
H  1.17400 -7.08800 44.73900
H  -0.51500 -7.18900 44.64800
H  -0.39800 -8.95100 45.72600
H  -0.16800 -7.98400 47.22700
H  1.27300 -8.63500 46.29700
H  6.59600 -5.24300 45.54600
H  5.10900 -6.19300 45.74100
H  5.63300 -5.18200 47.07100
H  6.86700 -1.04800 42.57400
H  8.86200 1.88200 45.35400
H  7.92300 2.80500 44.14400
H  9.50900 2.06800 43.72000
Mg -11.12100 16.50600 42.06500
C  -8.23600 14.54100 41.69900
C  -9.46900 18.89800 40.33300
C  -14.09900 18.03400 41.70800
C  -12.74400 13.53300 43.17400
N  -9.15300 16.63600 41.01300
C  -8.14000 15.74700 41.03700
C  -6.94600 16.20200 40.22200
C  -7.26900 17.69700 40.01700
C  -8.71800 17.78100 40.50800
C  -6.28100 18.69500 40.62400
C  -6.73600 15.36400 38.94200
C  -5.43500 14.54300 38.90900
H  -4.54900 14.78500 37.64500
N  -11.60800 18.30700 41.27900
C  -10.76600 19.22100 40.66200
C  -11.49400 20.51700 40.38000
C  -12.83000 20.23700 40.69800
C  -12.92900 18.82200 41.22700
C  -10.83100 21.62900 39.68400
C  -14.00600 21.13300 40.39000
O  -13.85600 22.29300 39.92400
C  -15.40800 20.65600 40.60500
N  -13.15200 15.79000 42.34800
C  -14.17600 16.66100 42.11800
C  -15.57400 15.94400 42.34500
C  -15.18700 14.69700 43.22000
C  -13.59100 14.62500 42.91200
C  -16.67400 16.88400 42.91600
C  -16.04800 13.44000 43.06900
C  -16.69400 12.88700 44.31900
N  -10.64600 14.41900 42.47100
C  -11.40000 13.39100 42.88600
C  -10.48400 12.25700 43.14800
C  -9.23000 12.71300 42.66100
C  -9.40500 14.00200 42.28300
C  -10.87900 10.93800 43.76100
C  -7.91400 12.22600 42.43100
O  -7.43300 11.10500 42.56800
C  -7.19400 13.40400 41.74600
C  -6.08100 13.83600 42.71600
O  -6.21600 14.17800 43.89800
O  -4.87400 13.76200 42.07300
C  -3.73200 14.12100 42.92800
H  -8.89600 19.67600 39.82500
H  -15.08100 18.51000 41.66600
H  -13.05800 12.60000 43.64600
H  -6.15300 16.11500 40.96400
H  -7.28900 17.92400 38.95100
H  -5.49600 18.15100 41.14900
H  -6.70700 19.41900 41.31900
H  -5.81900 19.23100 39.79500
H  -6.73800 16.09600 38.13400
H  -7.57300 14.68500 38.78100
H  -5.73700 13.49800 38.84300
H  -4.81000 14.82200 39.75700
H  -9.79000 21.66600 40.00500
H  -11.16200 22.65000 39.87600
H  -10.85600 21.53800 38.59800
H  -16.16800 21.30700 40.17500
H  -15.62200 20.60400 41.67300
H  -15.50300 19.69700 40.09600
H  -15.84700 15.58000 41.35500
H  -15.25600 15.01300 44.26100
H  -16.37100 17.48300 43.77500
H  -17.53600 16.40400 43.38000
H  -16.98800 17.54900 42.11200
H  -15.52600 12.56400 42.68200
H  -16.88000 13.59700 42.38400
H  -16.42100 11.83700 44.41700
H  -17.77300 13.02300 44.25300
H  -16.35100 13.41100 45.21200
H  -10.43400 11.08200 44.74500
H  -10.31100 10.25000 43.13400
H  -11.94600 10.72200 43.70100
H  -6.85500 13.06800 40.76600
H  -2.87400 14.25400 42.26900
H  -3.46500 13.37700 43.67800
H  -4.05500 15.06100 43.37600

