158

Mg 31.08500 58.37700 40.31800
C  28.15700 56.51600 39.14800
C  32.99800 55.65200 39.20700
C  33.67100 60.43300 40.56200
C  28.90700 61.11000 40.80800
N  30.62800 56.32700 39.19200
C  29.39800 55.79100 38.88500
C  29.60800 54.40900 38.18100
C  31.06300 54.02800 38.68800
C  31.62000 55.43300 39.05300
C  31.10200 53.10600 39.99700
C  29.40000 54.65700 36.67500
C  28.59600 53.50700 36.00900
H  28.29000 53.69400 34.50500
N  33.10600 58.08400 39.90800
C  33.70200 56.88700 39.48600
C  35.09300 57.22400 39.24500
C  35.35400 58.53400 39.66700
C  34.00000 59.09200 40.05700
C  36.03100 56.19700 38.77100
C  36.70400 59.21900 39.69100
O  37.71100 58.59900 39.39200
C  36.84200 60.67700 40.10700
N  31.23600 60.48700 40.66000
C  32.46500 61.02900 40.80700
C  32.35000 62.60000 41.18500
C  30.75900 62.76800 41.19700
C  30.23700 61.37800 40.92100
C  33.17100 63.14400 42.39000
C  30.22500 63.84800 40.11500
C  29.28500 64.90600 40.52000
N  28.97700 58.68300 40.24600
C  28.26300 59.88200 40.34400
C  26.86000 59.72200 40.15500
C  26.80300 58.38600 39.61200
C  28.08000 57.81000 39.70300
C  25.75300 60.67400 40.30700
C  25.88000 57.36200 39.09100
O  24.66400 57.38800 39.00100
C  26.68900 56.08300 38.89000
C  26.22200 55.01900 39.82900
O  26.96000 54.58800 40.69800
O  24.94600 54.71500 39.56800
C  24.31000 53.64600 40.36200
H  33.59700 54.80200 38.87100
H  34.45400 61.17200 40.74300
H  28.16700 61.91300 40.81100
H  29.01900 53.58900 38.59200
H  31.67000 53.57000 37.90700
H  30.16400 52.55900 40.09600
H  31.06500 53.74600 40.87900
H  32.04700 52.56600 39.93100
H  30.40500 54.81800 36.28700
H  28.85100 55.58600 36.52000
H  27.60400 53.42300 36.45300
H  29.08900 52.55100 36.18700
H  37.01400 56.37900 39.20600
H  36.14700 56.33000 37.69500
H  35.60200 55.21700 38.97800
H  36.16900 61.24000 39.46100
H  37.88000 61.01000 40.06900
H  36.57900 60.70600 41.16500
H  32.64100 63.22600 40.34100
H  30.45500 63.18500 42.15800
H  32.60200 63.55300 43.22400
H  34.10000 63.58200 42.02600
H  33.55700 62.21900 42.82100
H  29.83300 63.38400 39.21000
H  31.06100 64.48600 39.82900
H  29.67100 65.90800 40.33700
H  29.39100 64.92500 41.60500
H  28.25900 64.68400 40.22600
H  25.70800 61.17100 39.33800
H  25.89000 61.28800 41.19700
H  24.81600 60.13300 40.44100
H  26.49800 55.81700 37.85000
H  23.95800 52.84400 39.71300
H  23.46200 54.04900 40.91600
H  24.90300 53.18000 41.14900
Mg 1.08000 42.91700 26.01000
C  3.25300 42.89800 28.86800
C  -1.47400 42.03100 28.17800
C  -0.72200 42.19100 23.38500
C  3.84600 43.46500 24.00200
N  0.93900 42.56300 28.23500
C  1.87400 42.73700 29.22200
C  1.21200 42.74300 30.59000
C  -0.14500 42.06800 30.30000
C  -0.26300 42.30400 28.78600
C  -0.18500 40.52500 30.74500
C  1.09600 44.13600 31.20400
C  1.32600 44.26600 32.70600
H  0.96000 43.12700 33.66000
N  -0.84000 42.35000 25.82800
C  -1.74800 42.03400 26.76200
C  -3.02400 41.84200 26.22000
C  -2.86700 41.91000 24.76800
C  -1.38500 42.05700 24.61900
C  -4.20200 41.62700 27.08100
C  -4.04800 41.84700 23.73500
O  -3.82200 41.93900 22.54600
C  -5.52500 41.77400 24.03800
N  1.49400 42.76600 24.03300
C  0.55100 42.61500 23.12800
C  1.17100 42.70900 21.75900
C  2.51100 43.57100 21.92200
C  2.67600 43.25600 23.38100
C  1.33900 41.34900 21.04600
C  2.50400 45.02500 21.62100
C  1.22000 45.81100 21.72500
N  3.16100 43.20500 26.28100
C  4.13400 43.40600 25.41200
C  5.42300 43.50700 26.05100
C  5.18200 43.26900 27.43600
C  3.71700 43.12300 27.52000
C  6.71000 43.62100 25.21600
C  5.73500 43.08800 28.73100
O  6.90200 42.97600 29.10400
C  4.49100 42.95600 29.72700
C  4.70800 41.77300 30.56200
O  4.72500 40.56700 30.22100
O  4.96000 42.20000 31.79100
C  5.04400 41.29700 32.93500
H  -2.25400 41.76800 28.89500
H  -1.39300 41.97200 22.55200
H  4.64400 43.83900 23.35800
H  1.84500 42.18100 31.27700
H  -0.98800 42.51300 30.82900
H  -0.45800 39.94700 29.86200
H  -1.01400 40.40200 31.44200
H  0.77800 40.13000 31.06800
H  0.11600 44.51000 30.90900
H  1.85100 44.68000 30.63700
H  0.91300 45.20800 33.06700
H  2.38900 44.43400 32.87900
H  -4.54600 42.64800 27.24500
H  -4.02100 41.28900 28.10100
H  -5.02300 40.99800 26.73500
H  -5.76400 42.67200 24.60800
H  -5.58000 40.82100 24.56300
H  -6.14100 41.94200 23.15500
H  0.54300 43.21100 21.02300
H  3.43100 43.12300 21.54700
H  2.32100 41.04600 20.68200
H  0.73400 41.44100 20.14400
H  0.95200 40.51700 21.63400
H  2.75500 45.14400 20.56700
H  3.30700 45.56100 22.12500
H  0.99300 46.01900 20.68000
H  1.36500 46.72500 22.30100
H  0.41900 45.20300 22.14600
H  6.56800 44.25000 24.33700
H  7.06000 42.62600 24.94500
H  7.42600 44.03300 25.92800
H  4.50400 43.82700 30.38200
H  5.68300 41.88000 33.59700
H  5.50500 40.35700 32.63200
H  4.12600 40.91800 33.38400

