158

Mg 24.54000 -5.48200 45.86600
C  27.00500 -3.71300 44.30300
C  22.18600 -4.20900 43.66700
C  22.50500 -8.01700 46.80600
C  27.06800 -6.83100 48.01400
N  24.58000 -4.03700 44.27300
C  25.73700 -3.52800 43.72800
C  25.51600 -2.61400 42.50100
C  23.91800 -2.60800 42.43400
C  23.51800 -3.73800 43.50400
C  23.26300 -1.20700 42.77900
C  26.14400 -3.00800 41.16500
C  26.87600 -1.93800 40.43700
H  27.27200 -2.06200 38.92300
N  22.58900 -5.98800 45.40600
C  21.76300 -5.24900 44.49100
C  20.47900 -5.95500 44.49700
C  20.41500 -6.95800 45.49700
C  21.89100 -7.02500 45.97800
C  19.50800 -5.51800 43.47800
C  19.30800 -7.65300 45.98600
O  18.20100 -7.52500 45.48700
C  19.27100 -8.53100 47.30500
N  24.86700 -7.28100 47.02300
C  23.77100 -8.11800 47.36500
C  24.15500 -9.14000 48.39800
C  25.55000 -8.60600 48.97900
C  25.86400 -7.45700 48.00700
C  23.05900 -9.42000 49.49400
C  26.74500 -9.64900 49.06500
C  27.20000 -10.01600 50.48800
N  26.59200 -5.23500 46.18300
C  27.48700 -5.87900 47.03500
C  28.75300 -5.25700 46.97100
C  28.68100 -4.38200 45.87900
C  27.35500 -4.48600 45.41300
C  30.02900 -5.67200 47.70400
C  29.42100 -3.46400 44.97000
O  30.57000 -3.15100 44.89100
C  28.26900 -2.82500 44.09200
C  28.18000 -1.39500 44.49300
O  28.18700 -0.95100 45.62700
O  28.43800 -0.70500 43.35200
C  28.90500 0.65100 43.46800
H  21.48000 -3.63600 43.06200
H  21.84900 -8.83400 47.11600
H  27.76700 -7.04800 48.82400
H  25.76400 -1.61300 42.85400
H  23.54200 -3.04500 41.51000
H  22.46500 -1.13200 42.04100
H  23.79000 -0.25500 42.70600
H  22.72100 -1.23600 43.72400
H  25.38600 -3.31300 40.44300
H  26.83300 -3.82500 41.37600
H  27.83000 -1.81100 40.94700
H  26.33500 -1.00100 40.57500
H  20.00900 -5.37600 42.52000
H  19.16000 -4.53300 43.79000
H  18.64000 -6.15800 43.32300
H  18.25000 -8.63800 47.67400
H  19.98200 -8.18300 48.05400
H  19.65700 -9.52300 47.07100
H  24.39900 -10.04300 47.83800
H  25.29700 -8.04600 49.87900
H  22.60900 -10.41200 49.48000
H  22.25900 -8.68100 49.44300
H  23.42800 -9.26600 50.50800
H  27.64400 -9.27200 48.57600
H  26.42200 -10.51100 48.48200
H  27.01300 -11.08900 50.53700
H  26.64600 -9.44300 51.23100
H  28.20800 -9.69200 50.74400
H  30.65300 -6.31100 47.07900
H  29.73500 -6.17700 48.62400
H  30.60200 -4.74700 47.77400
H  28.58100 -2.91300 43.05100
H  29.69100 0.66500 44.22300
H  28.18100 1.43000 43.71100
H  29.33700 0.83500 42.48400
Mg -10.90700 40.51900 39.10300
C  -9.98600 37.24500 38.46600
C  -7.58500 41.50900 38.35500
C  -11.90000 43.68000 38.63100
C  -14.22000 39.43600 39.38000
N  -9.09200 39.54900 38.31900
C  -8.92900 38.16100 38.26500
C  -7.46900 37.79300 37.87600
C  -6.67400 39.12600 38.31900
C  -7.85200 40.13800 38.33100
C  -5.94400 39.14500 39.66000
C  -7.38700 37.50200 36.31600
C  -7.16000 36.00900 35.93600
H  -8.04200 35.41900 34.90300
N  -9.88800 42.38900 38.65200
C  -8.52400 42.60200 38.34000
C  -8.27700 43.97700 38.17500
C  -9.50500 44.57700 38.31800
C  -10.52900 43.57200 38.46900
C  -6.92400 44.54600 37.99000
C  -9.65600 46.08100 38.28000
O  -8.73900 46.80700 37.92000
C  -10.94100 46.73000 38.56800
N  -12.87600 41.45500 39.02200
C  -12.98000 42.79500 38.92800
C  -14.44100 43.17100 38.96600
C  -15.25700 41.85600 39.25700
C  -14.05500 40.84100 39.24900
C  -14.91700 44.31300 39.93800
C  -16.40400 41.45300 38.26700
C  -17.70900 41.09300 38.95800
N  -11.93100 38.71500 39.16200
C  -13.29400 38.41600 39.13900
C  -13.43900 36.99400 39.03400
C  -12.16200 36.48300 38.74400
C  -11.30800 37.59500 38.78500
C  -14.80400 36.31600 39.12900
C  -11.43500 35.27000 38.38000
O  -11.84000 34.12600 38.24000
C  -9.91000 35.70400 38.24000
C  -9.15300 34.90200 39.26200
O  -9.51800 34.75400 40.43900
O  -8.18100 34.20800 38.62200
C  -7.43300 33.31600 39.50000
H  -6.53100 41.77800 38.26300
H  -12.26800 44.69600 38.47300
H  -15.23000 39.03800 39.49500
H  -7.05000 37.02800 38.53000
H  -6.05500 39.49400 37.50000
H  -4.95200 39.59400 39.60900
H  -5.59800 38.15500 39.95700
H  -6.53700 39.59700 40.45500
H  -6.60400 38.11700 35.87200
H  -8.37200 37.73500 35.91300
H  -7.22100 35.32600 36.78300
H  -6.15200 35.96200 35.52400
H  -6.48900 44.93100 38.91300
H  -6.83400 45.28600 37.19500
H  -6.27200 43.77600 37.57900
H  -10.89400 47.80800 38.71900
H  -11.16200 46.53800 39.61700
H  -11.74600 46.44000 37.89300
H  -14.70600 43.47500 37.95400
H  -15.60300 41.86900 40.29000
H  -14.08100 44.81400 40.42700
H  -15.64500 44.03300 40.69900
H  -15.36200 45.09500 39.32200
H  -16.20600 40.63800 37.57100
H  -16.65800 42.30300 37.63400
H  -17.81300 41.51500 39.95700
H  -17.89200 40.02000 39.00100
H  -18.45800 41.48600 38.27100
H  -14.73000 35.48100 39.82700
H  -15.04400 35.98800 38.11800
H  -15.52500 36.96600 39.62600
H  -9.62100 35.49600 37.21000
H  -8.04000 32.46200 39.80100
H  -6.91900 33.73000 40.36700
H  -6.63300 32.92000 38.87400

