158

Mg 24.62900 1.80400 30.07700
C  26.94700 1.38500 32.72500
C  22.08200 1.94300 32.45000
C  22.52800 1.92500 27.51900
C  27.38400 1.16700 27.89400
N  24.58900 1.53200 32.34800
C  25.70300 1.53600 33.24300
C  25.24100 1.87500 34.67000
C  23.64600 1.85800 34.58500
C  23.41700 1.89000 33.02900
C  23.01300 0.58800 35.20200
C  25.88100 3.23100 35.15100
C  26.66100 3.24900 36.44800
H  26.14200 4.09600 37.60500
N  22.60400 1.81500 30.00200
C  21.73500 1.88000 31.06300
C  20.37600 1.97900 30.57100
C  20.46900 1.98100 29.13900
C  21.93600 1.95000 28.78100
C  19.08100 2.18600 31.44100
C  19.36600 1.98600 28.09500
O  19.54600 2.08100 26.84400
C  17.95200 1.75500 28.58000
N  24.89600 1.67800 28.03600
C  23.89700 1.76200 27.14700
C  24.30000 1.81400 25.76600
C  25.80800 1.68400 25.93900
C  26.03200 1.36100 27.38400
C  23.65500 0.84200 24.68700
C  26.69200 2.90800 25.41000
C  26.98500 4.02100 26.36600
N  26.71900 1.32400 30.19600
C  27.70900 1.18400 29.23400
C  28.93500 0.92700 29.83700
C  28.70300 1.06000 31.23200
C  27.31500 1.23700 31.39000
C  30.24700 0.56600 29.12200
C  29.40100 1.13800 32.48900
O  30.56400 1.14600 32.75200
C  28.21600 1.28400 33.54700
C  28.25700 0.10900 34.52600
O  27.84300 -1.04200 34.31100
O  28.58800 0.53700 35.76600
C  28.39500 -0.44500 36.87100
H  21.36400 2.14700 33.24700
H  21.88700 2.00100 26.63700
H  28.22300 1.12100 27.19700
H  25.51300 1.07500 35.35900
H  23.26600 2.71200 35.14600
H  22.10300 0.26300 34.69800
H  22.62700 0.75700 36.20700
H  23.74200 -0.21400 35.32000
H  25.17300 4.04700 35.00500
H  26.62200 3.51400 34.40300
H  27.64200 3.64600 36.18800
H  26.91900 2.24400 36.78200
H  18.41000 2.97700 31.10700
H  19.38800 2.62200 32.39100
H  18.47300 1.29400 31.59000
H  17.33500 1.41600 27.74800
H  17.51000 2.68100 28.94800
H  17.95900 0.96000 29.32600
H  24.06400 2.83200 25.45600
H  26.04000 0.73600 25.45300
H  23.17500 -0.10100 24.94900
H  24.42300 0.59600 23.95300
H  22.79900 1.38000 24.28000
H  26.15700 3.34200 24.56500
H  27.66800 2.59300 25.04100
H  26.47300 3.91600 27.32300
H  26.82500 4.94200 25.80600
H  28.02800 4.03800 26.68300
H  31.04700 1.02000 29.70800
H  30.29600 1.04000 28.14200
H  30.34900 -0.51200 28.99200
H  28.45300 2.23500 34.02400
H  27.33000 -0.67400 36.87800
H  28.65200 0.10300 37.77700
H  29.00200 -1.34100 36.73900
Mg 43.18700 42.35800 26.55500
C  42.06300 44.60800 28.89300
C  44.49500 40.46600 29.10400
C  44.29400 40.16700 24.16000
C  42.09700 44.47800 24.06200
N  43.17000 42.47300 28.74800
C  42.57000 43.41000 29.46200
C  42.51900 42.95300 30.95800
C  43.62900 41.87600 30.99700
C  43.76100 41.54300 29.52900
C  44.82500 42.22200 31.85500
C  41.09600 42.63700 31.42300
C  40.45700 43.43600 32.58200
H  39.83500 42.65200 33.70500
N  44.11400 40.50500 26.65900
C  44.64700 39.90700 27.81300
C  45.21000 38.63300 27.48400
C  45.11800 38.50400 26.03500
C  44.47300 39.78500 25.51600
C  45.71000 37.67700 28.58100
C  45.43600 37.30800 25.13900
O  45.32400 37.30900 23.88500
C  45.91400 35.97600 25.84100
N  43.39100 42.48500 24.37600
C  43.86000 41.44900 23.63400
C  43.77400 41.78600 22.14900
C  42.82900 43.00000 22.12100
C  42.77900 43.38100 23.58000
C  45.13400 42.08300 21.50300
C  41.54800 42.40000 21.61200
C  40.69300 41.57600 22.65200
N  42.45500 44.28000 26.43700
C  42.07300 44.99700 25.36500
C  41.53500 46.27000 25.83100
C  41.44700 46.09700 27.24500
C  42.07100 44.86600 27.51700
C  41.09100 47.44800 25.03800
C  40.94900 46.70600 28.45600
O  40.27400 47.76400 28.64100
C  41.20500 45.67000 29.60200
C  42.06100 46.23300 30.79600
O  43.20800 46.58500 30.74600
O  41.33200 46.17200 31.88100
C  41.94200 46.73000 33.05800
H  44.88500 39.82900 29.90100
H  44.70200 39.47000 23.42500
H  41.69200 45.14600 23.29900
H  42.79100 43.72500 31.67800
H  43.22300 40.94500 31.39400
H  44.65400 43.04800 32.54700
H  45.62300 42.69100 31.27900
H  45.08100 41.27500 32.33000
H  41.06200 41.57900 31.68200
H  40.55600 42.79700 30.49000
H  39.76600 44.18900 32.20400
H  41.27200 44.03200 32.99400
H  45.25600 36.68700 28.63100
H  45.62100 38.03100 29.60900
H  46.79700 37.73400 28.53700
H  46.55100 36.28600 26.66900
H  46.52200 35.37100 25.16900
H  45.00600 35.50300 26.21500
H  43.50400 40.85100 21.65800
H  43.18800 43.68200 21.35000
H  45.51500 43.06500 21.78500
H  45.03500 42.05400 20.41800
H  45.93000 41.36100 21.68900
H  41.52900 41.72100 20.76000
H  40.85800 43.22500 21.43400
H  40.62900 42.01200 23.64800
H  41.02000 40.53600 22.63800
H  39.65300 41.61300 22.32700
H  41.22300 48.32000 25.67900
H  40.08200 47.13900 24.76600
H  41.63400 47.56300 24.10000
H  40.26500 45.25500 29.96700
H  41.34700 46.41500 33.91600
H  41.84600 47.81500 33.02200
H  42.99800 46.52900 33.24000

