158

Mg 25.21400 -5.37800 45.99800
C  27.48700 -3.40900 44.21700
C  22.75000 -4.38700 43.86900
C  23.33800 -8.01100 46.87000
C  27.88300 -6.50700 47.90300
N  25.16700 -4.11500 44.22400
C  26.19000 -3.37600 43.70700
C  25.62800 -2.31300 42.72000
C  24.10300 -2.42300 42.92200
C  24.00400 -3.71100 43.72200
C  23.40600 -1.32100 43.69000
C  26.05800 -2.62400 41.22400
C  26.43000 -1.37500 40.34300
H  25.74000 -1.18900 38.95000
N  23.30300 -6.11300 45.42500
C  22.40000 -5.48900 44.64800
C  21.07600 -6.01700 44.72200
C  21.11700 -7.08000 45.65400
C  22.58500 -7.14900 46.01200
C  19.88100 -5.56300 43.90300
C  20.03300 -8.15300 46.00700
O  18.84600 -8.05700 45.57500
C  20.41200 -9.35000 46.86400
N  25.50400 -7.01800 47.13200
C  24.59400 -7.96800 47.33500
C  25.14400 -9.14200 48.17800
C  26.59600 -8.58200 48.56700
C  26.68600 -7.26200 47.85200
C  24.28000 -9.49900 49.40300
C  27.83300 -9.57800 48.24300
C  28.14000 -10.58100 49.39800
N  27.36400 -5.04400 46.17600
C  28.26800 -5.46800 47.09600
C  29.50700 -4.75300 46.92500
C  29.22900 -3.93700 45.75700
C  27.96400 -4.19200 45.31000
C  30.76100 -4.93000 47.68700
C  29.84600 -2.97200 44.84000
O  30.97700 -2.49500 44.82100
C  28.63700 -2.51600 43.85100
C  28.26700 -1.08000 44.09100
O  27.88000 -0.58300 45.17400
O  28.34300 -0.28800 42.97000
C  28.14300 1.17200 43.11400
H  21.83500 -3.91500 43.50800
H  22.90300 -8.90900 47.31300
H  28.75500 -6.85500 48.46100
H  26.03600 -1.33000 42.95300
H  23.57600 -2.39300 41.96800
H  24.16000 -0.60100 44.00800
H  22.90900 -1.63000 44.61000
H  22.68900 -0.81200 43.04600
H  25.25300 -3.25800 40.85200
H  26.93200 -3.26700 41.32400
H  27.45900 -1.63200 40.09100
H  26.52200 -0.46400 40.93500
H  20.10800 -5.13500 42.92600
H  19.37600 -4.79000 44.48200
H  19.19300 -6.38000 43.68400
H  19.56800 -10.02700 46.99600
H  20.73600 -8.85100 47.77800
H  21.24500 -9.91400 46.44500
H  25.21700 -10.01000 47.52300
H  26.54300 -8.46300 49.64900
H  23.93000 -10.52200 49.27100
H  23.43900 -8.81800 49.53700
H  24.79000 -9.53800 50.36600
H  28.68700 -8.93900 48.01700
H  27.57300 -10.18800 47.37900
H  29.10900 -10.35500 49.84200
H  28.34200 -11.59600 49.05500
H  27.42700 -10.65500 50.21900
H  30.80800 -5.93900 48.09800
H  30.76700 -4.22300 48.51700
H  31.60000 -4.75200 47.01500
H  28.98500 -2.56700 42.81900
H  28.84300 1.58000 43.84200
H  27.11600 1.40700 43.39300
H  28.43600 1.62500 42.16600
Mg -5.56100 25.62100 26.14600
C  -4.29200 26.96300 29.21100
C  -7.71800 23.76500 28.04200
C  -6.43800 24.07900 23.37200
C  -2.97200 27.38700 24.43000
N  -5.73500 25.24600 28.40400
C  -5.24200 25.97200 29.42200
C  -5.91100 25.57100 30.74600
C  -6.65000 24.27800 30.36000
C  -6.79400 24.46900 28.83800
C  -6.04000 22.89300 30.78700
C  -6.93400 26.70800 31.23400
C  -7.12700 26.91600 32.74300
H  -6.51600 25.76100 33.57600
N  -6.99900 24.25500 25.70900
C  -7.82700 23.67200 26.61700
C  -8.80500 22.80400 25.88400
C  -8.39900 22.90600 24.54000
C  -7.22100 23.77600 24.49700
C  -9.82400 21.87300 26.64700
C  -9.00000 22.12500 23.34600
O  -8.45200 22.10600 22.24300
C  -10.23000 21.26900 23.59600
N  -4.66500 25.48800 24.27100
C  -5.27400 24.78100 23.26500
C  -4.69400 25.16800 21.86500
C  -3.82300 26.37400 22.18100
C  -3.82800 26.46100 23.72400
C  -4.07900 23.99900 21.04200
C  -4.34200 27.74100 21.57500
C  -3.79100 28.14300 20.24200
N  -4.02100 26.86100 26.62800
C  -3.01800 27.50500 25.87700
C  -2.25300 28.36200 26.70100
C  -2.71900 28.21300 27.97200
C  -3.79800 27.26000 27.90400
C  -1.13500 29.15400 26.23900
C  -2.53100 28.64700 29.36100
O  -1.82400 29.55800 29.79100
C  -3.50500 27.75300 30.26600
C  -2.62800 27.02500 31.15100
O  -1.73300 26.27800 30.82100
O  -2.88700 27.32800 32.45600
C  -1.97900 26.77400 33.50900
H  -8.34000 23.07400 28.61400
H  -6.76100 23.73600 22.38700
H  -2.19000 27.94100 23.90500
H  -5.08200 25.22800 31.36600
H  -7.68700 24.28100 30.69600
H  -6.14000 22.06100 30.09000
H  -6.27300 22.55700 31.79800
H  -4.97600 23.10500 30.89400
H  -7.87800 26.61300 30.69700
H  -6.44500 27.57800 30.79600
H  -8.18800 27.00500 32.97700
H  -6.69100 27.88300 32.99200
H  -10.73100 21.80500 26.04600
H  -10.10100 22.24200 27.63500
H  -9.35500 20.89800 26.78200
H  -10.49100 20.73200 22.68400
H  -11.18900 21.68800 23.89800
H  -10.07500 20.42800 24.27200
H  -5.61100 25.44900 21.34600
H  -2.82100 26.08800 21.86300
H  -3.77500 23.23100 21.75300
H  -3.26000 24.40500 20.44900
H  -4.88900 23.65800 20.39700
H  -4.16400 28.57700 22.25100
H  -5.42300 27.71100 21.44400
H  -4.58000 28.49100 19.57600
H  -3.18500 27.34300 19.81700
H  -3.20500 29.05200 20.37300
H  -0.57200 28.57800 25.50400
H  -0.59200 29.35100 27.16300
H  -1.48700 30.11600 25.86600
H  -3.94000 28.49000 30.94000
H  -2.58700 26.84200 34.41100
H  -1.06100 27.36200 33.53200
H  -1.79700 25.70200 33.42700

