158

Mg -1.45000 18.95100 27.52100
C  -2.15500 16.49700 30.12800
C  -2.04700 21.39300 29.72700
C  -1.49000 20.79300 24.94000
C  -1.58600 15.99700 25.28600
N  -1.95100 18.88400 29.69900
C  -2.17700 17.84000 30.57500
C  -2.38700 18.29500 31.98100
C  -2.41000 19.80500 31.75700
C  -2.05900 20.08600 30.27700
C  -3.74100 20.54600 32.04400
C  -1.38500 17.75100 33.03500
C  -0.98400 18.69000 34.23600
H  -0.79200 18.05400 35.57500
N  -1.59500 20.86900 27.42600
C  -1.87000 21.75100 28.41100
C  -1.79500 23.10800 27.82300
C  -1.54900 22.95000 26.37100
C  -1.63400 21.44900 26.18300
C  -1.89400 24.33400 28.66600
C  -1.23600 23.98900 25.33600
O  -1.05200 23.75900 24.14600
C  -1.39700 25.45700 25.69100
N  -1.52200 18.40900 25.43800
C  -1.36200 19.40600 24.52900
C  -1.29900 18.89000 23.08400
C  -1.21300 17.37500 23.33300
C  -1.45800 17.24600 24.78900
C  -2.66500 19.22800 22.33900
C  0.06000 16.77500 22.78700
C  1.31500 17.24800 23.51400
N  -1.77000 16.73700 27.65700
C  -1.81000 15.67400 26.68000
C  -1.99400 14.41300 27.32600
C  -2.06200 14.71100 28.66400
C  -2.00600 16.12000 28.82200
C  -2.08400 13.09100 26.65800
C  -2.28600 14.07400 29.89100
O  -2.50600 12.91400 30.21900
C  -2.23600 15.26400 30.97500
C  -1.18900 14.95200 31.90300
O  -0.02200 15.14900 31.63600
O  -1.66700 14.48000 33.04000
C  -0.74900 14.02300 34.09800
H  -2.42900 22.15100 30.41400
H  -1.45800 21.44600 24.06600
H  -1.49600 15.17000 24.57900
H  -3.40300 17.95900 32.19300
H  -1.61100 20.36800 32.24000
H  -4.17000 20.92500 31.11600
H  -3.53900 21.36800 32.73100
H  -4.41600 19.88700 32.59000
H  -0.47200 17.47000 32.51000
H  -1.79400 16.84100 33.47300
H  -1.71500 19.48300 34.39200
H  -0.03500 19.22200 34.17700
H  -1.00300 24.26800 29.29000
H  -2.82500 24.41900 29.22600
H  -1.72000 25.32800 28.25500
H  -2.35100 25.71600 26.15000
H  -1.31800 25.99300 24.74500
H  -0.54700 25.84200 26.25400
H  -0.36000 19.29100 22.70100
H  -2.02700 16.78100 22.91600
H  -3.19200 19.91200 23.00500
H  -3.28100 18.45000 21.88900
H  -2.35800 19.76500 21.44100
H  0.08300 17.12100 21.75300
H  0.04500 15.68600 22.73100
H  1.08600 17.52300 24.54400
H  1.80600 18.10000 23.04400
H  1.97300 16.38000 23.55500
H  -1.83500 13.12600 25.59700
H  -3.10100 12.71400 26.76400
H  -1.39700 12.38200 27.11900
H  -3.18200 15.27400 31.51600
H  -0.90700 12.94500 34.12500
H  -1.18700 14.41000 35.01800
H  0.30000 14.32200 34.08700
Mg 42.09500 40.32400 26.83400
C  41.37700 42.88600 29.24800
C  43.74900 38.65600 29.37700
C  43.16100 38.32200 24.52400
C  40.79500 42.57200 24.46200
N  42.53300 40.73400 29.08800
C  42.04500 41.76100 29.81100
C  42.07300 41.41400 31.28700
C  42.96400 40.15500 31.37800
C  43.14000 39.79400 29.83100
C  44.38900 40.38900 31.94100
C  40.63300 41.20400 31.95700
C  40.50500 42.16600 33.21000
H  39.73500 41.62600 34.44500
N  43.09500 38.64100 26.93300
C  43.65300 38.10000 28.08300
C  44.20800 36.78800 27.71600
C  44.08100 36.69300 26.28300
C  43.42700 37.90400 25.82600
C  44.79900 35.85100 28.69600
C  44.57200 35.59500 25.39700
O  44.47900 35.64100 24.14600
C  45.26900 34.44500 26.06700
N  41.95100 40.43500 24.77400
C  42.44600 39.44800 24.00800
C  42.13100 39.77800 22.45700
C  41.49100 41.16000 22.42200
C  41.39700 41.41700 23.95500
C  43.36600 39.59800 21.45100
C  40.10000 41.14000 21.69700
C  39.62300 42.44900 20.99400
N  41.18600 42.29500 26.80300
C  40.61800 43.01800 25.77100
C  40.11800 44.25000 26.23500
C  40.40200 44.21700 27.61000
C  41.07900 43.01200 27.87400
C  39.65300 45.44400 25.39100
C  40.26100 45.03600 28.81600
O  39.80900 46.17500 28.92500
C  40.79900 44.04800 29.92200
C  41.73000 44.87900 30.76500
O  42.97600 44.92100 30.75100
O  40.91800 45.42200 31.75200
C  41.59400 45.93200 32.98400
H  44.14200 38.13700 30.25300
H  43.41900 37.70300 23.66300
H  40.40900 43.16100 23.62700
H  42.58300 42.14000 31.92000
H  42.47500 39.30500 31.85400
H  44.88400 39.42000 32.00200
H  44.45300 40.86400 32.92000
H  44.98400 40.96000 31.22900
H  40.45500 40.15800 32.20700
H  39.95100 41.50600 31.16200
H  40.05800 43.08100 32.82400
H  41.41900 42.57500 33.64200
H  45.88500 35.90300 28.62300
H  44.46800 34.82800 28.52000
H  44.45300 36.11800 29.69500
H  46.21800 34.76600 26.49600
H  45.30700 33.70700 25.26600
H  44.62500 33.85900 26.72200
H  41.38600 39.03800 22.16500
H  42.17600 41.87600 21.96800
H  44.22400 39.75100 22.10700
H  43.53000 40.30100 20.63500
H  43.41500 38.54600 21.16800
H  39.32300 40.78400 22.37300
H  40.16900 40.38400 20.91500
H  38.67900 42.70300 21.47700
H  39.52100 42.14700 19.95200
H  40.35000 43.23600 21.19100
H  39.06300 46.05900 26.07000
H  39.09200 45.15800 24.50100
H  40.52100 45.98400 25.01100
H  40.06100 43.59800 30.58600
H  42.68400 45.94800 33.00100
H  41.24500 45.35400 33.84000
H  41.29100 46.95500 33.20400

