158

Mg 35.75200 1.44900 29.71000
C  33.21900 2.46300 32.07000
C  38.03900 1.53700 32.35100
C  38.20000 1.07800 27.42000
C  33.40300 2.09900 27.25900
N  35.58800 1.95700 31.89200
C  34.50100 2.26900 32.70800
C  34.72300 2.26500 34.23500
C  36.32100 2.23400 34.19400
C  36.73300 1.85300 32.68900
C  37.02700 3.49700 34.68300
C  34.00000 1.12700 34.89400
C  33.50700 1.41000 36.34600
H  33.75800 2.79000 37.04000
N  37.85300 1.21000 29.86400
C  38.55600 1.16100 31.05900
C  39.91900 0.69600 30.74600
C  39.96600 0.63600 29.31400
C  38.66300 0.96000 28.82100
C  40.93800 0.40800 31.82500
C  41.12000 0.45700 28.37500
O  41.09400 0.51600 27.15900
C  42.47200 0.19200 28.91700
N  35.79100 1.64000 27.63700
C  36.92900 1.41200 26.87500
C  36.63500 1.63400 25.39900
C  35.05500 1.53300 25.34700
C  34.67500 1.77000 26.82800
C  37.14600 2.99800 24.95700
C  34.38100 0.25400 24.76100
C  33.67300 -0.71000 25.74700
N  33.66300 2.04000 29.62600
C  32.90000 2.26300 28.50700
C  31.53700 2.78700 28.93100
C  31.57600 2.79700 30.34200
C  32.89500 2.40700 30.75300
C  30.28600 3.00100 28.09500
C  30.85400 3.13500 31.57800
O  29.72100 3.62800 31.68700
C  31.89400 2.87900 32.77100
C  32.06600 4.16200 33.54000
O  32.85500 5.09200 33.36000
O  31.01700 4.20800 34.40700
C  30.85300 5.51000 35.01000
H  38.69000 1.56700 33.22700
H  38.83000 1.02600 26.53000
H  32.68600 2.44500 26.51100
H  34.50600 3.28500 34.55300
H  36.85700 1.50300 34.79900
H  36.87100 4.24500 33.90500
H  38.10400 3.32900 34.69300
H  36.59800 3.81200 35.63400
H  34.70300 0.29400 34.88700
H  33.10100 0.89100 34.32500
H  34.01200 0.60500 36.87900
H  32.44100 1.18300 36.36400
H  41.52400 1.26700 32.15100
H  41.52700 -0.38400 31.36200
H  40.49700 -0.09100 32.68800
H  42.67000 -0.87600 29.00900
H  42.74200 0.67400 29.85700
H  43.11800 0.60900 28.14400
H  37.10600 0.89600 24.75000
H  34.63800 2.36800 24.78400
H  36.56000 3.60400 24.26700
H  38.10700 2.90900 24.45100
H  37.49300 3.62100 25.78100
H  35.17200 -0.16500 24.13900
H  33.66400 0.55600 23.99700
H  33.44900 -1.68300 25.31000
H  32.66300 -0.36900 25.97300
H  34.08400 -0.84800 26.74700
H  29.56700 2.21800 28.33500
H  30.66000 2.80800 27.08900
H  29.96500 4.03100 28.24700
H  31.48400 2.12700 33.44400
H  30.63200 6.35500 34.35700
H  31.65100 5.79300 35.69500
H  29.97400 5.54500 35.65300
Mg -4.97700 24.27600 25.90900
C  -3.44400 26.18000 28.48000
C  -6.21600 22.19800 28.42300
C  -6.65100 22.73600 23.60900
C  -3.71200 26.57800 23.64000
N  -4.91600 24.30700 28.12300
C  -4.25100 25.15700 28.91200
C  -4.65700 24.90600 30.36800
C  -5.06400 23.45200 30.38800
C  -5.41400 23.29200 28.87100
C  -4.11600 22.41800 30.92800
C  -5.67800 25.98700 30.87900
C  -5.48400 26.41200 32.29100
H  -4.92000 25.40600 33.31600
N  -6.33900 22.67200 26.07000
C  -6.58300 21.87900 27.11100
C  -7.44600 20.77500 26.67000
C  -7.59800 20.88500 25.22700
C  -6.86300 22.11100 24.91600
C  -7.97800 19.66900 27.66100
C  -8.20900 19.90600 24.20500
O  -8.30900 20.17800 23.02800
C  -8.41600 18.49700 24.77100
N  -5.19700 24.60900 23.90600
C  -6.05400 23.90300 23.15300
C  -6.16900 24.43000 21.72900
C  -5.15400 25.55400 21.70700
C  -4.69900 25.63800 23.16400
C  -5.87300 23.33200 20.64500
C  -5.65300 26.94500 21.19100
C  -4.81400 27.74800 20.23500
N  -3.75600 25.92800 25.91700
C  -3.25200 26.78800 24.94000
C  -2.55300 27.87600 25.49800
C  -2.52100 27.56000 26.86500
C  -3.32300 26.40100 27.10800
C  -1.82200 28.95800 24.85800
C  -2.00500 28.06700 28.10400
O  -1.28000 29.01800 28.44200
C  -2.66400 27.27700 29.18200
C  -1.64500 26.83000 30.21800
O  -0.54700 26.36400 29.95500
O  -2.07000 27.09200 31.49100
C  -1.09900 26.88500 32.57600
H  -6.68200 21.56300 29.18000
H  -7.12900 22.22200 22.77200
H  -3.28800 27.27200 22.91200
H  -3.78400 24.90500 31.02100
H  -5.94600 23.46200 31.02800
H  -3.39400 22.03700 30.20600
H  -4.78400 21.60100 31.20300
H  -3.59300 22.77100 31.81600
H  -6.68500 25.57700 30.80200
H  -5.60700 26.88100 30.25900
H  -6.37900 26.82800 32.75400
H  -4.81100 27.26600 32.21200
H  -8.98000 19.27800 27.48500
H  -8.11800 20.11500 28.64600
H  -7.33900 18.79800 27.80500
H  -7.45800 18.22900 25.21700
H  -8.43700 17.78200 23.94800
H  -9.32200 18.36600 25.36300
H  -7.12800 24.91100 21.53600
H  -4.28000 25.36700 21.08300
H  -5.26800 23.73700 19.83400
H  -6.80400 22.85100 20.34600
H  -5.47100 22.44500 21.13400
H  -6.00700 27.50900 22.05400
H  -6.53400 26.80400 20.56400
H  -4.83600 28.79700 20.53000
H  -5.25200 27.72500 19.23700
H  -3.72700 27.66900 20.18900
H  -0.75600 28.73300 24.88700
H  -1.94000 29.85200 25.47100
H  -2.09700 29.25800 23.84700
H  -3.38100 27.97000 29.62300
H  -0.75700 25.85900 32.71200
H  -1.70700 27.23000 33.41200
H  -0.27700 27.59300 32.67800

