158

Mg 36.49300 49.19000 24.45400
C  36.42300 47.22000 27.56200
C  34.95800 51.71800 26.30600
C  36.17700 50.82600 21.68900
C  37.37200 46.26600 22.85300
N  35.83200 49.41600 26.73600
C  36.10500 48.57000 27.79900
C  35.59400 49.18300 29.10400
C  34.81300 50.47200 28.59200
C  35.22900 50.59300 27.14800
C  33.27100 50.68900 28.90100
C  36.72900 49.46300 30.20100
C  36.50000 48.85700 31.56900
H  35.01600 48.90200 32.24700
N  35.89800 51.12800 24.07500
C  35.28800 52.00900 25.00200
C  34.97800 53.22300 24.20400
C  35.42500 53.09500 22.83400
C  35.84600 51.68100 22.81500
C  34.34100 54.50400 24.83300
C  35.48900 54.00000 21.71700
O  35.88000 53.66900 20.61900
C  35.05500 55.45000 21.88900
N  36.87000 48.61200 22.55700
C  36.65500 49.51700 21.57900
C  36.88600 48.85100 20.21500
C  37.30100 47.45400 20.58600
C  37.04600 47.41200 22.06200
C  35.82800 48.88600 19.05200
C  38.82600 47.07300 20.22400
C  39.97200 47.61000 21.03000
N  36.85600 47.20200 25.02600
C  37.30200 46.10800 24.23300
C  37.53400 44.92900 24.99700
C  37.20200 45.40000 26.29800
C  36.75700 46.70900 26.26100
C  38.03000 43.62500 24.46600
C  37.17800 44.94600 27.70500
O  37.45400 43.89200 28.21800
C  36.68900 46.09900 28.47600
C  35.50300 45.62300 29.24900
O  34.34800 45.54500 28.84300
O  35.90200 45.17000 30.50000
C  34.87500 44.58400 31.36900
H  34.47400 52.59400 26.74200
H  35.97600 51.30700 20.72900
H  37.68500 45.38500 22.29000
H  34.96100 48.35100 29.41200
H  35.18900 51.26400 29.23900
H  32.72500 50.88600 27.97800
H  33.09400 51.42500 29.68500
H  32.89500 49.84100 29.47300
H  36.97300 50.52300 30.26500
H  37.66100 49.03500 29.83300
H  37.20400 49.42600 32.17500
H  36.87800 47.83500 31.59400
H  35.00000 55.36400 24.70500
H  34.15400 54.53600 25.90600
H  33.40800 54.70600 24.30700
H  33.97200 55.43000 22.00400
H  35.36400 55.98400 20.99000
H  35.63000 55.84200 22.72800
H  37.76600 49.34400 19.80000
H  36.56000 46.76000 20.18900
H  35.62100 49.94600 18.90100
H  34.94500 48.43900 19.50800
H  36.22700 48.40800 18.15700
H  39.07300 47.22000 19.17200
H  38.92900 45.98800 20.24600
H  39.68400 48.61100 21.35000
H  40.93700 47.71800 20.53600
H  40.29500 46.95900 21.84200
H  38.78800 43.84600 23.71400
H  37.20400 42.98400 24.15600
H  38.50500 43.05600 25.26500
H  37.48900 46.54900 29.06500
H  35.27600 44.13100 32.27600
H  34.24900 43.86400 30.84200
H  34.15300 45.33200 31.69600
Mg -12.61300 15.99400 42.05700
C  -9.66600 14.07200 41.66100
C  -10.98500 18.40100 40.06300
C  -15.48100 17.64000 41.50600
C  -14.34900 13.19900 42.99900
N  -10.46600 16.24000 40.92700
C  -9.48000 15.24900 40.91900
C  -8.24800 15.73400 40.02900
C  -8.80300 17.13200 39.51400
C  -10.22400 17.28400 40.18800
C  -7.87200 18.33000 39.96500
C  -7.77500 14.76600 38.89100
C  -6.22100 14.54800 38.76300
H  -5.52500 15.26100 37.59800
N  -13.11500 17.86000 41.14700
C  -12.29700 18.75400 40.47800
C  -12.92800 20.04900 40.33000
C  -14.26600 19.85900 40.78300
C  -14.29800 18.42200 41.18300
C  -12.22400 21.28400 40.00600
C  -15.39800 20.84900 40.95800
O  -15.24200 22.00800 40.62900
C  -16.72700 20.51900 41.71400
N  -14.65200 15.46000 42.16600
C  -15.68100 16.33400 41.96000
C  -16.98600 15.74300 42.47600
C  -16.54300 14.36800 43.09500
C  -15.13800 14.33400 42.66900
C  -17.92800 16.64500 43.34100
C  -17.40300 13.11000 42.77700
C  -18.94000 13.22300 42.89300
N  -12.17500 14.06400 42.29300
C  -12.98100 13.03100 42.78200
C  -12.11400 11.89600 43.04900
C  -10.80500 12.31700 42.62200
C  -10.91100 13.55500 42.10500
C  -12.45200 10.51100 43.66400
C  -9.41300 11.82600 42.45900
O  -8.83900 10.78900 42.78500
C  -8.60200 12.95000 41.68100
C  -7.52400 13.40600 42.56300
O  -7.59200 13.55100 43.79000
O  -6.33600 13.55100 41.85200
C  -5.16500 14.15300 42.56000
H  -10.46500 19.24100 39.59800
H  -16.42200 18.18000 41.37400
H  -14.90100 12.31900 43.33600
H  -7.54500 15.80300 40.86000
H  -8.88400 17.14700 38.42800
H  -6.94400 17.98500 40.42100
H  -8.37200 19.09900 40.55500
H  -7.61000 18.95800 39.11400
H  -8.20900 15.05700 37.93500
H  -8.27000 13.79600 38.94300
H  -5.97100 13.49400 38.88700
H  -5.67500 14.91200 39.63300
H  -12.92000 21.73400 39.29800
H  -11.18700 21.18500 39.68500
H  -12.20300 21.90600 40.90100
H  -17.20700 19.92700 40.93400
H  -17.22300 21.47700 41.86800
H  -16.50900 19.96500 42.62700
H  -17.55800 15.38300 41.62100
H  -16.57100 14.56400 44.16700
H  -17.52700 17.65700 43.39800
H  -17.98200 16.25300 44.35700
H  -18.91800 16.72600 42.89200
H  -17.04100 12.43600 43.55300
H  -17.15100 12.59100 41.85200
H  -19.41000 12.28100 42.61300
H  -19.30100 13.93800 42.15300
H  -19.22700 13.47500 43.91300
H  -12.25300 9.72900 42.93100
H  -13.46100 10.43000 44.06800
H  -11.79400 10.44600 44.52900
H  -8.24400 12.39100 40.81700
H  -4.35100 13.48600 42.27700
H  -5.35800 14.19000 43.63300
H  -5.02600 15.14800 42.13800

