158

Mg 26.63200 49.87700 26.58800
C  24.39100 50.93800 29.03500
C  28.84400 49.01200 29.00700
C  28.70400 48.84600 24.19000
C  24.41600 51.00100 24.22500
N  26.54400 50.08300 28.75500
C  25.50300 50.31200 29.58600
C  25.81600 49.87900 31.02400
C  27.32100 49.43400 30.93300
C  27.57900 49.48400 29.41400
C  28.27100 50.37300 31.70900
C  24.78900 48.84500 31.60200
C  23.80500 49.44900 32.61400
H  23.74100 48.77300 34.03900
N  28.51000 49.06300 26.56200
C  29.26200 48.79800 27.70300
C  30.48600 48.17900 27.28500
C  30.51200 48.27800 25.84800
C  29.21200 48.74600 25.47200
C  31.57000 47.69100 28.17600
C  31.64300 48.06700 24.82700
O  31.56800 48.38800 23.62400
C  32.96200 47.59300 25.41200
N  26.68200 50.05200 24.47000
C  27.57000 49.46600 23.66600
C  27.07500 49.41900 22.20900
C  25.60900 49.95600 22.36700
C  25.58200 50.34700 23.77500
C  27.96500 50.27100 21.19800
C  24.53200 48.88500 21.95900
C  24.34400 47.75200 22.94500
N  24.84300 50.74900 26.52100
C  24.08300 51.28100 25.53600
C  22.89900 51.92300 26.03200
C  22.99700 51.84000 27.41900
C  24.15700 51.12700 27.66600
C  21.84700 52.67600 25.27100
C  22.33300 52.23900 28.63000
O  21.34200 52.92900 28.82400
C  23.13800 51.47800 29.78600
C  23.49800 52.56800 30.81000
O  24.47000 53.30400 30.77400
O  22.53200 52.56200 31.73900
C  22.69000 53.66300 32.73700
H  29.42400 48.46600 29.75400
H  29.36900 48.63300 23.35000
H  23.60500 51.16600 23.51200
H  25.81700 50.76500 31.66000
H  27.34900 48.45200 31.40600
H  29.05300 50.79600 31.07900
H  28.85500 49.91100 32.50500
H  27.74800 51.24000 32.11200
H  25.38700 48.11200 32.14400
H  24.23100 48.40700 30.77400
H  22.79900 49.47200 32.19500
H  23.98600 50.50100 32.83400
H  31.80000 46.63700 28.02500
H  31.48000 47.84700 29.25100
H  32.39100 48.37100 27.94900
H  33.38100 48.24000 26.18300
H  33.55800 47.42500 24.51500
H  32.71600 46.65200 25.90400
H  27.03300 48.35200 21.99200
H  25.46900 50.78200 21.67000
H  28.95500 50.48200 21.60200
H  27.50500 51.19900 20.86000
H  28.16600 49.69000 20.29800
H  24.71300 48.68200 20.90400
H  23.59800 49.44300 22.01400
H  25.07300 47.90000 23.74200
H  24.44300 46.84800 22.34400
H  23.35900 47.72400 23.41100
H  20.92600 52.81100 25.83800
H  21.63900 52.09400 24.37300
H  22.29200 53.58600 24.87000
H  22.49100 50.70300 30.19800
H  23.47600 53.27900 33.38800
H  21.79100 53.76100 33.34500
H  22.89100 54.57800 32.17900
Mg -11.46800 15.65000 41.15000
C  -7.88600 15.13000 40.90200
C  -10.91600 18.86400 40.15500
C  -14.70100 15.83000 40.72800
C  -11.68700 12.15500 41.66500
N  -9.57700 16.79700 40.51900
C  -8.24500 16.43600 40.56900
C  -7.32900 17.50900 39.98500
C  -8.35600 18.72100 39.91900
C  -9.73300 18.08500 40.18200
C  -8.12800 19.79400 41.00600
C  -6.67200 17.10400 38.67800
C  -5.23800 17.36500 38.52500
H  -4.62600 17.52200 37.15800
N  -12.63200 17.16200 40.61300
C  -12.25400 18.46200 40.31200
C  -13.33900 19.29800 40.31200
C  -14.50600 18.51500 40.39600
C  -14.01400 17.07000 40.57800
C  -13.18800 20.74000 40.01800
C  -15.96500 18.99800 40.26500
O  -16.15300 20.21000 40.16700
C  -17.18400 18.08300 40.40200
N  -12.92700 14.11400 41.09900
C  -14.27800 14.47900 40.95600
C  -15.12100 13.38400 41.38800
C  -14.17600 12.15500 41.19400
C  -12.84700 12.86800 41.35800
C  -15.80000 13.62600 42.76800
C  -14.49100 11.28900 39.95300
C  -15.13900 9.92400 40.29900
N  -10.12900 13.94800 41.29300
C  -10.39600 12.62700 41.58300
C  -9.14900 11.85300 41.74000
C  -8.12700 12.85400 41.49100
C  -8.81700 14.10000 41.22600
C  -9.00500 10.36600 42.18200
C  -6.69700 13.06800 41.45200
O  -5.73800 12.40000 41.80600
C  -6.54700 14.53700 41.03300
C  -5.76700 15.16900 42.14900
O  -6.19600 15.36900 43.27000
O  -4.39900 15.27800 41.87200
C  -3.39200 15.47500 42.94100
H  -10.74500 19.87600 39.78200
H  -15.78300 15.93400 40.82500
H  -11.93300 11.10800 41.85200
H  -6.56200 17.70500 40.73400
H  -8.36600 19.18300 38.93200
H  -7.05900 20.00600 40.98100
H  -8.43500 19.41300 41.98000
H  -8.69200 20.70700 40.81500
H  -7.22900 17.68900 37.94700
H  -6.82400 16.03700 38.51500
H  -4.66200 16.69500 39.16200
H  -5.11900 18.29500 39.08100
H  -14.07400 21.35000 39.84400
H  -12.50300 20.91100 39.18800
H  -12.76800 21.25800 40.88000
H  -18.07000 18.68700 40.20700
H  -17.21200 17.69100 41.41900
H  -17.01900 17.20700 39.77400
H  -16.01600 13.31600 40.77000
H  -14.24300 11.65300 42.15900
H  -15.24500 13.29500 43.64600
H  -16.86400 13.39200 42.79500
H  -15.63600 14.69600 42.89400
H  -13.57900 11.07500 39.39500
H  -15.15600 11.96500 39.41500
H  -14.38400 9.14200 40.37800
H  -15.92000 9.72500 39.56500
H  -15.62200 9.97400 41.27500
H  -9.63000 9.86000 41.44700
H  -9.55700 10.31600 43.12000
H  -7.94400 10.12200 42.11600
H  -6.00200 14.48800 40.09000
H  -2.85100 16.39800 42.73200
H  -2.83200 14.55800 43.12700
H  -3.90200 15.68600 43.88100

