158

Mg 46.44600 16.83800 27.43700
C  44.47900 16.56700 30.31300
C  48.46200 19.11000 29.23900
C  48.28100 17.35800 24.69700
C  43.95000 15.27200 25.58700
N  46.55900 17.63600 29.55500
C  45.69000 17.25700 30.56500
C  46.13600 17.97800 31.93900
C  47.32700 18.85800 31.52900
C  47.50200 18.47000 29.97800
C  47.04900 20.40900 31.66200
C  46.48700 16.92800 32.97300
C  47.13600 17.42700 34.29300
H  46.75200 18.81400 34.73800
N  48.30400 17.78400 27.13500
C  48.88700 18.70400 27.95600
C  50.16300 19.21900 27.26800
C  50.14700 18.64700 25.94600
C  48.92900 17.85500 25.88700
C  51.03800 20.25500 27.76800
C  51.11000 18.76000 24.80200
O  50.97500 18.18200 23.75500
C  52.33900 19.60000 24.95400
N  46.08100 16.47200 25.44600
C  47.07300 16.75300 24.52800
C  46.62600 16.38800 23.12200
C  45.21800 15.64500 23.34700
C  45.12600 15.66500 24.90700
C  46.61200 17.61500 22.08800
C  45.06000 14.22400 22.71400
C  43.88000 13.87600 21.72800
N  44.56800 16.01400 27.82500
C  43.63500 15.39600 26.94200
C  42.47100 15.09600 27.75300
C  42.74300 15.59100 29.03500
C  44.03400 16.11100 29.03600
C  41.31100 14.36300 27.27400
C  42.22600 15.55900 30.44500
O  41.23400 15.08200 30.92500
C  43.40100 16.21500 31.27100
C  42.72100 17.44900 31.87900
O  42.68600 18.54400 31.36500
O  42.26000 17.14200 33.14800
C  41.80800 18.35300 33.92000
H  48.98700 19.91400 29.75900
H  48.79900 17.60700 23.76900
H  43.18400 14.80700 24.96400
H  45.34500 18.63400 32.30600
H  48.23300 18.50600 32.02300
H  46.30600 20.56100 32.44600
H  46.53600 20.75700 30.76600
H  47.94500 21.01200 31.80500
H  47.20500 16.24300 32.52400
H  45.64700 16.34300 33.34800
H  48.18800 17.32600 34.02800
H  46.88500 16.83600 35.17400
H  50.82200 20.69400 28.74100
H  50.92500 21.06500 27.04800
H  52.04800 19.84600 27.73000
H  52.05600 20.61700 25.22500
H  53.00400 19.58200 24.09000
H  52.87400 19.18000 25.80500
H  47.34200 15.61000 22.85800
H  44.36200 16.26600 23.08300
H  46.83400 17.40600 21.04200
H  47.30200 18.34000 22.52000
H  45.60500 18.02900 22.13700
H  45.18500 13.52600 23.54100
H  45.93300 14.12600 22.06900
H  43.21800 13.06900 22.04100
H  44.38300 13.57300 20.81000
H  43.24200 14.70400 21.42000
H  41.01800 14.73300 26.29200
H  40.42900 14.56500 27.88200
H  41.45200 13.28400 27.21300
H  43.67300 15.54000 32.08200
H  40.73100 18.40100 33.75500
H  42.16100 19.35900 33.69200
H  42.17100 18.27700 34.94400
Mg 28.16900 58.39200 42.14300
C  25.87000 56.20500 40.71800
C  30.69100 56.90600 40.43500
C  30.06200 60.79800 43.27600
C  25.33100 60.14300 43.43400
N  28.23900 56.83300 40.74300
C  27.18400 56.07900 40.25100
C  27.64500 55.19800 39.14500
C  29.19400 55.06500 39.49200
C  29.37600 56.39400 40.20900
C  29.65800 53.73700 40.17100
C  27.29000 55.79900 37.74800
C  27.05000 54.74000 36.63700
H  26.52400 55.29600 35.31700
N  30.21100 58.72600 41.98600
C  31.09300 57.98000 41.26700
C  32.37100 58.59900 41.41400
C  32.24400 59.73300 42.28200
C  30.81900 59.75500 42.56700
C  33.46200 58.19500 40.55400
C  33.29300 60.79300 42.71400
O  34.41400 60.62800 42.24100
C  33.10300 61.95400 43.59000
N  27.71800 60.23100 43.07500
C  28.68200 61.02500 43.49500
C  28.11800 62.26900 44.25800
C  26.59200 62.13000 44.10400
C  26.54600 60.73800 43.49600
C  28.62700 62.26000 45.72300
C  25.97800 63.27500 43.20400
C  26.02600 64.73100 43.84000
N  26.02600 58.24600 42.24900
C  25.04800 58.96200 42.87500
C  23.72600 58.38500 42.60000
C  23.97000 57.33100 41.69300
C  25.36000 57.25100 41.58500
C  22.38600 58.96200 42.96600
C  23.37200 56.23600 40.88500
O  22.18300 55.94400 40.67400
C  24.59100 55.39100 40.34400
C  24.63300 53.93600 40.82300
O  25.29900 53.49100 41.74000
O  23.80000 53.17800 40.03100
C  23.90400 51.70500 40.08800
H  31.37000 56.31400 39.81800
H  30.69200 61.62000 43.62300
H  24.50300 60.76700 43.77800
H  27.06300 54.27900 39.20700
H  29.70000 55.11500 38.52800
H  30.36800 53.30300 39.46700
H  28.83100 53.07000 40.41300
H  30.18200 53.89000 41.11400
H  28.04500 56.49900 37.38900
H  26.34700 56.33400 37.86200
H  26.31000 54.08400 37.09500
H  27.91300 54.08100 36.54000
H  33.29000 57.21100 40.11800
H  34.45900 58.13100 40.98900
H  33.53300 58.93600 39.75800
H  32.54300 62.76500 43.12300
H  34.08100 62.26900 43.95400
H  32.66300 61.57000 44.51000
H  28.45400 63.12500 43.67300
H  26.07600 62.25500 45.05700
H  29.70500 62.13600 45.62700
H  28.23700 61.38900 46.25000
H  28.46900 63.19600 46.25800
H  24.95200 62.95800 43.01300
H  26.54300 63.24700 42.27200
H  25.03700 65.17800 43.94300
H  26.58300 65.30400 43.09800
H  26.51600 64.80300 44.81100
H  22.29300 60.02700 42.75000
H  22.31000 58.91400 44.05200
H  21.48700 58.40300 42.70500
H  24.53600 55.28300 39.26100
H  22.89400 51.54100 39.71100
H  24.03200 51.24000 41.06600
H  24.56000 51.26400 39.33700

