158

Mg -1.30800 17.71500 25.98100
C  -1.92500 15.73400 28.60800
C  -2.03500 20.44700 28.05500
C  -0.76200 19.82300 23.41900
C  -1.40300 15.02700 23.87100
N  -1.79900 18.00400 28.12800
C  -1.89000 17.03900 29.03900
C  -2.18000 17.58000 30.43300
C  -2.57900 19.11600 30.14900
C  -2.14200 19.19800 28.68000
C  -4.09200 19.40200 30.22900
C  -1.09000 17.41600 31.41700
C  -1.50300 16.81400 32.76400
H  -0.23000 16.31300 33.51300
N  -1.17700 19.76400 25.81600
C  -1.55800 20.70900 26.76000
C  -1.36000 22.03100 26.20300
C  -0.82100 21.91600 24.90400
C  -0.82700 20.44300 24.66700
C  -1.61900 23.33400 26.94700
C  -0.44200 22.98300 23.92600
O  0.03600 22.75900 22.82600
C  -0.56900 24.39900 24.27300
N  -1.26100 17.44300 23.88900
C  -0.98100 18.45800 23.06500
C  -0.85200 17.89700 21.55900
C  -0.71600 16.34900 21.78900
C  -1.14500 16.23800 23.28700
C  -1.95300 18.36300 20.57400
C  0.62900 15.68200 21.35900
C  1.72000 15.70200 22.42200
N  -1.61000 15.76300 26.15400
C  -1.65700 14.77900 25.19600
C  -1.85800 13.52400 25.87200
C  -1.92200 13.84700 27.21800
C  -1.86400 15.20400 27.29700
C  -1.96300 12.22200 25.19500
C  -2.07000 13.31200 28.47000
O  -2.17500 12.07500 28.72600
C  -2.31300 14.50400 29.40600
C  -1.64700 14.12200 30.63500
O  -0.47400 14.19600 30.90000
O  -2.63200 13.50800 31.43300
C  -2.19100 12.95200 32.69300
H  -2.29900 21.29000 28.69600
H  -0.72400 20.52100 22.58000
H  -1.22100 14.16300 23.22900
H  -2.98300 16.95300 30.82000
H  -2.11000 19.81400 30.84200
H  -4.38400 20.25500 29.61600
H  -4.40100 19.61700 31.25200
H  -4.62700 18.56000 29.79000
H  -0.66300 18.38400 31.67600
H  -0.26800 16.84100 30.99100
H  -2.28000 16.07200 32.58400
H  -1.89900 17.66500 33.31900
H  -0.70700 23.89300 27.16100
H  -2.14900 23.17500 27.88600
H  -2.29800 23.95600 26.36400
H  0.03400 24.46200 25.17800
H  -1.59600 24.74500 24.38300
H  -0.15200 25.04400 23.50000
H  0.14400 18.16000 21.20200
H  -1.51400 15.78500 21.30500
H  -2.57000 18.95400 21.25100
H  -2.60600 17.58800 20.17100
H  -1.54500 19.04600 19.82900
H  1.16400 16.05600 20.48600
H  0.44900 14.65400 21.04500
H  1.56900 16.42600 23.22200
H  2.67100 15.94100 21.94600
H  1.80800 14.69500 22.83200
H  -1.66800 11.41600 25.86700
H  -1.32400 12.32700 24.31800
H  -2.98800 12.06900 24.85500
H  -3.38400 14.62200 29.57500
H  -3.05300 12.45000 33.13400
H  -1.86100 13.82200 33.26100
H  -1.29600 12.33100 32.66000
Mg 16.59200 -2.42800 28.86700
C  15.50000 -0.41500 31.50400
C  18.37500 -4.24500 31.01900
C  17.59500 -4.20000 26.25300
C  14.95100 -0.20200 26.64700
N  17.01600 -2.20900 31.01500
C  16.40900 -1.36800 31.95600
C  16.93500 -1.59400 33.39900
C  17.89000 -2.82500 33.09800
C  17.71800 -3.16700 31.60300
C  19.35900 -2.57900 33.63800
C  15.84600 -1.84300 34.47800
C  15.94300 -0.89700 35.70400
H  17.32800 -0.37100 36.13200
N  17.82600 -4.11200 28.63500
C  18.49000 -4.67400 29.66000
C  19.11800 -5.90300 29.19300
C  19.01800 -5.87900 27.73600
C  18.15100 -4.69900 27.46100
C  19.87800 -6.86300 30.07300
C  19.61500 -6.78800 26.71600
O  19.29500 -6.65900 25.55100
C  20.51200 -7.87600 27.03600
N  16.31400 -2.23700 26.76300
C  16.76300 -3.10000 25.89300
C  16.36700 -2.70300 24.40200
C  15.29600 -1.63100 24.65900
C  15.50200 -1.33900 26.08500
C  17.49400 -2.36400 23.48800
C  13.84600 -2.10100 24.37100
C  13.60400 -2.42900 22.89900
N  15.48500 -0.65600 28.96200
C  14.93900 0.20800 27.98600
C  14.11400 1.32400 28.61100
C  14.25800 1.05200 29.97200
C  15.15500 -0.11500 30.13300
C  13.19400 2.30400 28.02400
C  13.85900 1.48000 31.31600
O  13.00300 2.28600 31.69100
C  14.84100 0.64600 32.34400
C  15.69700 1.58900 33.02300
O  16.94800 1.65500 32.88600
O  15.01200 2.33500 33.93900
C  15.85400 3.27600 34.68700
H  18.94300 -4.87800 31.70400
H  18.08000 -4.65400 25.38600
H  14.43800 0.36300 25.86700
H  17.57100 -0.73600 33.61400
H  17.73000 -3.70500 33.72200
H  20.09900 -2.88800 32.90000
H  19.47900 -3.26800 34.47300
H  19.58700 -1.57500 33.99700
H  15.78000 -2.85800 34.87000
H  14.92200 -1.74400 33.90700
H  15.49500 -1.47100 36.51500
H  15.35100 0.01100 35.59000
H  19.34200 -6.82100 31.02100
H  20.86900 -6.43100 30.21400
H  19.99500 -7.93300 29.90500
H  21.29400 -7.40800 27.63400
H  20.91000 -8.26900 26.10100
H  20.05300 -8.66600 27.63000
H  15.79000 -3.47500 23.89200
H  15.46600 -0.66700 24.18000
H  18.36600 -2.31300 24.14100
H  17.34000 -1.40700 22.99100
H  17.64900 -3.12800 22.72700
H  13.13400 -1.31700 24.62900
H  13.44700 -2.92200 24.96700
H  12.77300 -1.87000 22.47000
H  13.30600 -3.47200 22.79300
H  14.47400 -2.27900 22.26000
H  12.21900 1.81900 27.96600
H  13.39800 2.66000 27.01500
H  13.30200 3.17100 28.67600
H  14.23500 0.16700 33.11200
H  15.83400 4.21400 34.13300
H  16.88300 3.01200 34.93000
H  15.33000 3.37600 35.63700

