158

Mg 48.94100 45.36800 42.86900
C  45.46600 45.71800 41.95000
C  48.85900 42.28900 41.42100
C  52.28900 45.50400 42.79700
C  48.78200 48.61500 43.94100
N  47.33200 44.26000 41.66000
C  46.01700 44.51200 41.48600
C  45.38500 43.36800 40.65500
C  46.34200 42.21300 40.92000
C  47.58400 42.97000 41.38600
C  45.96200 41.07600 41.92400
C  45.24100 43.89900 39.12900
C  43.99400 43.29900 38.39600
H  43.87800 43.43000 36.86000
N  50.38400 43.93900 42.36200
C  50.11200 42.78700 41.74800
C  51.37000 42.11900 41.47400
C  52.37100 43.10200 41.71400
C  51.69700 44.28300 42.33400
C  51.49700 40.65200 41.07100
C  53.87600 42.90100 41.42800
O  54.26700 41.87700 40.91000
C  54.91600 43.92500 41.80600
N  50.34400 46.82800 43.15700
C  51.67200 46.64000 43.26900
C  52.44000 47.93000 43.74600
C  51.29000 48.85500 44.28600
C  50.03600 48.07300 43.75600
C  53.65000 47.68200 44.73600
C  51.43300 50.42000 43.88900
C  51.64300 51.34700 45.02900
N  47.38400 46.88700 43.00200
C  47.54200 48.19000 43.46100
C  46.30000 48.83600 43.35700
C  45.40400 47.90700 42.81200
C  46.15200 46.75400 42.51600
C  46.14300 50.28000 43.92000
C  44.03300 47.66800 42.42500
O  43.06600 48.42000 42.52200
C  44.03600 46.13800 41.79800
C  43.01600 45.29700 42.53000
O  42.42800 44.33500 42.04900
O  42.78800 45.82900 43.77000
C  41.67400 45.10300 44.48100
H  48.87100 41.29300 40.97600
H  53.37600 45.59500 42.75600
H  48.90000 49.64600 44.28000
H  44.37000 43.12200 40.96500
H  46.65700 41.71400 40.00400
H  45.62300 40.16200 41.43700
H  45.12700 41.32200 42.58100
H  46.80700 40.83300 42.56700
H  46.14000 43.86400 38.51400
H  45.07100 44.97500 39.09300
H  43.09200 43.74300 38.81700
H  43.92300 42.23900 38.64100
H  51.76300 40.45400 40.03300
H  50.53800 40.19500 41.31700
H  52.25800 40.34200 41.78700
H  54.61800 44.72300 41.12600
H  55.88600 43.50900 41.53400
H  54.96400 44.13300 42.87500
H  52.86600 48.44300 42.88300
H  51.23400 48.83500 45.37400
H  54.60500 47.83300 44.23200
H  53.62000 46.66100 45.11500
H  53.59200 48.34800 45.59700
H  50.56600 50.67600 43.27900
H  52.27100 50.57000 43.20900
H  50.77300 52.00300 45.02700
H  52.42700 52.04100 44.72600
H  51.81600 50.91400 46.01400
H  46.85700 50.85500 43.33000
H  46.50100 50.37700 44.94500
H  45.13700 50.68300 43.80000
H  43.63400 46.18000 40.78600
H  40.74300 45.66700 44.44000
H  41.96000 45.00000 45.52800
H  41.40700 44.09200 44.17200
Mg -11.51900 38.62300 41.97400
C  -9.38200 35.95600 40.89500
C  -9.51400 40.71100 40.20900
C  -13.75000 41.03100 42.40600
C  -13.74300 36.16800 42.96100
N  -9.74300 38.30500 40.61300
C  -8.96900 37.20300 40.48500
C  -7.70100 37.57500 39.64600
C  -7.66600 39.08900 39.57700
C  -9.01300 39.45300 40.18600
C  -6.48200 39.85400 40.29600
C  -7.67600 36.89500 38.22400
C  -6.45000 35.97600 37.93900
H  -5.48400 36.61100 36.94500
N  -11.57700 40.67400 41.54000
C  -10.62300 41.32300 40.76200
C  -11.06400 42.71000 40.60200
C  -12.24300 42.90800 41.38100
C  -12.58200 41.55000 41.88500
C  -10.37500 43.75200 39.78700
C  -12.95500 44.20900 41.47800
O  -12.54300 45.29900 41.02300
C  -14.16600 44.25100 42.37100
N  -13.63800 38.49700 42.38400
C  -14.20800 39.71800 42.71300
C  -15.60500 39.46300 43.30300
C  -15.63000 37.89600 43.40800
C  -14.26100 37.46000 42.89300
C  -15.93800 40.30100 44.60300
C  -16.81300 37.21400 42.61600
C  -17.97100 36.72200 43.52300
N  -11.56500 36.45300 41.94800
C  -12.51600 35.67200 42.55800
C  -12.02300 34.24000 42.63500
C  -10.83300 34.37500 41.90100
C  -10.61700 35.65900 41.52300
C  -12.58100 33.09300 43.41900
C  -9.64800 33.63200 41.43300
O  -9.39500 32.42100 41.56900
C  -8.70700 34.63700 40.71200
C  -7.45700 34.44800 41.42900
O  -7.28800 34.72300 42.63800
O  -6.43200 33.91700 40.75200
C  -5.08600 33.68900 41.30200
H  -8.94800 41.39600 39.57400
H  -14.58800 41.73100 42.38900
H  -14.33200 35.47300 43.56200
H  -6.88400 37.18400 40.25300
H  -7.58700 39.46900 38.55800
H  -5.61400 39.19400 40.30200
H  -6.77500 39.97800 41.33800
H  -6.17500 40.82500 39.90800
H  -7.83400 37.67400 37.47800
H  -8.47700 36.16000 38.14600
H  -6.75300 34.97200 37.64200
H  -5.71600 35.82500 38.73100
H  -11.12200 44.37100 39.29000
H  -9.80500 43.17600 39.05800
H  -9.82600 44.39700 40.47300
H  -14.99300 43.68500 41.94300
H  -14.62400 45.24000 42.35300
H  -13.96100 43.91800 43.38800
H  -16.40900 39.78900 42.64300
H  -15.73000 37.65300 44.46600
H  -15.05800 40.32600 45.24500
H  -16.69100 39.75000 45.16600
H  -16.04400 41.35500 44.34600
H  -16.51300 36.36200 42.00500
H  -17.29000 37.90500 41.92100
H  -18.73500 37.45500 43.78200
H  -17.58800 36.31100 44.45700
H  -18.54900 35.90800 43.08500
H  -13.64500 33.24700 43.59800
H  -12.06400 32.75800 44.31800
H  -12.53800 32.27500 42.69900
H  -8.69200 34.22700 39.70200
H  -4.78800 34.41800 42.05600
H  -4.35300 33.63400 40.49700
H  -5.02900 32.72200 41.80300

