158

Mg 8.25000 2.88400 27.88100
C  9.66400 1.48400 30.73700
C  6.39000 4.94400 29.96300
C  6.71400 4.04900 25.18800
C  9.88400 0.40900 25.93700
N  7.93800 3.09600 30.18600
C  8.77100 2.52300 31.08000
C  8.49600 3.14200 32.49000
C  7.43600 4.24700 32.25100
C  7.23900 4.14500 30.70600
C  6.05900 4.21200 33.00800
C  9.71800 3.80000 33.16800
C  10.03600 3.29700 34.62600
H  10.56900 4.25100 35.67800
N  6.66300 4.20500 27.62400
C  6.08200 4.97900 28.61100
C  5.16000 5.81200 27.94800
C  5.16500 5.57600 26.54800
C  6.14800 4.56300 26.40200
C  4.39300 6.91400 28.68200
C  4.52600 6.39800 25.45300
O  4.78100 6.31600 24.27200
C  3.28300 7.26500 25.69300
N  8.22200 2.26600 25.85700
C  7.70800 3.08500 24.91700
C  8.15800 2.80500 23.51700
C  9.09100 1.58000 23.71100
C  8.99700 1.28800 25.25900
C  6.98500 2.67600 22.57100
C  10.51100 1.83300 23.23900
C  11.61300 2.32800 24.17100
N  9.41700 1.25100 28.22600
C  10.02200 0.34100 27.31800
C  10.71100 -0.64600 28.05700
C  10.63600 -0.24200 29.39700
C  9.93900 0.98000 29.42000
C  11.32800 -1.84000 27.47800
C  11.20500 -0.47800 30.74800
O  11.96500 -1.39800 31.10600
C  10.61700 0.73600 31.66000
C  9.97300 0.19500 32.90500
O  8.84800 -0.27600 32.93100
O  10.76600 0.27800 34.01500
C  10.21200 -0.40800 35.24700
H  5.90800 5.72700 30.55200
H  6.37700 4.54200 24.27400
H  10.35600 -0.22700 25.18500
H  7.95800 2.39100 33.07000
H  7.92300 5.22000 32.31600
H  5.17800 4.04400 32.38900
H  5.91900 5.17900 33.49100
H  6.08600 3.56300 33.88300
H  9.71400 4.88500 33.06400
H  10.58200 3.46600 32.59400
H  10.77600 2.50000 34.54200
H  9.08500 2.87800 34.95300
H  4.88500 7.84200 28.38900
H  4.41800 6.79600 29.76500
H  3.38300 6.77100 28.30000
H  2.67100 7.14600 24.79900
H  3.57100 8.31600 25.65900
H  2.60600 7.05400 26.52100
H  8.78100 3.61500 23.13700
H  8.71000 0.71000 23.17600
H  7.08600 3.40300 21.76500
H  5.95900 2.77500 22.92600
H  6.96000 1.71200 22.06200
H  10.41600 2.55700 22.43000
H  10.92900 0.87400 22.93100
H  11.27800 2.83800 25.07400
H  12.33100 3.01700 23.72700
H  12.24500 1.50900 24.51500
H  11.77900 -1.66300 26.50200
H  10.60600 -2.65700 27.45600
H  12.10700 -2.16100 28.17000
H  11.45600 1.41400 31.81900
H  11.02500 -0.82800 35.83700
H  9.52500 -1.23500 35.06700
H  9.68100 0.21500 35.96700
Mg 6.19700 53.62600 40.97100
C  5.27200 50.26400 40.37500
C  9.36800 52.92100 39.87500
C  6.90800 56.88700 41.07400
C  2.83700 54.33700 41.84100
N  7.17400 51.70300 40.02100
C  6.67200 50.39000 40.02400
C  7.79700 49.43600 39.76600
C  9.11000 50.39400 39.99700
C  8.52200 51.76600 39.85300
C  9.79100 50.22600 41.33000
C  7.88300 48.68000 38.43600
C  8.00200 49.58200 37.18800
H  6.93700 49.32500 36.06800
N  7.93800 54.76000 40.66000
C  9.11900 54.26400 40.14000
C  10.08900 55.36000 40.16000
C  9.41600 56.59800 40.46800
C  8.00000 56.11700 40.76300
C  11.56800 55.25400 40.05700
C  9.99600 57.98300 40.52700
O  11.10400 58.19500 40.05400
C  9.27400 59.26400 40.97200
N  4.98300 55.40000 41.27800
C  5.56900 56.66100 41.27400
C  4.44500 57.75100 41.31100
C  3.20500 56.93600 41.94300
C  3.64600 55.44800 41.62200
C  4.75000 59.08500 42.00600
C  1.86900 57.38800 41.19100
C  1.49500 56.95700 39.82200
N  4.31500 52.57900 41.04300
C  3.13600 52.95800 41.57100
C  2.22700 51.74300 41.59900
C  3.06700 50.71500 41.13500
C  4.29500 51.24300 40.79500
C  0.75300 51.78000 41.78400
C  3.06200 49.32700 40.81900
O  2.21400 48.44400 40.94900
C  4.50000 48.97500 40.43900
C  4.32900 48.29000 39.10800
O  3.66800 48.68800 38.16800
O  4.90300 47.06800 39.19200
C  4.71100 46.24400 38.03400
H  10.36600 52.65700 39.51800
H  7.08300 57.95400 41.22800
H  1.85200 54.48600 42.28800
H  7.94000 48.79900 40.63900
H  9.84400 50.17400 39.22200
H  9.47000 49.31100 41.82900
H  9.72400 51.13000 41.93500
H  10.82400 50.17400 40.98700
H  7.05700 47.97200 38.36200
H  8.74700 48.01800 38.38800
H  8.99400 49.53200 36.74000
H  7.82200 50.60700 37.51300
H  12.13300 55.91700 40.71200
H  11.95500 55.23500 39.03800
H  11.80700 54.21000 40.26300
H  10.06800 59.97700 41.19100
H  8.75000 59.03000 41.89900
H  8.72900 59.45400 40.04800
H  4.22100 57.92000 40.25800
H  3.13000 57.09000 43.02000
H  5.05600 59.93800 41.40000
H  5.57900 58.96000 42.70200
H  3.86900 59.44100 42.54000
H  1.65700 58.44500 41.35300
H  1.00500 56.93900 41.68100
H  1.30900 57.85400 39.23000
H  0.67400 56.27300 39.60900
H  2.32400 56.37500 39.42000
H  0.39600 52.38900 40.95300
H  0.55700 52.28200 42.73100
H  0.39000 50.75700 41.69400
H  4.86900 48.39600 41.28500
H  5.23500 46.61500 37.15300
H  3.64200 46.14000 37.84500
H  5.04400 45.23300 38.26500

