158

Mg 16.36400 -1.19800 28.18500
C  15.16000 0.68200 30.79400
C  18.37300 -2.90500 30.42000
C  17.79400 -2.90800 25.61900
C  14.62600 0.80000 25.95400
N  16.72800 -1.08000 30.43700
C  16.12000 -0.17600 31.29800
C  16.58300 -0.42300 32.72900
C  17.85400 -1.38600 32.52400
C  17.55700 -1.93500 31.10400
C  19.21600 -0.70100 32.57300
C  15.51200 -1.13200 33.64300
C  15.37200 -0.45700 35.03000
H  16.57800 0.23400 35.63100
N  17.85200 -2.72000 28.01300
C  18.43300 -3.37000 29.08300
C  19.22000 -4.53800 28.63600
C  19.13100 -4.48300 27.22500
C  18.26700 -3.35200 26.87600
C  20.02900 -5.50200 29.46100
C  19.86000 -5.39300 26.20200
O  19.93200 -5.03800 25.05300
C  20.54100 -6.70600 26.65700
N  16.40500 -0.87800 26.12800
C  17.02200 -1.78700 25.33400
C  16.75100 -1.32900 23.83800
C  15.52200 -0.45100 23.97400
C  15.50900 -0.21900 25.43900
C  17.96700 -0.56700 23.27900
C  14.23700 -1.14800 23.43600
C  13.79100 -0.73800 21.99700
N  15.15400 0.48900 28.32300
C  14.50100 1.19900 27.30400
C  13.62100 2.15900 27.90200
C  13.78700 2.00800 29.25400
C  14.82900 1.07300 29.46500
C  12.91200 3.19400 27.22300
C  13.45100 2.51600 30.59500
O  12.61500 3.36800 30.92300
C  14.31500 1.60500 31.64700
C  15.16900 2.50800 32.56100
O  16.30800 2.94400 32.18900
O  14.49100 2.81900 33.68400
C  15.02400 3.92200 34.46200
H  18.85500 -3.46700 31.22300
H  18.12400 -3.44000 24.72500
H  14.02800 1.18300 25.12400
H  16.95500 0.50500 33.16500
H  17.83700 -2.20500 33.24200
H  19.65300 -0.84200 31.58400
H  19.86700 -1.21800 33.27700
H  19.00700 0.33600 32.83500
H  15.59800 -2.21700 33.69700
H  14.53300 -1.01300 33.18000
H  15.05400 -1.25400 35.70100
H  14.64500 0.35500 35.02200
H  19.58000 -6.46800 29.22900
H  19.96900 -5.23300 30.51500
H  21.03400 -5.52500 29.04000
H  21.53000 -6.59600 27.10300
H  20.69100 -7.28800 25.74800
H  19.83200 -7.14600 27.35900
H  16.59200 -2.21900 23.23000
H  15.61600 0.56700 23.59500
H  18.80800 -0.40800 23.95300
H  17.65500 0.42200 22.94100
H  18.38500 -1.24000 22.53000
H  13.48000 -0.81800 24.14700
H  14.34900 -2.23200 23.47000
H  12.70300 -0.70400 21.95700
H  14.22300 -1.35400 21.20800
H  14.24800 0.24600 21.88800
H  13.00800 3.25500 26.13900
H  13.34300 4.13000 27.57800
H  11.84800 3.19900 27.45900
H  13.63400 1.08200 32.31900
H  14.81000 4.86700 33.96300
H  16.08800 3.79200 34.66200
H  14.60400 3.96400 35.46700
Mg 1.12300 42.07900 26.31800
C  2.72300 41.91800 29.38000
C  -1.76100 41.01600 27.63900
C  -0.14400 41.63200 23.14300
C  4.20000 43.28600 24.88500
N  0.62400 41.37000 28.25600
C  1.37900 41.54700 29.39800
C  0.47300 41.34100 30.62200
C  -0.98800 41.07800 30.05000
C  -0.72500 41.24200 28.54200
C  -1.61600 39.72000 30.54300
C  0.50100 42.49300 31.65400
C  0.94000 42.25500 33.10800
H  -0.07700 42.47700 34.28100
N  -0.66900 41.40500 25.60200
C  -1.74500 40.88600 26.28700
C  -2.75700 40.55100 25.34300
C  -2.31400 40.80000 24.05900
C  -0.94000 41.24600 24.19700
C  -4.06800 39.99000 25.82500
C  -3.09000 40.78600 22.69900
O  -2.65100 40.90000 21.57800
C  -4.65500 40.59900 22.78300
N  1.83300 42.40100 24.35700
C  1.13800 42.12600 23.19700
C  2.00100 42.55400 21.91900
C  3.31200 43.17000 22.64100
C  3.05600 42.96400 24.09100
C  2.28300 41.44300 20.82900
C  3.60600 44.61900 22.11000
C  3.56400 44.87000 20.58900
N  3.03200 42.49300 26.93700
C  4.14700 42.93200 26.24700
C  5.28400 43.00200 27.14800
C  4.71900 42.68100 28.36100
C  3.41100 42.26300 28.18600
C  6.62400 43.48100 26.91900
C  5.04000 42.50600 29.78700
O  6.14000 42.76700 30.33700
C  3.75100 42.03300 30.54000
C  4.00800 40.76000 31.26600
O  4.43000 39.69700 30.86000
O  3.94000 41.06800 32.56100
C  3.86200 39.90100 33.48500
H  -2.64800 40.81500 28.24400
H  -0.48100 41.41200 22.12800
H  5.12500 43.59500 24.39400
H  0.88500 40.42400 31.04200
H  -1.66200 41.88900 30.32700
H  -1.17200 39.37600 31.47700
H  -1.39000 38.93900 29.81700
H  -2.70000 39.76100 30.64200
H  -0.43100 43.05500 31.71000
H  1.14800 43.32000 31.36200
H  1.65300 43.04800 33.33300
H  1.34100 41.24300 33.17500
H  -4.67000 39.52700 25.04400
H  -4.67700 40.81400 26.19700
H  -3.95200 39.20900 26.57700
H  -5.05400 41.20600 23.59600
H  -4.89400 39.54100 22.89100
H  -5.10300 41.01100 21.87900
H  1.38000 43.36900 21.54700
H  4.25000 42.65500 22.43200
H  2.18000 40.39100 21.09400
H  3.23100 41.62700 20.32300
H  1.49600 41.49300 20.07700
H  4.63500 44.83300 22.40100
H  2.98000 45.27100 22.71900
H  4.28300 44.23600 20.07000
H  4.00900 45.82600 20.31400
H  2.57900 44.87300 20.12200
H  6.58000 44.56800 26.98200
H  6.89600 43.18500 25.90600
H  7.21900 43.05200 27.72500
H  3.48600 42.79400 31.27500
H  3.22900 40.35900 34.24500
H  4.81100 39.74700 33.99900
H  3.30800 39.04600 33.09800

