158

Mg 48.33300 34.64900 27.17900
C  46.33200 33.33800 29.63700
C  48.90800 37.47600 29.06400
C  50.08400 35.91100 24.52600
C  47.32600 31.89200 25.04200
N  47.82700 35.22800 29.11900
C  47.05700 34.47900 30.07100
C  47.06900 35.13000 31.43700
C  47.38900 36.63000 31.00100
C  48.14300 36.51400 29.66700
C  46.25800 37.65400 30.97000
C  48.07600 34.53100 32.40600
C  47.67500 34.53600 33.91600
H  46.68200 35.62000 34.51700
N  49.50300 36.38700 26.90900
C  49.61500 37.38800 27.85800
C  50.60500 38.37900 27.34000
C  50.97000 37.94500 25.99800
C  50.18200 36.71300 25.72300
C  51.05100 39.50700 28.10900
C  51.87700 38.61500 24.95800
O  52.06200 38.13800 23.85200
C  52.70300 39.80600 25.34600
N  48.53800 34.08300 24.97700
C  49.35900 34.74400 24.12000
C  49.43000 34.03600 22.79300
C  48.62000 32.75700 23.02500
C  48.04200 32.93100 24.44400
C  49.09800 34.89200 21.60900
C  49.39300 31.41200 22.84800
C  49.39100 30.96100 21.41900
N  47.08900 32.98000 27.21800
C  46.85500 31.95700 26.38400
C  46.02400 31.02700 27.03600
C  45.63700 31.59700 28.23900
C  46.42300 32.71100 28.34800
C  45.37700 29.81900 26.39900
C  44.84800 31.41800 29.43300
O  43.91000 30.62100 29.60200
C  45.18700 32.62400 30.37200
C  45.52500 32.10700 31.66600
O  46.22100 31.09700 31.75200
O  44.70700 32.63300 32.63900
C  44.46400 31.85000 33.82700
H  48.94700 38.43100 29.59300
H  50.72100 36.24600 23.70500
H  47.07200 30.92300 24.60800
H  46.12100 35.27900 31.95300
H  48.20100 37.12400 31.53300
H  46.07900 38.06900 29.97800
H  46.60700 38.51900 31.53300
H  45.28100 37.32600 31.32400
H  49.06600 34.91000 32.14800
H  48.02700 33.47800 32.12800
H  48.55300 34.60000 34.55800
H  47.31400 33.57600 34.28500
H  50.35000 39.81700 28.88400
H  51.28500 40.40500 27.53600
H  51.95600 39.15500 28.60500
H  53.25000 39.58000 26.26100
H  52.14100 40.70200 25.61000
H  53.35800 39.96800 24.49000
H  50.49500 33.83000 22.68800
H  47.79700 32.83700 22.31600
H  48.52000 35.75200 21.95000
H  48.62500 34.28900 20.83400
H  50.05000 35.22200 21.19300
H  48.95900 30.63800 23.47900
H  50.41900 31.56500 23.18100
H  49.12800 31.78100 20.75100
H  48.73800 30.09500 21.30400
H  50.40800 30.59700 21.27300
H  46.06700 29.09400 25.96800
H  44.80800 30.06800 25.50400
H  44.64800 29.34300 27.05500
H  44.40000 33.37700 30.34100
H  43.85100 32.55400 34.38900
H  45.32000 31.52800 34.42000
H  43.81400 31.01400 33.56800
Mg -1.86300 35.01000 27.31900
C  -3.48600 33.17900 29.94800
C  -0.43100 36.97200 29.64400
C  -0.52500 36.59700 24.89500
C  -3.57700 32.69300 24.98800
N  -2.01800 35.07700 29.56000
C  -2.73900 34.28600 30.43200
C  -2.54400 34.71100 31.90600
C  -1.76500 36.10700 31.70700
C  -1.33900 36.02500 30.19800
C  -2.63200 37.43100 31.99800
C  -1.70600 33.56200 32.64900
C  -2.28000 32.92300 33.86800
H  -1.35600 32.86200 35.10600
N  -0.70900 36.57500 27.31400
C  -0.11200 37.32200 28.31200
C  0.76600 38.25500 27.82300
C  0.63900 38.20100 26.44000
C  -0.27300 37.13200 26.11600
C  1.58300 39.16000 28.73300
C  1.30200 39.10100 25.32600
O  0.96000 39.08900 24.17400
C  2.32100 40.19400 25.80300
N  -2.23500 34.82700 25.27200
C  -1.37100 35.56900 24.48000
C  -1.40800 35.14900 22.98600
C  -2.31000 33.96300 23.00800
C  -2.76700 33.81300 24.53600
C  -1.83300 36.30400 22.10700
C  -1.64700 32.66000 22.37900
C  -0.37700 32.00700 22.96200
N  -3.23600 33.23300 27.39600
C  -3.84800 32.50700 26.40400
C  -4.64200 31.42800 27.00900
C  -4.61600 31.66600 28.40400
C  -3.72800 32.79600 28.57400
C  -5.42300 30.43500 26.22900
C  -5.05800 31.29100 29.70800
O  -5.76400 30.38900 29.96200
C  -4.43800 32.28100 30.75000
C  -5.44900 33.03800 31.58300
O  -6.00300 34.05700 31.22200
O  -5.51600 32.44300 32.84600
C  -6.44700 33.11700 33.73300
H  0.06100 37.64400 30.35100
H  -0.01500 36.91200 23.98200
H  -3.85100 31.98300 24.20500
H  -3.53700 34.84500 32.33400
H  -0.92800 36.15700 32.40400
H  -3.69000 37.34800 31.74800
H  -2.11900 38.24400 31.48500
H  -2.59200 37.68600 33.05700
H  -0.78200 33.99100 33.03500
H  -1.40900 32.80600 31.92200
H  -2.52600 31.87300 33.71000
H  -3.11500 33.55700 34.16600
H  2.61400 39.19900 28.38200
H  1.55600 38.95100 29.80300
H  1.23600 40.18800 28.62700
H  1.69600 40.86300 26.39400
H  2.74300 40.85400 25.04600
H  3.15800 39.67700 26.27200
H  -0.41400 34.84900 22.65400
H  -3.12800 34.22700 22.33800
H  -0.98100 36.86800 21.72800
H  -2.52200 36.89400 22.71000
H  -2.35300 36.00600 21.19700
H  -1.51900 32.74500 21.30000
H  -2.45500 31.93600 22.48800
H  -0.29800 32.45600 23.95300
H  0.43100 32.25200 22.27300
H  -0.43700 30.92400 23.07000
H  -5.03600 29.42500 26.36400
H  -5.24400 30.62200 25.17000
H  -6.49700 30.50900 26.39900
H  -3.95100 31.66300 31.50500
H  -7.11300 33.77700 33.17700
H  -5.98800 33.58300 34.60500
H  -7.14700 32.36700 34.09900

