158

Mg 44.41700 4.98400 48.00700
C  42.28100 7.81000 47.60700
C  41.72700 2.94500 47.52700
C  46.52800 2.39000 47.79200
C  47.16400 7.25300 48.12800
N  42.21300 5.40200 47.63900
C  41.52400 6.57000 47.58200
C  40.03800 6.40100 47.31500
C  39.93700 4.85700 47.72700
C  41.37500 4.28700 47.61700
C  39.34800 4.48500 49.04000
C  39.46300 7.11400 46.01400
C  38.40900 6.20900 45.32500
H  37.84800 6.64900 43.89800
N  44.14700 2.90600 47.76200
C  42.95900 2.28900 47.50600
C  43.25700 0.93600 47.28100
C  44.66800 0.71900 47.32800
C  45.19600 2.08700 47.68600
C  42.13600 -0.10000 47.11800
C  45.26400 -0.65100 47.15900
O  44.55300 -1.67100 46.98400
C  46.79300 -0.87000 47.24400
N  46.64400 4.82500 47.85200
C  47.22800 3.64000 47.94400
C  48.76100 3.75700 47.95400
C  48.92800 5.35600 47.97300
C  47.48700 5.83800 48.00800
C  49.49200 3.04300 49.10100
C  49.93000 5.89300 47.01400
C  50.94800 6.87900 47.64600
N  44.77700 7.07500 47.88000
C  45.85600 7.81900 47.97400
C  45.54900 9.19300 47.73700
C  44.19600 9.22900 47.64400
C  43.69200 7.95300 47.71900
C  46.57800 10.34200 47.43100
C  43.06000 10.14300 47.56700
O  43.03700 11.34900 47.59700
C  41.75800 9.22200 47.52700
C  40.86300 9.57500 48.64800
O  40.91500 9.09500 49.79900
O  39.93400 10.50000 48.27200
C  38.80200 10.82200 49.14900
H  40.94900 2.18900 47.40600
H  47.16100 1.50700 47.90300
H  48.04000 7.87500 47.93200
H  39.52700 6.99100 48.07500
H  39.33400 4.31700 46.99700
H  38.50300 3.80800 48.91700
H  38.98500 5.33000 49.62500
H  40.10800 4.04700 49.68600
H  40.27300 7.19800 45.28900
H  39.06000 8.06400 46.36600
H  37.61600 5.93100 46.02000
H  38.97400 5.30100 45.11500
H  42.08100 -0.38700 46.06800
H  41.16100 0.32000 47.36600
H  42.36400 -0.87200 47.85300
H  47.04600 -1.85900 46.86200
H  46.89800 -0.74400 48.32200
H  47.33800 -0.18100 46.59800
H  49.02900 3.37200 46.97000
H  49.35400 5.65200 48.93100
H  48.71000 2.78600 49.81500
H  50.28100 3.62300 49.58000
H  49.80100 2.11800 48.61500
H  49.45500 6.28200 46.11400
H  50.44300 5.01400 46.62300
H  50.69700 7.22400 48.64900
H  50.99600 7.85300 47.15900
H  51.95500 6.46900 47.71600
H  47.56000 10.21600 47.88700
H  46.20200 11.25300 47.89700
H  46.67600 10.57900 46.37200
H  41.16100 9.46100 46.64700
H  38.56600 11.88500 49.10000
H  38.87100 10.53700 50.19900
H  37.95200 10.28700 48.72700
Mg -5.48900 24.51800 27.04300
C  -4.18900 26.12900 29.88400
C  -7.33200 22.44500 29.07500
C  -6.67700 23.03500 24.23900
C  -3.46500 26.56600 24.97200
N  -5.74000 24.37900 29.16800
C  -5.13700 25.15700 30.17100
C  -5.78700 24.77900 31.52900
C  -6.44900 23.43900 31.31800
C  -6.54400 23.34300 29.77000
C  -5.81100 22.20000 31.92700
C  -6.76800 25.93400 32.01800
C  -6.99200 26.22100 33.58800
H  -6.60400 25.21500 34.66900
N  -6.96900 23.06000 26.68800
C  -7.64400 22.38000 27.63500
C  -8.57500 21.49100 26.99200
C  -8.48500 21.72100 25.62000
C  -7.31600 22.61100 25.43100
C  -9.48200 20.55600 27.81700
C  -9.31900 21.05700 24.43600
O  -9.09700 21.31700 23.27800
C  -10.31800 19.99000 24.91500
N  -5.01400 24.64500 24.91200
C  -5.69400 23.89100 23.94000
C  -5.10600 24.20900 22.54700
C  -4.07900 25.42500 22.89100
C  -4.22100 25.61800 24.35600
C  -4.45000 23.01700 21.84600
C  -4.27600 26.69200 21.97500
C  -2.98200 27.26700 21.39500
N  -3.88600 25.91500 27.32600
C  -3.37300 26.82000 26.38800
C  -2.58700 27.82000 27.12100
C  -2.85800 27.56000 28.51000
C  -3.70900 26.39300 28.60700
C  -1.71300 28.94300 26.50900
C  -2.53800 28.06900 29.81800
O  -1.82100 28.95900 30.21900
C  -3.44400 27.16000 30.76800
C  -2.58700 26.50600 31.79600
O  -1.56200 25.90300 31.55900
O  -3.22800 26.68600 33.00000
C  -2.48700 26.11200 34.13700
H  -7.76700 21.63400 29.66400
H  -7.13400 22.56400 23.36700
H  -3.00800 27.40400 24.44200
H  -4.98100 24.68100 32.25700
H  -7.50100 23.39200 31.60000
H  -5.31300 22.54900 32.83200
H  -5.09100 21.86500 31.18100
H  -6.43600 21.33400 32.14600
H  -7.74500 25.62700 31.64500
H  -6.53000 26.94200 31.67900
H  -8.04600 26.48700 33.66700
H  -6.53500 27.19900 33.74000
H  -10.52300 20.52000 27.49500
H  -9.52400 20.80900 28.87700
H  -9.13200 19.52400 27.83800
H  -11.09700 20.49200 25.49000
H  -9.77200 19.20500 25.43900
H  -10.73000 19.56600 24.00000
H  -5.91800 24.64500 21.96500
H  -3.05100 25.07100 22.80300
H  -3.45900 23.33300 21.52000
H  -5.11800 22.65400 21.06500
H  -4.15900 22.22600 22.53700
H  -4.79100 27.47500 22.53200
H  -5.02300 26.56700 21.19100
H  -3.05300 27.58600 20.35500
H  -2.25200 26.45800 21.39600
H  -2.51800 28.04500 22.00100
H  -0.83500 28.60100 25.96100
H  -1.61600 29.65300 27.33000
H  -2.36800 29.42800 25.78500
H  -4.18500 27.72600 31.33300
H  -1.44300 26.42400 34.17700
H  -2.43300 25.03200 34.00300
H  -3.01600 26.30600 35.07100

