158

Mg 26.09500 1.24100 29.22300
C  28.01300 0.86900 32.13100
C  23.35500 1.75600 31.30900
C  24.11700 1.62400 26.47000
C  28.66800 0.19800 27.31500
N  25.72000 1.23100 31.55000
C  26.74500 1.25000 32.52800
C  26.16500 1.47100 33.89100
C  24.58700 1.62400 33.58500
C  24.53100 1.53000 32.05000
C  23.51400 0.72300 34.29100
C  26.83600 2.66700 34.71800
C  27.23300 2.28000 36.12100
H  27.20300 3.27800 37.30700
N  24.05400 1.61500 28.96800
C  23.12300 1.88500 29.93500
C  21.84900 2.16600 29.33900
C  22.08900 2.18500 27.95100
C  23.48600 1.79200 27.73300
C  20.57600 2.39800 30.11700
C  21.10500 2.66000 26.89200
O  21.42700 2.93300 25.76100
C  19.61300 3.08400 27.24900
N  26.30900 1.03700 27.04900
C  25.43800 1.23700 26.10700
C  26.01800 1.15300 24.71300
C  27.59000 0.74500 24.97800
C  27.52800 0.63900 26.52000
C  25.31000 0.17100 23.68000
C  28.61800 1.80800 24.39400
C  29.72300 1.22400 23.48900
N  27.94300 0.71700 29.55900
C  28.97000 0.43800 28.69100
C  30.23000 0.25800 29.37900
C  29.92100 0.41000 30.74900
C  28.46700 0.66700 30.80300
C  31.54900 -0.01100 28.69000
C  30.44800 0.50600 32.08800
O  31.62100 0.40700 32.47700
C  29.21300 0.78600 32.99400
C  29.11800 -0.36200 33.92700
O  28.66600 -1.49000 33.65100
O  29.66800 0.07300 35.11900
C  29.61600 -0.95300 36.19100
H  22.55400 2.08400 31.97400
H  23.47400 1.79800 25.60500
H  29.47900 -0.20800 26.70700
H  26.18900 0.59900 34.54400
H  24.34600 2.66100 33.82200
H  22.96900 0.19400 33.50800
H  22.96300 1.41300 34.92900
H  24.00100 -0.03800 34.90100
H  26.15100 3.49000 34.92300
H  27.66200 3.03900 34.11100
H  28.30100 2.07300 36.05900
H  26.63200 1.44900 36.49100
H  20.28500 3.44800 30.14100
H  20.60400 2.12500 31.17200
H  19.67600 2.03200 29.62300
H  19.10200 2.13000 27.37500
H  19.15900 3.67200 26.45200
H  19.53600 3.67800 28.16000
H  25.98000 2.18300 24.35900
H  27.75900 -0.29500 24.69800
H  25.51200 -0.87500 23.91100
H  25.63100 0.35800 22.65500
H  24.22000 0.20400 23.66800
H  29.17200 2.21300 25.24100
H  28.20000 2.72100 23.97100
H  29.45400 0.19300 23.25700
H  30.73600 1.16300 23.88600
H  29.68200 1.82700 22.58200
H  31.52500 0.52200 27.74000
H  31.57800 -1.08700 28.52300
H  32.46200 0.32800 29.18000
H  29.43600 1.70500 33.53700
H  28.62700 -0.90700 36.64800
H  30.37900 -0.75900 36.94500
H  29.72500 -1.98200 35.84900
Mg 30.92000 58.23400 40.06000
C  28.15800 56.52400 38.87400
C  32.90700 55.59700 39.13500
C  33.52300 60.24200 40.47300
C  28.86100 61.19600 40.24800
N  30.59500 56.28900 38.97400
C  29.38100 55.74800 38.78200
C  29.48600 54.18300 38.45600
C  31.05700 53.87200 38.74500
C  31.61500 55.36400 38.96800
C  31.15300 52.92200 39.91500
C  29.00600 53.75300 37.01100
C  29.73100 54.53500 35.82700
H  28.75600 55.36300 34.96000
N  32.92400 57.93200 39.89900
C  33.53100 56.81900 39.52200
C  34.96200 57.03800 39.51200
C  35.20700 58.35900 39.87300
C  33.89300 58.90100 40.16600
C  36.05000 56.01800 39.29800
C  36.60300 59.01100 39.97900
O  37.58500 58.34000 39.67100
C  36.82900 60.35700 40.52400
N  31.14300 60.48600 40.37600
C  32.38000 60.99500 40.56500
C  32.31600 62.49900 40.95500
C  30.75900 62.80400 40.75200
C  30.19800 61.40600 40.53200
C  32.93500 62.89900 42.34500
C  30.39500 63.75000 39.58700
C  30.32600 65.26500 39.79300
N  28.88600 58.75300 39.83400
C  28.28700 59.95500 39.88000
C  26.92700 59.75200 39.66600
C  26.77700 58.42500 39.34500
C  28.04700 57.86400 39.28500
C  25.79300 60.78600 39.68400
C  25.86100 57.32500 38.94800
O  24.61600 57.28200 38.78900
C  26.74200 56.05800 38.77100
C  26.51800 54.94700 39.76000
O  27.17500 54.71200 40.79600
O  25.56100 54.06400 39.27200
C  25.21400 52.98500 40.20700
H  33.47300 54.66700 39.04100
H  34.40200 60.86000 40.66600
H  28.18600 62.05200 40.30800
H  28.89900 53.66700 39.21500
H  31.61000 53.41400 37.92600
H  30.19300 52.69200 40.37700
H  31.62600 53.49900 40.71000
H  31.67500 52.00100 39.65300
H  27.94100 53.77700 36.78000
H  29.34300 52.72400 36.88700
H  30.22700 53.83700 35.15300
H  30.37100 55.28600 36.29000
H  36.73600 56.35600 38.52100
H  35.72300 54.97900 39.25600
H  36.66700 56.04100 40.19600
H  36.31600 60.55000 41.46600
H  36.60000 61.04600 39.71100
H  37.89900 60.42300 40.72000
H  32.79500 63.16300 40.23600
H  30.38200 63.25200 41.67200
H  32.21400 62.98600 43.15800
H  33.62800 63.73400 42.24800
H  33.59100 62.07000 42.61000
H  29.48100 63.43500 39.08400
H  31.09300 63.53300 38.77900
H  29.50400 65.71200 39.23400
H  31.23600 65.73900 39.42400
H  30.06800 65.44900 40.83600
H  26.20700 61.75300 39.39800
H  25.38300 60.86300 40.69100
H  25.08500 60.45400 38.92500
H  26.55000 55.69300 37.76200
H  24.40600 53.36100 40.83500
H  26.05900 52.63900 40.80300
H  24.94500 52.17500 39.52900

