158

Mg 42.33600 41.43000 26.50600
C  41.71600 43.65100 29.13800
C  43.24900 38.95900 28.79200
C  43.23900 39.53600 23.90100
C  41.37800 43.95300 24.39600
N  42.53000 41.35500 28.72400
C  42.18400 42.39900 29.63900
C  42.13100 41.84300 31.07800
C  42.85900 40.47100 30.91700
C  42.82300 40.16700 29.39300
C  44.16000 40.34800 31.60600
C  40.67300 41.71600 31.62000
C  40.36000 42.81500 32.72600
H  39.79600 42.34700 34.08000
N  43.22000 39.51900 26.40900
C  43.44200 38.60700 27.41300
C  43.98100 37.38900 26.80700
C  43.95700 37.53700 25.36900
C  43.38000 38.86800 25.15300
C  44.38900 36.08700 27.63300
C  44.43000 36.66100 24.29000
O  44.36200 36.94200 23.10300
C  45.18800 35.42000 24.63500
N  42.50800 41.73500 24.41900
C  42.78300 40.78400 23.53400
C  42.56700 41.25400 22.06300
C  41.86600 42.59700 22.25900
C  41.94000 42.74900 23.74800
C  43.81300 41.15900 21.18400
C  40.41000 42.66200 21.75500
C  39.29900 42.06900 22.62000
N  41.64500 43.37000 26.69700
C  41.39900 44.32300 25.72200
C  40.97100 45.59100 26.31700
C  41.06500 45.36100 27.68300
C  41.52900 44.03400 27.83600
C  40.39300 46.81400 25.58500
C  40.75100 45.91500 28.92400
O  40.19900 46.94500 29.29800
C  41.16300 44.82100 29.97400
C  42.15900 45.38600 30.98000
O  43.37200 45.36900 30.87400
O  41.49300 45.75300 32.17200
C  42.30400 46.29800 33.22500
H  43.42000 38.17800 29.53500
H  43.47400 39.01300 22.97100
H  41.16500 44.76100 23.69300
H  42.64800 42.56100 31.71600
H  42.25300 39.72800 31.43500
H  44.50300 41.37200 31.75100
H  44.86900 39.91200 30.90300
H  44.11600 39.86500 32.58300
H  40.54100 40.75600 32.11800
H  39.96100 41.89300 30.81300
H  39.55500 43.38000 32.25600
H  41.18100 43.50200 32.92800
H  43.65700 35.29700 27.46300
H  44.25200 36.46800 28.64500
H  45.45100 35.86800 27.52100
H  44.50900 34.63400 24.96500
H  45.99800 35.67000 25.32000
H  45.70100 35.09300 23.73100
H  41.85300 40.52500 21.68000
H  42.43900 43.35300 21.72300
H  43.85200 42.13900 20.70800
H  43.67500 40.27600 20.55900
H  44.73100 41.07900 21.76700
H  40.39600 42.18400 20.77600
H  40.25800 43.73700 21.65900
H  39.09700 42.76900 23.43100
H  39.62200 41.19400 23.18400
H  38.42100 41.63300 22.14200
H  40.70000 46.79500 24.53900
H  40.81900 47.64800 26.14300
H  39.30600 46.88900 25.57100
H  40.34700 44.41100 30.56800
H  43.19300 46.85700 32.93100
H  42.61900 45.63200 34.02800
H  41.71200 47.11000 33.64700
Mg 6.69400 54.32700 41.97800
C  5.89200 50.97600 41.67300
C  9.85600 53.66400 40.71500
C  7.33100 57.65300 41.45500
C  3.40300 55.02300 42.88900
N  7.70000 52.57300 41.12600
C  7.23000 51.27000 41.25800
C  8.32900 50.22900 40.85600
C  9.65500 51.06700 41.01900
C  9.06800 52.52700 40.93700
C  10.55900 50.80000 42.32400
C  8.11400 49.62300 39.40900
C  7.78800 50.56000 38.21900
H  6.60200 50.21500 37.32500
N  8.36000 55.54400 41.12400
C  9.56000 55.03700 40.69700
C  10.44900 56.13000 40.36100
C  9.72700 57.33400 40.49500
C  8.41100 56.85000 41.01900
C  11.80700 55.97300 39.84700
C  10.31100 58.65800 40.09600
O  11.29500 58.76000 39.37700
C  9.57800 59.99800 40.48500
N  5.47000 56.01800 41.94600
C  6.00600 57.30700 41.93900
C  5.11400 58.34100 42.52900
C  3.77300 57.51900 42.71000
C  4.23000 56.06600 42.57100
C  5.62300 58.91600 43.89700
C  2.62100 57.98500 41.76800
C  1.42900 58.69900 42.43900
N  4.92100 53.31000 42.24200
C  3.72500 53.69400 42.61600
C  2.90300 52.49000 42.82500
C  3.69400 51.44100 42.48400
C  4.93900 51.96100 42.10600
C  1.41500 52.58500 43.27000
C  3.73400 50.00900 42.36200
O  2.80600 49.23300 42.42400
C  5.10200 49.64800 41.86900
C  4.89800 48.92300 40.63700
O  4.29700 49.32000 39.68100
O  5.46600 47.69500 40.75100
C  5.24900 46.68700 39.64500
H  10.88200 53.36400 40.49000
H  7.51200 58.71800 41.30000
H  2.38600 55.20400 43.24500
H  8.44500 49.41500 41.57200
H  10.32300 50.88400 40.17800
H  10.53200 51.63300 43.02800
H  11.60700 50.64600 42.06600
H  10.19700 49.92100 42.85700
H  7.38000 48.81800 39.45300
H  9.10600 49.24500 39.16000
H  8.72600 50.56200 37.66500
H  7.73800 51.62300 38.45800
H  11.76700 55.06500 39.24500
H  12.45200 55.77600 40.70300
H  12.42400 56.60300 39.20600
H  8.69900 60.05200 39.84200
H  10.27200 60.80600 40.25800
H  9.36600 59.90800 41.55000
H  5.02500 59.02000 41.68100
H  3.27300 57.62500 43.67300
H  6.51500 58.32900 44.11500
H  4.87200 58.81300 44.67900
H  5.94600 59.95700 43.92800
H  2.13900 57.08000 41.39800
H  3.03600 58.49800 40.90000
H  1.69800 59.02700 43.44300
H  0.53000 58.10600 42.26400
H  1.33000 59.61700 41.86000
H  0.76400 53.01700 42.51100
H  1.22800 52.97600 44.27100
H  1.06400 51.55500 43.34300
H  5.60000 49.05500 42.63600
H  4.21100 46.38600 39.50600
H  5.70400 45.71900 39.85500
H  5.74300 47.18200 38.80900

