158

Mg 43.10100 3.69100 47.70600
C  41.58200 6.76100 47.78300
C  40.03500 2.11000 47.31100
C  44.71900 0.83000 47.00200
C  46.29500 5.53000 47.57600
N  41.04400 4.40500 47.47600
C  40.60900 5.65700 47.65800
C  39.03400 5.77900 47.74900
C  38.63500 4.27700 47.64300
C  39.95800 3.54200 47.47100
C  37.66500 3.81000 48.72700
C  38.36000 6.70400 46.67700
C  39.12300 6.73800 45.27000
H  38.25800 6.46700 44.02700
N  42.44700 1.77300 47.25700
C  41.18700 1.31500 47.22100
C  41.14400 -0.13300 46.96700
C  42.50600 -0.48500 46.86600
C  43.30700 0.71800 47.07100
C  39.84500 -1.00400 46.79000
C  43.01700 -1.90200 46.52300
O  42.20500 -2.81200 46.19500
C  44.43700 -2.29800 46.72400
N  45.16600 3.27500 47.33200
C  45.55500 1.95400 47.20700
C  47.12700 1.90300 47.13500
C  47.60200 3.35300 47.21900
C  46.28900 4.11700 47.53100
C  47.80200 0.82400 48.07000
C  48.40900 3.89000 46.03500
C  49.76000 4.45700 46.51100
N  43.81400 5.70100 47.65500
C  45.10500 6.29700 47.62400
C  44.96700 7.73100 47.78200
C  43.59200 7.99000 47.86200
C  42.94400 6.75400 47.77900
C  46.08100 8.69600 47.85400
C  42.58800 9.03000 48.12600
O  42.61600 10.21600 48.41800
C  41.25200 8.23900 47.94200
C  40.46200 8.41300 49.10600
O  40.46900 7.70800 50.15400
O  39.47900 9.33400 48.79600
C  38.39600 9.38300 49.78000
H  39.09000 1.56900 47.39700
H  45.39400 -0.00200 46.79200
H  47.22700 6.09800 47.55500
H  38.66900 6.23600 48.66900
H  38.16000 4.33200 46.66400
H  37.46900 4.61000 49.44100
H  38.14900 2.98700 49.25400
H  36.73700 3.60200 48.19400
H  38.21400 7.72200 47.03900
H  37.36000 6.42700 46.34300
H  39.84900 5.93600 45.14100
H  39.63500 7.69300 45.15600
H  39.41400 -0.92800 45.79200
H  39.09800 -0.69300 47.52000
H  39.97100 -2.07500 46.94600
H  45.00600 -1.88700 47.55800
H  44.96900 -2.12500 45.78800
H  44.36900 -3.38200 46.81400
H  47.34700 1.60900 46.10900
H  48.14500 3.39700 48.16300
H  48.70200 1.16700 48.58000
H  47.92700 -0.04900 47.43000
H  46.98800 0.61200 48.76300
H  47.92100 4.72700 45.53500
H  48.57300 3.07900 45.32500
H  50.46100 3.79000 46.00900
H  49.97500 4.46300 47.57900
H  49.79800 5.46400 46.09400
H  46.38200 8.88800 48.88400
H  45.70900 9.65200 47.48600
H  46.85100 8.47800 47.11400
H  40.78800 8.67900 47.06000
H  38.23500 8.42800 50.28100
H  37.53200 9.58400 49.14700
H  38.66100 10.20900 50.44000
Mg 9.35400 47.69600 26.23500
C  7.51800 47.75700 29.27100
C  11.88600 49.24900 28.01900
C  11.05000 48.00700 23.43400
C  6.50100 46.91500 24.59300
N  9.75100 48.18500 28.53900
C  8.86900 48.09400 29.52200
C  9.47500 48.47900 30.84000
C  10.78000 49.26700 30.41500
C  10.80800 48.95600 28.86900
C  10.78700 50.81600 30.74400
C  9.78200 47.29100 31.79100
C  9.29300 47.40500 33.26100
H  9.29300 46.01400 34.02600
N  11.22400 48.35300 25.77100
C  12.18900 48.82400 26.68200
C  13.49900 48.72300 26.06300
C  13.23200 48.28300 24.71800
C  11.79600 48.23900 24.56300
C  14.78700 49.10400 26.81100
C  14.20200 47.90700 23.68000
O  14.00500 47.61600 22.48600
C  15.70200 47.78300 24.16400
N  8.78000 47.78200 24.32500
C  9.70300 47.85200 23.35300
C  9.01100 47.68700 22.00500
C  7.47200 47.59300 22.38300
C  7.61700 47.29000 23.85400
C  9.27700 48.78000 20.89400
C  6.77500 46.46300 21.61200
C  7.05800 46.27300 20.10400
N  7.33000 47.30000 26.79500
C  6.29100 47.02300 26.00200
C  5.12900 46.99400 26.82300
C  5.55600 47.23900 28.11600
C  6.95700 47.37900 28.07800
C  3.69300 47.03300 26.43200
C  5.09800 47.32700 29.46900
O  3.96800 47.28400 29.97300
C  6.40900 47.54400 30.32700
C  6.58000 46.35800 31.11900
O  7.15500 45.31200 30.79800
O  5.97800 46.58000 32.33100
C  6.07900 45.51400 33.38200
H  12.67000 49.76700 28.57500
H  11.58900 48.09100 22.48800
H  5.63700 46.73400 23.95100
H  8.87700 49.21100 31.38300
H  11.72400 48.89100 30.80800
H  9.76200 51.15600 30.89400
H  11.24600 51.23600 29.84900
H  11.34100 51.03900 31.65500
H  10.86200 47.14300 31.77600
H  9.40700 46.35500 31.37800
H  8.29600 47.84400 33.31000
H  10.04200 47.94400 33.84200
H  15.47500 48.26400 26.91300
H  14.49800 49.44900 27.80400
H  15.26300 49.85100 26.17600
H  15.90700 47.25100 25.09300
H  16.12600 48.78700 24.14700
H  16.37900 47.29600 23.46100
H  9.24700 46.67300 21.68300
H  7.06200 48.58900 22.21900
H  8.39600 49.12300 20.35100
H  10.09900 48.39700 20.28900
H  9.79900 49.62100 21.35000
H  5.70600 46.67100 21.65800
H  6.85400 45.52500 22.16100
H  6.32000 45.61400 19.64700
H  8.09700 46.00300 19.91200
H  6.87400 47.20000 19.56100
H  3.61700 47.22700 25.36200
H  3.21400 47.71500 27.13500
H  3.29000 46.05700 26.70400
H  6.31500 48.45900 30.91200
H  6.33000 46.05700 34.29400
H  6.83300 44.79400 33.06200
H  5.10400 45.02800 33.41100

