158

Mg 49.79000 45.24500 43.21200
C  46.23700 45.62500 42.52000
C  49.53100 42.10400 42.22000
C  53.07400 45.22600 43.40500
C  49.89000 48.85300 43.32500
N  48.04200 44.06400 42.39600
C  46.73500 44.36900 42.26300
C  45.93500 43.08500 41.96600
C  47.02300 41.97300 42.05600
C  48.28700 42.71200 42.24900
C  46.79400 40.92700 43.21300
C  45.10400 43.00800 40.67400
C  45.63200 43.78100 39.45700
H  45.68400 42.90500 38.17000
N  51.09100 43.84500 42.96500
C  50.87000 42.51800 42.58200
C  52.07100 41.76900 42.64100
C  53.13400 42.65800 43.05800
C  52.46400 43.97000 43.14600
C  52.08600 40.29300 42.22800
C  54.58700 42.25500 43.28900
O  54.99800 41.13900 42.94000
C  55.64200 43.20200 43.85100
N  51.26100 46.80900 43.25900
C  52.53400 46.51200 43.52700
C  53.40800 47.74400 43.85200
C  52.48000 48.89700 43.51200
C  51.13700 48.19700 43.39200
C  54.04200 47.79500 45.38500
C  52.91400 49.57500 42.14500
C  52.37700 51.00000 41.82800
N  48.39200 46.90600 43.15800
C  48.59700 48.24500 43.08900
C  47.32000 48.94600 43.08000
C  46.40200 47.98500 42.77700
C  47.08000 46.72600 42.83500
C  47.07300 50.45600 43.27100
C  44.96200 47.75000 42.56400
O  44.03000 48.55100 42.46300
C  44.75900 46.19100 42.42000
C  43.74100 45.70800 43.37600
O  42.75700 45.16500 42.99600
O  44.08700 45.74800 44.70700
C  43.09900 45.12400 45.64900
H  49.38300 41.08600 41.85300
H  54.16300 45.20900 43.32200
H  49.98500 49.94100 43.32400
H  45.18700 42.96900 42.75000
H  47.04300 41.38200 41.14000
H  46.21600 40.12700 42.75000
H  46.37900 41.41400 44.09500
H  47.75400 40.46700 43.44700
H  44.13200 43.43100 40.93000
H  44.96700 41.94300 40.49100
H  46.62300 44.17800 39.68000
H  44.87700 44.56400 39.38300
H  53.04900 39.78600 42.17200
H  51.76500 40.12800 41.20000
H  51.38400 39.76800 42.87600
H  56.16800 43.69400 43.03300
H  56.41400 42.52700 44.21800
H  55.29200 43.84900 44.65500
H  54.27200 47.55900 43.21400
H  52.43300 49.57300 44.36600
H  55.05800 47.40000 45.39100
H  53.36000 47.16000 45.94900
H  53.95400 48.78200 45.83800
H  52.58300 48.91000 41.34700
H  53.98000 49.42700 41.97100
H  53.21800 51.61100 41.50200
H  51.77100 51.39300 42.64400
H  51.76300 50.85800 40.93900
H  47.53300 50.82600 44.18800
H  46.03800 50.79800 43.26800
H  47.62600 51.02500 42.52300
H  44.28600 46.03000 41.45100
H  43.20900 44.04200 45.71400
H  42.09300 45.46200 45.40000
H  43.35200 45.55300 46.61900
Mg -2.60700 34.37500 26.01800
C  -4.08900 32.75300 28.78200
C  -1.44700 36.64200 28.42500
C  -1.22300 36.01500 23.60700
C  -4.35900 32.33400 23.93000
N  -3.00300 34.79300 28.45400
C  -3.40600 33.82400 29.29300
C  -3.11800 34.19800 30.79100
C  -2.41000 35.58200 30.67000
C  -2.21400 35.67000 29.08000
C  -3.30200 36.75200 31.08200
C  -2.35300 33.10000 31.55700
C  -2.80100 32.89700 32.97900
H  -2.34300 33.99900 33.98500
N  -1.48300 36.04200 26.01900
C  -1.06200 36.77000 27.10900
C  -0.16400 37.82900 26.65000
C  -0.13300 37.69000 25.20700
C  -0.97600 36.54500 24.90400
C  0.34500 38.92600 27.51900
C  0.67000 38.53300 24.15800
O  0.75000 38.30700 22.97300
C  1.41600 39.69400 24.80000
N  -2.88700 34.23900 24.03700
C  -2.18700 35.05000 23.20900
C  -2.55800 34.70500 21.71100
C  -3.49600 33.50100 21.80800
C  -3.61900 33.31900 23.39400
C  -3.16300 35.92800 21.00300
C  -3.00000 32.26500 21.10700
C  -2.25700 31.21300 21.92000
N  -4.03700 32.89500 26.22000
C  -4.62700 32.06300 25.28000
C  -5.30900 30.99700 25.92200
C  -5.11600 31.23100 27.32200
C  -4.41900 32.42700 27.43900
C  -6.12500 29.91300 25.22100
C  -5.47400 30.74100 28.63800
O  -6.04500 29.76500 28.98000
C  -4.79900 31.67700 29.61000
C  -5.83200 32.28900 30.54300
O  -6.75700 33.06200 30.26700
O  -5.84200 31.68200 31.80600
C  -6.69200 32.19700 32.90400
H  -0.92900 37.24500 29.17400
H  -0.76400 36.60200 22.80900
H  -4.82400 31.73100 23.14700
H  -4.09100 34.24700 31.28100
H  -1.43300 35.65900 31.14700
H  -2.71900 37.37100 31.76300
H  -4.16000 36.37000 31.63600
H  -3.71500 37.33000 30.25500
H  -1.33700 33.47700 31.67300
H  -2.28300 32.18500 30.97000
H  -2.47200 31.91700 33.32200
H  -3.88900 32.96400 32.98800
H  1.41300 38.89500 27.73100
H  -0.16800 38.90500 28.48100
H  0.05000 39.84400 27.01000
H  2.08100 39.32600 25.58100
H  0.72600 40.49900 25.05400
H  2.09900 40.11700 24.06400
H  -1.63000 34.42100 21.21500
H  -4.50100 33.64900 21.41300
H  -2.48300 36.33100 20.25300
H  -3.36500 36.72000 21.72500
H  -4.06600 35.82600 20.40000
H  -2.39200 32.43100 20.21800
H  -3.90400 31.79900 20.71400
H  -1.74600 31.73100 22.73100
H  -1.52600 30.63500 21.35500
H  -3.00800 30.47100 22.19400
H  -6.22000 29.13500 25.97900
H  -5.73200 29.39900 24.34300
H  -7.07500 30.37200 24.94700
H  -4.09000 31.07600 30.18000
H  -6.33300 31.80800 33.85700
H  -7.77100 32.13900 32.75800
H  -6.38600 33.24300 32.89000

