158

Mg 1.71900 -1.39800 44.35200
C  4.95300 -0.39200 43.70200
C  0.63300 1.55100 42.53500
C  -1.24300 -2.70400 43.96400
C  2.97900 -4.35600 45.70900
N  2.70900 0.32100 43.22500
C  4.05500 0.52300 43.11400
C  4.32500 1.73400 42.12400
C  2.97400 2.48900 42.18500
C  2.03700 1.43200 42.73700
C  3.09500 3.76900 43.10000
C  4.76700 1.28800 40.68600
C  5.97700 2.11500 40.13800
H  6.04800 2.60900 38.67300
N  -0.05700 -0.67500 43.44100
C  -0.34500 0.58100 42.87000
C  -1.81200 0.74200 42.67900
C  -2.30600 -0.60600 42.95100
C  -1.20000 -1.36700 43.46400
C  -2.34900 1.96400 41.98400
C  -3.83900 -0.92900 42.81700
O  -4.58100 -0.16100 42.25500
C  -4.41600 -2.31000 43.09700
N  0.99000 -3.33100 44.67600
C  -0.34200 -3.54500 44.59300
C  -0.75300 -4.87600 45.18900
C  0.56800 -5.38300 45.79400
C  1.61300 -4.29100 45.37700
C  -1.91700 -4.90000 46.15300
C  0.94600 -6.81100 45.41600
C  1.42600 -7.69500 46.62800
N  3.51500 -2.13000 44.85300
C  3.89000 -3.32400 45.34700
C  5.31700 -3.36900 45.64300
C  5.87600 -2.20600 44.93800
C  4.65600 -1.54200 44.50100
C  6.05200 -4.42600 46.43000
C  7.06400 -1.51700 44.55800
O  8.25400 -1.75200 44.64400
C  6.44500 -0.26500 43.70300
C  6.95700 1.01400 44.30200
O  6.37800 1.50200 45.23100
O  8.09100 1.47600 43.67500
C  8.52000 2.78700 44.02600
H  0.27200 2.50700 42.15000
H  -2.21600 -3.19700 43.91400
H  3.44600 -5.25900 46.10700
H  5.10300 2.31900 42.61500
H  2.60000 2.92800 41.25900
H  4.10700 3.97500 43.44800
H  2.48200 3.69000 43.99800
H  2.75400 4.66400 42.58100
H  3.96500 1.31800 39.94900
H  5.21400 0.31400 40.89000
H  6.90400 1.54700 40.21000
H  6.11100 2.94600 40.83000
H  -1.90800 2.84700 42.44600
H  -3.41600 2.03300 42.19200
H  -2.12400 2.01300 40.91900
H  -3.88000 -3.01300 42.46000
H  -5.45100 -2.30600 42.75700
H  -4.42400 -2.60300 44.14700
H  -1.11500 -5.44600 44.33300
H  0.45700 -5.26900 46.87300
H  -1.65100 -5.55100 46.98600
H  -2.79100 -5.23700 45.59700
H  -2.21000 -3.92800 46.55100
H  1.73100 -6.66400 44.67500
H  0.07200 -7.33500 45.03000
H  1.64400 -7.01600 47.45200
H  2.32100 -8.20200 46.26800
H  0.65100 -8.45700 46.70700
H  5.84300 -4.35300 47.49800
H  7.13200 -4.36300 46.29600
H  5.71300 -5.40600 46.09300
H  6.82800 -0.21000 42.68400
H  8.50800 2.99300 45.09600
H  8.06300 3.56200 43.41100
H  9.57900 2.85300 43.77400
Mg 53.65700 24.19900 44.59800
C  51.17900 26.48500 43.87300
C  51.62300 21.61900 43.68200
C  56.41800 22.25700 44.14800
C  55.80000 26.96100 45.08100
N  51.71600 24.07100 43.71000
C  50.81900 25.12700 43.62100
C  49.41000 24.71800 43.15800
C  49.59300 23.19800 43.57100
C  51.08200 22.96900 43.67900
C  48.86100 22.74100 44.86700
C  49.20600 25.08000 41.70000
C  48.23600 24.21200 40.90600
H  48.00700 24.62800 39.44000
N  53.97800 22.21600 43.99600
C  52.98600 21.32400 43.69600
C  53.57600 19.99200 43.60400
C  54.93600 20.17300 43.75700
C  55.12900 21.61000 43.89700
C  52.75100 18.73200 43.39700
C  56.04300 19.05000 43.76800
O  55.74800 17.87400 43.58600
C  57.55800 19.21000 43.98800
N  55.82600 24.60800 44.58500
C  56.70100 23.55900 44.55300
C  58.20500 24.06700 44.87000
C  57.97900 25.58300 45.08900
C  56.44000 25.75300 44.85800
C  58.70800 23.45300 46.17900
C  58.96400 26.44400 44.22900
C  58.82900 26.32100 42.70900
N  53.58300 26.34500 44.69400
C  54.46800 27.29100 44.98900
C  53.80400 28.57700 45.05900
C  52.45500 28.31000 44.64300
C  52.40100 26.95200 44.34900
C  54.46300 29.80400 45.64300
C  51.10300 28.93000 44.58500
O  50.64800 30.04100 44.82500
C  50.27100 27.80000 43.87800
C  50.14500 28.37600 42.46700
O  51.07200 28.62800 41.73300
O  48.82600 28.69500 42.17200
C  48.51900 29.02900 40.74200
H  50.93600 20.77000 43.66000
H  57.28200 21.60200 44.27300
H  56.45800 27.80900 45.28000
H  48.65600 25.28100 43.70800
H  49.28000 22.49600 42.79800
H  48.00900 22.11100 44.61300
H  48.43100 23.62300 45.34100
H  49.56000 22.26500 45.55600
H  50.15800 25.11200 41.17000
H  48.69600 26.04400 41.69900
H  47.29200 24.06000 41.43000
H  48.74400 23.25200 40.81400
H  51.88800 18.94100 42.76400
H  52.42500 18.43900 44.39500
H  53.20200 17.82700 42.99100
H  58.08100 18.25400 43.99400
H  57.69000 19.60900 44.99400
H  58.01600 19.92200 43.30200
H  58.89700 23.99200 44.03100
H  58.12500 25.95000 46.10600
H  57.99700 22.73100 46.58300
H  58.79900 24.21100 46.95600
H  59.72100 23.12600 45.94700
H  59.99300 26.15500 44.44400
H  58.85700 27.46600 44.59400
H  58.49000 27.25000 42.25000
H  58.13600 25.58000 42.31200
H  59.87200 26.21500 42.41100
H  55.53400 29.70700 45.82300
H  53.87500 30.14400 46.49600
H  54.30200 30.64500 44.96900
H  49.25400 27.73400 44.26500
H  49.36400 29.11600 40.05900
H  47.97100 29.95500 40.56700
H  47.86400 28.22500 40.40600

