158

Mg 17.32400 51.42600 26.62700
C  19.01000 50.02200 29.35500
C  14.82100 52.26900 28.79300
C  15.50600 52.31000 23.87200
C  19.82300 50.30900 24.53400
N  16.98900 51.31000 28.87700
C  17.84000 50.71300 29.78700
C  17.48000 51.08900 31.21500
C  15.99700 51.52400 31.02100
C  15.95500 51.76200 29.46700
C  14.97200 50.45500 31.48500
C  18.36300 52.30600 31.68700
C  18.41100 52.59400 33.23700
H  17.58700 51.78600 34.24700
N  15.44200 52.22300 26.33500
C  14.57700 52.50700 27.34800
C  13.30400 53.01100 26.77400
C  13.44500 52.97500 25.34300
C  14.87300 52.51800 25.11100
C  12.20800 53.48100 27.61700
C  12.40900 53.15300 24.32000
O  12.68800 52.89100 23.14300
C  11.07000 53.75900 24.72600
N  17.62300 51.40800 24.59600
C  16.79900 51.84400 23.63700
C  17.40500 51.76000 22.20900
C  18.86400 51.33400 22.43200
C  18.82700 51.05500 23.95000
C  16.60500 50.80000 21.29700
C  19.91400 52.43600 22.00600
C  21.32400 51.93500 21.63900
N  19.06300 50.40300 26.84300
C  20.02400 50.06500 25.87000
C  21.13200 49.38700 26.51500
C  20.73900 49.29800 27.86000
C  19.49200 49.94600 27.97600
C  22.38100 48.85900 25.87100
C  21.07400 48.84700 29.16600
O  22.06600 48.18300 29.49600
C  19.98600 49.30700 30.20900
C  19.49400 48.18800 31.13000
O  18.48900 47.52800 30.92600
O  20.26600 48.21300 32.29200
C  19.84700 47.17700 33.24700
H  14.03800 52.41800 29.53900
H  14.96900 52.58200 22.96100
H  20.65600 49.95300 23.92500
H  17.66800 50.23900 31.87000
H  15.73300 52.43500 31.55700
H  15.29500 49.80100 32.29500
H  14.55200 49.90100 30.64500
H  14.17600 51.10200 31.85200
H  17.96900 53.06400 31.00900
H  19.36400 52.00600 31.37600
H  18.26200 53.67200 33.28300
H  19.44200 52.48700 33.57400
H  11.90500 54.50900 27.41600
H  12.27600 53.31400 28.69200
H  11.31500 52.90400 27.37500
H  10.36900 53.06200 25.18500
H  10.59200 54.13500 23.82200
H  11.15700 54.61800 25.39300
H  17.32000 52.73800 21.73500
H  19.15200 50.42500 21.90400
H  16.56000 51.36300 20.36500
H  15.62900 50.62500 21.75100
H  17.20500 49.91700 21.07900
H  20.00200 53.18900 22.78900
H  19.48300 52.98300 21.16800
H  22.04000 52.25500 22.39600
H  21.76200 52.25700 20.69500
H  21.31500 50.85300 21.50800
H  22.40300 49.00200 24.79100
H  22.38900 47.80800 26.15900
H  23.29100 49.31500 26.26000
H  20.33800 50.04700 30.92800
H  20.77300 46.97600 33.78500
H  19.53400 46.26100 32.74600
H  19.03500 47.61300 33.82900
Mg -5.58600 24.96800 25.38000
C  -3.84800 26.37700 28.24500
C  -7.32500 22.98300 27.65900
C  -6.99400 23.47300 22.80400
C  -3.52200 26.81600 23.26800
N  -5.50600 24.73300 27.66900
C  -4.91400 25.52000 28.63500
C  -5.33800 25.11000 30.08600
C  -6.17400 23.81000 29.81200
C  -6.32700 23.80600 28.27200
C  -5.68900 22.45000 30.44900
C  -6.07400 26.34500 30.70800
C  -5.80500 26.51000 32.24200
H  -5.56200 25.33100 33.22900
N  -7.02800 23.50800 25.28000
C  -7.66600 22.93300 26.34300
C  -8.80900 22.18200 25.81500
C  -8.68900 22.23500 24.42000
C  -7.57600 23.13700 24.08700
C  -9.72600 21.21100 26.77100
C  -9.49800 21.43400 23.41200
O  -9.17800 21.35100 22.21700
C  -10.61900 20.57600 23.95200
N  -5.18100 24.95800 23.27400
C  -5.99400 24.32900 22.40200
C  -5.63600 24.64800 21.00000
C  -4.69500 25.94200 21.15800
C  -4.38400 25.90200 22.64000
C  -5.06100 23.33200 20.38600
C  -5.38100 27.26200 20.59900
C  -4.50100 28.02200 19.64500
N  -3.91600 26.28800 25.61600
C  -3.25300 26.99800 24.68100
C  -2.28300 27.81600 25.34200
C  -2.50300 27.60400 26.77300
C  -3.49000 26.63000 26.86400
C  -1.35000 28.79000 24.68200
C  -2.14100 28.04100 28.08100
O  -1.46100 28.96900 28.45400
C  -2.89700 27.18700 29.07200
C  -2.05000 26.34400 29.92300
O  -1.29900 25.47100 29.45100
O  -2.13500 26.72700 31.26800
C  -1.54700 25.73800 32.10700
H  -7.68400 22.28100 28.41400
H  -7.43200 23.04500 21.89900
H  -3.05000 27.56300 22.62600
H  -4.43500 24.91000 30.66300
H  -7.17000 23.95900 30.22700
H  -4.95000 22.66600 31.22100
H  -5.25800 21.79000 29.69800
H  -6.53300 21.90800 30.87500
H  -7.11900 26.18900 30.44100
H  -5.64800 27.23100 30.23700
H  -6.73400 26.99500 32.54000
H  -5.01800 27.25700 32.35500
H  -9.83800 20.20700 26.36300
H  -10.68200 21.73500 26.77300
H  -9.25700 21.19400 27.75500
H  -11.12900 20.28500 23.03400
H  -11.16800 21.26400 24.59500
H  -10.25900 19.70300 24.49700
H  -6.53900 24.87700 20.43400
H  -3.79400 25.76500 20.57000
H  -3.97300 23.28000 20.40700
H  -5.46300 23.19400 19.38300
H  -5.40300 22.45800 20.94000
H  -5.72500 27.93700 21.38300
H  -6.21500 26.89900 19.99900
H  -4.59200 29.10100 19.76700
H  -4.96600 27.78000 18.68900
H  -3.44900 27.73600 19.64100
H  -2.00200 29.54700 24.24500
H  -0.75000 28.17500 24.01100
H  -0.82800 29.27000 25.51000
H  -3.48000 27.90200 29.65300
H  -1.70400 24.74100 31.69400
H  -2.09800 25.76100 33.04700
H  -0.47500 25.86400 32.25900

