158

Mg 42.16500 41.43500 27.03700
C  41.44600 43.73800 29.53200
C  43.01600 39.14200 29.54000
C  43.42800 39.42100 24.59800
C  41.92500 44.08200 24.66800
N  42.16200 41.43800 29.21200
C  41.68600 42.40200 29.96600
C  41.54600 41.96700 31.49400
C  42.23800 40.59300 31.46400
C  42.51200 40.34300 29.99500
C  43.52300 40.40500 32.35000
C  40.07700 41.99200 32.02100
C  39.72100 43.15300 32.98100
H  38.90200 42.75400 34.26100
N  42.95100 39.43800 27.05300
C  43.18100 38.63900 28.16300
C  43.51900 37.28100 27.69900
C  43.49500 37.34300 26.26400
C  43.25600 38.76500 25.93900
C  43.76600 36.16700 28.65100
C  43.67300 36.21900 25.24500
O  43.70000 36.35200 24.01900
C  43.73600 34.70500 25.72000
N  42.76100 41.72900 25.02900
C  43.20300 40.76400 24.21500
C  43.56800 41.29200 22.82800
C  42.57200 42.49100 22.84100
C  42.39800 42.83200 24.27000
C  45.03300 41.63200 22.49400
C  41.22000 42.18600 22.13900
C  40.36200 40.95000 22.54400
N  41.81900 43.52800 27.05200
C  41.68100 44.42100 26.02000
C  41.41800 45.68600 26.60600
C  41.36700 45.50900 27.98600
C  41.57600 44.15900 28.20400
C  41.18400 46.93100 25.89700
C  41.17300 46.15500 29.23900
O  40.97700 47.31900 29.60700
C  41.11500 45.00200 30.25500
C  42.05000 45.47700 31.30100
O  43.25600 45.54400 31.07500
O  41.48500 45.90100 32.47300
C  42.47800 46.45500 33.45200
H  43.27400 38.45600 30.34800
H  43.88200 38.78900 23.83200
H  41.72500 44.86400 23.93100
H  42.24400 42.66900 31.95100
H  41.52600 39.83500 31.79000
H  44.10900 39.60000 31.90500
H  43.16800 40.22300 33.36400
H  44.14100 41.29800 32.44800
H  39.83100 41.11100 32.61400
H  39.34800 42.00500 31.21100
H  39.01900 43.94400 32.71700
H  40.64000 43.58900 33.37300
H  44.58800 35.56100 28.27000
H  42.87500 35.54100 28.64400
H  44.01000 36.52400 29.65200
H  44.67600 34.59800 26.26100
H  43.71800 34.04000 24.85600
H  42.91600 34.46900 26.39800
H  43.14400 40.63900 22.06500
H  43.03800 43.34100 22.34300
H  45.31700 42.64400 22.78300
H  45.12100 41.48700 21.41700
H  45.78400 40.95700 22.90400
H  41.54100 42.08800 21.10200
H  40.59200 43.07400 22.21300
H  40.29900 40.29100 21.67800
H  39.45700 41.44800 22.88900
H  40.87700 40.47200 23.37800
H  40.14600 47.26300 25.92800
H  41.54000 46.81100 24.87300
H  41.74700 47.77100 26.30200
H  40.12700 44.92500 30.71000
H  43.37800 46.88000 33.00800
H  42.69300 45.65400 34.16000
H  42.08700 47.29800 34.02100
Mg 29.36700 58.89400 41.26000
C  26.76300 56.91000 39.99600
C  31.56700 56.86600 39.84100
C  31.65800 61.37600 41.66200
C  26.83600 61.18700 42.38200
N  29.15000 57.17600 39.88600
C  28.05600 56.48100 39.62100
C  28.34000 55.34400 38.64300
C  29.87500 55.16300 38.85300
C  30.24400 56.45800 39.63200
C  30.25800 53.79500 39.67600
C  27.85300 55.77800 37.25700
C  26.99800 54.77100 36.45500
H  27.34400 54.50100 34.99000
N  31.32700 59.12100 40.73700
C  32.10600 58.13500 40.26700
C  33.46600 58.53500 40.22600
C  33.57300 59.85300 40.82100
C  32.17700 60.16300 41.12800
C  34.55000 57.75200 39.40700
C  34.77700 60.72500 41.07100
O  35.92600 60.31200 40.78200
C  34.68300 62.05700 41.60500
N  29.27200 60.96800 42.00600
C  30.36300 61.76000 42.08800
C  29.94000 63.12800 42.56300
C  28.45700 63.06700 42.82000
C  28.16600 61.67900 42.32600
C  30.70300 63.77100 43.65000
C  27.59400 64.24100 42.14400
C  26.54300 64.70600 43.15200
N  27.20000 58.92800 41.41900
C  26.34100 59.91300 41.91100
C  25.01900 59.41500 41.74500
C  25.09000 58.26500 41.02600
C  26.47700 58.08600 40.76600
C  23.68100 60.08800 42.17200
C  24.40200 57.16700 40.44100
O  23.23200 56.94900 40.46300
C  25.42000 56.27400 39.68900
C  25.26600 54.98600 40.27100
O  25.79300 54.63300 41.35400
O  24.60500 54.16500 39.36300
C  24.85700 52.71100 39.52700
H  32.22700 56.04600 39.55000
H  32.28700 62.25400 41.82200
H  26.08200 61.86300 42.79100
H  27.88100 54.44400 39.05300
H  30.34900 55.17500 37.87200
H  29.35400 53.29800 40.02700
H  30.77000 54.00000 40.61700
H  30.77700 53.09300 39.02300
H  28.72100 55.95200 36.62200
H  27.29400 56.69000 37.46400
H  25.98400 55.16900 36.46900
H  26.87500 53.83700 37.00400
H  34.63600 56.74500 39.81500
H  35.56700 58.14600 39.39700
H  34.26200 57.64600 38.36100
H  34.22900 62.74600 40.89400
H  35.72400 62.38000 41.64500
H  34.26100 62.08300 42.60900
H  30.01400 63.84000 41.74100
H  28.25600 63.01900 43.89100
H  31.69300 63.33200 43.77100
H  30.25800 63.53400 44.61600
H  30.85600 64.84300 43.52900
H  27.03700 63.95100 41.25300
H  28.17600 65.13200 41.90600
H  25.57100 64.51100 42.70000
H  26.68600 65.78500 43.22100
H  26.58400 64.29500 44.16100
H  22.91000 59.36700 41.89900
H  23.53800 60.94000 41.50800
H  23.52500 60.44400 43.19000
H  25.19700 56.29700 38.62300
H  24.06700 52.25600 40.12400
H  25.69400 52.51500 40.19700
H  25.07400 52.11500 38.64000

