158

Mg 48.65900 13.60600 27.44600
C  46.49500 14.37000 30.30600
C  51.03500 15.55700 28.97700
C  50.42300 13.05200 24.72500
C  45.76100 12.17400 26.02300
N  48.72700 14.74600 29.52400
C  47.83800 14.81900 30.54100
C  48.46400 15.57800 31.71000
C  49.86600 16.00600 31.19600
C  49.87400 15.40900 29.79000
C  50.00300 17.53400 31.12400
C  48.51700 14.53600 32.97500
C  48.03400 15.11300 34.27300
H  49.07100 14.90100 35.43700
N  50.46200 14.13800 26.97900
C  51.28100 14.98000 27.71800
C  52.44100 15.25200 26.92800
C  52.31900 14.60700 25.63500
C  51.05200 13.84100 25.69900
C  53.58300 16.18000 27.46000
C  53.32200 14.67000 24.47100
O  53.01800 14.13200 23.42400
C  54.71500 15.24800 24.51700
N  48.20300 12.67800 25.71200
C  49.08700 12.56700 24.71400
C  48.50000 11.77600 23.47900
C  47.12200 11.30200 24.07300
C  47.00400 12.09800 25.35800
C  48.28800 12.65600 22.20600
C  47.05400 9.77300 24.24000
C  47.98500 9.15600 25.29800
N  46.53900 13.40900 27.98300
C  45.54900 12.76200 27.27400
C  44.36800 12.73100 28.04900
C  44.72600 13.33700 29.27800
C  46.04200 13.68000 29.13100
C  43.17600 12.01100 27.68300
C  44.20500 13.64600 30.57900
O  43.11900 13.45100 31.10500
C  45.33100 14.40600 31.32700
C  44.90000 15.75700 31.77500
O  44.74600 16.67200 31.04900
O  44.81400 15.81000 33.14400
C  44.45500 17.08400 33.72800
H  51.74800 16.17000 29.53300
H  50.90800 12.89100 23.76000
H  44.93900 11.71900 25.46600
H  47.80500 16.39700 31.99600
H  50.63100 15.56400 31.83500
H  50.77200 17.83400 31.83500
H  49.15400 18.15800 31.40400
H  50.41300 17.82300 30.15600
H  49.55600 14.21000 33.02300
H  47.94200 13.64600 32.71900
H  47.16900 14.47200 34.44200
H  47.62200 16.12300 34.26000
H  53.25900 16.86400 28.24400
H  54.05600 16.77100 26.67600
H  54.32700 15.54300 27.93800
H  55.47300 14.82300 25.17500
H  54.52300 16.28000 24.81000
H  55.19800 15.21900 23.54000
H  49.03900 10.86800 23.20900
H  46.30100 11.50600 23.38500
H  49.18400 12.63400 21.58600
H  48.04900 13.67300 22.51700
H  47.43200 12.27600 21.64700
H  47.36000 9.34800 23.28400
H  46.02000 9.54000 24.49400
H  48.35900 9.83200 26.06800
H  48.84800 8.71600 24.79800
H  47.56000 8.35700 25.90500
H  43.35100 10.93700 27.74600
H  42.79600 12.35800 26.72200
H  42.48700 12.20700 28.50400
H  45.56100 13.76700 32.18000
H  43.38900 17.10700 33.95200
H  44.63300 18.02100 33.20000
H  44.96400 17.20300 34.68500
Mg 35.84900 49.22000 25.47800
C  35.87400 47.56900 28.54800
C  34.73000 52.14200 27.20000
C  35.34700 50.75000 22.54200
C  36.28800 46.14300 23.84100
N  35.35400 49.74200 27.61200
C  35.53400 48.94700 28.64800
C  35.47800 49.74200 30.02200
C  35.07900 51.21100 29.52400
C  35.00700 51.00700 27.96400
C  33.73600 51.75000 30.11100
C  36.84200 49.86400 30.79200
C  36.84400 49.59100 32.27800
H  35.45400 49.57200 33.04200
N  35.23100 51.19300 24.89200
C  34.87600 52.24100 25.74900
C  34.46100 53.38800 24.95900
C  34.68000 53.01700 23.60100
C  35.09900 51.61100 23.61200
C  33.92600 54.68600 25.55500
C  34.48100 53.88100 22.35700
O  34.56600 53.43900 21.20700
C  34.18100 55.41100 22.48200
N  35.85700 48.58000 23.54200
C  35.64800 49.36800 22.45800
C  35.79600 48.70800 21.10800
C  36.43400 47.37300 21.60000
C  36.19700 47.33800 23.11100
C  34.44800 48.65700 20.25500
C  37.93600 47.33600 21.25600
C  38.44600 46.36300 20.21000
N  36.07000 47.24700 26.03500
C  36.23700 46.04600 25.29200
C  36.47200 44.96900 26.16100
C  36.36900 45.53800 27.49200
C  36.14100 46.87200 27.36600
C  36.94200 43.58500 25.77300
C  36.44400 45.19700 28.87900
O  36.63400 44.10300 29.42400
C  36.18500 46.58700 29.62800
C  35.05100 46.21300 30.59300
O  33.87400 46.30800 30.43000
O  35.60200 45.82400 31.77100
C  34.64000 45.34900 32.81500
H  34.46000 53.05100 27.74000
H  35.38300 51.20800 21.55100
H  36.57700 45.22500 23.32400
H  34.67700 49.32400 30.63200
H  35.88000 51.93900 29.65700
H  32.89300 51.33900 29.55400
H  33.76200 52.83100 29.97300
H  33.51700 51.32800 31.09200
H  37.30400 50.84700 30.69000
H  37.55300 49.15900 30.36100
H  37.54000 50.24500 32.80300
H  37.28000 48.59900 32.39300
H  34.07900 54.70900 26.63400
H  32.84300 54.75400 25.45800
H  34.37700 55.54600 25.05900
H  33.21700 55.43500 22.99000
H  34.10500 55.83600 21.48100
H  35.05000 55.80200 23.01100
H  36.49300 49.29900 20.51400
H  35.78100 46.62400 21.15200
H  34.11600 47.62200 20.18600
H  34.72800 49.09000 19.29400
H  33.75600 49.31600 20.77900
H  38.39000 47.22800 22.24200
H  38.16800 48.32800 20.87000
H  37.60000 46.02700 19.60900
H  38.97200 45.55700 20.72200
H  39.15600 46.96800 19.64700
H  37.72100 43.23300 26.45000
H  37.28400 43.47900 24.74300
H  36.11200 42.89200 25.91600
H  37.11000 46.90200 30.11100
H  33.80100 46.03900 32.90600
H  35.15200 45.33600 33.77700
H  34.20300 44.38100 32.57200

