158

Mg 47.85800 25.25500 28.68800
C  48.58400 27.53100 31.17400
C  47.13800 22.87300 31.27100
C  47.25400 23.08200 26.26000
C  49.00400 27.55400 26.34600
N  47.62700 25.27200 30.99600
C  47.99800 26.39200 31.77200
C  47.68800 26.20900 33.23700
C  47.37100 24.64400 33.26000
C  47.40200 24.17900 31.73400
C  48.25900 23.77700 34.11600
C  46.56800 27.23200 33.87200
C  47.00700 28.12800 35.07200
H  46.06400 28.40300 36.28300
N  47.16200 23.21100 28.75600
C  46.98100 22.44100 29.92400
C  46.60700 21.11100 29.46000
C  46.61000 21.13800 28.02000
C  46.96200 22.51700 27.59200
C  46.29800 19.97700 30.40600
C  46.28600 19.94600 27.08000
O  46.43700 20.02000 25.90400
C  45.97400 18.67100 27.59900
N  48.09400 25.37700 26.58700
C  47.77600 24.33700 25.77900
C  48.07100 24.59400 24.26400
C  48.40700 26.10800 24.27700
C  48.56800 26.40900 25.79900
C  49.12100 23.66300 23.61600
C  47.47200 27.08400 23.57300
C  48.02100 28.01100 22.44300
N  48.79000 27.11600 28.70300
C  49.09600 27.95000 27.70400
C  49.54000 29.25100 28.22600
C  49.37000 29.12600 29.61800
C  48.88800 27.80000 29.82700
C  50.05900 30.40300 27.45400
C  49.49800 29.86400 30.81300
O  49.87100 30.96100 31.13000
C  49.05300 28.80100 31.87100
C  50.19700 28.51300 32.81600
O  51.17800 27.82600 32.51200
O  49.88300 29.10000 34.04400
C  51.04000 29.05800 35.00500
H  47.00600 22.13100 32.06200
H  47.11400 22.27800 25.53500
H  49.26000 28.31900 25.61000
H  48.56200 26.44300 33.84500
H  46.32100 24.66600 33.55100
H  48.78200 23.01200 33.54200
H  47.66400 23.24600 34.85800
H  49.06800 24.41400 34.47500
H  45.73300 26.68700 34.31200
H  46.24700 27.80100 33.00000
H  47.08400 29.10900 34.60400
H  48.05000 27.98300 35.35400
H  47.02200 19.21100 30.12800
H  45.27100 19.64000 30.26400
H  46.53800 20.21900 31.44200
H  46.90000 18.38000 28.09500
H  45.62200 18.08000 26.75400
H  45.11000 18.91300 28.21800
H  47.10100 24.57100 23.76600
H  49.40400 26.12800 23.83700
H  49.62900 24.05300 22.73300
H  48.72900 22.72700 23.21900
H  49.86300 23.35700 24.35300
H  47.08800 27.75100 24.34500
H  46.57400 26.53700 23.28600
H  47.86300 29.08800 22.49600
H  47.57900 27.67000 21.50600
H  49.09700 27.91700 22.30000
H  49.63700 31.30900 27.88700
H  49.73800 30.21000 26.43000
H  51.14700 30.37900 27.50800
H  48.22300 29.08400 32.51900
H  50.84700 28.37300 35.83100
H  51.16300 30.04600 35.45000
H  51.99300 28.97200 34.48300
Mg 36.46200 48.73100 24.90000
C  36.19300 46.84000 27.72200
C  34.81200 51.43100 26.65000
C  35.83900 50.24200 21.92000
C  37.53900 45.89900 23.16400
N  35.61400 49.10700 26.96700
C  35.73100 48.19000 27.98500
C  35.39400 48.82200 29.38100
C  34.80700 50.17800 28.95800
C  35.06800 50.26900 27.41900
C  33.37500 50.46300 29.44200
C  36.47600 48.96800 30.47100
C  36.22600 48.99600 31.95400
H  34.80400 48.93700 32.46200
N  35.60900 50.62300 24.35900
C  35.07600 51.57700 25.24900
C  34.71400 52.79000 24.47300
C  34.95100 52.51500 23.09600
C  35.41700 51.04400 23.02500
C  34.11900 54.05500 25.03900
C  34.76300 53.40700 21.83800
O  35.13700 53.06400 20.69700
C  34.10600 54.75300 21.96700
N  36.60700 48.13300 22.83200
C  36.42800 48.98500 21.79000
C  36.75600 48.31300 20.44400
C  37.65400 47.15600 20.98700
C  37.17700 47.04200 22.39400
C  35.51800 47.88900 19.69700
C  39.21400 47.32900 20.73900
C  39.88200 48.72200 20.64100
N  36.74900 46.75100 25.26100
C  37.24600 45.68600 24.49400
C  37.36700 44.44300 25.25200
C  36.91400 44.86700 26.53300
C  36.57800 46.25800 26.46300
C  37.87600 43.02800 24.85500
C  36.64400 44.44500 27.87700
O  36.80200 43.29600 28.39200
C  36.20400 45.74000 28.69300
C  34.96300 45.45500 29.42600
O  33.80600 45.59200 29.02300
O  35.30800 44.99600 30.67500
C  34.29800 44.76300 31.69500
H  34.47500 52.29100 27.23200
H  35.62400 50.81600 21.01600
H  37.95500 45.05000 22.61800
H  34.57500 48.20000 29.74100
H  35.39400 51.00300 29.36100
H  32.65800 50.65700 28.64400
H  33.48900 51.27900 30.15500
H  32.89200 49.66500 30.00700
H  37.07200 49.86100 30.28400
H  37.33400 48.31300 30.31900
H  36.57900 49.96100 32.31800
H  36.87600 48.32600 32.51800
H  34.61900 54.91500 24.59200
H  34.44400 54.17900 26.07200
H  33.04800 54.02100 24.83800
H  33.16400 54.68700 22.51000
H  33.63500 55.05800 21.03300
H  34.83800 55.42600 22.41500
H  37.28700 48.98200 19.76700
H  37.33600 46.20000 20.57100
H  35.80800 47.05100 19.06300
H  35.09100 48.73300 19.15500
H  34.90400 47.50800 20.51300
H  39.44100 46.94700 19.74400
H  39.75000 46.65800 21.41000
H  40.52300 48.79800 19.76200
H  40.50400 48.83000 21.52900
H  39.17700 49.54300 20.77100
H  38.79500 42.67800 25.32500
H  37.96700 43.00300 23.76900
H  37.14700 42.26200 25.11900
H  36.99300 45.87200 29.43300
H  34.21900 43.68800 31.85500
H  33.30400 45.14900 31.46800
H  34.58400 45.09700 32.69200

