158

Mg 30.71800 58.26100 40.63000
C  27.87400 56.64100 39.61400
C  32.69200 55.88300 39.14800
C  33.44500 60.27900 41.00300
C  28.66800 61.10000 41.31000
N  30.30100 56.54500 39.50800
C  29.04500 55.98200 39.31200
C  29.22500 54.66900 38.51800
C  30.71800 54.28200 38.69900
C  31.25400 55.61200 39.18900
C  30.98800 53.07400 39.66600
C  28.82800 54.93700 36.99500
C  27.85800 53.99600 36.30800
H  27.97100 53.94100 34.76200
N  32.84700 58.10300 40.17400
C  33.40500 56.98100 39.62100
C  34.83200 57.23500 39.47700
C  35.10400 58.41400 40.17700
C  33.76100 58.97400 40.55600
C  35.76700 56.24300 38.79600
C  36.57900 58.85400 40.48300
O  37.51600 58.32400 39.98000
C  36.90200 60.03600 41.36900
N  30.99300 60.40700 41.16400
C  32.24500 60.95000 41.26900
C  32.17000 62.47200 41.52400
C  30.62900 62.65600 41.84300
C  30.00200 61.34800 41.34400
C  33.12800 63.00800 42.64200
C  29.95700 63.89200 41.27900
C  30.77600 65.17700 41.47600
N  28.63600 58.79700 40.56300
C  27.96600 59.91100 40.91000
C  26.51900 59.61700 40.79500
C  26.40900 58.32000 40.31800
C  27.71500 57.90500 40.13700
C  25.38200 60.51000 41.23100
C  25.42800 57.22500 39.94500
O  24.20300 57.15000 40.01100
C  26.45900 56.14900 39.35100
C  26.25800 54.79600 40.02100
O  26.77300 54.36900 41.05000
O  25.21200 54.12400 39.33400
C  24.80600 52.80300 39.95700
H  33.28400 55.06000 38.74300
H  34.36500 60.86700 40.97800
H  28.01600 61.91200 41.63700
H  28.51800 54.01400 39.02700
H  31.06100 53.92700 37.72800
H  30.98000 53.40200 40.70500
H  32.01500 52.77000 39.46300
H  30.25000 52.30500 39.43900
H  29.70100 54.96700 36.34400
H  28.31800 55.90000 37.01500
H  26.86200 54.39300 36.50400
H  27.95100 53.02200 36.78800
H  35.63000 56.25300 37.71500
H  35.55100 55.22700 39.12700
H  36.78100 56.41900 39.15500
H  36.52800 60.90500 40.82600
H  37.97300 60.21100 41.46500
H  36.50600 60.05100 42.38400
H  32.39100 62.90500 40.54900
H  30.48800 62.70700 42.92300
H  33.89900 62.25200 42.79100
H  32.50100 63.10300 43.52800
H  33.56800 63.98000 42.41900
H  29.08700 64.06800 41.91100
H  29.49800 63.84300 40.29100
H  31.48300 65.40200 40.67800
H  31.28200 65.18300 42.44100
H  30.13800 66.05800 41.54900
H  24.92700 61.01600 40.37900
H  25.73500 61.25800 41.94100
H  24.66200 59.92400 41.80200
H  26.33600 56.11300 38.26800
H  24.88700 52.68700 41.03800
H  25.16900 51.86700 39.53100
H  23.76800 52.71300 39.63600
Mg -11.91800 16.52700 42.58700
C  -8.58300 15.26400 42.06100
C  -10.94800 19.34900 40.89600
C  -15.05300 17.56100 42.90500
C  -12.70600 13.44800 43.89100
N  -9.99200 17.19500 41.48500
C  -8.75500 16.55100 41.42800
C  -7.76800 17.44800 40.56900
C  -8.67300 18.68700 40.20800
C  -9.91500 18.42900 41.03700
C  -7.96400 20.07600 40.33100
C  -7.25000 16.63300 39.33300
C  -5.74200 16.47700 39.20100
H  -5.08500 17.10000 37.96900
N  -12.91900 18.21100 41.87500
C  -12.36200 19.30300 41.29000
C  -13.31900 20.33700 41.15000
C  -14.47700 19.94000 41.83300
C  -14.24100 18.51900 42.15000
C  -12.99300 21.67100 40.51000
C  -15.73600 20.77000 42.02600
O  -15.86400 21.92400 41.54700
C  -16.88200 20.24400 42.75300
N  -13.68800 15.53400 43.02200
C  -14.80400 16.26800 43.31100
C  -15.77200 15.44400 44.14900
C  -15.01100 14.09400 44.42100
C  -13.68600 14.34300 43.69500
C  -16.36100 16.12300 45.41600
C  -15.76600 12.74300 43.89000
C  -15.61200 11.56800 44.87500
N  -10.88000 14.76800 43.05800
C  -11.33600 13.57400 43.60500
C  -10.25600 12.67500 43.93100
C  -9.10100 13.27200 43.28900
C  -9.58800 14.52400 42.74900
C  -10.40300 11.35600 44.56000
C  -7.65400 13.15700 42.92500
O  -6.82800 12.26700 43.17400
C  -7.25600 14.43600 42.11700
C  -6.18400 15.07000 42.89100
O  -6.31300 15.40800 44.02000
O  -4.94600 14.96800 42.27800
C  -3.67600 15.17200 43.02400
H  -10.77700 20.34900 40.49200
H  -16.09400 17.87800 42.99500
H  -13.07700 12.51000 44.30900
H  -6.96400 17.77000 41.23200
H  -8.90800 18.49900 39.16100
H  -8.24300 20.56300 41.26500
H  -8.23800 20.68600 39.47100
H  -6.88500 19.92000 40.31500
H  -7.72200 16.89500 38.38600
H  -7.58100 15.60400 39.46800
H  -5.44800 15.42800 39.18400
H  -5.31100 16.95100 40.08300
H  -13.82500 22.37300 40.56000
H  -12.80600 21.63000 39.43700
H  -12.13000 22.18500 40.93100
H  -17.64200 20.99500 42.97200
H  -16.61300 19.89100 43.74800
H  -17.32800 19.44000 42.16700
H  -16.56500 15.16500 43.45500
H  -14.86000 14.05700 45.49900
H  -16.13200 17.18200 45.29800
H  -16.03400 15.64900 46.34200
H  -17.44600 16.07600 45.50400
H  -15.21400 12.45400 42.99500
H  -16.81600 12.91800 43.65900
H  -16.53400 11.05600 45.15200
H  -15.27700 11.94200 45.84200
H  -15.01800 10.69300 44.61100
H  -10.36600 11.61100 45.61900
H  -9.61000 10.63500 44.36400
H  -11.36800 10.91400 44.31200
H  -6.97400 14.15600 41.10200
H  -2.90600 14.41300 42.88500
H  -3.93000 14.99400 44.06900
H  -3.23600 16.16800 42.97200

