158

Mg 0.86800 7.20600 25.41500
C  1.55400 8.90100 28.38000
C  1.15500 4.27000 27.20800
C  0.40300 5.47100 22.63500
C  1.11100 10.24000 23.68000
N  1.07100 6.67200 27.60500
C  1.29700 7.56700 28.55000
C  1.36100 6.82800 29.87500
C  1.55000 5.28900 29.47000
C  1.26000 5.38400 27.97100
C  2.78900 4.59200 29.97800
C  0.10300 7.07200 30.72100
C  0.44400 7.49800 32.20600
H  1.73700 6.97700 32.85900
N  0.78100 5.12800 24.96700
C  0.95200 4.06900 25.81000
C  0.86400 2.84800 25.07200
C  0.68500 3.25700 23.71600
C  0.67000 4.68600 23.69400
C  1.12800 1.53600 25.73400
C  0.56500 2.33600 22.46200
O  0.49000 2.79800 21.30900
C  0.47800 0.89900 22.63100
N  0.86400 7.75600 23.44000
C  0.39900 6.89000 22.51400
C  0.10700 7.60600 21.21100
C  0.34900 9.09700 21.49700
C  0.78000 9.08500 22.98600
C  0.97400 6.95300 20.09900
C  -0.87700 10.04000 21.38700
C  -0.79200 11.24700 20.37600
N  1.39200 9.19100 25.90400
C  1.40000 10.31600 25.12800
C  1.57900 11.49900 25.93900
C  1.66300 10.98900 27.24500
C  1.63100 9.52600 27.15900
C  1.53000 12.91600 25.27200
C  1.84100 11.35200 28.67600
O  2.01900 12.43600 29.21700
C  1.83700 9.95500 29.42900
C  3.15300 9.82100 30.12900
O  4.20200 9.43100 29.60400
O  3.12800 10.49000 31.40200
C  4.43500 10.67800 32.14000
H  1.37400 3.39300 27.82100
H  0.07000 4.96100 21.72900
H  1.11400 11.20100 23.16100
H  2.23600 7.29500 30.32900
H  0.74100 4.69000 29.88900
H  3.43600 5.30100 30.49400
H  3.38600 4.19200 29.15800
H  2.51000 3.80100 30.67400
H  -0.49000 6.15900 30.78200
H  -0.60000 7.75300 30.24100
H  -0.44600 7.24300 32.78200
H  0.48900 8.58200 32.31100
H  2.05500 1.15800 25.30300
H  0.34200 0.84900 25.42100
H  1.02600 1.54900 26.81900
H  1.48800 0.52500 22.79600
H  0.05000 0.33500 21.80200
H  -0.25200 0.81600 23.43600
H  -0.97200 7.54100 21.07500
H  1.18600 9.39100 20.86300
H  1.14100 7.64800 19.27600
H  0.45500 6.06400 19.74000
H  1.97000 6.70100 20.46200
H  -1.07200 10.50000 22.35700
H  -1.77600 9.48000 21.13000
H  -0.92000 12.16800 20.94400
H  -1.45700 11.14600 19.51900
H  0.21000 11.34200 19.95700
H  1.33400 13.54800 26.13800
H  0.71400 13.07500 24.56600
H  2.41400 13.28700 24.75300
H  1.03000 10.06300 30.15300
H  5.22000 10.77900 31.39100
H  4.82900 9.87900 32.76900
H  4.29700 11.59500 32.71300
Mg -9.99200 39.72500 41.59100
C  -9.20100 36.52000 40.39400
C  -7.00300 40.77200 39.92300
C  -10.93400 42.81700 42.09700
C  -13.39000 38.57000 42.15500
N  -8.35500 38.73400 40.26300
C  -8.22300 37.38600 39.98300
C  -6.94200 37.02900 39.13900
C  -6.20200 38.44700 39.10000
C  -7.24300 39.41200 39.77400
C  -4.67900 38.49000 39.61600
C  -7.33300 36.47500 37.70400
C  -6.65500 35.15500 37.31700
H  -5.79800 35.11500 36.01700
N  -9.02700 41.44500 41.27600
C  -7.82000 41.71800 40.51600
C  -7.59600 43.08000 40.52000
C  -8.65700 43.73400 41.24300
C  -9.58800 42.65400 41.62800
C  -6.25800 43.72500 39.96700
C  -8.66100 45.22800 41.56500
O  -7.72200 45.93400 41.21700
C  -9.76300 45.80700 42.46700
N  -11.94900 40.49900 42.02300
C  -12.02500 41.90600 42.26900
C  -13.42400 42.38600 42.72400
C  -14.20600 40.99700 42.71100
C  -13.12700 39.94100 42.30800
C  -13.43300 43.10700 44.11600
C  -15.55200 40.88400 41.81500
C  -16.73100 40.22700 42.59400
N  -11.06300 37.90000 41.55000
C  -12.38200 37.60200 41.75700
C  -12.49600 36.15200 41.75400
C  -11.30500 35.67300 41.19700
C  -10.46300 36.80700 40.98800
C  -13.63300 35.29900 42.21500
C  -10.50400 34.49900 40.82300
O  -10.81400 33.32600 40.85100
C  -9.14000 34.97100 40.29000
C  -8.12100 34.41900 41.25000
O  -7.89400 34.84500 42.39200
O  -7.67800 33.20000 40.81200
C  -6.67100 32.68600 41.67300
H  -6.05900 40.94600 39.40400
H  -11.16200 43.84300 42.39500
H  -14.39800 38.17200 42.29100
H  -6.39300 36.24700 39.66400
H  -6.22700 38.98800 38.15400
H  -4.55100 38.94300 40.60000
H  -4.13400 39.09300 38.89000
H  -4.23900 37.51500 39.40900
H  -7.10800 37.23400 36.95500
H  -8.42000 36.47600 37.62200
H  -7.39200 34.37600 37.12100
H  -5.99200 34.78200 38.09800
H  -6.48300 44.49400 39.22800
H  -5.64600 43.06600 39.35200
H  -5.71100 44.14900 40.80900
H  -9.67900 45.31800 43.43700
H  -10.77300 45.64200 42.09000
H  -9.72500 46.89400 42.54100
H  -13.80800 43.16200 42.06200
H  -14.52400 40.83900 43.74100
H  -12.46000 43.44600 44.47200
H  -13.97800 42.48800 44.82900
H  -14.00300 44.00500 43.88000
H  -15.22300 40.13000 41.10000
H  -15.91000 41.79000 41.32700
H  -16.49800 39.19000 42.83600
H  -17.71600 40.38300 42.15400
H  -16.68100 40.74400 43.55200
H  -14.03400 34.68700 41.40700
H  -14.30000 36.04700 42.64300
H  -13.26000 34.59000 42.95400
H  -9.10000 34.52500 39.29700
H  -6.07700 31.95000 41.13300
H  -7.08100 32.24500 42.58100
H  -5.89700 33.38200 41.99500

