158

Mg 47.89500 25.03300 27.73200
C  48.75100 27.42600 30.22200
C  46.93200 22.93000 30.01900
C  47.29300 22.91200 25.29400
C  49.03800 27.35700 25.44200
N  47.74100 25.26300 29.89300
C  48.15800 26.25400 30.74800
C  47.90900 25.85800 32.20200
C  47.53200 24.31800 32.04800
C  47.34500 24.17800 30.52500
C  48.64300 23.39700 32.57000
C  46.86500 26.72000 32.94100
C  46.47500 26.31500 34.35400
H  46.51400 27.38700 35.38100
N  47.17300 23.13400 27.66100
C  46.80100 22.43800 28.76600
C  46.45000 21.09300 28.33300
C  46.37900 21.10000 26.92000
C  47.02500 22.39100 26.53000
C  45.98100 20.01100 29.21200
C  45.93200 20.00900 25.98400
O  46.14000 20.08900 24.81900
C  45.13700 18.88100 26.41500
N  48.33300 25.01500 25.70800
C  47.83400 24.09700 24.88500
C  47.79600 24.49000 23.41200
C  48.22700 25.97300 23.43900
C  48.51000 26.14100 24.96700
C  48.73700 23.60700 22.64900
C  47.20300 27.01600 22.91900
C  47.32900 27.52800 21.46400
N  48.86300 26.92600 27.76900
C  49.37200 27.70500 26.74000
C  49.93900 28.88600 27.21200
C  49.74300 28.82500 28.62000
C  49.06900 27.66400 28.87300
C  50.68800 29.90800 26.40400
C  49.95800 29.54200 29.93800
O  50.47400 30.58300 30.24100
C  49.13600 28.65700 30.98400
C  49.93700 28.50500 32.21600
O  50.77300 27.61000 32.47700
O  49.59200 29.42100 33.20000
C  50.06300 29.07600 34.50300
H  46.60800 22.25000 30.80900
H  47.00300 22.17000 24.54700
H  49.30100 28.18200 24.77600
H  48.84300 25.99700 32.74600
H  46.58700 24.06500 32.53000
H  49.29400 23.82600 33.33200
H  49.14400 22.88400 31.75000
H  48.11800 22.64600 33.16000
H  45.99400 26.96300 32.33300
H  47.36200 27.68400 33.05100
H  47.09900 25.50500 34.73300
H  45.43800 25.98500 34.42500
H  46.58800 19.14300 28.95600
H  44.89200 19.97100 29.18900
H  46.20300 20.26600 30.24800
H  44.34900 19.13500 27.12400
H  45.67100 18.22900 27.10600
H  44.67100 18.24800 25.66000
H  46.79500 24.34400 23.00700
H  49.14800 26.10100 22.86900
H  49.57300 23.35100 23.30000
H  49.09400 24.09700 21.74300
H  48.26500 22.66500 22.36700
H  47.09800 27.90900 23.53500
H  46.25000 26.49000 22.96300
H  46.35800 27.84900 21.08800
H  47.76300 26.66700 20.95700
H  48.01900 28.36600 21.57000
H  51.14400 29.25800 25.65700
H  51.41400 30.46200 26.99900
H  50.05700 30.65400 25.92100
H  48.26100 29.21900 31.30900
H  51.15000 29.03800 34.58100
H  49.68400 28.12200 34.87000
H  49.81600 29.89100 35.18400
Mg -5.84800 25.32900 26.44300
C  -4.80200 26.72500 29.66300
C  -7.68200 22.97500 28.27600
C  -6.52400 23.98500 23.57100
C  -3.52400 27.54600 25.10300
N  -6.18800 24.96200 28.66500
C  -5.72200 25.67200 29.80200
C  -6.29800 25.10000 31.04900
C  -6.92400 23.70500 30.54400
C  -6.93100 23.91400 29.07100
C  -6.09800 22.43500 30.99300
C  -7.03900 26.02100 31.96200
C  -6.91500 25.88800 33.54800
H  -6.19900 24.60100 34.05500
N  -6.88500 23.75400 26.00000
C  -7.70300 22.95000 26.87100
C  -8.46400 22.05600 26.07000
C  -8.22100 22.34600 24.74700
C  -7.17900 23.39800 24.68600
C  -9.30700 20.94700 26.71000
C  -8.79800 21.73200 23.49000
O  -8.43800 22.07300 22.38400
C  -9.87200 20.72900 23.59800
N  -5.10600 25.70400 24.66900
C  -5.60900 25.06600 23.58800
C  -5.00000 25.61600 22.24200
C  -4.04900 26.73700 22.83100
C  -4.16200 26.62300 24.31600
C  -4.21800 24.63400 21.34000
C  -4.17200 28.19300 22.20200
C  -3.24100 28.45600 20.99100
N  -4.49600 26.93200 27.18100
C  -3.65700 27.71200 26.46200
C  -2.92000 28.69200 27.32600
C  -3.39000 28.30900 28.58900
C  -4.29000 27.26400 28.49000
C  -2.04400 29.78600 26.88400
C  -3.31900 28.72200 29.99200
O  -2.83100 29.67200 30.55800
C  -4.24800 27.70000 30.70600
C  -3.48700 26.89000 31.64000
O  -2.81300 25.92700 31.35800
O  -3.58300 27.44600 32.93500
C  -2.75500 26.94400 33.95400
H  -8.24800 22.31700 28.93900
H  -6.75000 23.53300 22.60300
H  -2.77300 28.17500 24.62100
H  -5.34700 24.85400 31.52200
H  -7.90800 23.56000 30.98900
H  -5.19800 22.71900 31.53800
H  -5.67400 21.95000 30.11400
H  -6.83800 21.85700 31.54500
H  -8.11500 25.86300 31.88300
H  -6.87900 27.03800 31.60300
H  -7.93100 26.05000 33.90800
H  -6.40900 26.77400 33.93100
H  -10.34500 20.89900 26.37800
H  -9.44700 21.16000 27.76900
H  -8.80400 20.00000 26.51300
H  -9.36000 19.79900 23.84300
H  -10.34300 20.55800 22.63000
H  -10.65500 21.12300 24.24600
H  -5.73400 26.11500 21.60900
H  -3.06200 26.34300 22.59200
H  -3.78300 23.79100 21.87700
H  -3.41000 25.19100 20.86600
H  -4.84400 24.26500 20.52700
H  -3.97300 28.95100 22.96100
H  -5.22200 28.36400 21.96700
H  -2.41000 29.12200 21.22600
H  -3.65600 28.89800 20.08500
H  -2.81500 27.47600 20.77500
H  -1.08500 29.53800 26.42700
H  -1.87000 30.37200 27.78600
H  -2.56200 30.45400 26.19600
H  -5.08800 28.10100 31.27300
H  -3.33000 26.25300 34.57100
H  -2.45300 27.75300 34.61900
H  -1.89000 26.40900 33.56300

