158

Mg 41.32700 7.93200 29.51300
C  43.11400 9.73500 32.05900
C  39.07800 6.99200 31.89800
C  39.76200 6.42900 27.15900
C  44.10000 8.58500 27.42100
N  41.16300 8.30800 31.77000
C  41.91200 9.16200 32.50200
C  41.35200 9.20900 33.94300
C  40.18900 8.12100 33.95600
C  40.14600 7.71500 32.51100
C  40.33400 6.87200 34.92500
C  40.88800 10.70000 34.37100
C  40.15100 10.80700 35.79500
H  40.50000 11.88800 36.82200
N  39.60000 6.88200 29.51100
C  38.84900 6.57500 30.58600
C  37.77800 5.74000 30.17800
C  37.81800 5.78200 28.76100
C  39.07700 6.41200 28.35900
C  36.77200 5.22800 31.18400
C  36.85100 5.11000 27.75900
O  37.01500 5.27400 26.53800
C  35.64200 4.28000 28.32300
N  41.91000 7.54400 27.58000
C  41.02800 6.82300 26.81500
C  41.65800 6.47600 25.38700
C  42.94900 7.37900 25.44000
C  42.99600 7.89400 26.87400
C  41.89400 4.92100 25.19400
C  42.94700 8.58600 24.44500
C  41.83900 9.56000 24.62200
N  43.27500 8.83200 29.67600
C  44.26000 9.05600 28.73700
C  45.42100 9.82400 29.37400
C  44.90400 10.19400 30.53700
C  43.65700 9.53500 30.74300
C  46.63800 10.38500 28.74200
C  45.25300 10.99900 31.65900
O  46.15700 11.75900 31.92500
C  44.09400 10.77100 32.68700
C  44.67500 10.27600 33.98900
O  45.16100 9.23400 34.11100
O  44.56500 11.22500 34.95000
C  45.25100 11.02700 36.23100
H  38.33300 6.87500 32.68800
H  39.24800 5.89100 26.35900
H  44.87800 8.91500 26.72900
H  42.22900 8.87100 34.49300
H  39.23400 8.62100 34.11300
H  41.37300 6.75800 35.23100
H  40.17200 5.97100 34.33300
H  39.58700 6.88600 35.71900
H  40.24000 11.04400 33.56500
H  41.74700 11.37100 34.40600
H  40.40000 9.87100 36.29500
H  39.07000 10.85000 35.66300
H  36.57100 4.17800 30.96900
H  35.89500 5.87200 31.12700
H  37.11200 5.26300 32.22000
H  35.05700 4.93600 28.96900
H  36.02500 3.46400 28.93400
H  34.97300 3.97500 27.51700
H  40.89100 6.77000 24.67100
H  43.90000 6.85000 25.38900
H  41.32700 4.39900 25.96500
H  42.91000 4.64900 25.48300
H  41.68500 4.45100 24.23300
H  42.94500 8.03200 23.50600
H  43.86800 9.16900 24.40900
H  41.16500 9.40200 25.46400
H  41.33500 9.55000 23.65600
H  42.20500 10.57500 24.77800
H  46.45500 11.30600 28.18800
H  46.95500 9.58600 28.07200
H  47.34800 10.56600 29.54900
H  43.62500 11.69700 33.02200
H  44.52400 10.66100 36.95500
H  45.77800 11.93500 36.52400
H  46.09300 10.33400 36.20700
Mg 46.93500 24.66300 27.89700
C  47.47300 26.85700 30.55600
C  46.00900 22.23100 30.25100
C  46.41400 22.30000 25.35900
C  48.22500 26.81500 25.72200
N  46.52500 24.69200 30.13200
C  46.83500 25.70000 31.00600
C  46.57600 25.34300 32.50600
C  46.25600 23.79300 32.33700
C  46.37600 23.51200 30.79000
C  47.16800 22.85200 33.13900
C  45.45300 26.17800 33.13500
C  45.76400 26.65100 34.54900
H  44.69600 26.41100 35.65600
N  46.02400 22.70000 27.77700
C  45.77600 21.85000 28.84200
C  45.14500 20.58500 28.36500
C  45.31300 20.59800 26.95700
C  45.98300 21.92800 26.61100
C  44.64600 19.52200 29.35200
C  45.03600 19.48400 25.96300
O  45.36900 19.64900 24.80700
C  44.33400 18.15200 26.47200
N  47.21700 24.50800 25.84700
C  47.08500 23.49300 25.03200
C  47.55900 23.87400 23.60900
C  47.65800 25.46600 23.65600
C  47.66900 25.59900 25.18900
C  48.84900 23.12900 23.05300
C  46.51400 26.19200 22.91400
C  45.22100 26.61600 23.67900
N  47.89300 26.38900 28.08000
C  48.38000 27.15600 27.06600
C  48.90300 28.38700 27.69800
C  48.60700 28.28700 29.05500
C  47.92600 27.10200 29.21100
C  49.56200 29.48200 26.88700
C  48.73700 28.93600 30.28600
O  49.26300 30.03900 30.58000
C  48.02200 28.01800 31.34200
C  48.85000 27.51800 32.44200
O  49.76000 26.77300 32.27500
O  48.57500 28.05400 33.65800
C  49.47400 27.64100 34.71100
H  45.63700 21.51200 30.98400
H  46.35500 21.57200 24.54700
H  48.52300 27.60400 25.02800
H  47.50000 25.40400 33.08100
H  45.24500 23.52700 32.64500
H  47.36100 21.99700 32.49000
H  46.69500 22.44400 34.03300
H  48.07800 23.36500 33.44900
H  44.47700 25.69200 33.14400
H  45.27800 27.05700 32.51500
H  45.78900 27.74000 34.49700
H  46.73200 26.28900 34.89500
H  43.57000 19.39100 29.23200
H  44.70500 19.92000 30.36500
H  45.22400 18.61700 29.16500
H  43.43500 18.46400 27.00300
H  45.01000 17.46300 26.97900
H  44.04200 17.61300 25.57100
H  46.71300 23.54600 23.00600
H  48.60900 25.84900 23.28600
H  49.18000 22.43400 23.82500
H  49.56100 23.91600 22.80800
H  48.53800 22.53900 22.19000
H  46.28200 25.64300 22.00100
H  46.96800 27.15100 22.66200
H  45.02400 27.68700 23.73300
H  45.30700 26.15600 24.66300
H  44.42700 26.07300 23.16600
H  49.37800 30.49000 27.25900
H  49.21200 29.41500 25.85700
H  50.65000 29.46500 26.82200
H  47.26200 28.63700 31.81800
H  50.38400 27.06300 34.54900
H  48.97000 27.13800 35.53700
H  49.91500 28.56200 35.09200

