158

Mg 50.02600 45.86000 41.94600
C  47.02300 47.54800 40.87200
C  48.88800 43.10000 40.26900
C  53.18400 44.73800 42.15000
C  51.23700 49.10500 42.69600
N  48.12400 45.38700 40.71300
C  47.02000 46.16200 40.52900
C  45.94900 45.37300 39.66600
C  46.58000 43.93200 39.69300
C  47.93100 44.09500 40.33000
C  45.66500 42.90800 40.39200
C  45.65500 45.85900 38.24400
C  44.19100 45.73800 37.81600
H  43.84400 45.43600 36.29800
N  50.87300 44.14800 41.43300
C  50.26800 43.10700 40.67100
C  51.16900 41.97600 40.55000
C  52.40800 42.41400 41.09200
C  52.21000 43.84000 41.65800
C  50.87100 40.60400 39.89700
C  53.69100 41.61800 41.02300
O  53.69800 40.50600 40.53200
C  55.11400 42.20700 41.26500
N  51.94600 46.82800 42.24400
C  53.03200 46.08200 42.46000
C  54.23500 46.88000 43.04200
C  53.57100 48.28600 43.01700
C  52.16600 48.00900 42.72600
C  54.73800 46.24700 44.35200
C  54.15500 49.39800 42.04700
C  55.25300 50.26800 42.59300
N  49.22800 47.84800 42.08000
C  49.88300 49.06000 42.37200
C  48.92600 50.18800 42.30800
C  47.71900 49.61800 41.76800
C  48.04800 48.25300 41.55700
C  49.23200 51.58300 42.55800
C  46.38700 49.92000 41.32200
O  45.77100 50.97700 41.32500
C  45.82900 48.55800 40.65700
C  44.58500 48.11400 41.19500
O  44.51700 47.46200 42.21000
O  43.56800 48.48400 40.33500
C  42.22100 48.13400 40.81900
H  48.46400 42.16400 39.89900
H  54.23500 44.44500 42.17800
H  51.54600 50.08600 43.06400
H  45.02600 45.40400 40.24400
H  46.64400 43.51100 38.69000
H  45.96800 42.66700 41.41100
H  45.72400 41.88900 40.00700
H  44.66100 43.33200 40.38400
H  46.26900 45.40100 37.46900
H  45.94300 46.91000 38.27900
H  43.65700 46.63400 38.13400
H  43.80300 44.85600 38.32400
H  51.39400 40.58700 38.94100
H  49.84800 40.51900 39.52900
H  51.28200 39.80100 40.51000
H  55.08900 42.40900 42.33600
H  55.24000 43.14900 40.73100
H  55.88200 41.48400 40.98900
H  54.97100 46.60100 42.28700
H  53.54400 48.77300 43.99200
H  54.65800 46.95600 45.17500
H  55.76200 45.89800 44.21700
H  54.22100 45.29300 44.46100
H  53.45600 50.12500 41.63300
H  54.43800 48.89900 41.12000
H  55.01300 51.32500 42.70800
H  56.20500 50.29100 42.06200
H  55.46400 49.97800 43.62200
H  49.92200 51.92800 41.78700
H  49.74000 51.72700 43.51100
H  48.31500 52.15200 42.70300
H  45.68400 48.63000 39.57900
H  42.04500 47.06000 40.75300
H  41.42500 48.72100 40.36100
H  42.15600 48.50400 41.84200
Mg 9.74200 47.29400 24.80600
C  7.78400 47.38500 27.68300
C  12.32900 48.87100 26.63200
C  11.52400 47.28300 22.06600
C  6.95200 46.15000 22.98900
N  10.07700 47.91500 27.00100
C  9.11900 47.81800 27.98100
C  9.69800 48.44100 29.25700
C  10.95600 49.31300 28.80700
C  11.17400 48.66300 27.40000
C  10.86500 50.86400 28.74000
C  10.02300 47.30700 30.24700
C  9.89200 47.58300 31.78400
H  9.67200 46.37900 32.71700
N  11.70400 47.93200 24.45400
C  12.55600 48.53600 25.31300
C  13.79300 48.73000 24.52200
C  13.62400 48.23100 23.22900
C  12.24500 47.74800 23.17200
C  15.05900 49.20600 25.17900
C  14.66000 48.24900 22.09000
O  14.49000 47.74900 20.93100
C  15.90700 49.04400 22.22600
N  9.26700 46.75600 22.78200
C  10.25000 46.83500 21.83100
C  9.77900 46.27700 20.50000
C  8.21000 46.02300 20.72900
C  8.08000 46.37500 22.23200
C  10.22300 47.13100 19.19900
C  7.81500 44.63000 20.46300
C  8.35500 43.59000 21.50600
N  7.78400 46.83500 25.18300
C  6.78500 46.43600 24.36800
C  5.52900 46.28800 25.14500
C  5.85000 46.66300 26.45600
C  7.23400 46.99000 26.41500
C  4.20200 46.06200 24.69500
C  5.36000 46.83900 27.79300
O  4.24900 46.60600 28.28900
C  6.66000 47.16400 28.65000
C  6.87800 46.01700 29.60300
O  7.34200 44.97000 29.33500
O  6.49900 46.22900 30.84000
C  6.41000 45.10500 31.78400
H  13.19800 49.29400 27.14100
H  12.22900 47.04900 21.26500
H  6.15900 45.66500 22.41500
H  8.94600 49.06000 29.74600
H  11.77400 49.04800 29.47800
H  11.22300 51.16200 27.75500
H  11.43400 51.38500 29.50900
H  9.78200 50.97300 28.79800
H  11.03800 46.99300 30.00000
H  9.36900 46.44700 30.10600
H  9.15500 48.36400 31.97100
H  10.86900 47.88900 32.16000
H  15.88500 48.66300 24.71900
H  15.01500 49.25600 26.26700
H  15.16200 50.28300 25.04500
H  16.26100 49.37800 21.25100
H  16.64800 48.39900 22.69800
H  15.73300 49.88800 22.89400
H  10.23100 45.28600 20.45100
H  7.57200 46.66500 20.12200
H  9.53900 47.97000 19.06700
H  10.15600 46.49500 18.31700
H  11.21200 47.56500 19.34600
H  8.18600 44.30100 19.49200
H  6.72900 44.59500 20.38200
H  8.70400 42.70600 20.97100
H  7.54300 43.35800 22.19600
H  9.19700 43.90000 22.12400
H  4.06800 46.90900 24.02300
H  3.49900 46.05800 25.52800
H  4.11500 45.09300 24.20200
H  6.56700 48.08600 29.22400
H  7.25400 44.43200 31.63500
H  5.45400 44.61200 31.60300
H  6.48300 45.42600 32.82300

