158

Mg 44.57400 5.23000 48.46600
C  42.86900 8.14500 47.44100
C  41.69600 3.48800 47.79500
C  46.34300 2.35400 48.75000
C  47.47100 7.10300 48.91100
N  42.55500 5.74700 47.74600
C  42.10800 6.98600 47.37500
C  40.66200 6.98400 46.94300
C  40.23100 5.50100 47.22100
C  41.51600 4.85800 47.64100
C  39.04100 5.37200 48.22700
C  40.48900 7.34600 45.40000
C  39.34300 8.29700 45.18700
H  38.26200 7.99900 44.03800
N  44.11600 3.14700 48.25500
C  42.83900 2.67600 48.05800
C  42.91300 1.27800 48.04800
C  44.24000 0.84600 48.18700
C  44.98000 2.12500 48.34000
C  41.76700 0.43500 47.80800
C  44.70600 -0.57300 48.26400
O  43.91800 -1.48500 48.19200
C  46.10100 -0.82500 48.34900
N  46.62400 4.78200 48.71700
C  47.12500 3.52200 48.90700
C  48.70900 3.44400 49.12200
C  49.02200 4.97500 49.04300
C  47.59400 5.70300 48.93100
C  49.08300 2.80500 50.49400
C  50.05200 5.38200 47.88800
C  51.37500 6.04300 48.26000
N  45.10300 7.24700 48.33900
C  46.28500 7.87500 48.52400
C  46.13500 9.28200 48.34700
C  44.81600 9.36100 47.96800
C  44.21200 8.16000 47.93300
C  47.26100 10.25500 48.55500
C  43.81000 10.25500 47.40500
O  43.97200 11.43400 47.17400
C  42.52100 9.55800 47.09200
C  41.46700 10.15600 47.94700
O  41.16700 9.66900 49.05400
O  40.75900 11.11800 47.23300
C  39.43300 11.42700 47.79900
H  40.77900 3.00300 47.45600
H  47.08100 1.54900 48.78100
H  48.34600 7.75700 48.90200
H  40.02500 7.63500 47.54000
H  39.93200 4.99800 46.30100
H  39.35000 4.82500 49.11800
H  38.36800 4.79600 47.59200
H  38.64100 6.33200 48.55300
H  40.40200 6.41000 44.84800
H  41.40100 7.86400 45.10200
H  39.77400 9.29100 45.06400
H  38.80100 8.19800 46.12800
H  42.15400 -0.42000 47.25300
H  40.95100 0.92100 47.27300
H  41.40900 0.14700 48.79600
H  46.27100 -1.88700 48.52400
H  46.47400 -0.32100 49.24100
H  46.47200 -0.41300 47.41100
H  49.08400 2.87400 48.27200
H  49.52500 5.23900 49.97300
H  49.23600 1.74000 50.32100
H  48.33300 3.00800 51.25900
H  49.99600 3.22600 50.91600
H  49.57000 6.10600 47.23000
H  50.14700 4.43800 47.35200
H  52.23100 5.48600 47.88100
H  51.43600 6.14400 49.34400
H  51.38300 7.02200 47.78100
H  47.85300 9.93200 49.41100
H  46.83200 11.23900 48.74000
H  47.91500 10.27000 47.68300
H  42.34200 9.72700 46.03000
H  38.89400 10.48500 47.89300
H  38.79200 11.97000 47.10500
H  39.53300 11.93400 48.75900
Mg 48.53700 35.16700 26.50900
C  46.87100 33.68400 29.08400
C  48.78600 37.87800 28.34300
C  50.07600 36.55500 23.78900
C  47.93800 32.21600 24.60500
N  47.93800 35.65800 28.54500
C  47.41900 34.87000 29.43700
C  47.46100 35.46000 30.85600
C  47.79700 36.98700 30.53400
C  48.19100 36.81900 29.04100
C  46.72800 38.06500 30.83700
C  48.50200 34.75300 31.80600
C  48.24300 34.66200 33.35000
H  47.23500 35.64700 33.94600
N  49.33500 36.96200 26.13200
C  49.35900 38.00700 27.05400
C  50.02900 39.12500 26.52100
C  50.35400 38.78400 25.15300
C  49.94800 37.38800 24.96900
C  50.22500 40.28700 27.45300
C  51.10700 39.68200 24.14400
O  51.42100 39.25000 23.03300
C  51.46500 41.18100 24.45300
N  48.80800 34.51000 24.39300
C  49.59200 35.25900 23.55900
C  50.00300 34.36700 22.32800
C  49.22900 33.06700 22.51600
C  48.64600 33.21100 23.93100
C  49.93900 34.89600 20.95700
C  50.08000 31.71100 22.34300
C  49.96900 31.12700 20.94500
N  47.52900 33.32400 26.70700
C  47.39600 32.28800 25.84800
C  46.50800 31.28800 26.45200
C  46.25000 31.80900 27.71500
C  46.97000 33.08300 27.84100
C  46.15500 29.96100 25.79500
C  45.59500 31.57400 28.96600
O  44.89900 30.62000 29.26900
C  45.86300 32.86200 29.90600
C  46.26800 32.37500 31.25700
O  47.26600 31.68300 31.38600
O  45.38300 32.64300 32.25100
C  45.52100 31.98500 33.51700
H  48.83200 38.75100 28.99600
H  50.71700 36.90200 22.97600
H  47.76600 31.33000 23.99100
H  46.44000 35.40300 31.23200
H  48.70200 37.24900 31.08200
H  45.90100 37.55500 31.33200
H  46.38100 38.66300 29.99500
H  47.11500 38.72200 31.61600
H  49.50700 35.13000 31.61300
H  48.59400 33.72600 31.45400
H  49.25000 34.71700 33.76200
H  47.88500 33.65600 33.56800
H  49.27000 40.66500 27.82000
H  50.91300 41.05000 27.08900
H  50.70100 39.98500 28.38600
H  52.16300 41.19200 25.29100
H  50.50400 41.62900 24.70500
H  51.86100 41.58500 23.52200
H  51.05900 34.20600 22.54700
H  48.38400 33.09600 21.82800
H  49.22000 35.71400 20.90800
H  49.65000 34.12600 20.24200
H  50.92600 35.31200 20.75300
H  49.90600 31.01800 23.16600
H  51.14600 31.79300 22.55800
H  49.44600 31.70900 20.18600
H  49.47200 30.18800 21.19100
H  50.97900 30.88000 20.61900
H  47.05800 29.42600 25.50000
H  45.39100 29.94400 25.01800
H  45.72900 29.44300 26.65400
H  44.90700 33.38200 29.96000
H  44.51000 31.72700 33.83300
H  45.94500 32.74200 34.17700
H  46.10100 31.06300 33.55000

