158

Mg 8.69400 3.68200 27.24100
C  10.12300 1.98900 29.85100
C  6.94400 5.61800 29.42100
C  7.15300 5.08900 24.63200
C  9.77800 1.15700 25.02200
N  8.52100 3.72000 29.45300
C  9.40700 3.05800 30.30500
C  9.22400 3.58500 31.63300
C  8.05600 4.70800 31.57200
C  7.81500 4.72300 30.05500
C  6.79100 4.29500 32.40500
C  10.56100 4.13200 32.21600
C  11.08500 3.63100 33.56500
H  10.97800 4.69300 34.74300
N  7.36900 5.30000 27.01900
C  6.66700 5.96200 28.06600
C  5.82000 6.96300 27.59400
C  5.95100 6.88500 26.16200
C  6.87700 5.74800 25.85600
C  4.97100 7.85500 28.42800
C  5.37400 7.86400 25.02600
O  5.75600 7.76100 23.85800
C  4.42500 8.98000 25.36900
N  8.41700 3.17300 25.17300
C  7.86900 4.02100 24.32400
C  8.02700 3.47600 22.78000
C  9.07900 2.32900 22.94800
C  9.04900 2.19200 24.44700
C  6.71600 3.03600 22.05200
C  10.48700 2.56000 22.38200
C  11.22200 1.36700 21.83800
N  9.70500 1.87300 27.33100
C  10.17700 0.95400 26.36900
C  11.00500 -0.02200 27.00700
C  11.05100 0.40100 28.40600
C  10.19700 1.51500 28.52500
C  11.80100 -1.11200 26.39900
C  11.62500 0.15300 29.65200
O  12.33600 -0.76400 30.07000
C  10.99700 1.09000 30.64300
C  10.37800 0.24200 31.75400
O  9.50700 -0.58200 31.68800
O  11.03300 0.50100 32.89100
C  10.53300 -0.05500 34.16300
H  6.41200 6.35400 30.02700
H  6.62300 5.50100 23.77100
H  10.10500 0.32400 24.39700
H  8.99500 2.71900 32.25400
H  8.28100 5.72900 31.88000
H  6.02100 3.98900 31.69800
H  6.48500 5.14100 33.02100
H  7.05000 3.42000 33.00100
H  10.39700 5.20900 32.22000
H  11.36500 3.95100 31.50200
H  12.16500 3.54600 33.44200
H  10.61000 2.72200 33.93300
H  5.00000 7.67000 29.50200
H  3.93100 7.76300 28.11400
H  5.37100 8.86400 28.33200
H  3.49000 8.59200 25.77300
H  4.13800 9.53400 24.47600
H  4.99200 9.66700 25.99900
H  8.59700 4.22300 22.22600
H  8.74300 1.39800 22.49100
H  5.87000 3.41300 22.62700
H  6.65300 1.94900 21.99500
H  6.69300 3.42700 21.03500
H  11.17600 2.82400 23.18500
H  10.45500 3.31100 21.59300
H  12.23900 1.34900 22.22800
H  11.34900 1.34300 20.75600
H  10.74700 0.42200 22.10400
H  11.40800 -1.46500 25.44600
H  11.90900 -1.96200 27.07300
H  12.81400 -0.71000 26.37000
H  11.75600 1.67100 31.16700
H  9.62400 0.41200 34.54200
H  11.25700 0.15000 34.95200
H  10.37100 -1.13300 34.13700
Mg -6.15500 25.28600 26.04800
C  -4.46600 27.01300 28.69100
C  -7.55800 23.36500 28.28000
C  -7.45800 23.75900 23.46600
C  -4.24400 27.35900 23.72500
N  -5.86900 25.13200 28.21800
C  -5.21000 25.92800 29.12600
C  -5.65600 25.61000 30.57800
C  -6.28100 24.15700 30.36100
C  -6.68000 24.25900 28.88500
C  -5.27100 22.90600 30.58900
C  -6.67400 26.67800 31.12700
C  -7.23500 26.47700 32.58900
H  -6.71600 25.49200 33.61500
N  -7.37300 23.72400 25.92700
C  -7.94400 23.06700 26.94800
C  -8.87300 22.07900 26.48400
C  -8.95200 22.19900 25.02000
C  -7.88500 23.26900 24.74600
C  -9.77500 21.28900 27.40200
C  -9.85900 21.41600 24.08700
O  -9.67700 21.47800 22.87700
C  -10.91800 20.45600 24.62000
N  -5.96600 25.59300 24.00900
C  -6.61100 24.80500 23.15800
C  -6.64500 25.35100 21.69600
C  -5.50300 26.46000 21.79700
C  -5.21400 26.51900 23.22700
C  -6.46500 24.32500 20.62900
C  -6.03800 27.81000 21.01300
C  -5.51700 28.10400 19.62200
N  -4.67800 26.78900 26.14000
C  -4.01100 27.54200 25.16100
C  -3.07700 28.54000 25.76600
C  -3.27200 28.33200 27.11200
C  -4.30700 27.36200 27.30500
C  -2.22100 29.57100 24.97500
C  -2.88700 28.81900 28.43300
O  -2.17300 29.75400 28.66700
C  -3.72300 28.10200 29.46300
C  -2.83200 27.53400 30.44700
O  -1.89900 26.78400 30.22700
O  -3.34500 27.84600 31.64900
C  -2.73600 27.18800 32.79500
H  -8.10400 22.70200 28.95400
H  -8.04300 23.45200 22.59700
H  -3.73300 28.01800 23.02000
H  -4.79600 25.46900 31.23200
H  -7.25400 24.01400 30.83000
H  -5.65800 22.10700 31.22100
H  -4.26000 23.07000 30.96200
H  -5.16800 22.44300 29.60800
H  -7.54200 26.84800 30.48900
H  -6.09700 27.60000 31.06400
H  -8.30900 26.35400 32.45200
H  -7.11400 27.43200 33.09900
H  -9.43500 20.26400 27.54500
H  -10.81200 21.33700 27.06800
H  -9.86200 21.80300 28.35900
H  -10.64100 19.61900 25.26000
H  -11.38600 19.96500 23.76600
H  -11.67300 21.13400 25.02000
H  -7.60300 25.83100 21.49500
H  -4.68800 25.98500 21.25000
H  -5.89600 23.53100 21.11300
H  -5.79900 24.79800 19.90800
H  -7.44500 23.97800 20.30100
H  -5.94100 28.66500 21.68100
H  -7.12100 27.83000 20.88500
H  -4.91200 29.00300 19.50200
H  -6.30800 28.25500 18.88700
H  -4.98400 27.22000 19.27200
H  -1.46000 29.98700 25.63500
H  -2.78200 30.28600 24.37300
H  -1.72600 28.88700 24.28600
H  -4.43900 28.80500 29.89000
H  -1.65700 27.24900 32.65300
H  -3.04200 26.14200 32.78500
H  -2.95600 27.71100 33.72600

