158

Mg 47.11800 15.05500 28.07100
C  44.85500 15.28300 30.87100
C  49.33800 16.95700 29.65100
C  48.75400 15.25100 25.23100
C  44.38100 13.40600 26.33900
N  47.10500 15.92200 30.05000
C  46.17400 15.88200 31.02100
C  46.72200 16.30400 32.38000
C  48.11200 17.05600 31.92300
C  48.23300 16.64000 30.43900
C  48.14500 18.56600 32.18100
C  46.90700 15.04300 33.28900
C  46.71200 15.30600 34.78500
H  46.43600 16.76100 35.24200
N  48.93800 15.83100 27.57700
C  49.74300 16.55900 28.38000
C  50.99000 16.80200 27.70500
C  50.82300 16.30800 26.35100
C  49.46600 15.79100 26.29900
C  52.12300 17.49200 28.40800
C  51.77600 16.34000 25.17600
O  51.44400 15.95600 24.06400
C  53.10500 17.06600 25.45000
N  46.57400 14.43000 26.04000
C  47.47400 14.61300 25.08800
C  47.14900 13.79000 23.85000
C  45.80800 13.05500 24.22400
C  45.52300 13.65700 25.65100
C  46.99100 14.57700 22.59400
C  45.87600 11.47500 24.18100
C  47.06800 10.88700 24.88900
N  44.97500 14.45500 28.44600
C  44.10200 13.82700 27.62600
C  42.92900 13.55400 28.34600
C  43.11000 14.11100 29.61400
C  44.46400 14.63500 29.65100
C  41.68400 12.91500 27.77600
C  42.57800 14.33300 30.91200
O  41.51200 13.99700 31.42400
C  43.71500 15.05400 31.80400
C  43.13000 16.22500 32.55700
O  42.80700 17.31700 32.10700
O  42.90500 15.85000 33.85400
C  42.14300 16.79000 34.70700
H  50.05800 17.50100 30.26600
H  49.20700 15.32300 24.24000
H  43.67200 12.81900 25.75100
H  46.01900 17.02300 32.80100
H  49.01400 16.64600 32.37600
H  48.28600 19.09500 31.23800
H  48.94800 18.86600 32.85500
H  47.23000 18.96900 32.61500
H  47.97500 14.84000 33.20900
H  46.37700 14.14100 32.98300
H  47.64900 15.02000 35.26200
H  46.00500 14.65900 35.30300
H  51.95800 17.43100 29.48400
H  52.19600 18.48200 27.95700
H  53.05100 16.92600 28.33600
H  53.75700 16.60200 26.19000
H  52.74700 18.02400 25.82800
H  53.67700 17.20100 24.53200
H  47.88800 12.99800 23.72900
H  44.96400 13.33800 23.59400
H  47.50700 14.00100 21.82600
H  47.30500 15.60000 22.80000
H  46.01600 14.77900 22.15000
H  45.91200 11.17700 23.13400
H  44.92700 11.12600 24.58600
H  46.74600 10.22200 25.69000
H  47.66900 11.66700 25.35700
H  47.66600 10.25000 24.23700
H  41.02900 13.74200 27.50400
H  41.12800 12.23600 28.42200
H  42.01400 12.38000 26.88600
H  43.92700 14.36700 32.62300
H  42.65700 17.69900 35.02100
H  41.78800 16.38600 35.65400
H  41.31700 17.21400 34.13600
Mg 16.58500 51.60200 25.94500
C  18.78400 50.61700 28.63300
C  14.55300 52.92800 28.29300
C  14.61700 52.44200 23.47500
C  19.02200 50.44400 23.71100
N  16.74100 51.85600 28.11300
C  17.62100 51.22100 29.03800
C  17.26600 51.54000 30.53500
C  15.83600 52.15400 30.39800
C  15.66200 52.30400 28.84700
C  14.75700 51.28900 31.13400
C  18.30100 52.49500 31.16100
C  18.59500 52.26500 32.66200
H  17.62300 51.40000 33.53600
N  14.76800 52.47600 25.93000
C  14.08500 53.01700 26.97200
C  12.82200 53.49000 26.50600
C  12.79500 53.21400 25.11400
C  14.12300 52.70300 24.75000
C  11.82400 54.17000 27.46600
C  11.63500 53.49400 24.15300
O  11.67200 53.44300 22.91700
C  10.40400 53.99500 24.79400
N  16.83300 51.50100 23.76900
C  15.81500 51.92100 22.99800
C  16.06500 51.41400 21.56800
C  17.60900 50.91300 21.62200
C  17.86700 50.98700 23.10000
C  14.99700 50.35100 21.04300
C  18.54700 51.88900 20.81200
C  19.95100 51.41500 20.43500
N  18.55100 50.76100 26.06900
C  19.34400 50.32600 25.06000
C  20.44000 49.54400 25.61400
C  20.30500 49.58300 26.98600
C  19.10600 50.35200 27.26500
C  21.53500 48.88900 24.74500
C  20.86700 49.13200 28.23100
O  21.83700 48.45300 28.63000
C  19.87800 49.76100 29.34600
C  19.49300 48.69400 30.32800
O  18.66500 47.83300 30.11300
O  20.17500 48.86200 31.50400
C  19.77900 47.92800 32.54500
H  13.78200 53.14800 29.03400
H  13.98400 52.68500 22.61900
H  19.76100 50.15800 22.96000
H  17.38400 50.56700 31.01200
H  15.94700 53.14200 30.84600
H  14.05400 52.02000 31.53300
H  15.23200 50.58400 31.81600
H  14.31900 50.71000 30.32100
H  17.99900 53.53600 31.05100
H  19.25600 52.43300 30.63800
H  18.76200 53.23200 33.13500
H  19.46800 51.62000 32.76500
H  11.32100 55.06400 27.09700
H  12.45300 54.59200 28.25000
H  11.02100 53.53500 27.84000
H  10.07000 53.38800 25.63600
H  9.68300 54.11600 23.98600
H  10.53000 55.01400 25.15800
H  15.97900 52.27700 20.90700
H  17.76100 49.95500 21.12400
H  15.37000 49.35500 20.80600
H  14.48500 50.82500 20.20500
H  14.22700 50.16000 21.79100
H  18.59500 52.75900 21.46700
H  18.07100 52.10900 19.85700
H  20.84000 51.86400 20.87800
H  20.19500 51.43500 19.37200
H  19.86400 50.34500 20.62000
H  22.48600 49.04000 25.25600
H  21.60400 49.41400 23.79200
H  21.21600 47.84700 24.69800
H  20.44000 50.37900 30.04600
H  19.92900 48.61100 33.38100
H  20.44000 47.07100 32.67100
H  18.72000 47.67400 32.48900

