158

Mg 24.93100 1.24200 29.80000
C  27.03500 0.84000 32.68900
C  22.22400 0.97400 31.99200
C  23.00400 1.32900 27.13700
C  27.68000 0.52200 27.88000
N  24.70300 0.83000 32.08400
C  25.70000 0.86400 33.05500
C  25.19700 1.07700 34.43800
C  23.64100 0.97300 34.19400
C  23.47600 0.84200 32.66500
C  22.88500 -0.08600 34.97100
C  25.58700 2.51600 35.01100
C  26.68200 2.67600 36.08200
H  26.50500 3.48400 37.33200
N  22.88500 1.06100 29.60300
C  21.95400 0.98800 30.59900
C  20.63000 0.93300 29.99000
C  20.83600 1.07400 28.56300
C  22.24100 1.14400 28.37000
C  19.31400 0.56700 30.78300
C  19.79100 1.03000 27.49600
O  20.00200 1.02400 26.31000
C  18.33300 0.73200 27.81300
N  25.28300 0.88200 27.83400
C  24.40000 1.21900 26.91300
C  24.98300 1.27200 25.45000
C  26.39900 0.64400 25.70800
C  26.51600 0.78400 27.24000
C  24.20900 0.63000 24.25800
C  27.56000 1.29900 24.90800
C  28.21500 2.47000 25.46000
N  26.97000 0.96200 30.15200
C  27.91100 0.61900 29.23700
C  29.24100 0.43500 29.89500
C  28.95600 0.58600 31.25200
C  27.55700 0.80500 31.35600
C  30.55800 0.08100 29.30900
C  29.42700 0.52700 32.50900
O  30.56900 0.38100 32.86800
C  28.27700 0.82800 33.49600
C  28.34200 -0.05100 34.65800
O  27.78200 -1.15500 34.66600
O  29.11600 0.40300 35.66100
C  29.40200 -0.35900 36.88800
H  21.35800 0.96900 32.65600
H  22.38300 1.47000 26.24900
H  28.61900 0.29900 27.36900
H  25.60800 0.36700 35.15600
H  23.07100 1.88600 34.36900
H  22.34500 -0.79400 34.34200
H  22.14400 0.46400 35.55000
H  23.46800 -0.68400 35.67200
H  24.73000 3.10200 35.34000
H  26.05000 3.07500 34.19700
H  27.60400 3.02600 35.61700
H  27.05100 1.73200 36.48200
H  19.46000 0.10700 31.76100
H  18.86700 -0.17900 30.12600
H  18.73400 1.47400 30.95300
H  17.87100 1.23900 28.66000
H  18.15200 -0.31200 28.06600
H  17.70400 0.87400 26.93500
H  24.98400 2.34200 25.24300
H  26.34600 -0.39900 25.39600
H  23.17800 0.33200 24.44500
H  24.82500 -0.19600 23.90400
H  24.24100 1.31500 23.41100
H  27.15800 1.60500 23.94200
H  28.30400 0.52400 24.72200
H  28.34000 3.21300 24.67300
H  29.21300 2.32300 25.87300
H  27.70300 3.03100 26.24200
H  30.72500 0.26700 28.24900
H  30.60600 -0.98900 29.51500
H  31.28800 0.67600 29.85800
H  28.57300 1.80600 33.87500
H  28.61600 -0.35800 37.64200
H  30.29800 0.05700 37.35000
H  29.40200 -1.44800 36.83100
Mg 52.62400 24.87200 44.27700
C  49.61300 26.71200 43.94300
C  50.85500 22.05600 44.06300
C  55.52400 23.32800 44.09800
C  54.36400 28.00500 44.32000
N  50.38500 24.54000 44.10000
C  49.35200 25.37500 44.02000
C  48.09000 24.63800 43.78100
C  48.43700 23.19700 44.19400
C  49.98800 23.20000 44.08900
C  47.87800 22.83800 45.63600
C  47.56500 24.90700 42.32800
C  48.58200 24.65800 41.11900
H  48.28300 25.41300 39.83000
N  53.13100 23.00200 44.22800
C  52.23600 21.94600 43.99200
C  53.05700 20.76500 43.77800
C  54.37500 21.03200 44.06600
C  54.37200 22.56200 44.14000
C  52.44000 19.41600 43.42500
C  55.45100 20.03300 44.26900
O  55.20500 18.80800 44.15600
C  56.83800 20.41000 44.71900
N  54.65600 25.61900 43.85900
C  55.65100 24.73300 44.07000
C  57.02900 25.36400 44.06300
C  56.73500 26.87600 44.15900
C  55.15000 26.86200 44.11300
C  58.04700 24.65800 45.02000
C  57.32800 27.73300 43.01100
C  58.03300 29.03000 43.51000
N  52.16100 26.99700 44.25000
C  52.97900 28.11400 44.23300
C  52.10900 29.27800 44.20200
C  50.81400 28.78500 44.03300
C  50.85400 27.37300 44.01000
C  52.43200 30.66200 44.15000
C  49.37400 29.20600 44.03500
O  48.86300 30.29800 44.16600
C  48.60800 27.91800 43.66400
C  48.31800 28.25200 42.24200
O  49.11000 28.10600 41.26200
O  47.03600 28.69900 42.08600
C  46.48000 29.14100 40.77300
H  50.29300 21.12700 43.94100
H  56.43500 22.73200 44.00900
H  54.93300 28.93400 44.39700
H  47.43700 25.05800 44.54600
H  47.98200 22.51300 43.47700
H  48.33600 23.46700 46.40000
H  48.06300 21.79600 45.89700
H  46.83000 23.13700 45.63900
H  46.95600 25.79200 42.14300
H  46.86800 24.08600 42.15600
H  48.48200 23.64000 40.74200
H  49.60900 24.73700 41.47700
H  53.12100 18.86200 42.77900
H  51.44100 19.56800 43.01500
H  52.26900 18.86800 44.35100
H  57.40800 19.58400 45.14500
H  56.84600 21.28600 45.36800
H  57.42800 20.69600 43.84800
H  57.34000 25.09000 43.05500
H  56.98600 27.21200 45.16500
H  58.61900 23.94100 44.43200
H  57.48500 24.21600 45.84300
H  58.65900 25.44800 45.45600
H  56.66500 28.08100 42.21900
H  58.11300 27.18000 42.49500
H  58.08000 29.20600 44.58500
H  57.66000 29.94600 43.05200
H  59.04900 29.10600 43.12100
H  52.17600 31.14300 43.20600
H  53.52000 30.68900 44.09800
H  52.10400 31.21800 45.02900
H  47.63500 27.88100 44.15400
H  46.79700 28.53600 39.92400
H  46.77200 30.19100 40.76900
H  45.39400 29.11900 40.87000

