158

Mg 44.71900 4.83100 46.82000
C  43.26400 8.02900 46.68500
C  41.53700 3.45000 45.96600
C  46.23100 1.83000 46.42700
C  47.87500 6.28600 46.97200
N  42.69100 5.67900 46.25200
C  42.35900 7.03000 46.32400
C  40.80100 7.13900 46.18200
C  40.36700 5.69300 45.90900
C  41.56700 4.84900 46.06700
C  39.20500 5.26800 46.89000
C  40.33500 8.09600 45.05900
C  40.99500 7.94500 43.67700
H  40.05900 7.93100 42.46200
N  43.97200 2.83900 46.43100
C  42.67800 2.51000 46.05800
C  42.60000 1.06700 45.80000
C  43.90800 0.59700 46.02800
C  44.77800 1.79100 46.30400
C  41.36700 0.28800 45.51900
C  44.31200 -0.83500 45.90000
O  43.53500 -1.71100 45.58800
C  45.77300 -1.41100 46.20400
N  46.80500 4.17900 46.38800
C  47.09700 2.91500 46.43600
C  48.63100 2.70300 46.62500
C  49.15700 4.12800 46.74800
C  47.88500 4.95200 46.68600
C  48.93600 1.74900 47.77300
C  50.24300 4.47400 45.63500
C  51.61200 4.87100 46.24000
N  45.47000 6.72600 46.86100
C  46.79500 7.16200 46.95000
C  46.80200 8.56400 47.04300
C  45.49800 8.91900 46.90700
C  44.68800 7.82400 46.84100
C  48.00700 9.52100 47.15000
C  44.63900 10.05700 46.70700
O  44.98500 11.17900 46.38700
C  43.16800 9.55900 46.70300
C  42.32600 10.02500 47.86900
O  41.54700 9.44000 48.62500
O  42.44600 11.42800 47.81900
C  41.63600 12.13100 48.74900
H  40.56800 2.97300 45.80300
H  46.65700 0.83000 46.53400
H  48.89300 6.67200 47.05000
H  40.47400 7.57300 47.12600
H  39.97800 5.66400 44.89100
H  38.96600 6.07000 47.58800
H  39.58700 4.47000 47.52600
H  38.34900 4.80600 46.39800
H  40.39300 9.13600 45.38200
H  39.26300 7.96800 44.91000
H  41.73700 7.14900 43.61500
H  41.47900 8.90700 43.50600
H  41.18000 -0.43000 46.31700
H  41.34000 -0.16000 44.52600
H  40.47200 0.91000 45.48500
H  46.51500 -1.10700 45.46600
H  45.79600 -2.49800 46.27400
H  46.13800 -0.97200 47.13300
H  48.99500 2.24500 45.70600
H  49.48900 4.17800 47.78500
H  48.08100 1.15700 48.10000
H  49.29700 2.29500 48.64400
H  49.66300 0.94500 47.65700
H  50.00200 5.39300 45.10000
H  50.41400 3.59500 45.01400
H  51.98100 5.83600 45.89200
H  52.37300 4.15500 45.92900
H  51.51000 4.94000 47.32300
H  48.65800 9.51800 46.27600
H  48.60500 9.37200 48.05000
H  47.68800 10.56300 47.16600
H  42.68900 10.10800 45.89100
H  41.53800 13.19400 48.52800
H  42.15700 12.03700 49.70200
H  40.68000 11.63200 48.91100
Mg -12.13600 38.02300 42.30600
C  -9.93100 35.37800 41.40700
C  -10.11500 40.12900 40.59400
C  -14.51400 40.33900 42.76400
C  -14.46000 35.55600 43.33400
N  -10.25100 37.71000 41.03600
C  -9.54800 36.55000 40.80700
C  -8.27100 36.83500 40.00900
C  -8.29200 38.42400 39.90200
C  -9.63000 38.83000 40.47800
C  -7.07700 39.05300 40.60100
C  -8.20400 36.02900 38.64200
C  -6.98600 35.22500 38.18000
H  -6.13500 36.04800 37.10200
N  -12.26100 40.03500 41.95400
C  -11.26800 40.70800 41.23000
C  -11.60900 42.16900 41.27300
C  -12.87200 42.21700 41.87800
C  -13.25900 40.86100 42.32900
C  -10.68100 43.25000 40.72500
C  -13.55400 43.54900 42.18700
O  -13.19500 44.61200 41.61200
C  -14.75000 43.52700 43.15100
N  -14.26100 37.88500 42.68700
C  -15.01600 39.01400 42.90300
C  -16.54700 38.67100 43.00900
C  -16.53100 37.14700 43.28300
C  -15.00300 36.79900 43.07600
C  -17.55600 39.49700 43.85800
C  -17.51300 36.25400 42.43500
C  -18.66400 35.64400 43.23800
N  -12.21500 35.91500 42.43200
C  -13.16000 35.10400 43.09300
C  -12.53100 33.71600 43.18800
C  -11.30500 33.79200 42.52100
C  -11.15400 35.13100 42.04000
C  -13.07700 32.45000 43.86000
C  -10.04000 33.05100 42.15700
O  -9.79100 31.82800 42.33500
C  -9.19000 34.04400 41.24500
C  -7.81900 34.12500 41.75400
O  -6.94700 33.35500 41.46400
O  -7.76300 34.96300 42.83500
C  -6.42100 35.12600 43.38600
H  -9.51800 40.90500 40.11000
H  -15.31300 41.06400 42.93100
H  -14.93500 34.66900 43.75900
H  -7.37200 36.59300 40.57600
H  -8.27100 38.74700 38.86100
H  -6.31100 38.35300 40.93400
H  -7.45200 39.71100 41.38500
H  -6.61000 39.67700 39.83900
H  -8.31700 36.69900 37.78900
H  -8.97700 35.26000 38.65300
H  -7.24900 34.30500 37.65700
H  -6.28000 35.07300 38.99700
H  -10.87600 43.40200 39.66300
H  -9.64900 42.91700 40.83300
H  -10.78500 44.23000 41.19200
H  -14.64400 42.79900 43.95600
H  -15.62600 43.31400 42.53900
H  -14.80300 44.47800 43.67900
H  -16.91700 38.85700 42.00100
H  -16.75100 36.95100 44.33200
H  -18.12700 38.70100 44.33600
H  -18.14400 40.08000 43.14800
H  -16.95300 40.13100 44.50700
H  -16.78700 35.58400 41.97400
H  -17.97100 36.91600 41.70000
H  -18.48900 34.59600 43.48000
H  -19.62500 35.70900 42.72800
H  -18.67000 36.15700 44.19900
H  -14.00600 32.36700 43.29600
H  -13.25300 32.59400 44.92600
H  -12.54200 31.50900 43.73800
H  -9.23600 33.59500 40.25300
H  -6.21500 34.16200 43.85200
H  -6.49700 35.92100 44.12700
H  -5.69700 35.36200 42.60500

