158

Mg 25.28000 2.04600 29.73300
C  27.02600 1.63900 32.74200
C  22.44900 1.60200 31.66900
C  23.51200 2.10300 26.87900
C  28.19800 1.64500 27.92400
N  24.82400 1.78700 31.98600
C  25.65200 1.75900 32.98800
C  25.01000 1.90200 34.38600
C  23.47200 1.81800 34.00800
C  23.54800 1.67100 32.45100
C  22.69600 0.56500 34.53100
C  25.44500 3.25100 35.15600
C  26.45200 3.05200 36.34800
H  26.32100 4.20600 37.37800
N  23.28600 2.00200 29.32800
C  22.28200 1.74400 30.25400
C  20.96500 1.75400 29.52600
C  21.26600 1.90700 28.14200
C  22.77500 2.03000 28.09600
C  19.65700 1.29800 30.21700
C  20.31900 1.75700 26.87200
O  20.67400 1.64200 25.71300
C  18.89300 1.77300 27.09900
N  25.78200 1.79200 27.66600
C  24.90500 2.00400 26.72000
C  25.56300 2.01200 25.30100
C  27.08500 1.94100 25.62400
C  27.06300 1.74500 27.12000
C  25.04500 0.89100 24.37900
C  27.87800 3.19200 25.17100
C  27.44200 4.61500 25.67900
N  27.23600 1.71500 30.15800
C  28.31400 1.57500 29.32700
C  29.44800 1.28900 30.18900
C  29.04400 1.41800 31.48600
C  27.63900 1.63500 31.45300
C  30.86700 1.00200 29.78700
C  29.46700 1.30900 32.88300
O  30.63000 1.31200 33.32600
C  28.20400 1.58100 33.74600
C  28.21800 0.56300 34.86000
O  27.77800 -0.56500 34.78500
O  28.88400 1.15500 35.93000
C  28.87200 0.29700 37.15300
H  21.54500 1.57600 32.28200
H  22.95700 2.16400 25.94100
H  29.16500 1.64800 27.41600
H  25.23200 1.01600 34.98100
H  23.04300 2.78200 34.28200
H  21.78700 0.91400 35.02200
H  23.31500 0.02200 35.24500
H  22.50400 -0.06000 33.65900
H  24.57600 3.73200 35.60500
H  26.05000 3.74800 34.39900
H  27.47000 3.18500 35.98200
H  26.41200 2.05400 36.78300
H  19.77100 1.39800 31.29600
H  19.46300 0.23800 30.05100
H  18.74900 1.82400 29.92200
H  18.62900 2.43200 27.92600
H  18.45100 0.78200 27.20000
H  18.39800 2.02300 26.16100
H  25.27700 2.96300 24.85100
H  27.50900 1.04500 25.17100
H  25.06200 1.21000 23.33700
H  24.07300 0.64300 24.80600
H  25.69900 0.02800 24.49900
H  27.81300 3.25800 24.08500
H  28.89900 3.07200 25.53400
H  28.31200 5.10900 26.11100
H  26.62400 4.62300 26.40000
H  27.07900 5.23900 24.86200
H  31.44700 1.47400 30.58000
H  31.13100 1.52500 28.86800
H  31.12700 -0.04900 29.91300
H  28.37500 2.50700 34.29600
H  29.04400 -0.77000 37.01100
H  27.92400 0.38600 37.68300
H  29.81100 0.48100 37.67500
Mg 29.67800 57.24600 40.19000
C  27.11800 54.78700 39.25600
C  32.09300 54.83100 39.25400
C  31.84000 59.68400 40.11900
C  26.98200 59.47600 40.63000
N  29.58200 55.02000 39.35200
C  28.42800 54.34800 39.06000
C  28.84800 53.07600 38.33800
C  30.38800 52.98500 38.71400
C  30.75900 54.34200 39.11300
C  30.72800 51.92100 39.73500
C  28.51000 53.15400 36.79300
C  27.29700 52.33500 36.25100
H  26.44300 53.09400 35.19400
N  31.74400 57.29800 39.89300
C  32.47500 56.17700 39.54600
C  33.84400 56.62900 39.42100
C  33.87900 58.03700 39.70400
C  32.44900 58.39800 39.95300
C  34.95300 55.63800 39.06400
C  35.13100 58.98100 39.66500
O  36.20900 58.50100 39.46200
C  35.00300 60.44500 39.98400
N  29.41400 59.26400 40.19300
C  30.52500 60.10700 40.31500
C  30.08400 61.58400 40.39200
C  28.53600 61.48100 40.74500
C  28.28400 59.99700 40.52400
C  30.93500 62.44100 41.36500
C  27.59000 62.46600 39.94400
C  26.71300 63.35200 40.75800
N  27.48200 57.14800 40.05600
C  26.61500 58.17300 40.31000
C  25.24100 57.66400 40.27400
C  25.40500 56.33800 39.74700
C  26.80500 56.07800 39.71300
C  23.95300 58.39300 40.75100
C  24.71700 55.12900 39.31300
O  23.50600 55.00900 39.03900
C  25.82800 54.08400 38.94500
C  25.50700 52.98700 39.78700
O  26.25700 52.61500 40.64400
O  24.33100 52.37400 39.51300
C  24.04100 51.17500 40.31600
H  32.81100 54.07600 38.92600
H  32.58400 60.48400 40.13300
H  26.20200 60.19100 40.89900
H  28.32400 52.19100 38.69900
H  30.89700 52.80800 37.76700
H  31.52100 52.41600 40.29600
H  31.17800 51.09700 39.18300
H  29.85400 51.57300 40.28500
H  29.35400 52.66200 36.31000
H  28.46900 54.16000 36.37400
H  26.73400 51.90200 37.07900
H  27.75800 51.44100 35.83300
H  35.89300 56.07200 38.72500
H  34.59200 55.01700 38.24400
H  35.22100 55.09700 39.97200
H  34.55400 60.40400 40.97600
H  34.49300 60.97000 39.17700
H  35.99900 60.88700 40.03200
H  30.17000 61.95400 39.37000
H  28.47600 61.77800 41.79200
H  31.45200 63.11700 40.68300
H  31.69200 61.87200 41.90500
H  30.41600 63.05500 42.10100
H  26.84800 61.76200 39.56800
H  27.98800 63.07700 39.13500
H  26.42800 64.18900 40.12000
H  27.18600 63.78300 41.64100
H  25.82200 62.93300 41.22600
H  23.97500 58.24200 41.83000
H  23.02200 58.03900 40.30800
H  23.91400 59.45100 40.49400
H  25.73700 53.73800 37.91600
H  23.34600 51.39400 41.12600
H  24.89700 50.78500 40.86800
H  23.64100 50.38500 39.68100

