158

Mg 25.20400 0.94700 29.79900
C  27.15900 0.70400 32.63300
C  22.46200 1.09900 31.96000
C  23.19500 0.62300 27.15800
C  28.07000 0.35200 27.77100
N  24.89800 1.03600 31.99100
C  25.88100 1.03400 32.98900
C  25.33100 1.24100 34.38800
C  23.84400 1.29800 34.15000
C  23.70800 1.09200 32.58000
C  22.83400 0.37600 34.96900
C  26.06300 2.27800 35.26200
C  26.56100 1.73400 36.63200
H  26.52300 2.62200 37.92000
N  23.08900 0.77200 29.56700
C  22.17500 0.96800 30.59900
C  20.85000 0.96700 29.95500
C  21.02200 0.74100 28.54300
C  22.49900 0.65600 28.33700
C  19.58200 1.13700 30.77900
C  19.94000 0.56500 27.48900
O  20.18100 0.26200 26.31300
C  18.50400 0.95900 27.81000
N  25.71200 0.75400 27.68900
C  24.62600 0.65900 26.87800
C  25.13100 0.44500 25.41600
C  26.68700 0.27800 25.56700
C  26.87800 0.60300 27.05500
C  24.40700 -0.71700 24.68700
C  27.63900 1.29300 24.73000
C  28.21500 0.83600 23.40900
N  27.15500 0.52400 30.11900
C  28.21600 0.34800 29.21300
C  29.39800 0.09900 29.98800
C  29.02700 0.22500 31.32600
C  27.65400 0.50900 31.33900
C  30.76000 -0.22100 29.45400
C  29.57700 0.25600 32.58600
O  30.72700 0.01300 32.95000
C  28.30300 0.39400 33.56400
C  28.23600 -0.94300 34.31200
O  27.77900 -1.99100 33.83200
O  28.59800 -0.79600 35.61400
C  28.49000 -1.85600 36.59100
H  21.65200 1.22100 32.68200
H  22.50800 0.50200 26.31800
H  28.91100 0.02800 27.15500
H  25.33000 0.30300 34.94400
H  23.43500 2.26000 34.46000
H  22.10200 1.00500 35.47600
H  23.32700 -0.25500 35.70900
H  22.40900 -0.40100 34.33300
H  25.43000 3.14800 35.43400
H  26.97800 2.53300 34.72700
H  27.59800 1.50200 36.38800
H  26.02600 0.80100 36.81100
H  18.97700 0.24700 30.60500
H  19.04900 2.07400 30.62000
H  19.63100 1.10800 31.86700
H  18.00900 0.35800 28.57300
H  17.93600 0.84200 26.88800
H  18.56200 2.00900 28.09800
H  24.88000 1.37500 24.90500
H  26.98600 -0.75900 25.41600
H  23.68500 -1.13800 25.38700
H  25.09300 -1.54200 24.49300
H  23.85200 -0.36300 23.81800
H  28.48100 1.65600 25.31900
H  27.15100 2.26400 24.64100
H  27.79100 -0.11100 23.07600
H  29.25600 0.51300 23.40000
H  28.07200 1.55500 22.60300
H  31.13000 -0.90600 30.21700
H  31.43300 0.63600 29.42800
H  30.75400 -0.80000 28.53000
H  28.44900 1.16200 34.32300
H  28.66000 -2.81900 36.10800
H  27.44800 -1.86500 36.91200
H  29.18900 -1.74700 37.42000
Mg -2.39000 34.18300 26.70800
C  -3.95300 32.73900 29.42100
C  -0.81300 36.40300 28.79700
C  -1.16800 35.98600 24.07200
C  -4.52500 32.50800 24.60500
N  -2.49400 34.65800 28.85600
C  -3.05900 33.78900 29.80300
C  -2.51900 34.03200 31.20800
C  -1.66800 35.30600 30.92600
C  -1.73800 35.57700 29.42100
C  -2.07900 36.59000 31.72400
C  -1.75100 32.81000 31.79500
C  -2.38100 32.27900 33.20300
H  -1.42500 32.35300 34.36400
N  -1.12800 35.92900 26.46600
C  -0.55400 36.64300 27.46800
C  0.52000 37.53000 26.93400
C  0.39100 37.33500 25.52200
C  -0.73300 36.40200 25.30800
C  1.25600 38.54000 27.75800
C  1.20700 37.89700 24.44600
O  1.10500 37.71200 23.24700
C  2.43200 38.60700 24.88400
N  -3.02100 34.50000 24.62800
C  -2.23500 35.17000 23.77600
C  -2.55300 34.67000 22.35300
C  -3.35600 33.41300 22.55900
C  -3.68800 33.50000 23.98700
C  -3.40900 35.69200 21.61000
C  -2.59300 32.04400 22.14700
C  -3.20700 31.08200 21.10300
N  -3.92800 32.87000 26.90000
C  -4.70400 32.27100 25.96200
C  -5.46200 31.20100 26.60900
C  -5.17600 31.31900 27.93900
C  -4.28400 32.41900 28.06500
C  -6.33900 30.09800 25.93500
C  -5.43500 30.81800 29.21800
O  -6.21100 29.93600 29.55900
C  -4.65400 31.66000 30.25600
C  -5.59700 32.23600 31.24600
O  -6.28000 33.19900 31.14100
O  -5.66400 31.42600 32.38500
C  -6.62200 31.91000 33.35600
H  -0.17500 36.95400 29.49100
H  -0.74800 36.27600 23.10600
H  -5.00800 31.81200 23.91600
H  -3.40500 34.25000 31.80500
H  -0.63500 34.99300 31.08100
H  -1.21400 36.88700 32.31700
H  -3.01700 36.43400 32.25700
H  -2.18800 37.43800 31.04800
H  -0.71900 33.08700 32.01300
H  -1.75300 32.02900 31.03500
H  -2.80700 31.27600 33.24600
H  -3.18900 32.90100 33.58900
H  0.63800 38.79700 28.61800
H  1.41800 39.49200 27.25100
H  2.20100 38.15000 28.13600
H  3.06900 38.71700 24.00600
H  3.03900 38.02400 25.57700
H  2.21700 39.62400 25.21300
H  -1.65500 34.35500 21.82200
H  -4.29300 33.41500 22.00100
H  -2.97300 36.65200 21.88800
H  -4.47900 35.57800 21.78500
H  -3.27400 35.57300 20.53500
H  -2.45300 31.42300 23.03100
H  -1.58700 32.24600 21.77700
H  -3.34200 30.06700 21.47800
H  -2.50000 30.86400 20.30300
H  -4.05500 31.54200 20.59600
H  -6.04200 29.06100 26.08800
H  -6.43000 30.25000 24.85900
H  -7.32500 30.20500 26.38800
H  -3.93100 30.97200 30.69300
H  -7.56500 31.98300 32.81500
H  -6.19100 32.86300 33.66400
H  -6.56700 31.20400 34.18500

