158

Mg 8.04300 2.40000 27.81400
C  9.94200 0.92000 30.52600
C  6.32900 4.20600 30.07500
C  6.43700 3.57800 25.20300
C  9.56200 -0.10000 25.78200
N  8.18800 2.44500 30.06600
C  9.10300 1.92800 30.97400
C  8.99400 2.58500 32.36700
C  7.64700 3.43800 32.14600
C  7.32800 3.38900 30.67200
C  6.48000 3.00400 32.97200
C  10.29200 3.32900 32.73000
C  10.97200 2.82700 34.03600
H  11.03000 3.81100 35.19300
N  6.58500 3.74600 27.65400
C  6.03100 4.43800 28.69700
C  5.03900 5.35300 28.09100
C  5.08700 5.21400 26.71200
C  6.04700 4.19900 26.45200
C  4.23900 6.28500 29.03900
C  4.38000 5.99100 25.60800
O  4.38700 5.67300 24.38400
C  3.68800 7.29300 25.99600
N  8.04700 1.84500 25.82600
C  7.20400 2.43200 24.89700
C  7.47700 1.93900 23.46000
C  8.61100 0.94600 23.72500
C  8.72600 0.85800 25.21200
C  6.17200 1.29100 22.80600
C  9.99600 1.23300 23.08100
C  10.89800 0.10500 22.57600
N  9.44700 0.66400 28.04300
C  9.91100 -0.16000 27.13600
C  10.84400 -0.98500 27.74300
C  10.93400 -0.63900 29.07300
C  9.98900 0.38800 29.24600
C  11.54200 -2.09700 27.01200
C  11.59100 -0.96200 30.42900
O  12.40000 -1.76400 30.77000
C  10.88700 0.10400 31.35400
C  10.23400 -0.55500 32.53600
O  9.13300 -1.02000 32.53400
O  11.01200 -0.39700 33.67400
C  10.35500 -0.76000 34.95600
H  5.76200 4.90900 30.68900
H  5.92800 3.91900 24.29900
H  10.18400 -0.69500 25.11100
H  8.90500 1.80300 33.12200
H  7.77100 4.51800 32.22600
H  5.92000 2.28200 32.37800
H  5.84000 3.84900 33.22500
H  6.73100 2.41700 33.85500
H  9.99500 4.37500 32.81200
H  11.05100 3.16100 31.96600
H  11.99900 2.53200 33.82400
H  10.52000 1.90700 34.40700
H  4.31700 6.03600 30.09800
H  3.24900 6.51300 28.64500
H  4.73900 7.24700 28.92500
H  2.80500 7.14300 26.61700
H  3.30100 7.68200 25.05300
H  4.39700 7.98300 26.45300
H  7.75800 2.78700 22.83500
H  8.32600 0.02100 23.22400
H  5.31900 1.71100 23.33900
H  6.01600 0.21300 22.83100
H  6.21100 1.77300 21.82900
H  10.53000 1.76700 23.86700
H  9.74500 1.91000 22.26400
H  11.76700 -0.07100 23.20900
H  11.35700 0.34600 21.61700
H  10.43400 -0.87300 22.45000
H  12.55100 -2.34700 27.34200
H  11.68400 -1.96900 25.93900
H  10.85200 -2.92700 27.16300
H  11.64400 0.73400 31.82100
H  10.41200 -1.82700 35.17100
H  9.30200 -0.47900 34.91200
H  10.97100 -0.17900 35.64200
Mg 47.81300 35.49600 27.83500
C  46.06100 33.82800 30.22800
C  48.04500 38.16700 29.91700
C  48.92500 37.19700 25.17800
C  46.98200 32.83600 25.50900
N  47.10700 35.93600 29.85300
C  46.59500 35.01100 30.66900
C  46.66700 35.61800 32.14300
C  46.87000 37.11200 31.93200
C  47.36800 37.12600 30.51500
C  45.53800 37.77400 32.24200
C  47.74400 34.86500 33.07100
C  48.63200 35.56800 34.02300
H  47.92700 36.40300 35.12300
N  48.48500 37.32800 27.61100
C  48.53700 38.31300 28.60300
C  49.18500 39.43800 28.08600
C  49.50300 39.28700 26.71000
C  48.96600 37.86800 26.43200
C  49.41300 40.60800 28.96800
C  50.11300 40.20600 25.62400
O  50.47200 39.84800 24.53400
C  50.39800 41.56700 26.11500
N  47.96000 35.07500 25.62700
C  48.43500 35.95000 24.73800
C  48.21900 35.50600 23.28700
C  47.76400 34.08900 23.45700
C  47.68200 33.90700 24.97600
C  47.26600 36.57200 22.58200
C  48.67400 33.00000 22.75200
C  48.02400 31.97800 21.84600
N  46.83900 33.62400 27.86600
C  46.61800 32.62500 26.89500
C  45.87100 31.52300 27.47400
C  45.56200 31.99200 28.76400
C  46.25800 33.23700 28.98400
C  45.50700 30.21000 26.89500
C  44.87500 31.60600 29.94400
O  44.24600 30.61000 30.21700
C  45.10500 32.87500 30.87100
C  45.46500 32.41900 32.22700
O  46.37100 31.63300 32.50000
O  44.58400 32.88400 33.15500
C  44.75300 32.42800 34.53900
H  48.21900 38.96800 30.63800
H  49.28300 37.65100 24.25200
H  46.59200 31.97600 24.96000
H  45.69400 35.35500 32.55800
H  47.61200 37.58900 32.57200
H  45.65500 38.85600 32.19400
H  45.29400 37.67300 33.30000
H  44.77400 37.45100 31.53500
H  48.45000 34.25900 32.50200
H  47.15700 34.16000 33.66100
H  49.25100 36.21300 33.40000
H  49.30500 34.83900 34.47500
H  50.36700 41.11900 28.83700
H  49.45100 40.27000 30.00300
H  48.62600 41.35600 28.86900
H  51.30200 41.55900 26.72500
H  49.57200 41.89900 26.74400
H  50.50500 42.32100 25.33400
H  49.20700 35.35000 22.85200
H  46.69900 33.92500 23.29000
H  47.26300 37.44800 23.23100
H  46.27600 36.12800 22.47500
H  47.61300 36.66800 21.55300
H  49.19800 32.33100 23.43500
H  49.48000 33.44100 22.16600
H  48.01500 32.41600 20.84700
H  46.96400 31.87700 22.07600
H  48.49800 31.00000 21.92300
H  45.91200 30.13500 25.88600
H  44.44400 29.98400 26.80500
H  46.09100 29.49000 27.46900
H  44.16600 33.38900 31.07300
H  43.73400 32.36100 34.91900
H  45.34800 33.17000 35.07300
H  45.24500 31.45800 34.60400

