158

Mg 9.12200 4.13900 27.72500
C  10.28800 2.51700 30.56600
C  7.37700 6.31200 29.72200
C  7.70800 5.60100 24.95900
C  10.67500 1.84400 25.69000
N  8.92600 4.38200 29.91200
C  9.47100 3.63000 30.93000
C  9.11900 4.11800 32.32400
C  8.07700 5.23100 31.99800
C  8.09300 5.31100 30.43600
C  6.65100 5.06300 32.41900
C  10.40300 4.63100 33.23000
C  10.38600 4.20200 34.69800
H  10.65700 5.35900 35.71400
N  7.67800 5.78500 27.38000
C  7.17400 6.60200 28.36200
C  6.33100 7.62200 27.77100
C  6.49700 7.43400 26.36300
C  7.26900 6.24300 26.15700
C  5.47700 8.64600 28.50000
C  6.04400 8.30900 25.29600
O  6.19300 8.09100 24.11300
C  5.47400 9.65400 25.57500
N  9.12500 3.66300 25.62000
C  8.56400 4.49500 24.71700
C  8.88000 4.07600 23.31200
C  9.98800 3.02900 23.51800
C  9.87100 2.76300 24.98200
C  7.57500 3.61600 22.50800
C  11.45700 3.38500 23.11200
C  12.24500 2.19500 22.63200
N  10.23500 2.56100 28.04500
C  10.82600 1.62200 27.06100
C  11.57500 0.63600 27.79400
C  11.36400 0.95600 29.12800
C  10.54200 2.08800 29.26100
C  12.45800 -0.40300 27.28400
C  11.79300 0.52700 30.41400
O  12.46200 -0.42700 30.76600
C  11.21400 1.59900 31.42900
C  10.50100 0.79600 32.50400
O  9.57300 0.04900 32.38100
O  10.95500 1.20800 33.74000
C  10.30300 0.52700 34.86800
H  6.77600 6.92400 30.39800
H  7.36400 6.15000 24.08000
H  11.21600 1.11900 25.07900
H  8.59900 3.28300 32.79300
H  8.30100 6.19600 32.45400
H  6.49300 5.93400 33.05400
H  6.55300 4.19100 33.06500
H  5.90400 5.12600 31.62800
H  10.28500 5.70700 33.36000
H  11.39100 4.39900 32.83100
H  11.16000 3.44000 34.79100
H  9.38500 3.88000 34.98600
H  5.69000 8.54500 29.56500
H  4.41600 8.48400 28.31000
H  5.78500 9.65200 28.21500
H  4.49800 9.63400 26.06200
H  5.42800 10.06500 24.56700
H  6.18800 10.19600 26.19500
H  9.16100 4.98600 22.78200
H  9.56900 2.21900 22.92100
H  7.19700 4.46400 21.93700
H  6.86300 3.37400 23.29700
H  7.62900 2.75300 21.84400
H  11.88500 3.93100 23.95300
H  11.41600 4.06100 22.25800
H  12.88000 2.41100 21.77300
H  11.62100 1.33800 22.37700
H  12.91700 1.99500 23.46700
H  13.52900 -0.20400 27.31200
H  12.15800 -0.47700 26.23900
H  12.26400 -1.35500 27.77700
H  12.04800 2.17500 31.83200
H  10.28800 1.15700 35.75700
H  10.80300 -0.41300 35.10200
H  9.25700 0.33000 34.63600
Mg 41.14200 8.72000 29.23500
C  43.16400 9.67100 31.91400
C  38.83200 7.61500 31.47800
C  39.31900 7.56000 26.63600
C  43.73300 9.63700 27.09100
N  40.93000 8.90100 31.49700
C  41.88100 9.32400 32.38800
C  41.45900 9.01500 33.86900
C  40.10400 8.27900 33.64600
C  39.87300 8.28400 32.08500
C  40.05200 6.92600 34.27200
C  41.41900 10.28000 34.75400
C  41.62100 10.08200 36.28500
H  42.29600 11.25400 37.03100
N  39.35000 7.72700 29.03900
C  38.49500 7.33100 30.12200
C  37.33000 6.75100 29.62700
C  37.49600 6.69000 28.19500
C  38.75200 7.34500 27.88800
C  36.30900 6.16300 30.56700
C  36.53100 5.98800 27.15000
O  36.79400 5.92700 25.89200
C  35.27800 5.34900 27.59300
N  41.51200 8.52100 27.15300
C  40.53900 8.18000 26.26500
C  41.04900 8.31700 24.75600
C  42.37200 9.16600 25.03000
C  42.58900 9.09200 26.52400
C  41.22300 6.93900 24.23200
C  42.04100 10.64800 24.58000
C  40.94300 11.45200 25.30300
N  43.01600 9.50400 29.41200
C  43.94700 9.79300 28.43900
C  45.12100 10.37800 28.99700
C  44.86200 10.32500 30.39700
C  43.59100 9.75100 30.57800
C  46.35200 10.89100 28.28100
C  45.45000 10.60000 31.71700
O  46.54900 11.03900 32.06000
C  44.33100 10.23200 32.67600
C  44.85500 9.33400 33.69700
O  44.94400 8.11400 33.61400
O  45.26200 10.11400 34.79100
C  45.73700 9.34800 35.93300
H  38.10000 7.46000 32.27400
H  38.73600 7.20100 25.78500
H  44.24600 10.26500 26.35900
H  42.17600 8.34100 34.33600
H  39.25300 8.85000 34.01700
H  40.92100 6.66900 34.87600
H  39.91300 6.09200 33.58400
H  39.18900 6.95200 34.93800
H  40.44700 10.77000 34.80700
H  42.17700 11.00000 34.44500
H  42.29000 9.24500 36.48200
H  40.69400 9.84900 36.81000
H  35.31100 6.34500 30.16700
H  36.40400 6.69900 31.51200
H  36.40400 5.09000 30.72900
H  35.49000 4.53800 28.29000
H  34.74200 4.82500 26.80200
H  34.49000 6.00000 27.97100
H  40.32300 8.91700 24.20600
H  43.23700 8.80700 24.47300
H  40.85200 6.18500 24.92600
H  42.28300 6.76800 24.04700
H  40.62700 6.85400 23.32400
H  41.74200 10.80000 23.54300
H  42.94900 11.22800 24.74500
H  41.24500 11.66400 26.32900
H  39.94700 11.01000 25.32900
H  40.89300 12.39100 24.75100
H  46.59300 10.03000 27.65700
H  47.06100 11.35800 28.96400
H  45.88000 11.63600 27.64000
H  44.00700 11.18500 33.09300
H  46.41400 8.54400 35.64300
H  44.89500 8.89800 36.45800
H  46.24600 10.08300 36.55700

