158

Mg 25.84900 0.86500 30.45200
C  28.08900 0.66600 33.04300
C  23.36300 1.24100 32.76200
C  23.67400 0.73100 27.87700
C  28.39800 -0.38800 28.33500
N  25.78000 0.90700 32.72500
C  26.83100 1.02900 33.51500
C  26.43100 1.31900 34.90500
C  24.84400 1.36000 34.84600
C  24.60800 1.17700 33.37600
C  24.03600 0.25300 35.79000
C  27.10000 2.60100 35.40100
C  27.90000 2.65000 36.70100
H  27.42400 3.65100 37.78000
N  23.75400 1.13700 30.35600
C  22.94100 1.23000 31.41000
C  21.57700 1.19300 30.91600
C  21.62000 1.17200 29.47900
C  23.06000 0.95800 29.20200
C  20.40400 1.39100 31.80300
C  20.56900 1.19600 28.43200
O  20.82300 1.31700 27.20300
C  19.19300 1.28800 28.84100
N  26.04400 0.21500 28.44700
C  24.99100 0.42300 27.56100
C  25.49900 0.33100 26.09500
C  26.97700 -0.00800 26.24600
C  27.15000 -0.09200 27.75600
C  24.72500 -0.53400 25.02700
C  28.01200 0.95500 25.58300
C  29.26200 0.37900 24.98000
N  27.78900 0.21300 30.57700
C  28.72700 -0.19000 29.67500
C  30.00400 -0.43800 30.31400
C  29.81300 -0.11700 31.65400
C  28.47500 0.29200 31.73200
C  31.22800 -0.97000 29.65100
C  30.44200 0.00400 32.95100
O  31.55600 -0.19900 33.33300
C  29.33300 0.51800 33.91300
C  29.24100 -0.51700 35.02900
O  28.66000 -1.60600 34.95100
O  29.89500 -0.02400 36.13800
C  29.89100 -0.84900 37.34300
H  22.58000 1.44100 33.49600
H  23.05300 0.93800 27.00300
H  29.15600 -0.71600 27.62100
H  26.73600 0.45700 35.49800
H  24.45900 2.36000 35.04700
H  23.22000 -0.27300 35.29500
H  23.51700 0.71200 36.63200
H  24.79900 -0.47600 36.06100
H  26.33400 3.36000 35.55900
H  27.63200 2.99400 34.53400
H  28.96500 2.84200 36.56900
H  27.75700 1.69500 37.20700
H  20.64000 1.48400 32.86300
H  19.73200 0.55500 31.60800
H  19.96000 2.33400 31.48200
H  19.04300 2.12600 29.52100
H  19.08900 0.34400 29.37600
H  18.56900 1.29900 27.94700
H  25.50800 1.31400 25.62300
H  27.14900 -0.99600 25.82000
H  23.67600 -0.61300 25.31500
H  25.17000 -1.52700 24.96600
H  24.63400 -0.10400 24.02900
H  28.25300 1.68700 26.35400
H  27.58800 1.55500 24.77800
H  29.34600 -0.68500 25.20000
H  30.08700 0.96300 25.38600
H  29.20400 0.50700 23.89900
H  31.00000 -2.03600 29.67700
H  32.22100 -0.85000 30.08600
H  31.23400 -0.62000 28.61900
H  29.78200 1.42700 34.31300
H  28.85600 -0.90800 37.68000
H  30.49000 -0.32700 38.09000
H  30.14000 -1.89100 37.14100
Mg 47.13800 24.76300 28.03700
C  48.08400 27.00600 30.48400
C  45.84700 22.68800 30.61200
C  46.69400 22.37300 25.68300
C  49.00000 26.66200 25.69500
N  47.06100 24.82000 30.26400
C  47.41100 25.92300 31.03400
C  46.90800 25.81500 32.49000
C  46.33400 24.31800 32.50800
C  46.34200 23.93500 31.03400
C  47.09400 23.39300 33.47400
C  45.91500 26.91800 33.01200
C  46.17800 27.36900 34.43200
H  46.69400 26.42400 35.52900
N  46.34300 22.83700 28.13000
C  45.84100 22.18600 29.26900
C  45.29000 20.92900 28.83000
C  45.53200 20.79400 27.40600
C  46.21900 22.05000 27.04400
C  44.74900 19.79900 29.74300
C  45.11700 19.66200 26.43900
O  45.50400 19.69500 25.26300
C  44.14800 18.60300 26.86900
N  47.80900 24.59300 25.89800
C  47.35000 23.50900 25.15500
C  47.97900 23.62900 23.82000
C  48.59700 25.06000 23.81800
C  48.38300 25.49600 25.17800
C  49.08500 22.48400 23.54300
C  47.91600 26.07200 22.86000
C  46.54200 26.79200 23.28900
N  48.24000 26.47500 28.00300
C  48.91800 27.19600 27.06300
C  49.44200 28.46300 27.62900
C  49.06400 28.41500 28.94800
C  48.38500 27.18700 29.12800
C  50.07400 29.62700 26.91700
C  49.27200 29.18300 30.13000
O  49.79400 30.21700 30.46500
C  48.61200 28.31400 31.21700
C  49.52300 28.06600 32.36600
O  50.20800 27.09100 32.51800
O  49.30200 29.08000 33.31600
C  49.98300 28.90100 34.57900
H  45.39800 22.09100 31.40800
H  46.61500 21.68500 24.83900
H  49.52800 27.30800 24.99000
H  47.85500 25.79500 33.03000
H  45.26600 24.42200 32.70300
H  47.71300 22.67200 32.94000
H  46.50400 22.75000 34.12800
H  47.75600 23.97300 34.11600
H  44.86400 26.63300 32.95100
H  46.07600 27.75400 32.33200
H  45.26300 27.73500 34.89700
H  46.83900 28.23500 34.41600
H  45.08500 20.06000 30.74700
H  45.27000 18.93300 29.33500
H  43.67400 19.77800 29.56300
H  44.24600 18.07300 27.81600
H  44.08600 17.84100 26.09300
H  43.19500 19.13200 26.87900
H  47.11100 23.55600 23.16400
H  49.65500 25.01600 23.56100
H  49.09100 21.75400 24.35200
H  50.03600 23.01600 23.57100
H  48.82100 21.97400 22.61600
H  47.64400 25.47200 21.99100
H  48.65900 26.80200 22.53800
H  45.80300 26.76100 22.48800
H  46.82800 27.83600 23.41300
H  46.12800 26.38500 24.21200
H  49.32400 30.41700 26.86000
H  50.44900 29.33900 25.93500
H  51.02600 29.83800 27.40200
H  47.75100 28.87900 31.57400
H  51.03500 28.62600 34.50700
H  49.48500 28.13400 35.17200
H  49.94100 29.81300 35.17400

