158

Mg -1.97100 17.35800 25.84300
C  -2.45300 15.02200 28.44900
C  -2.51000 19.79500 28.19000
C  -1.95400 19.51800 23.22000
C  -2.49800 14.74300 23.52700
N  -2.53600 17.34300 28.15500
C  -2.45600 16.29100 29.00200
C  -2.52800 16.77000 30.54200
C  -2.69500 18.33100 30.38900
C  -2.51100 18.54400 28.84000
C  -4.02300 18.90800 30.97700
C  -1.35300 16.26800 31.42700
C  -1.07300 16.95600 32.77400
H  -0.92000 16.04300 34.02500
N  -1.99300 19.36400 25.71100
C  -2.20100 20.15200 26.82100
C  -2.29100 21.51400 26.29800
C  -2.04000 21.52200 24.92200
C  -1.93600 20.06000 24.56600
C  -2.56800 22.68300 27.14600
C  -1.89000 22.63200 23.91400
O  -1.73200 22.41100 22.74600
C  -1.83900 24.07500 24.36700
N  -2.03000 17.09900 23.61400
C  -2.00700 18.18600 22.78800
C  -1.99500 17.77800 21.33400
C  -2.25600 16.20100 21.43400
C  -2.32300 15.95700 22.93400
C  -2.86700 18.58100 20.43400
C  -1.22300 15.28200 20.70200
C  -1.93500 14.28300 19.77400
N  -2.23600 15.28100 25.87400
C  -2.43300 14.36100 24.87600
C  -2.59900 13.11800 25.49700
C  -2.47200 13.24100 26.87500
C  -2.43200 14.65200 27.08000
C  -3.11600 11.89200 24.73000
C  -2.61200 12.54500 28.14600
O  -2.91200 11.41600 28.37900
C  -2.49500 13.64300 29.16600
C  -1.23800 13.29900 29.90700
O  -0.12200 13.79100 29.63100
O  -1.48800 12.38000 30.86000
C  -0.46700 12.33500 31.91100
H  -2.40100 20.65600 28.85300
H  -1.77800 20.12200 22.32700
H  -2.66900 14.01900 22.72800
H  -3.46200 16.33900 30.90400
H  -1.88100 18.76300 30.97200
H  -4.91600 18.30000 30.83200
H  -4.33100 19.84100 30.50500
H  -3.82400 19.18800 32.01100
H  -0.45500 16.19200 30.81400
H  -1.51600 15.25400 31.79400
H  -1.88900 17.62600 33.04400
H  -0.10200 17.42900 32.62900
H  -2.96000 22.47800 28.14200
H  -3.35900 23.14600 26.55500
H  -1.67000 23.29300 27.24400
H  -2.81700 24.39300 24.72700
H  -1.62000 24.77400 23.56000
H  -1.11600 24.18000 25.17500
H  -0.99200 17.97000 20.95300
H  -3.29400 15.91100 21.26600
H  -3.66400 19.04100 21.01900
H  -3.29700 17.94700 19.65900
H  -2.24200 19.35400 19.98700
H  -0.59400 14.84300 21.47600
H  -0.49000 15.85200 20.12900
H  -1.24600 13.62900 19.23900
H  -2.55000 14.89900 19.11800
H  -2.67100 13.69900 20.32700
H  -4.19000 11.74900 24.61100
H  -2.79800 11.03300 25.32000
H  -2.53100 11.85900 23.81000
H  -3.33200 13.52700 29.85500
H  0.20500 11.47700 31.92200
H  -0.90000 12.24600 32.90700
H  0.16100 13.21800 32.02700
Mg 2.60600 -2.73300 43.91100
C  6.10700 -2.32800 43.54200
C  2.08500 -0.00700 41.93400
C  -0.65500 -3.52000 43.90000
C  3.17800 -5.63500 45.76600
N  3.94900 -1.37500 42.81100
C  5.33500 -1.37000 42.85100
C  5.89300 -0.01200 42.18600
C  4.54700 0.84200 42.08400
C  3.44200 -0.25800 42.20100
C  4.36500 1.88300 43.23200
C  6.59800 -0.41800 40.85000
C  7.89400 0.31600 40.55500
H  8.01300 1.07300 39.22100
N  0.95100 -1.88200 43.00200
C  0.98700 -0.80300 42.21100
C  -0.36700 -0.61000 41.71400
C  -1.24900 -1.49500 42.38700
C  -0.33200 -2.40000 43.15200
C  -0.77600 0.40400 40.67600
C  -2.75100 -1.55300 42.18500
O  -3.23900 -0.76300 41.41200
C  -3.68900 -2.62300 42.73800
N  1.45000 -4.31200 44.78400
C  0.12400 -4.39700 44.64000
C  -0.42600 -5.66100 45.19900
C  0.81800 -6.44000 45.74700
C  1.86000 -5.37800 45.37600
C  -1.49700 -5.41900 46.27800
C  1.01700 -7.86800 45.05000
C  0.47100 -9.13000 45.74500
N  4.31500 -3.78400 44.68400
C  4.34300 -4.91500 45.42700
C  5.73400 -5.20000 45.67800
C  6.50300 -4.24400 44.97000
C  5.54700 -3.38900 44.38100
C  6.24500 -6.32700 46.55500
C  7.82000 -3.71400 44.61500
O  8.89500 -4.15500 45.01800
C  7.62400 -2.50600 43.64700
C  8.33100 -1.25300 44.05500
O  9.32500 -0.78200 43.51600
O  7.72900 -0.66800 45.08000
C  8.20500 0.70800 45.50000
H  1.98300 0.92100 41.36600
H  -1.71700 -3.76900 43.93700
H  3.42100 -6.59700 46.22000
H  6.54000 0.45100 42.93100
H  4.60800 1.37800 41.13700
H  4.95700 1.57500 44.09400
H  3.29400 1.99500 43.40100
H  4.67600 2.88400 42.93300
H  5.85000 -0.19500 40.08800
H  6.82600 -1.48300 40.84600
H  8.69500 -0.42300 40.53800
H  8.17300 0.98400 41.37000
H  -1.22400 -0.14200 39.84600
H  0.09500 0.93700 40.29500
H  -1.49100 1.14900 41.02600
H  -3.79600 -2.60100 43.82300
H  -3.33900 -3.55900 42.30300
H  -4.66600 -2.44200 42.28900
H  -1.00800 -6.21900 44.46500
H  0.89700 -6.52200 46.83100
H  -2.10200 -6.32600 46.29500
H  -2.09600 -4.50900 46.29500
H  -1.08500 -5.42800 47.28600
H  2.03800 -8.04800 44.71100
H  0.40100 -7.76800 44.15600
H  -0.42000 -9.42300 45.19000
H  0.14400 -8.93400 46.76600
H  1.15400 -9.96500 45.90300
H  7.33400 -6.34800 46.60700
H  5.78700 -7.25600 46.21400
H  5.95100 -6.16000 47.59100
H  8.14200 -2.75300 42.72000
H  9.24800 0.59800 45.79500
H  7.62000 1.01800 46.36600
H  8.13400 1.43700 44.69300

