158

Mg 24.43300 -5.37400 46.06000
C  26.42100 -2.83700 44.61000
C  21.92800 -4.31500 43.99900
C  22.94800 -8.22700 46.65500
C  27.34000 -6.37500 47.75300
N  24.37400 -3.77900 44.51300
C  25.20000 -2.79800 44.08700
C  24.51800 -1.90200 43.03900
C  23.02900 -2.14900 43.43100
C  23.09200 -3.51200 43.97800
C  22.33500 -1.19200 44.42000
C  24.80700 -2.36600 41.54800
C  25.51700 -1.40600 40.66500
H  26.27900 -2.06400 39.45400
N  22.74400 -6.18800 45.44300
C  21.80400 -5.55700 44.63900
C  20.60800 -6.39800 44.61700
C  20.83300 -7.60300 45.37000
C  22.20900 -7.39300 45.87600
C  19.40800 -6.15000 43.67800
C  19.86500 -8.75100 45.46300
O  18.75800 -8.78800 44.90800
C  20.34200 -10.05900 46.11500
N  25.07100 -7.08600 47.15100
C  24.23700 -8.15600 47.15900
C  24.99300 -9.39100 47.66800
C  26.34300 -8.75400 48.24600
C  26.25300 -7.30700 47.73900
C  24.17500 -10.32800 48.68400
C  27.55300 -9.60100 47.96100
C  28.45400 -9.94100 49.21400
N  26.45100 -4.69400 46.35100
C  27.46100 -5.16300 47.10600
C  28.66000 -4.30200 46.91700
C  28.24400 -3.38300 45.96300
C  26.88900 -3.64900 45.60200
C  30.02700 -4.40800 47.68600
C  28.71400 -2.31600 45.16600
O  29.81500 -1.88700 45.06200
C  27.57900 -1.92400 44.24500
C  27.31600 -0.50700 44.33200
O  27.76600 0.27100 43.55200
O  26.59100 -0.21000 45.46200
C  26.47000 1.18900 45.79300
H  21.06800 -4.06600 43.37500
H  22.51200 -9.22700 46.70400
H  28.22600 -6.55500 48.36700
H  24.84700 -0.89700 43.30200
H  22.42200 -2.12200 42.52600
H  22.28300 -1.59000 45.43300
H  21.35900 -1.00300 43.97200
H  22.92100 -0.27900 44.52500
H  23.83400 -2.58200 41.10800
H  25.27200 -3.34800 41.62900
H  26.29400 -0.93200 41.26500
H  24.70800 -0.83000 40.21600
H  19.52900 -6.76200 42.78400
H  19.30800 -5.09800 43.41100
H  18.48200 -6.35800 44.21400
H  21.11100 -10.37200 45.41000
H  19.52600 -10.78000 46.05500
H  20.67300 -9.92100 47.14400
H  25.10400 -10.06400 46.81700
H  26.30200 -8.52900 49.31200
H  23.24700 -10.47500 48.13100
H  23.88900 -9.91100 49.64900
H  24.83300 -11.19700 48.71200
H  28.17500 -9.00400 47.29400
H  27.34000 -10.50700 47.39400
H  29.50900 -10.12900 49.01800
H  28.09000 -10.73800 49.86200
H  28.40300 -8.97200 49.71000
H  30.18000 -5.47000 47.88000
H  29.92300 -3.85800 48.62100
H  30.88900 -3.96300 47.18900
H  27.88000 -2.12200 43.21600
H  26.19400 1.31000 46.84100
H  25.64000 1.65900 45.26600
H  27.38600 1.75900 45.63500
Mg 0.74900 43.30200 26.09300
C  2.87100 43.35100 28.87700
C  -1.85900 42.57000 28.36300
C  -1.03800 42.43900 23.45900
C  3.70200 43.84100 24.03300
N  0.53600 43.23200 28.39500
C  1.54600 43.38000 29.28200
C  1.02600 43.47100 30.67700
C  -0.52700 42.96800 30.46500
C  -0.67900 42.94800 28.97000
C  -0.72900 41.58600 31.04500
C  1.08200 44.87700 31.36200
C  1.13700 44.81100 32.86100
H  0.82600 43.52200 33.63000
N  -1.21600 42.71500 25.95000
C  -2.07200 42.41100 26.93800
C  -3.30000 41.92000 26.36500
C  -3.15700 41.92200 24.89300
C  -1.74600 42.33700 24.75000
C  -4.55500 41.63100 27.14000
C  -4.13700 41.47600 23.83500
O  -3.87500 41.46800 22.63600
C  -5.55400 41.03600 24.18100
N  1.34400 43.00800 23.99500
C  0.29800 42.71100 23.07300
C  0.84000 42.84400 21.68300
C  2.27700 43.50300 21.86700
C  2.51000 43.42100 23.38100
C  0.84500 41.44600 20.87000
C  2.34500 44.98500 21.31700
C  2.17200 46.11400 22.23700
N  2.92100 43.57700 26.32400
C  3.98100 43.74200 25.39700
C  5.25000 43.67600 26.09700
C  4.85300 43.61000 27.50400
C  3.38800 43.42200 27.53900
C  6.61400 43.80500 25.54200
C  5.32400 43.56000 28.92600
O  6.41400 43.61400 29.38900
C  4.11100 43.43800 29.82500
C  4.18600 42.23300 30.63300
O  3.93800 41.10200 30.26400
O  4.72900 42.48100 31.88300
C  4.84700 41.47900 32.91600
H  -2.71600 42.29100 28.97900
H  -1.69900 42.09000 22.66300
H  4.62600 44.02900 23.48200
H  1.63200 42.69800 31.14900
H  -1.24200 43.66700 30.89900
H  -0.94800 40.90800 30.22000
H  -1.51600 41.53000 31.79700
H  0.16700 41.05600 31.37000
H  0.19100 45.46000 31.12800
H  1.99600 45.39500 31.07000
H  0.46800 45.58700 33.23300
H  2.13600 45.09800 33.18700
H  -4.66800 40.55300 27.25700
H  -5.36000 42.14100 26.61200
H  -4.69200 42.16400 28.08200
H  -5.41600 40.26800 24.94300
H  -5.98200 40.37300 23.42900
H  -6.19800 41.85900 24.49000
H  0.10600 43.40600 21.10600
H  2.90100 42.78900 21.33100
H  1.82900 41.19900 20.47200
H  0.24100 41.65900 19.98700
H  0.58500 40.59800 21.50300
H  1.60600 45.05600 20.51900
H  3.26300 45.02600 20.73100
H  1.69600 45.73900 23.14300
H  1.46400 46.88700 21.93600
H  3.14000 46.54900 22.48500
H  7.04300 44.80600 25.58400
H  6.53800 43.50400 24.49700
H  7.28700 43.04400 25.93600
H  4.10500 44.28000 30.51700
H  5.83500 41.57200 33.36600
H  4.62500 40.47100 32.56800
H  4.12500 41.79000 33.67200

