158

Mg 25.30900 1.06900 30.40300
C  27.23500 1.06700 33.25800
C  22.46000 1.49500 32.34000
C  23.36000 1.10600 27.59300
C  28.00200 0.56800 28.47600
N  24.86600 1.27500 32.57200
C  25.88500 1.38800 33.48200
C  25.27600 1.77800 34.90700
C  23.73400 1.78800 34.59800
C  23.65400 1.48200 33.14400
C  22.83200 0.99500 35.62000
C  25.93000 3.08800 35.57600
C  26.56600 2.90000 36.94400
H  26.35900 4.00800 37.98500
N  23.25400 1.18300 30.08700
C  22.27000 1.38300 30.99600
C  21.02000 1.49500 30.32000
C  21.26100 1.47100 28.99000
C  22.68900 1.32100 28.83500
C  19.70800 1.62500 31.07700
C  20.26100 1.50400 27.83800
O  20.52500 1.34200 26.65100
C  18.81800 2.00700 28.12200
N  25.61500 0.90600 28.32600
C  24.71000 0.89800 27.35700
C  25.34200 0.77300 25.95700
C  26.86500 0.84400 26.30000
C  26.85400 0.73600 27.79000
C  24.86900 -0.59800 25.25500
C  27.63700 2.08400 25.72700
C  26.99600 3.40100 26.05300
N  27.26500 0.87300 30.72500
C  28.27600 0.59200 29.85200
C  29.53700 0.47400 30.60800
C  29.13700 0.68000 31.94000
C  27.75500 0.91300 31.96000
C  30.87000 0.19300 30.11200
C  29.68700 0.79500 33.27800
O  30.84300 0.72900 33.70700
C  28.45100 1.03600 34.23400
C  28.42400 -0.10700 35.17200
O  27.91300 -1.19000 34.93100
O  28.95000 0.25900 36.42500
C  28.77400 -0.65700 37.50000
H  21.55100 1.73500 32.89500
H  22.83200 1.22700 26.64500
H  28.87800 0.46000 27.83400
H  25.40400 1.06900 35.72400
H  23.43500 2.83400 34.53300
H  21.82000 1.38800 35.72400
H  23.32600 0.95400 36.59100
H  22.57600 0.00600 35.24000
H  25.10400 3.79700 35.50700
H  26.70200 3.37600 34.86200
H  27.63400 2.97000 36.73900
H  26.34700 1.91300 37.35100
H  19.02600 0.81700 30.81000
H  19.38700 2.64000 30.84500
H  19.82900 1.48800 32.15200
H  18.36400 1.91300 27.13500
H  18.80700 2.99400 28.58300
H  18.22100 1.32000 28.72100
H  25.09300 1.66400 25.38100
H  27.35700 -0.00800 25.83100
H  23.96100 -1.00900 25.69700
H  25.62900 -1.37900 25.28100
H  24.68400 -0.52200 24.18400
H  27.76100 2.02800 24.64500
H  28.58400 2.16500 26.26000
H  26.79500 3.91500 25.11300
H  27.63500 4.09700 26.59600
H  26.05600 3.42300 26.60600
H  30.86200 -0.88200 29.93200
H  31.55700 0.66800 30.81300
H  31.04300 0.70600 29.16700
H  28.61300 1.96200 34.78700
H  27.95700 -0.38000 38.16500
H  29.66200 -0.67600 38.13200
H  28.61400 -1.67600 37.14600
Mg 27.38400 50.60500 27.06400
C  24.84100 51.22600 29.50600
C  29.44100 49.73800 29.50900
C  29.50700 49.57500 24.62000
C  25.10800 51.64800 24.73500
N  27.06200 50.33600 29.22700
C  26.01000 50.70700 30.01000
C  26.39400 50.47400 31.51900
C  27.91000 50.13100 31.46700
C  28.14100 50.00500 29.93900
C  28.85000 51.16300 32.16000
C  25.40200 49.38900 32.10500
C  24.56200 49.80700 33.37600
H  24.53900 48.90300 34.58200
N  29.28000 49.93100 27.04700
C  29.92600 49.64800 28.20500
C  31.30700 49.27100 27.88300
C  31.40800 49.19900 26.39700
C  30.06700 49.55600 25.92300
C  32.39300 48.94700 28.85300
C  32.48900 48.67900 25.55800
O  32.41300 48.83000 24.35400
C  33.80800 48.16400 26.01800
N  27.27800 50.55700 24.94000
C  28.30500 50.06300 24.11200
C  27.91400 50.05300 22.62600
C  26.59400 50.94700 22.66500
C  26.26500 51.08400 24.18100
C  28.95300 50.47400 21.50700
C  25.43300 50.52700 21.74100
C  24.29500 49.75600 22.32600
N  25.48700 51.40500 27.05900
C  24.68400 51.74000 26.03100
C  23.42700 52.32600 26.45600
C  23.46800 52.18500 27.84400
C  24.67300 51.55900 28.11600
C  22.33100 53.05600 25.60800
C  22.76000 52.41600 29.11500
O  21.75200 53.07500 29.42900
C  23.64900 51.75800 30.21300
C  23.82100 52.80100 31.30600
O  24.52700 53.81800 31.17200
O  22.96600 52.65000 32.32700
C  23.00700 53.58100 33.46800
H  30.11300 49.47500 30.32900
H  30.28800 49.29000 23.91200
H  24.46200 52.02700 23.94000
H  26.28900 51.42800 32.03600
H  27.94600 49.17000 31.98000
H  29.83200 51.05200 31.70100
H  28.83500 50.95500 33.23000
H  28.44100 52.16800 32.05900
H  25.87000 48.44900 32.39600
H  24.64000 49.03500 31.41100
H  23.52100 50.08800 33.21400
H  25.00000 50.73100 33.75300
H  32.33500 47.88000 29.07100
H  32.31800 49.57900 29.73800
H  33.35500 49.04200 28.34900
H  34.32700 48.92600 26.59800
H  34.48300 47.71800 25.28800
H  33.46300 47.37800 26.69000
H  27.62900 49.00400 22.54900
H  26.92400 51.92900 22.32800
H  29.51400 49.63900 21.08700
H  29.57700 51.34100 21.72300
H  28.43200 50.92400 20.66200
H  25.87300 49.89200 20.97200
H  25.07400 51.47700 21.34500
H  23.95700 49.03200 21.58500
H  23.55800 50.50600 22.61400
H  24.64300 49.22800 23.21300
H  22.21000 54.03700 26.06800
H  21.33200 52.63200 25.50700
H  22.66400 53.25500 24.58900
H  23.10800 50.92500 30.66200
H  23.72900 53.17500 34.17600
H  22.07200 53.64300 34.02500
H  23.36000 54.59200 33.26200

