158

Mg 25.08500 1.02700 29.18300
C  27.32100 0.41400 31.79700
C  22.55400 1.50100 31.53700
C  22.90100 0.92000 26.73600
C  27.63700 0.04300 26.92400
N  25.02800 1.19900 31.43000
C  26.07000 0.87500 32.30700
C  25.64300 1.21800 33.75400
C  24.08600 1.37500 33.67200
C  23.85100 1.41600 32.09000
C  23.30000 0.22100 34.29300
C  26.36400 2.46200 34.15200
C  27.28600 2.40100 35.35100
H  26.99900 3.47000 36.57100
N  23.04000 1.33500 29.13200
C  22.18700 1.53900 30.17500
C  20.86200 1.63000 29.62100
C  20.91200 1.35800 28.19600
C  22.29900 1.21400 27.94600
C  19.63800 1.72400 30.50200
C  19.73900 1.15600 27.20500
O  19.95800 0.78700 26.01300
C  18.32100 1.43000 27.62600
N  25.23400 0.56900 27.10900
C  24.20500 0.77800 26.29400
C  24.52700 0.52100 24.73000
C  26.08300 0.34000 24.83900
C  26.33800 0.37400 26.37200
C  23.74200 -0.61000 24.00400
C  26.92400 1.44700 24.11300
C  27.80900 1.00500 22.93300
N  27.08300 0.39500 29.31100
C  27.99000 0.02100 28.30500
C  29.27200 -0.42800 28.89500
C  29.07700 -0.16400 30.29800
C  27.75000 0.28900 30.45300
C  30.47700 -0.91800 28.23500
C  29.70000 -0.20700 31.56400
O  30.82800 -0.44400 31.90900
C  28.64100 0.27800 32.57900
C  28.49800 -0.75900 33.60600
O  28.03000 -1.88800 33.41000
O  29.00700 -0.31000 34.83900
C  29.03500 -1.38300 35.76800
H  21.74800 1.69200 32.24800
H  22.22600 1.01100 25.88200
H  28.49900 -0.10500 26.27100
H  25.86400 0.54600 34.58400
H  23.69200 2.27300 34.14700
H  22.65300 -0.30000 33.58800
H  22.76500 0.57500 35.17500
H  23.97800 -0.58400 34.57500
H  25.61400 3.23800 34.30500
H  26.94100 2.82200 33.30100
H  28.33800 2.54400 35.10100
H  27.16700 1.54200 36.01100
H  19.88800 1.56500 31.55100
H  18.88200 0.99900 30.20100
H  19.25800 2.74600 30.49400
H  17.73800 1.53700 26.71100
H  18.34700 2.39800 28.12700
H  18.04500 0.58600 28.25800
H  24.29200 1.48600 24.28200
H  26.47500 -0.60700 24.46600
H  23.01300 -1.04000 24.69100
H  24.43400 -1.34300 23.58900
H  23.14900 -0.22300 23.17600
H  27.53600 2.06900 24.76600
H  26.35800 2.17100 23.52700
H  27.54100 1.35000 21.93400
H  27.81000 -0.08200 22.84100
H  28.85500 1.26500 23.09500
H  30.58000 -0.63700 27.18700
H  30.49500 -2.00400 28.33200
H  31.32700 -0.50700 28.78000
H  28.91100 1.22000 33.05600
H  28.01500 -1.33500 36.15000
H  29.67300 -1.12700 36.61400
H  29.36300 -2.30300 35.28400
Mg 16.84900 51.46700 26.01400
C  18.85700 50.14100 28.62600
C  14.82200 52.70400 28.45000
C  15.14200 52.94800 23.49300
C  19.30900 50.27700 23.78600
N  16.74600 51.15700 28.28700
C  17.70900 50.70100 29.14600
C  17.30100 51.03600 30.64200
C  15.80000 51.43900 30.41400
C  15.78600 51.77900 28.98900
C  14.69800 50.53200 30.85900
C  18.34300 51.99100 31.28300
C  18.47000 51.87000 32.84500
H  17.47300 51.13100 33.69500
N  15.14000 52.62900 25.99700
C  14.44000 53.00900 27.12200
C  13.28600 53.75900 26.70300
C  13.33800 53.87200 25.28400
C  14.57000 53.12900 24.83800
C  12.27800 54.30100 27.68300
C  12.44300 54.66500 24.38700
O  12.56500 54.65200 23.16500
C  11.48200 55.58700 24.90100
N  17.10500 51.50700 23.91900
C  16.36300 52.27300 23.10300
C  17.03000 52.25400 21.71800
C  18.18400 51.28700 21.75900
C  18.23600 51.03900 23.24300
C  16.02200 52.10800 20.53800
C  19.41300 51.76100 20.99700
C  20.39400 50.74600 20.28700
N  18.66900 50.37900 26.08700
C  19.53400 49.95000 25.08600
C  20.64500 49.22700 25.67500
C  20.38000 49.33900 27.07900
C  19.20000 49.99200 27.27200
C  21.86000 48.66700 24.94800
C  20.95300 48.91100 28.28200
O  21.90000 48.15800 28.46300
C  20.05300 49.58800 29.37200
C  19.70500 48.63700 30.45600
O  18.90000 47.71600 30.28400
O  20.48000 48.85900 31.50600
C  20.25900 47.93100 32.65500
H  14.27100 53.22200 29.23700
H  14.65900 53.50200 22.68500
H  20.11900 49.98200 23.11600
H  17.41800 50.13400 31.24300
H  15.57300 52.28200 31.06600
H  14.48000 49.76600 30.11500
H  13.74500 50.99800 31.11100
H  14.93700 50.21300 31.87400
H  17.95600 52.96200 30.97100
H  19.36500 51.90800 30.91500
H  18.67200 52.88200 33.19600
H  19.36400 51.27800 33.04400
H  11.23700 54.37100 27.36800
H  12.68600 55.26200 27.99400
H  12.35600 53.82100 28.65800
H  11.91200 56.32100 25.58400
H  10.70300 55.11900 25.50300
H  11.06100 56.22100 24.12200
H  17.47200 53.23700 21.55400
H  17.94000 50.31900 21.32200
H  15.01400 52.00000 20.93800
H  16.14700 51.31600 19.79900
H  16.13900 53.02700 19.96400
H  20.05400 52.30900 21.68800
H  19.07300 52.44800 20.22300
H  20.46400 51.05200 19.24300
H  20.01700 49.72300 20.28700
H  21.37400 50.67100 20.75900
H  21.81400 47.58200 24.84800
H  22.83500 48.82300 25.41000
H  21.78800 49.11400 23.95600
H  20.59400 50.43600 29.79100
H  20.20000 46.91600 32.26000
H  19.45300 48.17500 33.34700
H  21.10600 47.95000 33.34100

