158

Mg 16.77100 -2.14500 27.77400
C  16.07000 0.07000 30.64900
C  18.45300 -4.16200 29.98700
C  17.84400 -3.53500 25.13000
C  15.23300 0.47900 25.80100
N  17.19700 -1.98800 30.10300
C  16.77900 -1.07500 30.99700
C  17.29800 -1.47700 32.39400
C  18.18400 -2.78900 32.11700
C  17.92300 -3.03800 30.64700
C  19.68900 -2.66700 32.51800
C  16.11000 -1.81200 33.40700
C  16.42400 -1.58500 34.87300
H  17.73700 -0.95800 35.31100
N  17.89100 -3.74800 27.59000
C  18.47900 -4.48300 28.58700
C  19.12100 -5.59600 27.95400
C  18.94100 -5.41500 26.57700
C  18.21200 -4.17900 26.38500
C  19.84200 -6.68300 28.66500
C  19.33300 -6.35000 25.50100
O  19.20900 -6.00500 24.33200
C  19.91000 -7.73700 25.76000
N  16.50800 -1.58800 25.74200
C  17.20100 -2.31300 24.84700
C  17.00300 -1.72600 23.34400
C  16.02500 -0.55600 23.64200
C  15.89700 -0.56300 25.14000
C  18.39400 -1.53700 22.78100
C  14.64200 -0.59600 22.80100
C  13.32400 -0.60300 23.61000
N  15.80300 -0.20200 28.09400
C  15.16700 0.66500 27.19400
C  14.55400 1.82600 27.87000
C  14.95500 1.59400 29.22100
C  15.68700 0.35700 29.29100
C  13.94300 3.13700 27.19500
C  14.98200 2.24000 30.45100
O  14.60800 3.38400 30.76600
C  15.69100 1.26400 31.51400
C  16.90000 1.91900 32.00700
O  18.00600 1.95200 31.61500
O  16.40500 2.65900 33.09500
C  17.47200 3.25800 33.95100
H  19.05900 -4.87500 30.55000
H  18.22100 -3.98100 24.20800
H  14.72500 1.28100 25.26200
H  17.84900 -0.60000 32.73500
H  17.79000 -3.57000 32.76700
H  19.94700 -3.41300 33.27100
H  19.84900 -1.74900 33.08400
H  20.36100 -2.72800 31.66200
H  15.83300 -2.86500 33.36600
H  15.11200 -1.41000 33.23200
H  16.32400 -2.49500 35.46400
H  15.54200 -0.99900 35.13400
H  20.93000 -6.63100 28.64600
H  19.51200 -7.68800 28.40000
H  19.76200 -6.63800 29.75100
H  20.79800 -7.77200 26.39100
H  20.17300 -8.07800 24.75800
H  19.13300 -8.42900 26.08400
H  16.40200 -2.41400 22.74900
H  16.48400 0.38500 23.33900
H  19.22800 -1.88300 23.39200
H  18.59700 -0.47200 22.67300
H  18.43300 -2.16000 21.88800
H  14.68800 -1.40400 22.07100
H  14.69800 0.28100 22.15600
H  12.54300 -0.90900 22.91500
H  12.96000 0.37000 23.94100
H  13.36400 -1.38300 24.37100
H  14.31500 3.06000 26.17300
H  14.29600 4.09600 27.57300
H  12.86100 3.00900 27.17700
H  14.93900 1.03800 32.27000
H  18.48400 3.03700 33.61000
H  17.35200 2.97800 34.99800
H  17.25400 4.32100 33.85700
Mg 42.22500 7.88000 29.51600
C  43.81700 9.58800 32.15000
C  40.20500 6.37000 31.77300
C  40.81400 6.37900 26.80900
C  44.69500 9.13900 27.32500
N  42.07500 7.98300 31.70500
C  42.76800 8.80900 32.63700
C  42.05100 8.92500 33.96300
C  41.13500 7.54500 33.86000
C  41.04700 7.36400 32.30600
C  41.81000 6.23700 34.54700
C  41.38500 10.32000 34.33300
C  40.69400 10.31300 35.69100
H  41.25600 11.21300 36.78400
N  40.69400 6.58100 29.26000
C  39.97900 6.02800 30.38600
C  39.01100 5.03800 29.84400
C  39.05100 5.26400 28.43200
C  40.18900 6.15500 28.06000
C  38.18800 4.25200 30.75000
C  38.15800 4.62600 27.31200
O  38.35200 4.91900 26.09500
C  36.93400 3.76000 27.58300
N  42.67300 7.75000 27.38100
C  41.98100 7.01800 26.49200
C  42.58800 7.20000 25.07600
C  43.52700 8.33300 25.25900
C  43.68700 8.41900 26.78000
C  43.34600 5.87400 24.73900
C  42.96300 9.75700 24.75200
C  41.68400 10.41100 25.36300
N  43.92500 9.08700 29.62100
C  44.84800 9.49800 28.67400
C  45.80200 10.42100 29.24100
C  45.43100 10.47900 30.59600
C  44.27700 9.73300 30.79900
C  46.96500 11.17500 28.61600
C  45.71200 11.07200 31.90800
O  46.48800 11.97600 32.16600
C  44.68300 10.53000 32.95900
C  45.30200 9.98200 34.19500
O  46.08900 9.03200 34.26200
O  44.57000 10.42100 35.26100
C  44.61300 9.72500 36.56700
H  39.66400 5.76300 32.50300
H  40.39500 5.73800 26.03100
H  45.40100 9.60400 26.63400
H  42.81500 8.61500 34.67600
H  40.15500 7.76400 34.28300
H  41.96600 5.30800 33.99700
H  41.03500 5.99400 35.27500
H  42.72300 6.42400 35.11200
H  40.58900 10.53800 33.62200
H  42.21000 11.02600 34.23800
H  40.65400 9.28600 36.05300
H  39.66700 10.66100 35.57100
H  37.16600 4.50900 30.47300
H  38.44800 4.30700 31.80800
H  38.38700 3.19200 30.59000
H  36.41800 3.45900 26.67100
H  36.35000 4.47500 28.16300
H  37.32600 2.91300 28.14500
H  41.79900 7.58400 24.43000
H  44.52300 8.27700 24.81900
H  43.11800 5.01700 25.37300
H  44.41500 6.07200 24.65900
H  43.09700 5.64500 23.70300
H  42.75700 9.81700 23.68300
H  43.76700 10.49100 24.80000
H  41.37800 9.82900 26.23300
H  40.86500 10.27300 24.65800
H  41.78700 11.45800 25.64700
H  46.91700 12.22100 28.92100
H  47.06000 10.92700 27.55900
H  47.80400 10.68800 29.11200
H  44.22600 11.47300 33.25800
H  45.01500 8.72400 36.41200
H  43.63500 9.65700 37.04400
H  45.35000 10.26000 37.16500

