158

Mg 29.65500 58.02700 40.63300
C  26.91200 56.34500 39.26300
C  31.71600 55.59200 39.21900
C  32.32600 60.16600 40.71800
C  27.51400 60.85200 41.54900
N  29.31200 56.22600 39.27700
C  28.13800 55.70400 38.82300
C  28.32300 54.34600 38.13300
C  29.83600 54.15700 38.25000
C  30.36200 55.37300 38.99900
C  30.38800 52.84900 38.87500
C  27.67700 54.01900 36.68400
C  27.50400 55.23000 35.65700
H  28.02300 55.15700 34.20400
N  31.74400 57.80000 40.32700
C  32.41600 56.68800 39.79000
C  33.77400 56.90100 39.87200
C  34.00500 58.28500 40.17100
C  32.64100 58.84400 40.38600
C  34.90500 55.91200 39.53700
C  35.39700 59.05000 40.09600
O  36.43700 58.44000 39.76200
C  35.52100 60.49300 40.23300
N  29.93000 60.17900 41.27500
C  31.14500 60.77800 41.14600
C  31.06600 62.29400 41.54400
C  29.52000 62.49400 41.77500
C  28.90100 61.05100 41.60400
C  32.05600 62.82600 42.67700
C  28.79600 63.63600 40.98300
C  28.18200 64.80600 41.72200
N  27.64300 58.47300 40.59500
C  26.93800 59.58000 41.10400
C  25.51300 59.32200 40.87900
C  25.46200 58.09000 40.21100
C  26.79100 57.63400 40.01200
C  24.35500 60.20400 41.22800
C  24.63300 57.07200 39.54400
O  23.41900 57.14200 39.36500
C  25.46300 55.94200 38.88100
C  25.10900 54.63400 39.46800
O  25.53500 54.20400 40.53700
O  24.15600 53.96100 38.73900
C  23.35500 52.82900 39.34100
H  32.29400 54.69600 38.98300
H  33.13900 60.87900 40.56400
H  26.86500 61.67300 41.86200
H  27.85400 53.56100 38.72600
H  30.16100 54.26300 37.21500
H  29.52100 52.21300 39.05500
H  30.94000 52.96900 39.80800
H  31.04300 52.44900 38.10200
H  26.67800 53.59500 36.78200
H  28.32400 53.24800 36.26600
H  27.91000 56.10200 36.16900
H  26.43100 55.42300 35.66400
H  35.49600 56.36500 38.74100
H  34.49400 55.01700 39.06900
H  35.45000 55.53100 40.40000
H  36.56700 60.76400 40.37100
H  34.95200 60.77600 41.11900
H  35.08400 61.00800 39.37700
H  31.34700 62.85300 40.65100
H  29.30300 62.75100 42.81200
H  32.53500 61.88800 42.95800
H  31.60200 63.11000 43.62700
H  32.82700 63.53600 42.37800
H  28.10200 63.20700 40.26000
H  29.56900 64.14200 40.40600
H  28.48200 65.83100 41.50400
H  28.45700 64.76100 42.77600
H  27.10300 64.86100 41.57400
H  24.26000 60.59100 42.24300
H  23.40300 59.68200 41.13200
H  24.38600 61.11900 40.63700
H  25.40600 56.02600 37.79500
H  23.73700 52.56600 40.32700
H  23.50900 51.93900 38.73000
H  22.30400 53.09100 39.46400
Mg -4.81500 25.34200 26.03300
C  -3.62900 26.72000 28.87800
C  -6.53300 22.99700 27.90200
C  -5.47900 23.64300 23.18600
C  -2.90000 27.57500 24.14600
N  -4.98600 24.90100 28.13800
C  -4.48300 25.64800 29.16500
C  -5.12800 25.39800 30.46500
C  -5.90300 24.05000 30.17900
C  -5.75500 23.86000 28.68000
C  -5.28200 22.92200 31.02000
C  -6.08300 26.51000 30.93300
C  -6.06100 26.66400 32.47000
H  -5.33200 25.70000 33.44600
N  -5.96600 23.63700 25.61100
C  -6.65100 22.82800 26.49900
C  -7.35300 21.74700 25.74600
C  -6.96700 21.89700 24.35400
C  -6.04100 23.09800 24.39900
C  -8.33100 20.83500 26.54200
C  -7.42600 21.03700 23.16000
O  -6.99700 21.19000 22.04000
C  -8.18100 19.79500 23.47000
N  -4.26700 25.58400 23.98500
C  -4.70400 24.78200 22.95000
C  -4.33100 25.28300 21.48200
C  -3.54000 26.64200 21.85800
C  -3.59500 26.66400 23.38600
C  -3.46700 24.26600 20.72500
C  -3.95300 27.93400 21.07400
C  -3.06100 28.54200 20.03000
N  -3.36900 26.70200 26.39400
C  -2.74000 27.59000 25.55300
C  -1.97600 28.58100 26.30100
C  -2.18000 28.19600 27.66400
C  -3.13700 27.08700 27.62700
C  -1.19300 29.83900 25.80400
C  -1.82700 28.52700 29.08300
O  -1.03400 29.27900 29.56700
C  -2.82000 27.56700 29.87600
C  -1.92800 26.82900 30.75700
O  -1.19500 25.92500 30.37500
O  -1.88900 27.38000 32.09000
C  -1.08900 26.58500 32.95600
H  -6.97300 22.18600 28.48700
H  -5.73800 23.05400 22.30300
H  -2.26600 28.38100 23.77000
H  -4.27400 25.39600 31.14300
H  -6.93900 24.23700 30.46100
H  -4.68600 22.23100 30.42400
H  -6.08000 22.24800 31.33000
H  -4.69000 23.20900 31.89000
H  -7.07400 26.43200 30.48400
H  -5.66700 27.45400 30.58100
H  -7.07500 26.77800 32.85400
H  -5.59700 27.64500 32.56800
H  -7.65100 20.06400 26.90500
H  -9.16500 20.35700 26.02900
H  -8.68700 21.40900 27.39700
H  -9.18000 19.97200 23.86900
H  -7.65900 19.12700 24.15500
H  -8.35300 19.28200 22.52400
H  -5.22900 25.41200 20.87800
H  -2.47500 26.43300 21.75600
H  -3.79600 23.89200 19.75500
H  -3.53200 23.28800 21.20300
H  -2.48700 24.72300 20.59100
H  -4.28100 28.75400 21.71200
H  -4.91400 27.73900 20.59900
H  -3.78800 28.74900 19.24600
H  -2.16900 28.01900 19.68500
H  -2.77600 29.51700 20.42500
H  -0.11100 29.70700 25.78400
H  -1.42600 30.66800 26.47200
H  -1.53400 30.10100 24.80200
H  -3.51800 28.14600 30.48100
H  -1.25800 25.51000 32.88400
H  -1.04000 26.96700 33.97500
H  -0.09900 26.65800 32.50700

