158

Mg 17.29400 52.81200 26.33100
C  19.30500 51.02700 28.68800
C  14.83000 53.03300 28.87100
C  15.24700 54.14900 24.08800
C  19.57800 51.72900 23.83600
N  17.08500 52.07700 28.55400
C  18.10900 51.51200 29.27500
C  17.73200 51.43900 30.74000
C  16.16600 51.69100 30.70100
C  15.95500 52.29500 29.30800
C  15.35900 50.43400 30.80600
C  18.64900 52.45100 31.48900
C  18.96500 52.04200 33.00100
H  17.88300 51.38800 33.83500
N  15.27300 53.55100 26.42500
C  14.51800 53.67000 27.56700
C  13.32300 54.43800 27.22800
C  13.35600 54.77900 25.81900
C  14.63500 54.12200 25.33000
C  12.29100 54.96800 28.28600
C  12.47000 55.51500 24.85700
O  12.60800 55.52500 23.61300
C  11.46900 56.41000 25.51800
N  17.40700 52.90500 24.37200
C  16.51400 53.70000 23.67100
C  16.77700 53.60300 22.15600
C  18.18200 53.06800 22.09900
C  18.45900 52.54200 23.49400
C  15.69800 52.88800 21.24700
C  19.31800 53.98500 21.57000
C  19.64100 55.17300 22.50200
N  19.12300 51.66800 26.25400
C  19.93700 51.35800 25.13000
C  21.08400 50.58200 25.58100
C  20.86000 50.40500 26.97500
C  19.69300 51.10600 27.34200
C  22.21900 50.22600 24.65100
C  21.53100 49.83500 28.10300
O  22.59100 49.18300 28.21600
C  20.52500 50.26300 29.35000
C  20.04400 49.06700 30.05900
O  19.36100 48.10700 29.60300
O  20.38300 49.22900 31.41200
C  20.19400 48.06800 32.28500
H  14.10000 52.95700 29.67900
H  14.60800 54.58100 23.31500
H  20.22400 51.39100 23.02300
H  17.85100 50.45300 31.19000
H  15.88700 52.38800 31.49100
H  15.07100 50.31500 31.85100
H  15.77900 49.49600 30.44500
H  14.48300 50.56300 30.17200
H  18.12600 53.40700 31.51400
H  19.61900 52.61800 31.02100
H  19.57200 52.73300 33.58400
H  19.57400 51.14200 32.91600
H  12.69400 55.91300 28.65100
H  12.42100 54.32700 29.15800
H  11.29000 55.12100 27.88300
H  11.02400 56.96100 24.69000
H  11.94900 57.22900 26.05500
H  10.76800 55.81200 26.10000
H  16.89700 54.61600 21.77100
H  18.21200 52.17000 21.48300
H  16.12000 52.85600 20.24300
H  14.80900 53.51800 21.24800
H  15.52200 51.88100 21.62600
H  18.92400 54.40800 20.64600
H  20.19800 53.36300 21.40200
H  19.41500 56.09200 21.96000
H  20.71600 55.15200 22.68100
H  19.00500 55.21100 23.38700
H  23.14500 50.07300 25.20400
H  22.19200 51.01500 23.89800
H  22.04300 49.31600 24.07700
H  21.02500 50.89600 30.08300
H  19.86500 47.14800 31.80200
H  19.45400 48.36300 33.02900
H  21.04200 47.82500 32.92500
Mg -4.59700 25.42500 25.52400
C  -3.24900 26.57500 28.48800
C  -6.70600 23.32500 27.45100
C  -5.73800 24.05000 22.66400
C  -2.35700 27.29200 23.76800
N  -4.96500 25.06600 27.78500
C  -4.33900 25.66700 28.77500
C  -4.83200 25.28000 30.18000
C  -5.58300 24.00200 29.81000
C  -5.83100 24.14300 28.22500
C  -4.85500 22.69200 30.23000
C  -5.58900 26.44700 30.90500
C  -5.04300 26.73600 32.28600
H  -5.16700 25.70800 33.37900
N  -6.07500 23.92500 25.10100
C  -6.91600 23.26400 26.04300
C  -7.83500 22.42400 25.30500
C  -7.58300 22.64000 23.89900
C  -6.43000 23.55900 23.80700
C  -8.77200 21.47100 25.99000
C  -8.36700 22.11200 22.68200
O  -7.99800 22.40300 21.54100
C  -9.63700 21.34200 23.00200
N  -4.28600 25.82900 23.59400
C  -4.71900 24.96500 22.56700
C  -3.97400 25.16800 21.22100
C  -3.11800 26.36800 21.51300
C  -3.26600 26.52100 23.03200
C  -3.34400 23.86600 20.77300
C  -3.42100 27.69600 20.68600
C  -2.46000 28.06300 19.58600
N  -2.96800 26.70100 26.01700
C  -2.13100 27.42100 25.15800
C  -1.25000 28.27800 25.97200
C  -1.66100 27.92000 27.30200
C  -2.68900 26.94900 27.25400
C  -0.19000 29.23500 25.58100
C  -1.37400 28.22700 28.65800
O  -0.53100 28.98000 29.09800
C  -2.44100 27.34000 29.50000
C  -1.66700 26.34600 30.33400
O  -1.45900 25.19300 30.13600
O  -1.23500 26.99600 31.47700
C  -0.70800 26.17300 32.63700
H  -7.37500 22.69300 28.03800
H  -5.84800 23.54500 21.70200
H  -1.64700 27.72100 23.05800
H  -3.93100 25.00400 30.72800
H  -6.62100 24.06800 30.13600
H  -3.97200 22.79100 30.86100
H  -4.53300 22.26400 29.28100
H  -5.59400 22.13800 30.81000
H  -6.64500 26.20300 31.01500
H  -5.50900 27.40000 30.38200
H  -5.53800 27.63900 32.64300
H  -4.00600 27.04600 32.15800
H  -9.76300 21.92300 25.94200
H  -8.50600 21.44400 27.04700
H  -8.60900 20.49400 25.53500
H  -10.02000 21.11400 22.00700
H  -10.39300 22.02300 23.39100
H  -9.47300 20.48000 23.64900
H  -4.75900 25.38500 20.49700
H  -2.07800 26.05900 21.41200
H  -3.52300 23.03500 21.45500
H  -2.27000 23.95100 20.60800
H  -3.76400 23.57700 19.80900
H  -3.38500 28.61600 21.27000
H  -4.45400 27.65200 20.34100
H  -2.66300 27.61300 18.61400
H  -1.52400 27.63100 19.93900
H  -2.34500 29.13100 19.40000
H  0.37800 28.84200 24.73800
H  0.39100 29.40300 26.48800
H  -0.63900 30.17000 25.24400
H  -3.04700 28.05200 30.06100
H  -0.92400 25.10900 32.54500
H  -1.08300 26.43200 33.62700
H  0.36000 26.37900 32.56200

