158

Mg 1.93400 -1.21100 44.99200
C  5.30300 -0.39600 44.48300
C  1.08200 1.32300 42.61700
C  -1.15500 -2.44800 44.66800
C  2.97500 -4.08500 46.72200
N  3.13300 0.17200 43.60000
C  4.48500 0.37900 43.67800
C  4.86100 1.48700 42.72000
C  3.49600 2.11200 42.27700
C  2.44200 1.19700 42.88800
C  3.15100 3.50900 42.93000
C  5.70700 0.92200 41.44600
C  7.11100 1.56600 41.45500
H  7.58900 2.24300 40.19300
N  0.16200 -0.56900 43.94700
C  0.07400 0.46700 43.04200
C  -1.37500 0.63700 42.72100
C  -2.07800 -0.49100 43.29400
C  -0.97700 -1.21000 44.01500
C  -1.98200 1.69500 41.85300
C  -3.56800 -0.72400 43.12300
O  -4.15500 -0.15900 42.22100
C  -4.38900 -1.68200 43.96800
N  1.04400 -2.98400 45.61200
C  -0.29300 -3.23600 45.43800
C  -0.67300 -4.65800 46.05800
C  0.69000 -5.11500 46.73100
C  1.60800 -4.00200 46.37200
C  -1.93100 -4.67800 47.02900
C  1.20300 -6.49400 46.13900
C  2.03800 -7.31600 47.18600
N  3.72200 -2.09000 45.62700
C  4.01300 -3.22600 46.35600
C  5.43800 -3.24000 46.57600
C  5.99500 -2.14000 45.89900
C  4.89700 -1.49700 45.26700
C  6.18600 -4.26100 47.23600
C  7.24200 -1.43300 45.58200
O  8.43900 -1.56600 45.92800
C  6.78200 -0.28600 44.62400
C  7.25600 1.03600 45.16300
O  6.75900 1.55100 46.14200
O  8.30900 1.54100 44.38400
C  8.46000 3.00100 44.54500
H  0.74100 2.07300 41.90000
H  -2.17000 -2.83400 44.55900
H  3.27800 -4.90800 47.37200
H  5.49200 2.08600 43.37700
H  3.33600 1.97300 41.20800
H  3.10400 4.19800 42.08700
H  3.87800 3.90100 43.64100
H  2.23800 3.67900 43.49900
H  5.20200 1.25200 40.53800
H  5.85700 -0.15100 41.56100
H  7.92700 0.93500 41.81000
H  7.16900 2.38900 42.16700
H  -2.25300 1.35000 40.85500
H  -1.25200 2.47700 41.64400
H  -2.91100 2.11000 42.24200
H  -5.37600 -1.24600 44.12000
H  -3.90300 -1.86100 44.92700
H  -4.42800 -2.60600 43.39000
H  -0.89300 -5.34000 45.23700
H  0.64400 -5.18700 47.81800
H  -1.65100 -5.08900 48.00000
H  -2.82100 -5.16600 46.63300
H  -2.10300 -3.61600 47.20000
H  1.80600 -6.35000 45.24200
H  0.38400 -7.17000 45.89500
H  1.29500 -8.08400 47.40500
H  2.24300 -6.74700 48.09200
H  2.95600 -7.81800 46.88100
H  7.21800 -3.96000 47.41500
H  6.15500 -5.23900 46.75500
H  5.74400 -4.60300 48.17200
H  7.24200 -0.43200 43.64700
H  9.18000 3.13000 45.35400
H  7.56200 3.54200 44.84700
H  8.80400 3.48000 43.62900
Mg 8.62300 3.09000 27.60300
C  9.97100 1.70400 30.43100
C  6.63900 5.20600 29.52500
C  7.10300 4.25400 24.77600
C  10.16400 0.64800 25.60100
N  8.35100 3.47600 29.73300
C  9.06900 2.77400 30.70800
C  8.62000 3.32000 32.11400
C  7.41700 4.28000 31.83500
C  7.51900 4.37900 30.26700
C  6.02900 3.72000 32.26900
C  9.70900 3.97900 32.94700
C  9.39100 4.04200 34.43100
H  10.60800 4.22000 35.30900
N  7.16100 4.55800 27.23500
C  6.49700 5.32200 28.15900
C  5.73000 6.29200 27.41100
C  5.81800 6.04000 26.02500
C  6.73200 4.85100 25.96300
C  4.95300 7.37600 28.02900
C  4.96600 6.68500 24.83200
O  5.12600 6.40600 23.62100
C  3.99600 7.88300 25.15000
N  8.52200 2.38700 25.48600
C  8.00000 3.16300 24.51700
C  8.32800 2.70000 23.10900
C  9.27600 1.48100 23.37500
C  9.38800 1.50900 24.90400
C  7.01900 2.44900 22.32000
C  10.67400 1.51300 22.70200
C  11.06400 0.36500 21.76200
N  9.79500 1.48200 27.90200
C  10.33000 0.59900 26.99600
C  11.19800 -0.33600 27.73700
C  11.08300 0.08800 29.09800
C  10.21500 1.17900 29.08400
C  11.89900 -1.48800 27.08800
C  11.52300 -0.15700 30.42900
O  12.32300 -0.99200 30.86400
C  10.87400 0.94100 31.38700
C  10.01500 0.38100 32.45300
O  8.96500 -0.20100 32.29900
O  10.52700 0.72000 33.66400
C  9.97700 0.19600 34.87900
H  6.07100 5.93800 30.10100
H  6.72600 4.70900 23.85700
H  10.61400 -0.09200 24.93600
H  8.24200 2.50800 32.73500
H  7.65800 5.26300 32.24100
H  6.06200 2.70100 32.65400
H  5.26300 3.68500 31.49400
H  5.58300 4.42300 32.97300
H  9.90700 5.00000 32.61800
H  10.63700 3.45400 32.72100
H  8.87500 3.14400 34.77200
H  8.84000 4.95800 34.64400
H  5.14600 7.43800 29.10000
H  3.87300 7.29100 27.90600
H  5.27200 8.33800 27.62700
H  4.66400 8.68200 25.47300
H  3.40800 7.61200 26.02600
H  3.48600 8.05500 24.20300
H  8.89700 3.42800 22.53100
H  8.72100 0.58400 23.10000
H  6.11900 2.69600 22.88400
H  6.86800 1.38100 22.16300
H  6.94800 2.96000 21.36000
H  11.40900 1.58100 23.50400
H  10.74600 2.41300 22.09100
H  10.50800 -0.49600 22.13400
H  12.12700 0.15300 21.87000
H  10.94800 0.53000 20.69100
H  11.94400 -1.44300 26.00000
H  11.32400 -2.39500 27.27500
H  12.88900 -1.48600 27.54300
H  11.57100 1.66600 31.81000
H  9.01700 0.69000 35.02900
H  10.65400 0.11800 35.73000
H  9.74900 -0.85100 34.67900

