158

Mg 48.01000 35.29600 28.13700
C  46.34700 33.80000 30.83900
C  48.31300 38.19400 30.06300
C  49.51300 36.87800 25.42800
C  47.35700 32.64300 26.08700
N  47.36600 35.92400 30.20200
C  46.92900 35.06600 31.16400
C  46.96200 35.81100 32.52400
C  47.16000 37.36300 32.14500
C  47.78700 37.11400 30.78300
C  45.94400 38.23700 32.01100
C  48.12200 35.30000 33.47300
C  47.82100 34.98900 34.96900
H  47.35700 36.20100 35.81500
N  48.90000 37.22900 27.80400
C  48.89600 38.28500 28.78200
C  49.70600 39.34900 28.26500
C  50.08600 38.92500 26.94000
C  49.47400 37.58800 26.65100
C  49.94000 40.65900 28.92600
C  50.94500 39.66200 25.93200
O  51.32200 39.07800 24.91900
C  51.34000 41.16600 26.12000
N  48.13000 34.95700 25.91800
C  48.91800 35.68800 25.05900
C  48.89000 35.08100 23.64600
C  48.43300 33.65800 23.97400
C  47.91200 33.69300 25.41500
C  47.99400 35.97000 22.77700
C  49.60100 32.53500 23.92300
C  49.08600 31.15100 23.45700
N  47.08100 33.56500 28.47000
C  46.83400 32.57200 27.49100
C  46.02300 31.49800 28.07700
C  45.81400 31.95300 29.44000
C  46.43700 33.22400 29.56600
C  45.63000 30.13100 27.49700
C  45.29600 31.51100 30.76300
O  44.83400 30.44800 31.15900
C  45.51700 32.80800 31.67500
C  46.04900 32.29300 32.93800
O  47.10400 31.75400 33.05200
O  44.99200 32.31600 33.93800
C  45.37800 31.86700 35.29900
H  48.31300 39.17700 30.53700
H  50.08300 37.35200 24.62500
H  47.27400 31.80900 25.38700
H  45.97900 35.62800 32.95900
H  47.88000 37.89800 32.76400
H  45.63100 38.62100 32.98200
H  45.13000 37.64600 31.59100
H  46.10200 39.08200 31.34100
H  48.98000 35.95900 33.33800
H  48.54800 34.40900 33.01100
H  48.79400 34.69000 35.35900
H  47.07600 34.19500 35.01300
H  49.17700 41.38800 28.65400
H  50.90500 41.08600 28.65100
H  49.91700 40.55000 30.01100
H  52.23100 41.35600 26.71800
H  50.44100 41.64000 26.51200
H  51.57200 41.58600 25.14100
H  49.84500 35.25700 23.15000
H  47.66800 33.35100 23.26100
H  48.67000 36.32300 21.99800
H  47.80900 36.93500 23.25100
H  47.16100 35.42200 22.33700
H  49.93500 32.38900 24.95000
H  50.44600 32.86000 23.31500
H  49.63000 30.80900 22.57700
H  48.07700 31.32900 23.08500
H  48.98900 30.35100 24.19100
H  46.08600 29.34100 28.09300
H  46.10100 30.05600 26.51700
H  44.54900 30.02900 27.39900
H  44.54200 33.21600 31.94300
H  45.07100 30.85300 35.55300
H  44.81100 32.54500 35.93600
H  46.41900 32.12400 35.49300
Mg 29.74500 58.45800 39.69500
C  26.94900 56.44000 38.84500
C  31.75100 55.80100 38.66200
C  32.31600 60.49400 39.63300
C  27.52400 61.20800 39.84800
N  29.38600 56.50000 38.72700
C  28.20300 55.85300 38.52300
C  28.33400 54.42100 38.04900
C  29.75900 54.10800 38.54500
C  30.39800 55.58300 38.65500
C  29.90700 53.28600 39.82500
C  27.96700 54.09700 36.57400
C  26.66000 53.42900 36.33600
H  26.29300 53.14000 34.84500
N  31.76700 58.14100 39.36000
C  32.41300 56.97700 39.00700
C  33.83600 57.28500 38.88200
C  34.08700 58.62000 39.24200
C  32.69200 59.16400 39.46600
C  34.88500 56.32200 38.35200
C  35.42200 59.31500 39.32800
O  36.41700 58.64500 39.02600
C  35.56400 60.78800 39.63600
N  29.87400 60.58600 39.59700
C  31.05000 61.18100 39.76100
C  30.95000 62.69600 39.98000
C  29.40200 62.90900 39.73700
C  28.88300 61.45200 39.74000
C  31.40700 63.12000 41.40900
C  29.05100 63.54200 38.37300
C  27.84500 64.51500 38.35700
N  27.63900 58.75000 39.66300
C  26.88500 59.91100 39.74700
C  25.50200 59.54700 39.70200
C  25.49300 58.19800 39.33600
C  26.82500 57.78400 39.26800
C  24.43200 60.44600 40.15400
C  24.63200 57.09400 39.11800
O  23.43900 57.05800 39.16100
C  25.56400 55.91900 38.75900
C  25.25700 54.83400 39.58100
O  25.93400 54.55300 40.55500
O  24.11600 54.18500 38.98800
C  23.81200 52.99700 39.80400
H  32.37300 54.98400 38.28900
H  33.12300 61.23000 39.64600
H  26.77300 62.00100 39.85100
H  27.64200 53.79400 38.61000
H  30.25400 53.60100 37.71600
H  30.48600 53.89200 40.52200
H  30.42700 52.36500 39.56300
H  28.96500 53.04300 40.31700
H  28.71700 53.49000 36.06600
H  27.95600 55.03900 36.02700
H  25.80000 53.99500 36.69400
H  26.59000 52.47100 36.84900
H  35.55100 56.67700 37.56600
H  34.43800 55.38900 38.00900
H  35.50100 55.97500 39.18200
H  36.62900 60.98200 39.50600
H  35.31300 60.80000 40.69700
H  35.06800 61.42300 38.90200
H  31.45100 63.16800 39.13400
H  28.87500 63.40300 40.55400
H  30.57300 63.54400 41.96800
H  32.12300 63.93100 41.27100
H  31.84600 62.30200 41.98000
H  28.71100 62.80000 37.65100
H  29.93000 64.02500 37.94600
H  27.12400 64.20800 37.60000
H  28.22100 65.47500 38.00100
H  27.40700 64.59800 39.35100
H  24.57600 60.98000 41.09300
H  23.56300 59.79600 40.25500
H  24.19100 60.99000 39.24000
H  25.28700 55.73400 37.72100
H  23.23000 53.32300 40.66600
H  24.66200 52.34600 40.01100
H  23.23400 52.41500 39.08700

