158

Mg -2.46700 17.28900 26.75700
C  -2.61900 14.73500 29.01000
C  -3.24800 19.61000 29.21500
C  -2.99700 19.59300 24.42300
C  -2.55600 14.75600 24.17900
N  -2.97200 17.16800 28.84000
C  -2.87800 16.02200 29.62900
C  -3.15000 16.34000 31.09700
C  -3.37700 17.95400 31.03300
C  -3.16200 18.28900 29.57500
C  -4.77600 18.36300 31.48900
C  -2.01500 15.78500 32.01700
C  -1.69300 16.64200 33.29300
H  -1.33100 16.01100 34.56200
N  -2.78100 19.37300 26.81400
C  -3.08400 20.15400 27.90300
C  -3.23100 21.50600 27.47900
C  -3.23800 21.52900 26.07600
C  -2.97200 20.14000 25.70000
C  -3.35200 22.70500 28.35100
C  -3.58200 22.58300 25.08000
O  -3.55100 22.38300 23.89500
C  -3.92100 23.94200 25.64200
N  -2.45400 17.24600 24.58200
C  -2.83600 18.28300 23.90000
C  -3.10900 17.92300 22.36200
C  -2.77800 16.40300 22.37700
C  -2.56800 16.10100 23.84800
C  -4.51000 18.16100 21.79100
C  -1.58600 16.02400 21.48800
C  -1.97300 15.25300 20.19700
N  -2.42600 15.13500 26.56400
C  -2.47900 14.25100 25.47900
C  -2.45100 12.92800 25.99900
C  -2.43700 13.08200 27.35600
C  -2.43200 14.46800 27.68500
C  -2.57700 11.68900 25.22900
C  -2.38600 12.36900 28.54700
O  -2.29100 11.13700 28.66700
C  -2.67700 13.31300 29.69900
C  -1.65900 12.90700 30.72200
O  -0.49900 13.26800 30.67300
O  -2.16900 11.99600 31.59300
C  -1.30200 11.40800 32.59000
H  -3.36000 20.31800 30.03800
H  -3.30200 20.26400 23.61700
H  -2.57500 13.99200 23.39900
H  -4.08000 15.86700 31.41300
H  -2.64900 18.57400 31.55600
H  -4.52500 19.10300 32.24800
H  -5.45400 17.64500 31.95100
H  -5.38700 18.81800 30.70900
H  -1.13300 15.59900 31.40400
H  -2.28900 14.79900 32.39200
H  -2.44200 17.43300 33.31400
H  -0.82300 17.24200 33.02800
H  -3.19900 22.47400 29.40500
H  -4.32000 23.20400 28.29600
H  -2.62500 23.45700 28.04400
H  -4.73000 23.90700 26.37100
H  -4.18100 24.51100 24.74900
H  -3.08600 24.41500 26.15900
H  -2.44600 18.45000 21.67600
H  -3.65800 15.82600 22.09400
H  -5.05400 18.78400 22.50200
H  -5.05600 17.23300 21.62500
H  -4.35700 18.66300 20.83600
H  -0.98200 15.26400 21.98400
H  -1.01600 16.90800 21.20100
H  -1.62400 15.68500 19.25900
H  -3.05600 15.15200 20.13000
H  -1.60200 14.22800 20.22200
H  -1.79200 11.62200 24.47500
H  -3.52200 11.66400 24.68600
H  -2.48200 10.76000 25.79200
H  -3.66000 13.05000 30.09100
H  -0.74000 10.60500 32.11300
H  -1.98200 11.03800 33.35700
H  -0.66000 12.04600 33.19700
Mg -6.50800 25.53600 26.22900
C  -5.26900 27.06100 29.01900
C  -7.91900 23.17000 28.18500
C  -7.70800 24.09000 23.43400
C  -4.96400 28.09300 24.16600
N  -6.46600 25.13000 28.29700
C  -6.12600 26.00700 29.27600
C  -6.69600 25.67300 30.59200
C  -7.40400 24.29600 30.31900
C  -7.26100 24.15400 28.81700
C  -7.10000 23.13700 31.26800
C  -7.59100 26.83700 31.11800
C  -7.59800 27.03900 32.67300
H  -7.23200 25.79700 33.67300
N  -7.54100 23.77800 25.86500
C  -8.10800 22.99800 26.81500
C  -9.02800 22.06200 26.16000
C  -8.90300 22.25800 24.78700
C  -8.04000 23.42600 24.65400
C  -10.07000 21.07300 26.80800
C  -9.53900 21.46600 23.60900
O  -9.42300 21.70600 22.40900
C  -10.37100 20.20400 23.90100
N  -6.32000 26.04000 24.16700
C  -6.99300 25.26900 23.20800
C  -6.83500 25.79000 21.78500
C  -6.31200 27.28600 22.18000
C  -5.85200 27.12600 23.63200
C  -5.64800 25.02400 21.01700
C  -7.47300 28.31800 21.98000
C  -7.32900 29.05100 20.64700
N  -5.32500 27.33800 26.50700
C  -4.75200 28.17900 25.61200
C  -3.96800 29.12600 26.35900
C  -4.03500 28.79300 27.77800
C  -4.95600 27.69900 27.76200
C  -3.39800 30.30900 25.70400
C  -3.69500 29.03300 29.17100
O  -2.93700 29.81500 29.69700
C  -4.52300 27.94100 30.02800
C  -3.54100 27.19000 30.91600
O  -2.65600 26.48300 30.49600
O  -3.77300 27.37900 32.26100
C  -2.85900 26.73200 33.24100
H  -8.51900 22.46900 28.76900
H  -8.11900 23.67200 22.51200
H  -4.56800 28.86600 23.50400
H  -5.81300 25.39200 31.16600
H  -8.47400 24.47100 30.42800
H  -6.53500 22.29800 30.86200
H  -7.95300 22.55100 31.61200
H  -6.42500 23.54200 32.02200
H  -8.63400 26.81900 30.80200
H  -7.38500 27.82300 30.70000
H  -8.56600 27.36300 33.05600
H  -6.88600 27.84200 32.86600
H  -11.05300 21.09900 26.33900
H  -10.34400 21.51500 27.76600
H  -9.68000 20.05700 26.86800
H  -11.41200 20.28600 24.21300
H  -9.81900 19.47300 24.49300
H  -10.53700 19.88100 22.87300
H  -7.79200 25.61900 21.29200
H  -5.53400 27.62400 21.49600
H  -5.04600 25.71700 20.42900
H  -6.15700 24.34500 20.33300
H  -4.95300 24.55800 21.71600
H  -7.33200 29.13200 22.69200
H  -8.51300 28.02100 22.11600
H  -8.30500 29.18100 20.18000
H  -6.80300 28.46300 19.89500
H  -6.81700 30.01000 20.72600
H  -2.76900 30.04000 24.85500
H  -2.84700 30.89500 26.43900
H  -4.18000 30.95600 25.30900
H  -5.22000 28.43700 30.70400
H  -3.45600 26.64800 34.14800
H  -2.04700 27.43300 33.44000
H  -2.66100 25.73900 32.83900

