158

Mg 8.96800 3.02500 28.38500
C  10.58300 1.48700 31.11400
C  7.21900 4.94500 30.46000
C  7.55800 4.31900 25.60400
C  10.71500 0.75700 26.27900
N  8.79000 3.10900 30.57700
C  9.67400 2.51700 31.44400
C  9.36200 2.99500 32.90400
C  8.22800 4.03100 32.64700
C  8.03000 4.03500 31.12100
C  6.88700 3.89700 33.49800
C  10.65400 3.74000 33.48400
C  10.39600 4.57300 34.78800
H  11.33000 4.32900 36.02000
N  7.53600 4.42400 28.10400
C  6.93100 5.11800 29.08300
C  6.07500 6.13200 28.54700
C  6.08300 5.97600 27.10200
C  7.07900 4.84900 26.86200
C  5.22400 7.15400 29.37100
C  5.38600 6.75500 26.00800
O  5.42500 6.46800 24.83200
C  4.35500 7.77400 26.27900
N  9.02800 2.53000 26.31500
C  8.42300 3.26300 25.33000
C  8.89300 2.94000 23.85700
C  10.06900 2.09700 24.21700
C  9.95300 1.74000 25.68500
C  7.79200 2.31700 23.01200
C  11.50400 2.65800 23.95700
C  11.70600 4.17700 24.10800
N  10.34900 1.44300 28.53700
C  10.95100 0.58100 27.63400
C  11.89200 -0.39300 28.33900
C  11.71600 -0.01100 29.69400
C  10.89300 1.06800 29.73900
C  12.77400 -1.41500 27.72500
C  12.25700 -0.23800 31.02800
O  13.01700 -1.15500 31.40600
C  11.50600 0.67000 32.00400
C  10.73700 -0.12000 32.99200
O  9.78500 -0.91300 32.75200
O  11.23000 0.04100 34.30000
C  10.58400 -0.59200 35.44500
H  6.67900 5.63000 31.11600
H  7.14600 4.81500 24.72300
H  11.23100 0.12800 25.55100
H  9.02100 2.20400 33.57200
H  8.55300 5.07200 32.65400
H  6.18400 3.29400 32.92400
H  6.63300 4.90900 33.81400
H  7.05200 3.30600 34.39900
H  11.19300 4.32100 32.73700
H  11.31600 2.92800 33.78400
H  9.38600 4.32400 35.11400
H  10.51700 5.63600 34.58100
H  4.21900 6.73400 29.38500
H  5.08200 8.05600 28.77600
H  5.58500 7.23200 30.39700
H  3.82100 8.18800 25.42400
H  4.91900 8.63800 26.63100
H  3.58600 7.37000 26.93700
H  9.17800 3.85800 23.34200
H  9.98900 1.20500 23.59600
H  6.85100 2.40600 23.55400
H  7.95300 1.28900 22.68700
H  7.70700 3.04600 22.20500
H  11.74300 2.42300 22.92000
H  12.19900 2.25200 24.69100
H  12.63600 4.47400 24.59300
H  10.93400 4.64100 24.72200
H  11.57600 4.56400 23.09700
H  12.23100 -2.00800 26.98900
H  13.04400 -2.19600 28.43500
H  13.53600 -0.86900 27.16800
H  12.14600 1.26900 32.65200
H  9.99400 0.17600 35.94600
H  11.29600 -1.01300 36.15500
H  9.78600 -1.23700 35.07700
Mg 36.83900 49.72900 24.60600
C  36.87000 48.00200 27.62600
C  35.67600 52.52800 26.27200
C  36.26600 51.26300 21.61400
C  37.14100 46.73000 22.95600
N  36.18800 50.13300 26.78100
C  36.42800 49.36400 27.82300
C  36.20300 50.06300 29.20000
C  35.65800 51.47700 28.71800
C  35.82100 51.42100 27.16900
C  34.42100 51.92600 29.20400
C  37.47100 50.10300 30.05300
C  37.08700 50.28300 31.54900
H  35.74500 50.22800 32.25700
N  36.01700 51.57600 24.01500
C  35.71000 52.62600 24.85400
C  35.58100 53.83300 24.03200
C  35.68700 53.51500 22.70400
C  36.01100 52.08300 22.72800
C  35.33200 55.15400 24.76800
C  35.63800 54.44100 21.48800
O  35.75200 54.07900 20.35900
C  35.43000 55.89300 21.64300
N  36.73800 49.11500 22.60400
C  36.46700 49.91800 21.52300
C  36.60400 49.19000 20.18500
C  36.66900 47.74200 20.68100
C  36.91200 47.86300 22.17600
C  35.50100 49.32000 19.14300
C  37.74900 46.94800 19.86900
C  39.24300 47.36200 20.07000
N  37.20500 47.80800 25.19400
C  37.31900 46.64000 24.40700
C  37.71600 45.50600 25.23900
C  37.43700 45.96500 26.52200
C  37.15400 47.36700 26.45900
C  38.00000 44.14100 24.75600
C  37.43600 45.64300 27.95500
O  37.60300 44.58900 28.55700
C  37.11500 46.90800 28.70800
C  35.90400 46.50700 29.45900
O  34.82300 46.18900 29.02400
O  36.13300 46.78200 30.81000
C  35.14200 46.23900 31.73200
H  35.44100 53.47300 26.76700
H  36.24100 51.74900 20.63600
H  37.18700 45.79800 22.38800
H  35.38800 49.44600 29.57700
H  36.44500 52.15900 29.03800
H  34.10500 51.28700 30.02800
H  33.65700 51.61000 28.49400
H  34.44700 53.00000 29.38500
H  38.09200 50.97100 29.82800
H  38.07900 49.22800 29.82500
H  37.70900 51.11900 31.86800
H  37.48200 49.36700 31.98800
H  35.27600 56.09000 24.21300
H  36.20000 55.37300 25.39000
H  34.47800 55.19000 25.44400
H  34.44500 55.98000 22.10100
H  35.51600 56.43000 20.69900
H  36.22900 56.26300 22.28500
H  37.55800 49.46800 19.73700
H  35.67800 47.28800 20.65500
H  35.09500 50.32000 19.30000
H  34.68900 48.61700 19.32600
H  35.91800 49.30200 18.13600
H  37.51900 46.77800 18.81700
H  37.74500 45.93300 20.26500
H  39.82600 46.57000 20.54000
H  39.33300 48.12700 20.84200
H  39.77200 47.62600 19.15500
H  38.28800 43.59600 25.65500
H  38.82200 44.08300 24.04300
H  37.06300 43.75100 24.35800
H  38.06400 47.10100 29.20800
H  35.53100 45.24900 31.96800
H  34.12700 46.09200 31.36300
H  35.05300 46.95000 32.55300

