158

Mg 49.31700 45.14900 43.22800
C  46.39600 46.35900 41.84200
C  49.04800 42.18600 41.28900
C  52.62800 44.29500 43.76700
C  50.00400 48.43900 44.27800
N  47.97100 44.36200 41.77200
C  46.78000 45.09000 41.35300
C  46.12300 44.22700 40.26600
C  46.94200 42.92700 40.18500
C  48.05800 43.18700 41.17400
C  46.12500 41.55100 40.49600
C  45.97700 45.02400 38.90300
C  44.53800 45.21700 38.41000
H  44.42600 44.55500 37.00500
N  50.62000 43.39100 42.81800
C  50.31000 42.33300 41.95200
C  51.39400 41.43100 41.97500
C  52.42000 41.99500 42.77600
C  51.88100 43.25800 43.26600
C  51.35900 40.14100 41.24200
C  53.84300 41.34000 43.06500
O  54.10900 40.22700 42.62700
C  54.78100 41.98600 43.91200
N  51.04100 46.21900 44.02800
C  52.30500 45.61100 44.08800
C  53.36400 46.70200 44.40300
C  52.41000 47.93900 44.74600
C  51.05300 47.48500 44.29000
C  54.34300 46.24000 45.48800
C  52.91200 49.36000 44.20400
C  52.92800 50.49700 45.16400
N  48.31000 46.95000 43.33300
C  48.64600 48.20500 43.88000
C  47.51000 49.07500 43.80300
C  46.63500 48.39000 43.02300
C  47.12800 47.11500 42.74100
C  47.40200 50.50500 44.35500
C  45.32100 48.45600 42.36800
O  44.42600 49.24800 42.44000
C  45.21300 47.15900 41.49200
C  44.00500 46.38500 41.89800
O  42.95700 46.40700 41.32700
O  44.18600 45.58300 43.02800
C  42.95600 44.85700 43.56700
H  48.98300 41.42100 40.51200
H  53.71300 44.22300 43.86700
H  50.26900 49.46400 44.54500
H  45.17300 44.01700 40.75700
H  47.40000 42.88800 39.19700
H  45.05000 41.71100 40.57500
H  46.41500 41.03700 41.41200
H  46.26000 40.98600 39.57400
H  46.56400 44.60700 38.08500
H  46.37800 46.03000 39.02500
H  44.20400 46.25400 38.38200
H  43.92200 44.68000 39.13100
H  50.34900 39.76500 41.07800
H  51.74100 39.31900 41.84800
H  51.85100 40.27800 40.28000
H  54.33800 42.50300 44.76300
H  55.41600 42.70800 43.39900
H  55.42200 41.16400 44.23100
H  53.98600 46.86000 43.52200
H  52.24900 47.93400 45.82400
H  54.06300 45.25600 45.86400
H  54.33100 46.87400 46.37500
H  55.35500 46.35000 45.10000
H  52.20500 49.68600 43.44100
H  53.89400 49.28600 43.73600
H  52.49400 51.37900 44.69400
H  53.94000 50.69300 45.51900
H  52.36200 50.38900 46.08900
H  47.78500 51.15500 43.56800
H  48.08000 50.60600 45.20200
H  46.39800 50.81100 44.65200
H  45.13200 47.46700 40.44900
H  42.22900 45.58700 43.92200
H  43.24100 44.19300 44.38300
H  42.52200 44.29400 42.74100
Mg -2.78100 35.05800 26.85000
C  -4.66300 33.04100 29.10800
C  -1.96500 37.14500 29.43400
C  -1.03300 36.61300 24.69500
C  -4.49300 33.30200 24.27300
N  -3.14700 34.99500 28.93100
C  -3.90200 34.14300 29.66700
C  -3.70200 34.43100 31.18000
C  -2.90200 35.78400 31.28900
C  -2.71300 36.01800 29.73300
C  -3.55100 36.91300 32.08600
C  -3.07200 33.11400 31.94700
C  -3.70700 32.64400 33.22900
H  -2.89800 33.06200 34.47200
N  -1.72200 36.75900 27.01800
C  -1.41000 37.48200 28.13600
C  -0.47400 38.51200 27.83800
C  -0.18900 38.31500 26.45100
C  -0.97600 37.25100 25.99100
C  -0.10700 39.51400 28.83900
C  0.65100 39.12900 25.48800
O  0.73200 38.92400 24.25800
C  1.31800 40.38100 26.06600
N  -2.74000 34.87500 24.71100
C  -1.85000 35.69700 24.05400
C  -1.96300 35.43400 22.51400
C  -3.07700 34.34300 22.37600
C  -3.43900 34.15800 23.84300
C  -2.30800 36.78100 21.70900
C  -2.53600 33.05800 21.74500
C  -3.49300 32.32100 20.85700
N  -4.22200 33.42300 26.63200
C  -4.87000 32.85900 25.52900
C  -5.88200 31.85900 25.94200
C  -5.78800 31.89400 27.32900
C  -4.86400 32.87800 27.70700
C  -6.72200 31.07900 25.00900
C  -6.29700 31.34500 28.51600
O  -7.15300 30.50200 28.63700
C  -5.64700 32.05400 29.78000
C  -6.76800 32.69500 30.51800
O  -7.31200 33.72000 30.07100
O  -7.08900 32.16800 31.76000
C  -8.02400 33.03900 32.50100
H  -1.58000 37.68600 30.30000
H  -0.32600 36.96000 23.93900
H  -5.09300 32.76700 23.53500
H  -4.67200 34.70600 31.59500
H  -1.93700 35.69600 31.78800
H  -4.57600 36.58900 32.26500
H  -3.60400 37.89200 31.61000
H  -3.04300 37.12800 33.02600
H  -2.05300 33.47300 32.09200
H  -3.05500 32.22700 31.31300
H  -3.81400 31.56100 33.29600
H  -4.72100 33.03600 33.30500
H  0.97400 39.65100 28.86800
H  -0.35800 39.33800 29.88500
H  -0.65000 40.41600 28.55800
H  0.51500 41.09800 26.23800
H  1.94300 40.78200 25.26800
H  1.92400 40.13600 26.93800
H  -1.01800 34.98400 22.21100
H  -3.96500 34.62500 21.80900
H  -1.76800 36.82500 20.76300
H  -2.06100 37.61400 22.36700
H  -3.38900 36.84200 21.58700
H  -2.27200 32.40400 22.57500
H  -1.61700 33.13500 21.16400
H  -3.08100 31.48300 20.29500
H  -3.89200 33.02800 20.13000
H  -4.33500 31.92800 21.42800
H  -6.07800 30.70100 24.21500
H  -7.49600 31.69300 24.54800
H  -7.24600 30.33100 25.60300
H  -5.25100 31.18800 30.31100
H  -7.91700 32.94100 33.58200
H  -8.99600 32.60000 32.27700
H  -7.93500 34.11300 32.33400

