158

Mg 8.60400 3.56100 27.71600
C  10.15400 2.12600 30.57500
C  7.12000 5.78300 29.71200
C  7.05000 4.70900 24.99700
C  9.88200 0.89300 25.87700
N  8.62300 3.83700 29.89800
C  9.29400 3.12700 30.83600
C  9.04600 3.72100 32.29100
C  8.08600 4.91800 31.91700
C  7.91600 4.87500 30.43800
C  6.69900 4.83000 32.65100
C  10.30300 4.23700 32.97900
C  10.08400 4.99100 34.33800
H  10.76200 4.38600 35.61800
N  7.38600 5.00600 27.36900
C  6.91300 5.87200 28.34000
C  6.22000 6.94300 27.65300
C  6.11900 6.54600 26.31600
C  6.89900 5.35700 26.22400
C  5.60300 8.16800 28.34000
C  5.36300 7.25800 25.12300
O  5.54700 7.08300 23.91300
C  4.44900 8.45000 25.52300
N  8.37100 2.82300 25.68200
C  7.78000 3.54000 24.72300
C  7.87800 2.89200 23.36500
C  8.76600 1.68400 23.62300
C  9.07000 1.78700 25.14800
C  6.51200 2.58100 22.60900
C  10.00100 1.74700 22.67100
C  10.00000 0.57400 21.62900
N  9.85300 1.85700 28.05100
C  10.34400 0.91500 27.19000
C  11.15300 -0.01300 27.90600
C  11.14400 0.49600 29.19900
C  10.34600 1.61500 29.26400
C  11.91900 -1.10100 27.37700
C  11.62400 0.20100 30.58400
O  12.36300 -0.64900 30.95200
C  10.92400 1.24200 31.51200
C  10.09500 0.69500 32.54700
O  9.17300 -0.13000 32.42300
O  10.51900 1.22800 33.76600
C  10.11100 0.37700 34.95600
H  6.68800 6.49300 30.42000
H  6.58600 5.05600 24.07100
H  10.22500 0.08800 25.22500
H  8.48100 3.07100 32.95900
H  8.46200 5.88900 32.23900
H  6.52800 5.78600 33.14600
H  6.80100 4.14000 33.48900
H  5.92600 4.64600 31.90500
H  10.86000 4.85100 32.27100
H  10.89800 3.35300 33.20700
H  9.00600 5.02900 34.49800
H  10.32000 6.05000 34.23700
H  4.53600 8.28900 28.15000
H  6.15800 8.95100 27.82300
H  5.77700 8.18900 29.41500
H  3.78400 8.74000 24.70900
H  5.15200 9.17500 25.93300
H  3.78400 7.99800 26.25900
H  8.29100 3.65500 22.70500
H  8.30700 0.71700 23.41600
H  5.65400 2.84600 23.22800
H  6.34200 1.50500 22.57700
H  6.39900 3.05000 21.63200
H  10.90900 1.68600 23.27000
H  10.01800 2.69300 22.13000
H  9.31200 -0.23800 21.86400
H  11.02900 0.21600 21.58800
H  9.62000 0.85000 20.64600
H  12.69100 -1.43500 28.07000
H  12.23300 -0.96600 26.34200
H  11.18200 -1.89800 27.47300
H  11.75800 1.71200 32.03300
H  10.68300 -0.55100 34.95300
H  9.06000 0.09300 34.91500
H  10.19400 0.80100 35.95700
Mg 15.86300 52.52800 25.36600
C  17.86200 51.24300 28.10100
C  13.57900 53.50000 27.56500
C  14.15800 53.47800 22.75000
C  18.38100 51.07000 23.23300
N  15.79200 52.41800 27.66200
C  16.73300 51.90600 28.60800
C  16.31200 52.11900 30.01000
C  14.84300 52.70700 29.79600
C  14.70600 52.92100 28.23700
C  13.71000 51.82500 30.38400
C  17.30000 53.16600 30.60700
C  16.84300 53.77900 31.96100
H  15.92700 53.01400 32.91700
N  14.10500 53.36200 25.21000
C  13.26200 53.74400 26.22000
C  12.07400 54.40200 25.66400
C  12.23900 54.40600 24.19600
C  13.52700 53.73600 23.98800
C  11.06700 55.05400 26.59200
C  11.37900 54.92300 23.11900
O  11.66800 54.78700 21.95100
C  10.07500 55.59800 23.52800
N  16.26900 52.31400 23.23900
C  15.35000 52.80600 22.41600
C  15.77300 52.61100 20.89000
C  17.29400 52.15700 21.09400
C  17.35600 51.75800 22.56200
C  14.97500 51.72700 20.06800
C  18.27700 53.36100 20.95600
C  19.13500 53.25900 19.64200
N  17.70700 51.40200 25.57700
C  18.57200 50.93600 24.60400
C  19.66800 50.33900 25.23200
C  19.44100 50.48300 26.60200
C  18.25800 51.15400 26.73700
C  20.94800 49.66400 24.62000
C  19.97500 50.07300 27.88400
O  20.91900 49.30800 28.16000
C  19.03600 50.76100 28.92800
C  18.53300 49.72100 29.89100
O  17.85600 48.74500 29.69300
O  18.98600 49.92500 31.16400
C  18.20300 49.12000 32.15800
H  12.79700 53.79900 28.26600
H  13.67500 53.73200 21.80400
H  19.14900 50.71900 22.54000
H  16.20200 51.15000 30.49700
H  14.63900 53.69100 30.21900
H  14.01100 50.98100 31.00400
H  13.04900 51.37000 29.64600
H  12.99200 52.43100 30.93800
H  17.33500 54.00600 29.91300
H  18.28800 52.77800 30.85200
H  16.38600 54.75300 31.78700
H  17.70100 53.93000 32.61600
H  10.05800 54.71900 26.35300
H  11.04600 56.13800 26.48400
H  11.21700 54.95100 27.66700
H  9.35000 54.85700 23.86500
H  9.59500 56.14400 22.71600
H  10.24600 56.30700 24.33800
H  15.82300 53.59500 20.42300
H  17.59000 51.28300 20.51400
H  14.41200 51.03600 20.69600
H  15.63400 51.19600 19.38100
H  14.34400 52.28100 19.37200
H  19.01700 53.39000 21.75500
H  17.85300 54.36500 20.96200
H  18.60900 52.59000 18.96100
H  20.17000 52.93000 19.73500
H  19.10000 54.26900 19.23300
H  21.71600 49.56200 25.38700
H  21.34600 50.31100 23.83700
H  20.70500 48.66600 24.25600
H  19.53800 51.52700 29.51900
H  18.66800 49.32400 33.12300
H  18.25000 48.08800 31.81000
H  17.17600 49.47900 32.22000

