158

Mg 24.31300 -8.33700 47.44000
C  26.84700 -6.31600 46.51800
C  22.39100 -7.14500 44.90300
C  22.16900 -11.11400 47.74100
C  26.62100 -10.27800 49.33600
N  24.58500 -6.91200 45.91000
C  25.67200 -6.11400 45.75800
C  25.52300 -5.07600 44.64000
C  24.08300 -5.41100 44.08400
C  23.60800 -6.55000 45.02400
C  23.15300 -4.19100 43.92800
C  26.62800 -5.27300 43.50600
C  27.12800 -3.93900 42.90700
H  26.95700 -3.61800 41.43900
N  22.42500 -8.88200 46.66800
C  21.79200 -8.17100 45.64500
C  20.47800 -8.74900 45.42900
C  20.36600 -9.93500 46.27100
C  21.69900 -9.98400 46.97800
C  19.63600 -8.29200 44.28800
C  19.15500 -10.86800 46.35200
O  18.12300 -10.51500 45.79100
C  19.10100 -11.98100 47.13600
N  24.27800 -10.46500 48.45800
C  23.31000 -11.38700 48.48700
C  23.66100 -12.70900 49.19400
C  25.13600 -12.24400 49.83200
C  25.37300 -10.87200 49.21000
C  22.67400 -13.10700 50.29200
C  26.27700 -13.29900 49.52200
C  27.30900 -13.59600 50.53000
N  26.34100 -8.40900 47.82000
C  27.09500 -9.13400 48.71600
C  28.27000 -8.44300 48.93900
C  28.27100 -7.29400 48.09400
C  27.07400 -7.35200 47.40300
C  29.44100 -8.82400 49.91200
C  28.99300 -6.13100 47.66000
O  30.12100 -5.71200 48.07100
C  28.08700 -5.40600 46.56300
C  27.74700 -4.04900 47.03900
O  27.45100 -3.71000 48.15300
O  27.92700 -3.19400 46.01400
C  27.65000 -1.74900 46.24600
H  21.79300 -6.74300 44.08300
H  21.50200 -11.97800 47.78500
H  27.39400 -10.65200 50.01000
H  25.61400 -4.10100 45.11900
H  24.19400 -5.86500 43.09900
H  22.34100 -4.44000 43.24500
H  23.84200 -3.48300 43.46800
H  22.78000 -3.77900 44.86600
H  26.29000 -5.89100 42.67500
H  27.45600 -5.89300 43.85100
H  28.21000 -4.00400 43.02800
H  26.71600 -3.10300 43.47200
H  18.59100 -8.58200 44.17300
H  20.16100 -8.62600 43.39300
H  19.82800 -7.23000 44.44400
H  19.83700 -12.69800 46.77200
H  18.10600 -12.41500 47.23600
H  19.37400 -11.65700 48.14000
H  23.80500 -13.56700 48.53700
H  24.98300 -12.03400 50.89000
H  22.64200 -14.17400 50.07200
H  21.70800 -12.60400 50.23600
H  23.09400 -13.06000 51.29600
H  26.84100 -13.09900 48.61100
H  25.80300 -14.27300 49.40400
H  27.23800 -14.66900 50.70900
H  27.11100 -13.00200 51.42300
H  28.31100 -13.44100 50.13100
H  29.90200 -9.74800 49.56400
H  29.04400 -9.05800 50.90000
H  30.10500 -7.96400 50.00400
H  28.76900 -5.22400 45.73200
H  26.71500 -1.63400 46.79300
H  27.58800 -1.19900 45.30700
H  28.51400 -1.45500 46.84300
Mg -1.03600 34.50300 26.59400
C  -2.26600 32.93500 29.44000
C  0.64200 36.66900 28.70900
C  -0.53500 36.58300 24.01300
C  -3.11400 32.49500 24.60400
N  -0.86000 34.71600 28.91200
C  -1.43100 33.99700 29.86900
C  -0.98700 34.44500 31.28300
C  0.01600 35.61100 30.97800
C  -0.03000 35.69400 29.44900
C  -0.36200 36.82000 31.81600
C  -0.37800 33.19300 32.02600
C  0.51600 33.60900 33.18300
H  0.28600 32.94100 34.56300
N  -0.09500 36.32900 26.41900
C  0.63700 37.05900 27.35600
C  1.28900 38.25400 26.73500
C  0.80700 38.32700 25.37300
C  -0.03400 37.09000 25.23200
C  2.34500 39.10400 27.53800
C  1.16000 39.36100 24.31900
O  0.64200 39.41500 23.20600
C  2.28400 40.43300 24.59900
N  -1.82100 34.60100 24.47900
C  -1.19600 35.44000 23.61700
C  -1.66900 35.10100 22.22500
C  -2.35400 33.68800 22.36200
C  -2.50100 33.59300 23.90400
C  -2.36200 36.26100 21.38800
C  -1.57500 32.48100 21.79400
C  -0.05600 32.30200 22.01800
N  -2.34200 32.97300 26.90100
C  -3.09100 32.20400 25.97600
C  -3.84100 31.28200 26.68400
C  -3.59000 31.49600 28.02500
C  -2.58900 32.51200 28.11400
C  -4.79800 30.30100 26.13400
C  -3.84700 31.03300 29.39900
O  -4.58700 30.11100 29.79100
C  -3.01700 31.98500 30.39100
C  -4.00700 32.63200 31.30600
O  -4.67800 33.60100 31.04100
O  -4.09500 31.96200 32.55100
C  -4.77200 32.68900 33.63000
H  1.38100 37.16800 29.33900
H  -0.23100 37.21300 23.17400
H  -3.71100 31.91800 23.89500
H  -1.92700 34.69900 31.77200
H  0.96500 35.23600 31.36100
H  -0.90100 37.55600 31.21900
H  0.49500 37.24200 32.33900
H  -0.92100 36.51300 32.70000
H  0.06800 32.47600 31.33600
H  -1.23400 32.72600 32.51200
H  0.48500 34.68900 33.32100
H  1.54800 33.37200 32.92400
H  3.08000 39.46800 26.82000
H  2.83800 38.47400 28.27800
H  2.04700 40.03200 28.02500
H  2.08900 41.03900 25.48400
H  2.29000 41.14400 23.77200
H  3.26200 39.97400 24.74300
H  -0.72700 34.92000 21.70800
H  -3.32900 33.65900 21.87400
H  -1.69000 36.85200 20.76600
H  -2.79100 36.96400 22.10100
H  -3.15900 35.77900 20.82200
H  -1.81100 32.54400 20.73200
H  -2.08400 31.58000 22.13600
H  0.29400 32.80500 22.92000
H  0.40000 32.74300 21.13200
H  0.16700 31.23600 21.97500
H  -5.20400 30.65700 25.18700
H  -5.54400 30.15700 26.91500
H  -4.34300 29.32000 25.99700
H  -2.34600 31.36500 30.98500
H  -4.02900 33.27800 34.16800
H  -5.36700 31.99600 34.22400
H  -5.59000 33.29800 33.24500

