158

Mg 6.89000 53.22600 41.58000
C  6.56200 49.78300 41.46300
C  10.00100 52.85500 40.22700
C  7.06900 56.58300 41.48100
C  3.52700 53.49800 42.62800
N  8.05600 51.53500 40.72900
C  7.71700 50.20100 40.78900
C  8.80800 49.26000 40.33300
C  10.03200 50.31200 40.22000
C  9.29600 51.64600 40.33000
C  11.16500 50.29800 41.25400
C  8.62600 48.64400 38.91600
C  7.87600 49.45800 37.84500
H  8.71700 49.78500 36.61500
N  8.42200 54.60400 40.98200
C  9.58800 54.21300 40.39200
C  10.33700 55.46300 40.07100
C  9.58000 56.57800 40.48100
C  8.30000 55.96600 40.99300
C  11.84100 55.43700 39.53400
C  9.93000 58.02500 40.31500
O  11.03900 58.46900 39.94700
C  8.94900 59.01900 40.60700
N  5.44800 54.88600 41.77300
C  5.78600 56.12100 41.84900
C  4.70300 57.14400 42.34000
C  3.60900 56.05700 42.65800
C  4.18100 54.69200 42.34100
C  5.04800 58.04400 43.60200
C  2.22600 56.29800 41.97400
C  1.85700 55.72100 40.65600
N  5.24200 51.99800 41.88100
C  4.02300 52.18700 42.48500
C  3.42800 50.95000 42.83500
C  4.42600 49.96700 42.53900
C  5.48400 50.64000 41.89400
C  2.04300 50.66400 43.39200
C  4.69200 48.47100 42.48000
O  4.03700 47.48900 42.83700
C  6.08900 48.35600 41.70300
C  5.71100 47.57900 40.42800
O  5.02200 48.01400 39.52100
O  6.07000 46.22100 40.48500
C  5.76800 45.37800 39.34700
H  11.05700 52.82000 39.95200
H  7.12900 57.67300 41.45400
H  2.54000 53.55600 43.09200
H  8.92300 48.52500 41.13000
H  10.50900 50.29000 39.24000
H  10.95700 50.91700 42.12700
H  12.09200 50.69500 40.83900
H  11.33800 49.27800 41.59800
H  8.06100 47.72000 39.03500
H  9.53500 48.18500 38.52700
H  7.59900 50.42500 38.26600
H  7.02200 48.80700 37.65900
H  11.94100 56.17300 38.73600
H  12.06100 54.47800 39.06500
H  12.57300 55.58500 40.32800
H  9.33600 60.02300 40.43400
H  8.78800 58.89500 41.67800
H  8.06200 59.01900 39.97400
H  4.37500 57.70000 41.46200
H  3.46200 56.19400 43.72900
H  4.51900 57.81100 44.52600
H  4.87000 59.10200 43.41300
H  6.13600 58.05100 43.67600
H  2.01600 57.35500 41.81300
H  1.45400 55.97000 42.67000
H  2.66000 55.11500 40.23700
H  1.67100 56.55600 39.98100
H  0.87200 55.25800 40.70100
H  2.20500 49.95100 44.20000
H  1.36200 50.40700 42.58100
H  1.68100 51.59200 43.83500
H  6.80700 47.73600 42.24100
H  6.54000 45.51900 38.59000
H  4.80500 45.59300 38.88400
H  5.72700 44.36900 39.75800
Mg -1.73300 34.56600 26.33300
C  -3.28900 32.62600 28.86600
C  -0.67200 36.74900 28.73900
C  -0.74400 36.59000 23.89700
C  -3.45600 32.55800 23.98100
N  -2.21700 34.87200 28.59700
C  -2.60000 33.79700 29.37800
C  -2.35600 34.15000 30.83300
C  -1.68000 35.62700 30.73600
C  -1.44500 35.73600 29.27900
C  -2.46200 36.75400 31.37600
C  -1.40500 33.11200 31.53900
C  -2.04700 32.47600 32.76000
H  -1.11100 32.15900 33.97000
N  -0.79700 36.47800 26.28000
C  -0.35800 37.19400 27.33900
C  0.61900 38.19800 26.91000
C  0.55700 38.15600 25.46700
C  -0.33400 37.03400 25.17900
C  1.41800 39.04400 27.92100
C  1.37900 38.98800 24.37000
O  1.46000 38.76400 23.18300
C  2.17900 40.15800 24.84400
N  -2.18700 34.63100 24.15700
C  -1.61700 35.53700 23.41600
C  -1.81500 35.29600 21.85500
C  -2.39500 33.82200 21.95600
C  -2.69200 33.66300 23.46500
C  -2.49600 36.43900 21.02200
C  -1.47000 32.73800 21.40800
C  -0.14400 32.42300 22.17700
N  -3.09000 32.90300 26.30700
C  -3.60200 32.14500 25.33500
C  -4.21100 30.98600 25.82900
C  -4.16400 31.19900 27.21100
C  -3.44700 32.31300 27.48000
C  -5.05200 30.00800 25.11300
C  -4.54300 30.61100 28.47400
O  -5.18300 29.64700 28.75200
C  -3.92700 31.44700 29.58800
C  -4.92100 31.89700 30.57200
O  -5.77200 32.78000 30.43100
O  -4.74500 31.29200 31.76500
C  -5.60600 31.65400 32.92500
H  -0.19900 37.18800 29.62000
H  -0.49900 37.31200 23.11500
H  -3.88500 31.86300 23.25600
H  -3.32300 34.11300 31.33500
H  -0.68500 35.66400 31.17900
H  -3.30800 36.32900 31.91600
H  -2.90200 37.41400 30.62900
H  -1.85500 37.35200 32.05600
H  -0.44400 33.54200 31.82000
H  -1.23100 32.37300 30.75700
H  -2.50000 31.53700 32.44200
H  -2.85400 33.01800 33.25400
H  2.46200 39.08000 27.60900
H  1.42000 38.53400 28.88400
H  1.03000 40.06100 27.98800
H  1.50400 40.72900 25.48200
H  2.56200 40.64700 23.94800
H  2.94400 39.79300 25.53000
H  -0.77000 35.25600 21.54900
H  -3.35600 33.79300 21.44100
H  -1.95400 36.64600 20.09900
H  -2.46300 37.37500 21.58100
H  -3.53600 36.20800 20.78900
H  -1.21200 32.83200 20.35300
H  -1.99700 31.79300 21.53900
H  -0.17800 31.42600 22.61700
H  0.05300 33.04400 23.05100
H  0.62300 32.46300 21.40300
H  -5.00400 29.97900 24.02400
H  -6.10500 30.23300 25.27900
H  -4.76800 29.04600 25.53900
H  -3.27600 30.79900 30.17400
H  -4.94600 32.11400 33.66000
H  -6.10700 30.71300 33.15500
H  -6.33100 32.42900 32.67500

