158

Mg 24.45900 -4.94700 44.88800
C  26.65100 -2.74000 43.36200
C  21.98000 -3.80200 42.83800
C  22.76000 -7.75800 45.59000
C  27.24200 -6.32200 46.61100
N  24.38500 -3.55200 43.34800
C  25.39900 -2.69800 42.87700
C  24.94900 -1.95800 41.57900
C  23.42700 -1.87800 41.78000
C  23.24300 -3.20000 42.68200
C  22.97000 -0.50500 42.26000
C  25.46600 -2.72500 40.29600
C  26.28200 -2.03500 39.16400
H  25.93000 -2.42300 37.69000
N  22.58900 -5.61000 44.33300
C  21.70400 -4.93800 43.56000
C  20.50300 -5.68900 43.57100
C  20.64500 -6.88600 44.34900
C  22.05800 -6.79800 44.76500
C  19.29000 -5.21800 42.71400
C  19.60700 -7.95200 44.67900
O  18.45000 -7.92500 44.28300
C  19.87800 -9.13500 45.61600
N  25.02000 -6.85800 45.84000
C  24.06100 -7.77400 46.07500
C  24.68500 -8.94500 46.98600
C  26.06500 -8.35300 47.30700
C  26.09900 -7.07600 46.53800
C  23.78400 -9.27300 48.20800
C  27.23800 -9.33400 46.89400
C  27.72000 -10.21700 48.12100
N  26.46200 -4.52000 45.10900
C  27.41300 -5.12400 45.89200
C  28.73400 -4.43500 45.75500
C  28.47700 -3.45200 44.75400
C  27.13100 -3.53400 44.39600
C  29.86700 -4.86300 46.45200
C  29.12800 -2.42900 43.93100
O  30.24600 -2.02500 43.84000
C  27.89600 -1.92600 42.97800
C  27.75100 -0.52200 43.04800
O  27.01600 0.05800 43.78400
O  28.58300 0.13300 42.24900
C  28.49200 1.65400 42.18800
H  21.11200 -3.38900 42.32100
H  22.27500 -8.72700 45.72200
H  28.09600 -6.68000 47.18900
H  25.49400 -1.01500 41.53300
H  22.92500 -2.10900 40.84000
H  22.76500 -0.62800 43.32300
H  22.04800 -0.29800 41.71600
H  23.72700 0.24000 42.01600
H  24.71500 -3.33900 39.79900
H  26.07000 -3.53200 40.71200
H  27.33000 -2.30100 39.30200
H  26.26400 -0.94800 39.24400
H  18.61900 -6.02700 42.42700
H  19.51500 -4.70000 41.78100
H  18.62300 -4.57000 43.28200
H  20.34600 -8.77700 46.53300
H  20.52100 -9.86200 45.11800
H  18.94900 -9.63700 45.88600
H  24.71900 -9.77100 46.27600
H  26.19300 -8.17400 48.37500
H  22.94900 -8.57300 48.22800
H  24.34600 -9.15700 49.13500
H  23.38900 -10.26900 48.01000
H  28.05400 -8.80800 46.39800
H  26.90400 -10.10000 46.19500
H  27.56800 -11.25600 47.82700
H  27.07100 -10.05300 48.98100
H  28.72800 -10.04100 48.49800
H  30.29400 -5.78900 46.06800
H  29.59800 -5.15500 47.46700
H  30.65300 -4.11000 46.38400
H  28.16000 -2.04200 41.92700
H  29.44500 2.05100 41.83700
H  28.23200 2.21700 43.08400
H  27.81700 1.82400 41.34900
Mg 47.18400 24.39000 28.52200
C  47.95700 26.63400 31.08500
C  46.34700 22.07400 30.79200
C  46.52200 22.36700 25.93800
C  48.49000 26.68700 26.22400
N  47.21200 24.38500 30.76600
C  47.54800 25.37600 31.61300
C  47.18500 24.92400 33.00500
C  46.64700 23.48200 32.86300
C  46.68100 23.31900 31.33700
C  47.39300 22.35400 33.77800
C  46.22100 25.99400 33.77000
C  45.34000 25.44500 34.88700
H  45.10300 26.28300 36.20500
N  46.55100 22.46500 28.42200
C  46.28500 21.59500 29.42100
C  45.94300 20.26900 28.91700
C  45.93800 20.37100 27.48600
C  46.32200 21.78800 27.21300
C  45.76800 18.99700 29.76900
C  45.64200 19.35600 26.39900
O  45.62700 19.65200 25.23400
C  45.33800 17.98400 26.77800
N  47.55700 24.40700 26.37700
C  47.05900 23.56800 25.55700
C  47.09000 23.98700 24.04600
C  47.82700 25.34100 24.15400
C  48.08200 25.46300 25.67400
C  47.64400 22.90500 23.06100
C  47.05300 26.61800 23.62800
C  47.79900 27.75700 22.92200
N  48.15900 26.22600 28.54100
C  48.56000 27.05200 27.54000
C  49.13200 28.33000 28.11200
C  48.84800 28.16500 29.48300
C  48.33200 26.87600 29.71300
C  49.61500 29.54800 27.37600
C  48.97500 28.74700 30.77400
O  49.53900 29.78500 31.04000
C  48.38300 27.82100 31.89500
C  49.31000 27.47900 33.08400
O  50.16900 26.65300 33.00900
O  48.99700 28.11400 34.26100
C  49.58800 27.93300 35.58600
H  45.95300 21.42900 31.57900
H  46.12200 21.82800 25.07700
H  48.70400 27.50600 25.53300
H  48.11800 24.84900 33.56400
H  45.61400 23.43000 33.20500
H  47.93600 21.58700 33.22500
H  46.63000 21.89000 34.40300
H  48.09900 22.94900 34.35800
H  45.55800 26.43500 33.02500
H  46.99500 26.61400 34.22300
H  45.73000 24.48100 35.21600
H  44.34100 25.35600 34.46000
H  46.49300 18.23700 29.47900
H  44.74600 18.67200 29.57700
H  45.83700 19.02000 30.85600
H  44.57700 17.96500 27.55700
H  46.24700 17.42800 27.00800
H  44.80700 17.49700 25.95900
H  46.06700 24.30800 23.84700
H  48.80700 25.33300 23.67700
H  47.80700 21.93800 23.53700
H  48.57700 23.15500 22.55600
H  46.89200 22.67900 22.30500
H  46.47100 26.99800 24.46800
H  46.24400 26.39500 22.93300
H  47.59700 27.70600 21.85200
H  48.87600 27.71300 23.09000
H  47.49300 28.78800 23.09700
H  49.63400 29.54200 26.28600
H  50.63100 29.74600 27.71700
H  48.97300 30.39100 27.63000
H  47.51700 28.33700 32.30800
H  48.86200 27.58100 36.31800
H  49.97900 28.85600 36.01500
H  50.35000 27.15300 35.56900

