158

Mg 47.36900 25.82800 28.32500
C  48.03000 27.98500 30.91900
C  47.25100 23.17400 30.40400
C  47.54200 23.79400 25.55000
C  48.47800 28.52200 26.07200
N  47.46300 25.65500 30.38800
C  47.68600 26.68300 31.33700
C  47.68200 26.14100 32.75300
C  47.43100 24.59500 32.51900
C  47.34300 24.43300 30.97700
C  48.38300 23.58000 33.31800
C  46.75500 26.85700 33.66300
C  46.08200 26.18600 34.89400
H  45.73100 27.07900 36.09000
N  47.08600 23.82000 28.06200
C  47.14400 22.89200 29.02700
C  47.07000 21.57200 28.40800
C  47.00500 21.80900 27.05600
C  47.29500 23.22300 26.81800
C  46.85800 20.29500 29.20200
C  46.88000 20.76600 25.93000
O  46.99800 21.02400 24.71700
C  46.43600 19.39900 26.22600
N  48.13000 26.06300 26.15200
C  47.94700 25.08700 25.20000
C  47.94800 25.63700 23.67800
C  48.10000 27.20200 23.91900
C  48.24300 27.27000 25.45700
C  49.07700 25.01500 22.76100
C  46.84300 27.95300 23.42600
C  47.17100 29.26300 22.69000
N  48.11200 27.80700 28.42200
C  48.52500 28.77300 27.47500
C  48.91800 30.02500 28.16600
C  48.66800 29.72700 29.50700
C  48.20200 28.40000 29.63200
C  49.42500 31.22900 27.60300
C  48.71300 30.26500 30.80900
O  48.93400 31.37600 31.22800
C  48.21900 29.17100 31.81200
C  49.34200 28.89600 32.75700
O  50.32600 28.23200 32.60200
O  49.03900 29.54400 33.93200
C  49.90800 29.15600 35.07000
H  47.03900 22.41400 31.15800
H  47.56100 23.24700 24.60500
H  48.54800 29.40500 25.43300
H  48.70800 26.19900 33.11700
H  46.42300 24.45600 32.91000
H  49.21100 24.20900 33.64500
H  48.74300 22.74000 32.72300
H  47.92500 23.16100 34.21300
H  45.97000 27.27600 33.03300
H  47.23900 27.75100 34.05600
H  46.78000 25.44300 35.28000
H  45.15600 25.83600 34.43700
H  47.47000 19.51500 28.74900
H  45.80300 20.03500 29.12900
H  47.12200 20.48000 30.24300
H  47.27900 18.98300 26.77600
H  46.32200 18.88000 25.27400
H  45.45000 19.40400 26.69000
H  46.91000 25.47500 23.38700
H  49.06000 27.41600 23.45100
H  49.75200 24.49800 23.44400
H  49.64600 25.76100 22.20600
H  48.65200 24.33100 22.02600
H  46.20900 28.27900 24.25000
H  46.30900 27.37500 22.67100
H  46.51400 29.38900 21.82900
H  48.20900 29.43300 22.40700
H  47.00300 30.13600 23.32100
H  49.57900 31.23000 26.52400
H  50.33000 31.51000 28.14100
H  48.67800 31.97700 27.86800
H  47.29900 29.48800 32.30500
H  49.96800 29.99800 35.76000
H  50.95400 28.92900 34.86400
H  49.49600 28.26900 35.55000
Mg 47.25900 35.72200 27.84100
C  45.37900 33.86500 30.37100
C  47.30300 38.29500 29.96900
C  48.48600 37.46100 25.43700
C  46.73700 32.89600 25.70500
N  46.53500 35.91900 29.97700
C  45.88200 35.02800 30.86700
C  45.95600 35.57700 32.31100
C  46.22700 37.10300 31.98900
C  46.81100 37.08900 30.53700
C  44.85600 37.85400 32.23700
C  47.05000 34.84200 33.13300
C  46.97600 34.77300 34.67100
H  46.00600 35.67100 35.41400
N  47.84100 37.66400 27.66500
C  47.81000 38.53700 28.64700
C  48.38600 39.79700 28.27800
C  48.90200 39.52300 26.94700
C  48.39000 38.15600 26.62200
C  48.51500 40.98900 29.21500
C  49.60700 40.33500 25.96900
O  49.90800 39.95600 24.87400
C  49.86600 41.76200 26.22300
N  47.53500 35.15900 25.83000
C  48.03500 36.12800 25.06800
C  48.41200 35.50200 23.70600
C  48.26700 33.98500 23.92900
C  47.36600 34.00300 25.15600
C  47.48300 35.99900 22.53700
C  49.60400 33.22500 24.27400
C  49.90500 31.86800 23.50300
N  46.20200 33.77600 27.91800
C  46.07200 32.77300 26.93600
C  45.43200 31.70200 27.50000
C  45.08700 32.07600 28.81900
C  45.59400 33.37300 29.05900
C  45.09300 30.34900 26.89700
C  44.48300 31.61900 30.04900
O  43.99700 30.56900 30.37000
C  44.46200 32.87700 31.04400
C  44.82300 32.30200 32.41900
O  45.77700 31.52500 32.66900
O  43.83700 32.66500 33.31900
C  43.87000 32.05700 34.63600
H  47.29800 39.16100 30.63400
H  48.87900 37.93100 24.53300
H  47.06100 32.02100 25.13700
H  45.02700 35.38100 32.84500
H  46.98800 37.45500 32.68600
H  44.91000 38.47400 33.13200
H  44.04300 37.12900 32.26000
H  44.72400 38.51800 31.38300
H  48.02900 35.24100 32.86700
H  47.09200 33.82300 32.74800
H  47.97000 34.84700 35.11100
H  46.68700 33.74100 34.87000
H  49.11700 41.82000 28.84800
H  48.88100 40.72100 30.20600
H  47.55400 41.48000 29.37100
H  49.76100 42.41600 25.35700
H  50.85500 41.93600 26.64700
H  49.12600 42.24000 26.86500
H  49.44600 35.57500 23.37000
H  47.89700 33.45100 23.05400
H  46.97200 36.92000 22.81600
H  46.74600 35.23500 22.28700
H  48.11900 36.12700 21.66000
H  49.74400 33.07200 25.34400
H  50.50000 33.82800 24.12500
H  50.05200 31.10600 24.26900
H  50.72200 31.96100 22.78800
H  49.04100 31.57000 22.90900
H  44.66700 30.23500 25.90000
H  44.40200 29.81300 27.54800
H  46.04700 29.82400 26.93100
H  43.46400 33.31500 31.00700
H  44.54500 31.20700 34.73500
H  42.91200 31.60000 34.88200
H  44.17000 32.79800 35.37700

