158

Mg 24.31300 -5.04000 46.45400
C  26.44400 -2.58000 45.24700
C  21.86300 -3.91500 44.27000
C  22.61300 -8.00700 46.88800
C  26.86900 -6.32900 48.45600
N  24.20800 -3.45700 44.85700
C  25.19400 -2.55100 44.55000
C  24.78200 -1.82800 43.26400
C  23.20200 -2.02100 43.12500
C  23.04000 -3.12800 44.23900
C  22.47300 -0.70800 43.49200
C  25.58400 -2.42700 42.04200
C  26.14100 -1.32300 41.15000
H  25.38400 -1.06800 39.87400
N  22.41300 -5.79100 45.81100
C  21.61000 -5.17900 44.91900
C  20.37300 -5.93100 44.78000
C  20.55500 -7.07700 45.52000
C  21.90900 -7.03400 46.03700
C  19.25200 -5.34800 43.98100
C  19.46300 -8.17000 45.82400
O  18.33300 -8.00600 45.34200
C  19.77300 -9.40600 46.62000
N  24.63300 -6.84500 47.62200
C  23.74600 -7.92700 47.66100
C  24.37400 -9.13000 48.42700
C  25.72700 -8.51300 48.93500
C  25.74200 -7.12400 48.35200
C  23.35000 -9.61700 49.47600
C  26.90800 -9.46100 48.35100
C  28.14100 -9.62000 49.24000
N  26.21900 -4.59800 46.87900
C  27.16800 -5.16600 47.72400
C  28.33500 -4.31600 47.73600
C  28.11800 -3.32900 46.77100
C  26.84000 -3.53100 46.25000
C  29.60700 -4.70600 48.45800
C  28.72900 -2.23900 46.08000
O  29.84800 -1.77700 46.34100
C  27.69100 -1.84100 44.94400
C  27.48600 -0.34700 45.05800
O  26.65900 0.19100 45.78100
O  28.23400 0.30100 44.15600
C  28.11800 1.80200 44.11400
H  20.98500 -3.52300 43.75200
H  22.19200 -8.98700 47.12400
H  27.63600 -6.54600 49.20300
H  25.05900 -0.77400 43.30200
H  22.91100 -2.33000 42.12100
H  21.48600 -0.96400 43.87500
H  22.28200 -0.10000 42.60700
H  23.00400 -0.05300 44.18300
H  24.91000 -2.97100 41.38000
H  26.32400 -3.12900 42.42600
H  27.14200 -1.65400 40.87400
H  26.41600 -0.45700 41.75200
H  19.60000 -4.88200 43.06000
H  18.53100 -4.73900 44.52700
H  18.68800 -6.14200 43.49100
H  19.83900 -9.00800 47.63200
H  20.72500 -9.87900 46.38100
H  19.00500 -10.16900 46.49500
H  24.43700 -9.92500 47.68400
H  25.93400 -8.40100 50.00000
H  22.50600 -8.95300 49.66200
H  23.88300 -9.68200 50.42500
H  22.98700 -10.56900 49.08800
H  27.20200 -9.02400 47.39700
H  26.50600 -10.40400 47.98100
H  28.01000 -9.03900 50.15300
H  29.00000 -9.30100 48.65100
H  28.24400 -10.68800 49.43500
H  30.29500 -5.24300 47.80500
H  29.46000 -5.36700 49.31200
H  30.19400 -3.87600 48.85000
H  28.05900 -2.12200 43.95700
H  27.12600 1.94500 43.68500
H  28.90000 2.29400 43.53500
H  28.13900 2.23200 45.11500
Mg 40.18900 9.45900 29.65900
C  42.31800 10.37500 32.30100
C  37.99300 8.34500 32.02400
C  38.34400 8.29000 27.16700
C  42.98600 9.71400 27.49900
N  40.21500 9.16100 31.98300
C  41.10800 9.80200 32.79800
C  40.69900 9.72800 34.28200
C  39.23800 8.94000 34.15700
C  39.12600 8.76300 32.61600
C  39.14400 7.56600 34.89400
C  40.54000 11.06600 35.01100
C  41.39400 11.23200 36.28500
H  40.55400 11.73500 37.55400
N  38.37300 8.53900 29.62200
C  37.60500 8.17400 30.68500
C  36.36100 7.57600 30.18600
C  36.40000 7.67200 28.72100
C  37.71900 8.21600 28.42700
C  35.34600 6.93700 31.13700
C  35.36000 7.28500 27.67200
O  35.58100 7.32200 26.47200
C  33.98800 6.77500 28.14600
N  40.66400 8.92300 27.67200
C  39.62600 8.62700 26.81600
C  40.08900 8.54200 25.33400
C  41.48500 9.25400 25.36400
C  41.76500 9.24200 26.94500
C  40.15100 7.05000 24.77800
C  41.38300 10.68100 24.76000
C  40.21900 11.51800 25.12100
N  42.21200 10.01600 29.77100
C  43.20100 10.06100 28.83600
C  44.43800 10.56400 29.45300
C  43.99300 10.82900 30.74200
C  42.68700 10.35700 30.93500
C  45.71800 10.85200 28.73800
C  44.45700 11.35000 32.02800
O  45.54100 11.73600 32.33600
C  43.38600 11.03600 33.09300
C  44.08500 10.14300 34.05300
O  44.19200 8.94300 33.86200
O  44.44900 10.78700 35.18600
C  45.03300 10.01400 36.27100
H  37.27700 8.08700 32.80700
H  37.79300 7.90300 26.30700
H  43.76200 9.93400 26.76300
H  41.47100 9.12000 34.75500
H  38.33600 9.45300 34.49100
H  38.98800 6.85000 34.08800
H  38.25700 7.67100 35.51900
H  40.07900 7.36600 35.41800
H  39.49000 11.20500 35.27000
H  40.84300 11.93400 34.42700
H  42.22500 11.91600 36.10800
H  41.90700 10.30000 36.52100
H  34.41300 7.46400 30.93800
H  35.50000 7.21600 32.18000
H  35.38700 5.86000 30.97900
H  33.43400 7.51700 28.72100
H  34.25600 5.97100 28.83200
H  33.32600 6.30800 27.41700
H  39.38300 9.14800 24.76600
H  42.24000 8.82800 24.70400
H  41.18700 6.76400 24.59600
H  39.51900 6.72500 23.95100
H  39.81300 6.45200 25.62400
H  41.41900 10.70600 23.67100
H  42.27700 11.19300 25.11700
H  40.45900 12.40500 25.70700
H  39.47000 11.14100 25.81800
H  39.72200 11.95100 24.25300
H  46.03100 10.07200 28.04400
H  46.50300 11.05500 29.46700
H  45.62900 11.71100 28.07200
H  43.10800 12.01400 33.48600
H  45.57300 10.59300 37.02000
H  45.66200 9.17900 35.96500
H  44.13200 9.56500 36.68900

