158

Mg 9.94200 48.39000 26.33200
C  7.88800 48.20900 29.16100
C  12.47200 49.30400 28.16900
C  11.64900 48.23500 23.49700
C  6.89600 47.70500 24.39000
N  10.10800 48.75500 28.41700
C  9.21100 48.68600 29.44600
C  9.90100 48.96700 30.73400
C  11.11300 49.87100 30.34600
C  11.26700 49.33000 28.84300
C  10.89700 51.36200 30.55400
C  10.14400 47.80000 31.70100
C  9.41100 47.92100 33.07600
H  9.57400 46.75800 34.05700
N  11.83700 48.68200 25.94500
C  12.79200 48.99900 26.83000
C  14.11200 48.88500 26.27700
C  13.91000 48.41900 24.94000
C  12.45000 48.46900 24.69900
C  15.40900 49.10000 27.07000
C  14.89700 47.90300 23.95300
O  14.57600 47.41800 22.86800
C  16.34300 47.84900 24.41800
N  9.31400 48.22200 24.23200
C  10.30300 48.11500 23.33600
C  9.66400 47.84000 21.91800
C  8.14200 47.69600 22.18400
C  8.10600 47.81200 23.69700
C  10.13000 48.76500 20.72900
C  7.39900 46.48900 21.61400
C  7.50200 46.31400 20.08100
N  7.80900 48.10900 26.63700
C  6.74300 47.82100 25.78100
C  5.59600 47.51300 26.58400
C  6.10100 47.50800 27.88000
C  7.36500 47.90900 27.85100
C  4.27900 47.06600 26.12400
C  5.56300 47.38300 29.23700
O  4.47000 47.06800 29.65400
C  6.82300 47.76000 30.12400
C  7.09600 46.55800 30.90700
O  7.83800 45.61200 30.62400
O  6.26200 46.66700 32.01700
C  6.41400 45.48800 32.92800
H  13.31900 49.55200 28.81100
H  12.21900 47.99900 22.59600
H  6.04500 47.29900 23.83900
H  9.15800 49.68100 31.09300
H  11.98500 49.54900 30.91500
H  10.29700 51.72600 29.72000
H  11.84300 51.89400 30.45300
H  10.56400 51.55800 31.57300
H  11.22700 47.72000 31.79400
H  9.77600 46.93600 31.14700
H  8.34300 48.11100 32.96800
H  9.76900 48.78000 33.64300
H  15.16000 49.02900 28.12900
H  15.80200 50.07900 26.79700
H  16.23700 48.43200 26.83400
H  16.48100 47.18600 25.27200
H  16.71700 48.86600 24.53500
H  16.89700 47.40400 23.59200
H  10.05100 46.83500 21.75100
H  7.64000 48.64000 21.97400
H  9.26100 49.31200 20.36300
H  10.65600 48.16000 19.99200
H  10.83800 49.50000 21.11300
H  6.34100 46.67900 21.79300
H  7.74400 45.57700 22.10200
H  6.64200 46.85000 19.68100
H  7.50800 45.23400 19.93000
H  8.46700 46.69600 19.74800
H  3.71600 47.87400 25.65600
H  3.70300 46.57600 26.90900
H  4.47600 46.21900 25.46700
H  6.42600 48.54000 30.77400
H  6.96900 45.63900 33.85300
H  6.89700 44.62900 32.46100
H  5.39200 45.24400 33.21800
Mg 0.87000 43.04100 26.03400
C  3.14500 43.38200 28.68800
C  -1.65600 42.46400 28.20400
C  -0.93800 42.06200 23.38700
C  3.65100 43.46900 23.78500
N  0.82000 42.78800 28.22200
C  1.84700 43.13000 29.10300
C  1.34000 43.00500 30.56300
C  -0.16500 42.58900 30.35100
C  -0.39000 42.69700 28.86500
C  -0.48100 41.24200 30.96000
C  1.48500 44.35100 31.33600
C  1.41000 44.28600 32.88900
H  1.32000 42.97400 33.72100
N  -1.05700 42.32800 25.82700
C  -2.02000 42.26300 26.86400
C  -3.28800 41.87600 26.29000
C  -3.08200 41.83300 24.86600
C  -1.65300 42.05400 24.63300
C  -4.51800 41.55900 27.15900
C  -4.12200 41.43400 23.77500
O  -3.83200 41.38900 22.58800
C  -5.56200 41.12600 24.12700
N  1.22700 42.88100 23.92400
C  0.38000 42.46500 23.04400
C  0.88900 42.45700 21.56100
C  2.24900 43.23900 21.79700
C  2.38300 43.27500 23.29100
C  0.94800 41.07600 20.81300
C  2.22500 44.65300 21.07000
C  1.74000 45.84700 22.02700
N  2.92800 43.52400 26.08700
C  3.90600 43.60900 25.10300
C  5.16900 43.84600 25.76000
C  4.92800 43.65800 27.13700
C  3.54000 43.51400 27.33400
C  6.48800 43.96800 25.04300
C  5.53200 43.57700 28.47600
O  6.70700 43.55800 28.70900
C  4.34800 43.50900 29.57400
C  4.55000 42.40300 30.53500
O  4.17800 41.29800 30.41100
O  5.14200 42.88500 31.62400
C  5.28900 41.97300 32.80300
H  -2.47300 42.38400 28.92400
H  -1.55500 41.89600 22.50100
H  4.47000 43.56700 23.06900
H  1.85800 42.19100 31.07100
H  -0.89600 43.22000 30.85700
H  -1.29100 40.79400 30.38500
H  -0.74100 41.30300 32.01700
H  0.39700 40.59700 30.94100
H  0.64700 44.97200 31.02100
H  2.35000 44.85300 30.90300
H  0.55200 44.91500 33.12900
H  2.33300 44.76200 33.21900
H  -4.72600 40.49400 27.25600
H  -5.42100 42.05400 26.80200
H  -4.34100 42.05700 28.11300
H  -6.18900 41.00300 23.24400
H  -5.97300 41.96400 24.69000
H  -5.65800 40.18000 24.66000
H  0.19500 42.98200 20.90500
H  3.02100 42.60100 21.36800
H  0.59200 40.30300 21.49300
H  2.00400 40.84500 20.67200
H  0.35100 40.99800 19.90500
H  1.71400 44.59700 20.10900
H  3.22800 45.05300 20.92000
H  2.57200 45.97500 22.72000
H  0.87900 45.62500 22.65700
H  1.46600 46.76300 21.50300
H  6.32700 44.08300 23.97100
H  7.10000 43.06800 25.10400
H  7.02800 44.88500 25.28100
H  4.43600 44.43300 30.14600
H  4.74100 41.03100 32.79800
H  4.94300 42.54600 33.66300
H  6.35300 41.74700 32.88100

