158

Mg 45.05500 4.10700 46.18700
C  43.15300 7.02800 46.12800
C  42.11900 2.27200 45.65600
C  46.95400 1.38600 45.71900
C  47.86800 6.11100 46.25900
N  42.86600 4.57500 46.04200
C  42.37400 5.81600 46.03100
C  40.81300 5.75500 45.76500
C  40.58400 4.22700 45.70100
C  41.95100 3.60600 45.77900
C  39.47300 3.74100 46.65000
C  40.22100 6.52700 44.56400
C  41.17800 6.90700 43.45700
H  40.57200 7.13400 42.10000
N  44.57500 2.10000 45.76100
C  43.31600 1.56600 45.59500
C  43.50900 0.23700 45.16300
C  44.87700 -0.11100 45.09700
C  45.56300 1.10200 45.52600
C  42.34100 -0.58400 44.66300
C  45.46400 -1.50800 44.74700
O  44.74700 -2.49600 44.47900
C  46.90000 -1.73800 44.79500
N  47.10800 3.78800 45.70800
C  47.64100 2.52700 45.84700
C  49.20700 2.58600 45.79900
C  49.47200 4.10200 46.03000
C  48.02700 4.73200 45.90800
C  50.02700 1.76700 46.78400
C  50.62200 4.87200 45.14300
C  52.01800 5.22600 45.88700
N  45.45100 6.18600 46.27600
C  46.66500 6.82800 46.35700
C  46.53200 8.26800 46.50400
C  45.11200 8.43900 46.47000
C  44.54800 7.11000 46.34600
C  47.61200 9.29400 46.70500
C  44.00500 9.33200 46.55700
O  43.94600 10.52600 46.69600
C  42.75000 8.44600 46.32500
C  41.84800 8.62500 47.50800
O  41.81300 7.78600 48.41400
O  40.97300 9.69700 47.39500
C  39.76400 9.71200 48.28800
H  41.18600 1.71500 45.55000
H  47.66900 0.56500 45.63000
H  48.73400 6.72400 46.51500
H  40.30900 6.12000 46.66000
H  40.28600 4.01700 44.67400
H  38.84700 4.58600 46.93500
H  39.87300 3.30600 47.56600
H  38.91700 2.98900 46.08900
H  39.80400 7.49700 44.83800
H  39.37000 5.97800 44.16100
H  42.06700 6.29100 43.32300
H  41.63000 7.85200 43.75900
H  41.57100 -0.70100 45.42600
H  42.63100 -1.61800 44.47600
H  41.89500 -0.23500 43.73100
H  47.18800 -2.72900 44.44500
H  47.08200 -1.59900 45.86100
H  47.50500 -0.96900 44.31300
H  49.60100 2.39500 44.80100
H  49.76700 4.29200 47.06200
H  50.90100 2.32200 47.12600
H  50.23900 0.76300 46.41500
H  49.38200 1.45100 47.60400
H  50.04700 5.75100 44.85400
H  50.64800 4.26700 44.23700
H  52.04700 4.69000 46.83600
H  52.27900 6.27100 46.05300
H  52.90000 4.85700 45.36300
H  47.91800 9.74500 45.76200
H  48.47500 8.85100 47.20200
H  47.24400 10.08600 47.35700
H  42.19600 8.81800 45.46300
H  39.82600 9.74200 49.37600
H  39.10000 8.89800 47.99700
H  39.20300 10.62300 48.08400
Mg 0.76300 42.87300 25.02500
C  2.26800 42.97800 28.06000
C  -2.11200 41.47100 26.55000
C  -0.47000 41.91100 21.96400
C  3.79900 43.63200 23.46800
N  0.11200 42.39800 26.99400
C  0.89700 42.64000 28.09300
C  0.13000 42.54400 29.44700
C  -1.21800 41.88300 28.97100
C  -1.10600 41.85300 27.46900
C  -1.49300 40.47400 29.61100
C  0.00000 43.90200 30.21800
C  0.49700 43.72000 31.60500
H  -0.56200 43.70700 32.66000
N  -1.05600 41.93800 24.31500
C  -2.05800 41.40700 25.11700
C  -3.04500 40.83500 24.27300
C  -2.65200 40.99800 22.96600
C  -1.36200 41.71400 23.00300
C  -4.28100 40.06100 24.79100
C  -3.32500 40.62000 21.67300
O  -2.88000 40.81400 20.51400
C  -4.60000 39.83700 21.74700
N  1.48100 42.95600 23.02600
C  0.82500 42.47400 21.92100
C  1.74500 42.36500 20.69900
C  2.98700 43.09700 21.11300
C  2.76200 43.26100 22.60300
C  1.91600 40.93400 20.02300
C  3.28600 44.46300 20.43800
C  2.41300 45.69600 20.75400
N  2.57500 43.47000 25.55800
C  3.76500 43.71500 24.90900
C  4.90000 43.98300 25.79900
C  4.33300 43.60300 27.03400
C  2.96400 43.36200 26.85400
C  6.34000 44.37300 25.35100
C  4.61100 43.37800 28.44400
O  5.68600 43.40600 28.98200
C  3.28600 43.11000 29.17600
C  3.48000 41.91800 30.03300
O  3.71200 40.80900 29.67600
O  3.65900 42.30300 31.34000
C  4.13400 41.40200 32.39700
H  -2.95000 41.11000 27.15000
H  -0.76300 41.66400 20.94200
H  4.69800 43.98900 22.96200
H  0.51000 41.76000 30.10100
H  -2.06900 42.51600 29.22300
H  -1.80100 39.81100 28.80300
H  -2.32600 40.50900 30.31300
H  -0.62600 39.97900 30.05100
H  -1.01000 44.30900 30.25600
H  0.57400 44.75600 29.85800
H  1.14400 44.57500 31.79700
H  1.23200 42.93100 31.76800
H  -5.22600 40.59400 24.68000
H  -4.22600 39.68700 25.81300
H  -4.43700 39.14400 24.22200
H  -4.41800 38.83300 22.12900
H  -4.77200 39.71700 20.67800
H  -5.34700 40.48900 22.19900
H  1.24700 43.06200 20.02500
H  3.81800 42.39200 21.07600
H  2.95300 40.66700 19.82000
H  1.46900 41.00400 19.03200
H  1.31300 40.22900 20.59500
H  3.37200 44.42200 19.35300
H  4.26100 44.81600 20.77300
H  1.82800 45.61200 19.83800
H  2.95700 46.63200 20.88300
H  1.69600 45.50900 21.55300
H  6.69600 45.15600 26.02000
H  6.40100 44.70700 24.31500
H  7.08200 43.62500 25.63200
H  3.17600 44.00800 29.78500
H  5.08400 41.79700 32.75600
H  4.22900 40.34900 32.13200
H  3.51600 41.41800 33.29500

