158

Mg 7.03500 53.09100 41.00700
C  6.50100 49.58100 40.99500
C  10.22600 52.66600 40.03000
C  7.05100 56.37600 40.27600
C  3.51600 53.37200 41.72600
N  8.12100 51.33600 40.24100
C  7.80300 49.98600 40.49500
C  9.09100 49.14300 40.37900
C  10.21900 50.23600 40.33300
C  9.48000 51.52800 40.14800
C  11.06000 50.17700 41.63500
C  9.12900 48.00200 39.27700
C  9.26300 48.57600 37.83200
H  8.22100 47.97900 36.77900
N  8.45700 54.39700 40.23700
C  9.75800 54.06800 39.93200
C  10.47000 55.22100 39.46800
C  9.57900 56.32600 39.57200
C  8.28000 55.77700 40.03100
C  11.92100 55.13700 39.08000
C  9.92600 57.73800 39.22900
O  11.07300 58.03400 38.96900
C  8.94500 58.84100 39.13300
N  5.51400 54.52600 40.87400
C  5.80000 55.82400 40.70900
C  4.57400 56.78100 41.01200
C  3.46500 55.72900 41.34600
C  4.23600 54.42200 41.38600
C  4.93400 57.75800 42.17100
C  2.34200 55.74700 40.29200
C  0.99600 56.20900 40.79200
N  5.25100 51.79800 41.31800
C  3.96900 52.04600 41.67900
C  3.25700 50.84900 41.92300
C  4.20100 49.80500 41.79000
C  5.40100 50.42700 41.31600
C  1.80500 50.68500 42.22400
C  4.45200 48.36500 41.83900
O  3.61700 47.51800 42.08100
C  5.96500 48.20400 41.27800
C  5.85500 47.37900 39.99600
O  5.71900 47.80000 38.85000
O  6.08900 46.06600 40.27000
C  6.09400 45.06200 39.13700
H  11.29200 52.46200 39.90800
H  7.01700 57.46500 40.20400
H  2.49000 53.59200 42.02800
H  9.14100 48.58800 41.31600
H  10.80800 49.96200 39.45700
H  10.72500 49.37500 42.29300
H  10.92300 51.09800 42.20100
H  12.12900 50.13000 41.42900
H  8.20600 47.42200 39.30100
H  10.06400 47.44300 39.31900
H  10.20800 48.39800 37.31900
H  9.27100 49.65700 37.97700
H  12.24600 54.10900 38.92100
H  12.52900 55.48200 39.91600
H  12.23900 55.74300 38.23100
H  8.87200 59.42000 40.05300
H  7.96500 58.58100 38.73400
H  9.35100 59.61500 38.48200
H  4.21400 57.37900 40.17500
H  2.93400 55.81500 42.29400
H  5.90500 57.70500 42.66300
H  4.02200 57.72900 42.76700
H  5.01500 58.78000 41.80000
H  2.08700 54.74500 39.94800
H  2.49900 56.42800 39.45600
H  1.04500 56.59000 41.81200
H  0.34600 55.33400 40.78800
H  0.42000 56.93200 40.21500
H  1.40900 51.59700 42.67100
H  1.77800 49.83700 42.90900
H  1.13400 50.37800 41.42300
H  6.47000 47.52700 41.96700
H  7.14000 44.76400 39.06300
H  6.01800 45.56300 38.17200
H  5.53600 44.12800 39.07800
Mg -5.29100 24.99500 26.01400
C  -3.71000 26.32600 28.93000
C  -7.15200 23.14700 28.18800
C  -6.30800 23.34600 23.29700
C  -3.10600 26.91600 24.11500
N  -5.26900 24.67500 28.30500
C  -4.65600 25.39300 29.24200
C  -5.05300 25.05200 30.65300
C  -6.02200 23.83800 30.40100
C  -6.18700 23.85600 28.88800
C  -5.48400 22.45100 30.87400
C  -5.79400 26.32900 31.25300
C  -5.62700 26.51200 32.70600
H  -6.67800 25.79600 33.54400
N  -6.56200 23.44000 25.78000
C  -7.22300 22.82700 26.80900
C  -8.03500 21.80300 26.20000
C  -7.86400 21.91400 24.77900
C  -6.87600 22.91100 24.52400
C  -8.92500 20.88700 27.02300
C  -8.51300 21.21700 23.66300
O  -8.33600 21.48400 22.49700
C  -9.53300 20.14500 24.01900
N  -4.68400 25.08000 23.94000
C  -5.31600 24.35300 23.02100
C  -4.86700 24.75100 21.57800
C  -3.90000 25.94800 21.85100
C  -3.92400 26.00600 23.37100
C  -4.29600 23.53400 20.81700
C  -4.25300 27.27600 21.22200
C  -3.43200 27.53400 19.94500
N  -3.81000 26.46200 26.37600
C  -2.93700 27.04800 25.50300
C  -2.04300 28.01100 26.21100
C  -2.25800 27.72800 27.55000
C  -3.31700 26.72800 27.59700
C  -1.05900 28.99300 25.66200
C  -1.90600 28.02900 28.92900
O  -1.07500 28.79100 29.41400
C  -2.74100 27.08200 29.84600
C  -1.69900 26.27600 30.62600
O  -1.30300 25.15600 30.36400
O  -1.57100 26.86000 31.84500
C  -1.03100 26.00800 32.95600
H  -7.88200 22.60500 28.79400
H  -6.56700 22.92500 22.32400
H  -2.56100 27.69600 23.57800
H  -4.14500 24.80200 31.20200
H  -6.97700 24.10200 30.85500
H  -4.55200 22.73600 31.36200
H  -5.23200 21.81200 30.02800
H  -6.23300 22.06800 31.56700
H  -6.86800 26.24600 31.08900
H  -5.52600 27.26500 30.76300
H  -5.76700 27.56700 32.94200
H  -4.60900 26.26900 33.00900
H  -9.97900 20.96100 26.75400
H  -8.71200 21.01400 28.08400
H  -8.70900 19.86300 26.72000
H  -10.14400 19.77100 23.19700
H  -10.24800 20.62900 24.68400
H  -9.00000 19.38600 24.59200
H  -5.72700 25.02800 20.96800
H  -2.87000 25.70000 21.59300
H  -4.98500 22.97000 20.18900
H  -4.02900 22.80300 21.58000
H  -3.40500 23.90200 20.30700
H  -4.03300 28.19400 21.76500
H  -5.26400 27.35000 20.82000
H  -4.04600 27.67700 19.05600
H  -2.70700 26.76300 19.68600
H  -2.81300 28.42900 20.00300
H  -1.29700 29.23100 24.62500
H  -0.07300 28.58200 25.87900
H  -1.10900 29.89600 26.27100
H  -3.17600 27.71100 30.62300
H  -0.60400 25.05100 32.65500
H  -1.85700 25.69900 33.59600
H  -0.26100 26.49400 33.55500

