158

Mg 8.62400 3.70800 26.97600
C  9.85600 2.35200 29.86600
C  6.88700 6.09900 28.70500
C  7.00900 4.61000 24.06200
C  9.85900 0.81300 25.20800
N  8.57100 4.25300 29.02200
C  9.13700 3.56200 30.06900
C  8.88600 4.22000 31.39700
C  7.76700 5.26600 31.01200
C  7.73800 5.25100 29.48100
C  6.38000 4.83800 31.47000
C  10.27900 4.77700 31.96500
C  10.82800 4.19500 33.29900
H  11.08500 5.10000 34.35700
N  7.31000 5.17600 26.45500
C  6.72600 6.09100 27.30700
C  5.95500 7.06200 26.54500
C  6.03200 6.71900 25.18500
C  6.81800 5.47700 25.14500
C  5.40100 8.22800 27.25800
C  5.35000 7.52000 24.01300
O  5.47100 7.12800 22.82800
C  4.54900 8.72000 24.24600
N  8.64300 2.90700 24.89600
C  7.94100 3.49500 23.90400
C  7.95100 2.76100 22.56000
C  8.95600 1.60600 22.88900
C  9.16500 1.73500 24.39800
C  6.52800 2.26300 22.10000
C  10.28300 1.78500 22.15900
C  10.33900 1.20300 20.77200
N  9.72100 1.98300 27.38600
C  10.10400 0.86500 26.60700
C  10.77200 -0.17200 27.37300
C  10.68300 0.47400 28.67300
C  10.04900 1.72400 28.62400
C  11.29600 -1.60400 26.92100
C  11.06600 0.27000 30.12900
O  11.54800 -0.67800 30.68200
C  10.55700 1.49400 30.93800
C  9.58300 0.92900 31.97000
O  8.37800 0.76300 31.79300
O  10.20100 0.83400 33.22100
C  9.39400 0.50400 34.42000
H  6.33700 6.86200 29.26000
H  6.50600 4.91100 23.14000
H  10.22700 0.00100 24.57600
H  8.55900 3.42300 32.06500
H  8.04200 6.26400 31.35200
H  6.13900 5.27800 32.43700
H  6.42400 3.76100 31.63500
H  5.58600 5.07000 30.76000
H  10.07700 5.84300 32.07100
H  11.03100 4.74400 31.17600
H  11.74100 3.67600 33.00600
H  10.21200 3.33800 33.57300
H  5.81200 9.13200 26.80900
H  5.41600 8.30200 28.34600
H  4.37300 8.19200 26.90000
H  3.96800 8.99500 23.36600
H  5.13900 9.49200 24.74000
H  3.76900 8.55200 24.98900
H  8.31100 3.46600 21.81000
H  8.65000 0.58200 22.67500
H  6.48600 1.25900 21.67700
H  6.10300 3.02900 21.45200
H  5.78500 2.19000 22.89500
H  11.10500 1.36300 22.73700
H  10.45800 2.85800 22.08500
H  11.00500 0.34300 20.70800
H  10.67100 1.97800 20.08100
H  9.35400 0.82900 20.49400
H  12.37400 -1.70000 27.04300
H  11.09800 -1.87000 25.88300
H  10.86200 -2.32600 27.61300
H  11.44200 1.99000 31.33800
H  9.37200 -0.56200 34.19300
H  8.42900 1.01100 34.42100
H  10.00600 0.79400 35.27400
Mg -5.46100 24.81600 26.06400
C  -3.79900 26.20500 28.81000
C  -6.64300 22.38200 28.22100
C  -7.24300 23.62500 23.46800
C  -3.75400 26.93800 23.94000
N  -5.22100 24.44900 28.27700
C  -4.70300 25.23700 29.20700
C  -5.08800 24.83900 30.60700
C  -5.54500 23.39100 30.42000
C  -5.82400 23.33700 28.85200
C  -4.56400 22.30900 30.91400
C  -6.13700 25.67100 31.23700
C  -6.22100 25.94200 32.73100
H  -5.53500 25.00600 33.70600
N  -6.75500 23.29300 25.88200
C  -7.04500 22.34100 26.82300
C  -7.81900 21.24000 26.22600
C  -8.14200 21.71900 24.92000
C  -7.41700 22.98400 24.68300
C  -8.34600 20.08000 27.08300
C  -9.17600 21.12000 23.94800
O  -9.35900 21.55900 22.83800
C  -10.00000 19.91800 24.32300
N  -5.49300 25.32800 23.95200
C  -6.44800 24.74800 23.13900
C  -6.42900 25.31800 21.73200
C  -5.21000 26.31300 21.82300
C  -4.76800 26.24100 23.32500
C  -6.33400 24.31000 20.49300
C  -5.50400 27.76800 21.34900
C  -4.25800 28.48400 20.85100
N  -4.03500 26.21100 26.22800
C  -3.33200 26.96700 25.30000
C  -2.46000 27.89700 26.00400
C  -2.50700 27.53000 27.35000
C  -3.50200 26.59800 27.48200
C  -1.58500 28.94200 25.43200
C  -1.94200 27.76700 28.64200
O  -0.97200 28.43700 29.05100
C  -2.85100 27.08500 29.66800
C  -2.00900 26.26500 30.53600
O  -1.40900 25.24500 30.17300
O  -1.99500 26.79700 31.81900
C  -1.19800 26.17300 32.86300
H  -6.90700 21.52200 28.84000
H  -7.91900 23.32700 22.66400
H  -3.24700 27.64500 23.28100
H  -4.10500 24.88600 31.07600
H  -6.53200 23.31500 30.87600
H  -4.50500 22.44000 31.99400
H  -3.63500 22.46900 30.36500
H  -4.94200 21.31200 30.68700
H  -7.13700 25.48800 30.84400
H  -5.80600 26.61000 30.79300
H  -7.25600 26.04600 33.05800
H  -5.72700 26.90800 32.83400
H  -9.42700 19.98400 27.18400
H  -7.94700 19.95700 28.09000
H  -8.11400 19.16000 26.54700
H  -9.16800 19.21900 24.40700
H  -10.61500 19.47900 23.53700
H  -10.60500 19.96900 25.22900
H  -7.33300 25.92400 21.67800
H  -4.40800 25.84800 21.25000
H  -6.01200 23.35100 20.89800
H  -5.58900 24.63800 19.76700
H  -7.31600 24.24500 20.02500
H  -5.77600 28.25700 22.28400
H  -6.40400 27.81500 20.73500
H  -3.38500 27.84400 20.72500
H  -3.92100 29.12800 21.66400
H  -4.46000 28.96000 19.89100
H  -1.54400 28.93500 24.34300
H  -0.57900 28.85000 25.84000
H  -2.00900 29.93400 25.58700
H  -3.41500 27.76000 30.31200
H  -1.27900 25.08700 32.83800
H  -1.52600 26.67400 33.77400
H  -0.14400 26.43500 32.76500

