158

Mg 8.70700 3.69700 27.30600
C  9.93800 2.26900 30.11900
C  6.53000 5.65700 29.17200
C  6.92900 4.62600 24.47100
C  10.27600 1.25800 25.33400
N  8.31000 3.89900 29.41100
C  9.02600 3.29600 30.38200
C  8.57200 3.96700 31.77000
C  7.31800 4.77600 31.33500
C  7.39100 4.80400 29.85600
C  5.99900 4.21200 31.86300
C  9.80000 4.78800 32.35200
C  9.55400 5.60300 33.66100
H  10.35800 5.06000 34.99300
N  7.03500 5.00600 26.92200
C  6.31300 5.67200 27.81600
C  5.25100 6.49000 27.14200
C  5.45400 6.31200 25.75600
C  6.47600 5.24600 25.64800
C  4.27400 7.20100 27.95300
C  4.74700 6.96800 24.57800
O  4.87100 6.64700 23.40000
C  3.79300 8.04800 24.87100
N  8.68400 3.11300 25.21700
C  7.89800 3.63900 24.23000
C  8.23700 3.06800 22.83100
C  9.14600 1.86000 23.13500
C  9.49200 2.12800 24.61500
C  7.01300 2.72300 21.83400
C  10.45300 1.81200 22.32800
C  10.87000 0.41500 21.87500
N  9.98900 2.15500 27.60700
C  10.57500 1.20500 26.72900
C  11.44300 0.25900 27.48400
C  11.27300 0.71900 28.80000
C  10.31500 1.79900 28.83600
C  12.28000 -0.93100 27.01900
C  11.71300 0.52100 30.18600
O  12.47700 -0.30000 30.63300
C  10.84800 1.52000 31.07400
C  10.06400 0.80800 32.17600
O  9.11100 0.06800 31.91900
O  10.47500 1.20900 33.41100
C  9.87500 0.54400 34.61400
H  5.80000 6.17900 29.79500
H  6.39700 4.82000 23.53700
H  10.64400 0.40600 24.75900
H  8.47500 3.23300 32.57100
H  7.34900 5.81900 31.64900
H  5.37300 5.02600 32.22800
H  6.04800 3.43300 32.62300
H  5.48700 3.71500 31.03900
H  10.36800 5.24700 31.54300
H  10.44800 3.95200 32.61600
H  8.48900 5.68800 33.87900
H  9.85600 6.64600 33.56600
H  3.39200 7.48800 27.38000
H  4.69800 7.94300 28.63000
H  3.94200 6.39400 28.60700
H  2.99700 7.56800 25.43900
H  3.37800 8.43700 23.94100
H  4.20400 8.85300 25.48000
H  8.87600 3.79900 22.33700
H  8.56300 0.94000 23.09400
H  6.08900 3.22300 22.12300
H  6.71000 1.68100 21.93600
H  7.35200 2.96900 20.82800
H  11.26800 2.20800 22.93300
H  10.33100 2.42100 21.43200
H  9.96100 -0.18600 21.87200
H  11.65100 -0.03900 22.48500
H  11.24800 0.34600 20.85500
H  12.07500 -1.08200 25.95900
H  11.86100 -1.79600 27.53300
H  13.35800 -0.90600 27.17300
H  11.50700 2.20000 31.61400
H  9.33400 -0.37200 34.37700
H  9.13500 1.19000 35.08800
H  10.55300 0.33000 35.44000
Mg 44.62600 5.16500 47.74800
C  42.68800 8.16500 47.15600
C  41.81300 3.33600 47.53300
C  46.59000 2.43000 47.85600
C  47.49300 7.23900 47.97700
N  42.53800 5.72700 47.32100
C  41.94600 6.93800 47.03100
C  40.49700 6.80100 46.66400
C  40.23600 5.45300 47.39000
C  41.60900 4.73900 47.36500
C  39.57600 5.53900 48.76800
C  40.31700 6.69400 45.12300
C  40.10200 8.04200 44.39700
H  39.08500 7.92800 43.21200
N  44.28800 3.12200 47.61900
C  43.03800 2.59700 47.55800
C  43.13100 1.09800 47.69700
C  44.50900 0.85300 47.71500
C  45.18400 2.18100 47.76700
C  41.98900 0.03100 47.53600
C  45.03400 -0.56000 47.75000
O  44.36200 -1.60700 47.70500
C  46.53700 -0.87700 47.80300
N  46.72400 4.91500 47.66600
C  47.22800 3.63700 47.86500
C  48.76300 3.65900 48.20800
C  49.05000 5.22200 48.24900
C  47.67100 5.82700 47.94500
C  49.26600 2.93600 49.39100
C  50.13900 5.64200 47.32300
C  51.04400 6.71900 47.97100
N  45.03100 7.29200 47.48600
C  46.23900 7.95400 47.76000
C  46.00700 9.35900 47.79800
C  44.56100 9.50300 47.69000
C  44.07800 8.19300 47.38100
C  47.09700 10.38500 48.03500
C  43.46600 10.46400 47.74300
O  43.37900 11.61600 48.15100
C  42.21900 9.58900 47.20600
C  41.17200 9.70900 48.30300
O  41.07000 9.15000 49.36700
O  40.20600 10.58500 47.85700
C  39.02800 10.76100 48.71200
H  40.85400 2.81900 47.59700
H  47.22300 1.57800 48.11700
H  48.40000 7.81600 48.16900
H  39.87800 7.63500 46.99600
H  39.59600 4.83000 46.76500
H  40.18400 5.04800 49.52700
H  38.64400 4.97300 48.77300
H  39.43700 6.56500 49.11000
H  39.65100 5.89400 44.79800
H  41.32000 6.43200 44.78600
H  41.06800 8.35200 43.99900
H  39.76700 8.79100 45.11300
H  41.99900 -0.70600 46.73400
H  41.08900 0.63100 47.40000
H  41.80800 -0.48900 48.47700
H  46.56600 -1.96500 47.87100
H  47.10700 -0.29600 48.52700
H  46.93900 -0.62800 46.82100
H  49.39600 3.25700 47.41700
H  49.20500 5.55300 49.27600
H  49.82600 2.04700 49.10100
H  48.43200 2.65400 50.03300
H  49.92400 3.52600 50.03000
H  49.76100 6.03700 46.38000
H  50.81800 4.82500 47.07700
H  52.08500 6.54400 47.70000
H  51.03500 6.73000 49.06100
H  50.82700 7.69800 47.54300
H  47.72600 9.93300 48.80200
H  46.62700 11.31600 48.35300
H  47.70400 10.59300 47.15400
H  41.93500 9.94500 46.21600
H  39.06600 11.73400 49.20200
H  38.84400 9.97900 49.44800
H  38.10800 10.70200 48.13000

