158

Mg 16.69800 51.98700 26.17300
C  18.46300 50.60600 28.94700
C  14.20100 52.92300 28.26500
C  15.12400 53.32500 23.47700
C  18.93500 50.37500 24.06500
N  16.35100 51.70700 28.29200
C  17.25100 51.27000 29.27900
C  16.86500 51.64500 30.67100
C  15.38600 52.14400 30.44700
C  15.33200 52.35500 28.90800
C  14.29900 51.12900 30.90300
C  17.90300 52.55700 31.33500
C  17.93500 52.70400 32.86700
H  16.85200 52.08100 33.65700
N  14.87200 53.00500 25.90000
C  13.94900 53.17600 26.85900
C  12.80500 53.84700 26.27900
C  13.04200 54.09600 24.87700
C  14.38600 53.49200 24.68200
C  11.54700 54.21600 27.07500
C  12.17500 54.69300 23.83900
O  12.54900 54.77000 22.66700
C  10.76500 55.13000 24.22600
N  17.05100 51.92900 24.05500
C  16.27400 52.56800 23.18100
C  16.74000 52.31800 21.79200
C  18.12600 51.58200 21.98200
C  18.08800 51.25600 23.46000
C  15.81300 51.61300 20.85400
C  19.27600 52.42200 21.63800
C  20.56100 51.67500 21.28200
N  18.41800 50.83100 26.40100
C  19.17000 50.18400 25.45000
C  20.18400 49.33300 26.12100
C  19.91600 49.48200 27.45800
C  18.89600 50.42300 27.60400
C  21.21200 48.49600 25.37900
C  20.34200 49.03500 28.79200
O  21.26000 48.31400 29.23300
C  19.41200 49.74500 29.81100
C  18.74400 48.89300 30.82500
O  17.92900 48.02000 30.64600
O  19.24200 49.20400 32.05500
C  18.77800 48.31900 33.17300
H  13.38900 53.21800 28.93300
H  14.70900 53.75800 22.56400
H  19.63800 49.84700 23.41700
H  16.86700 50.74100 31.28100
H  15.22700 53.03600 31.05300
H  13.91200 50.51500 30.09000
H  13.41100 51.52100 31.39800
H  14.64400 50.53000 31.74600
H  17.74400 53.58000 30.99500
H  18.86500 52.13900 31.03800
H  17.88500 53.77600 33.05800
H  18.91700 52.31700 33.14100
H  11.79200 54.29700 28.13400
H  10.76500 53.46000 26.99800
H  11.23100 55.24700 26.91300
H  10.21300 55.27400 23.29700
H  10.79100 56.00900 24.86900
H  10.12800 54.35800 24.65800
H  16.96600 53.31900 21.42400
H  18.17700 50.62100 21.47000
H  14.89700 51.34200 21.37800
H  16.33300 50.73600 20.47100
H  15.59200 52.26500 20.00800
H  19.63900 53.16000 22.35400
H  19.06100 53.00200 20.74100
H  21.16000 52.15300 20.50700
H  20.61800 50.60700 21.07000
H  21.17000 51.84100 22.17100
H  21.63000 47.95000 26.22500
H  21.93600 49.09000 24.82200
H  20.73000 47.82800 24.66600
H  20.02200 50.48300 30.33200
H  19.61800 48.29400 33.86600
H  18.65500 47.27000 32.90500
H  17.92900 48.69800 33.74200
Mg 0.22400 43.40900 25.74800
C  1.71400 43.53000 28.89000
C  -2.81900 42.68800 27.16900
C  -1.14100 42.75100 22.60300
C  3.41900 43.96800 24.24500
N  -0.39900 43.05900 27.79500
C  0.32000 43.28500 28.94800
C  -0.50900 43.05600 30.24300
C  -1.92100 42.71900 29.56500
C  -1.75000 42.82100 28.07500
C  -2.68200 41.47300 30.13000
C  -0.46400 44.34600 31.09600
C  -0.07200 44.02000 32.56300
H  -0.14800 42.51000 33.00100
N  -1.70500 42.87800 24.99900
C  -2.81300 42.74000 25.82300
C  -3.96200 42.57100 24.97600
C  -3.51900 42.53300 23.60700
C  -2.06600 42.69300 23.68100
C  -5.39200 42.35300 25.55500
C  -4.41900 42.46200 22.35600
O  -3.91600 42.28200 21.25100
C  -5.94600 42.53300 22.45300
N  1.08000 43.18200 23.78500
C  0.28200 42.95400 22.66900
C  1.13400 42.99100 21.41300
C  2.44200 43.76900 21.86400
C  2.36200 43.63300 23.39900
C  1.42700 41.59500 20.76500
C  2.67200 45.28000 21.57100
C  1.38500 46.09000 21.66800
N  2.15400 43.55200 26.37600
C  3.34900 43.81800 25.67700
C  4.38200 44.08700 26.68400
C  3.86700 43.91500 27.93800
C  2.46700 43.69100 27.73500
C  5.81900 44.54100 26.34600
C  4.14400 43.95000 29.34100
O  5.18700 44.16200 29.90200
C  2.82700 43.65200 29.98500
C  3.08200 42.30300 30.59100
O  2.73900 41.22500 30.15200
O  3.68900 42.54500 31.75100
C  4.21000 41.32000 32.44700
H  -3.78300 42.52100 27.65500
H  -1.53000 42.84100 21.58700
H  4.37200 44.24700 23.79200
H  -0.02100 42.16900 30.64800
H  -2.55300 43.57100 29.81200
H  -2.00300 40.93300 30.79000
H  -2.93500 40.81200 29.30100
H  -3.66200 41.78700 30.48900
H  -1.45400 44.80100 31.13400
H  0.27000 44.97700 30.59500
H  -0.48600 44.63800 33.36000
H  0.96800 44.34000 32.48800
H  -5.97200 43.17200 25.13000
H  -5.47000 42.69800 26.58600
H  -5.71500 41.35500 25.25700
H  -6.37600 41.64300 22.91400
H  -6.27700 42.69900 21.42800
H  -6.14900 43.46900 22.97300
H  0.52300 43.59900 20.74500
H  3.28500 43.32700 21.33200
H  2.38700 41.31400 20.33000
H  0.59300 41.54900 20.06500
H  1.17000 40.75700 21.41300
H  3.14900 45.38700 20.59700
H  3.30400 45.80800 22.28600
H  1.06000 46.27300 20.64400
H  1.59100 47.04700 22.14700
H  0.67000 45.58100 22.31500
H  6.40100 43.74500 25.88100
H  6.37800 44.66600 27.27300
H  5.79500 45.37500 25.64400
H  2.65500 44.45100 30.70600
H  4.65400 40.65000 31.71000
H  3.41900 40.77300 32.95900
H  4.95200 41.59400 33.19700

