158

Mg 1.71400 -2.82700 45.40700
C  5.10900 -2.92700 44.66800
C  1.41700 -0.15500 43.04700
C  -1.62300 -3.24400 45.33300
C  2.14200 -5.90800 47.14300
N  3.09300 -1.63600 44.08400
C  4.45500 -1.90300 43.92700
C  5.09900 -0.90000 42.88000
C  4.00100 0.13700 42.69400
C  2.75600 -0.60900 43.22600
C  4.16100 1.53900 43.28400
C  5.62200 -1.67100 41.56900
C  7.09400 -1.41300 41.10700
H  7.34900 -0.87700 39.70500
N  0.17800 -1.70200 44.54500
C  0.24800 -0.67900 43.61200
C  -1.08900 -0.18400 43.31900
C  -1.96200 -1.08400 43.85700
C  -1.14900 -2.06300 44.66100
C  -1.32200 0.97100 42.38500
C  -3.44900 -1.11200 43.63500
O  -3.85400 -0.20500 42.93800
C  -4.34200 -2.13300 44.24000
N  0.51200 -4.33000 46.08300
C  -0.85500 -4.20800 46.05100
C  -1.54600 -5.44100 46.72900
C  -0.33000 -6.17100 47.31500
C  0.85300 -5.49600 46.78000
C  -2.60400 -5.07500 47.83900
C  -0.33500 -7.67600 47.23800
C  0.40300 -8.40600 46.11500
N  3.28200 -4.15000 45.92600
C  3.33900 -5.28700 46.70100
C  4.68800 -5.74000 46.83000
C  5.41800 -4.79300 46.08900
C  4.48800 -3.84600 45.53600
C  5.24300 -6.91600 47.59600
C  6.74300 -4.49500 45.59700
O  7.86000 -5.04800 45.78800
C  6.60700 -3.22800 44.69500
C  7.37700 -2.14100 45.20600
O  7.36100 -1.71900 46.35000
O  7.96100 -1.40800 44.18300
C  8.58800 -0.09000 44.34400
H  1.30200 0.73900 42.43100
H  -2.69000 -3.46900 45.38800
H  2.05800 -6.72200 47.86600
H  5.94100 -0.43500 43.39400
H  3.79800 0.42700 41.66400
H  4.86700 1.41900 44.10600
H  3.19900 1.89700 43.65200
H  4.61200 2.22700 42.57000
H  4.91400 -1.42000 40.78000
H  5.41900 -2.72600 41.75200
H  7.70000 -2.31300 41.20600
H  7.43500 -0.67000 41.82800
H  -1.66200 0.65700 41.39800
H  -0.42000 1.58200 42.35400
H  -2.12300 1.56000 42.83200
H  -4.14800 -3.09000 43.75600
H  -5.34200 -1.80900 43.95000
H  -4.41500 -2.21300 45.32400
H  -1.97200 -6.09100 45.96500
H  -0.28200 -5.99400 48.39000
H  -2.82800 -4.01100 47.90500
H  -2.18600 -5.43600 48.77900
H  -3.58700 -5.50600 47.65100
H  -1.34100 -8.06800 47.38900
H  0.17700 -7.98800 48.14900
H  -0.30400 -9.08200 45.63400
H  1.22800 -8.99800 46.51000
H  0.85500 -7.74900 45.37100
H  4.77700 -7.84400 47.26300
H  4.84900 -6.83900 48.60900
H  6.31200 -6.70800 47.55900
H  7.00200 -3.43500 43.70100
H  9.26000 -0.07800 45.20200
H  7.80000 0.63200 44.56000
H  9.25700 0.23400 43.54700
Mg 36.33900 49.97800 25.54700
C  36.35300 48.28200 28.51600
C  35.17500 52.82600 27.17400
C  36.00700 51.44900 22.49800
C  37.32400 47.12700 23.98500
N  35.74400 50.42500 27.57300
C  35.91500 49.60500 28.60900
C  35.77400 50.49800 29.91700
C  35.27700 51.89700 29.47300
C  35.39300 51.74600 27.98800
C  34.05500 52.43400 30.17500
C  37.10300 50.47000 30.70900
C  37.04000 50.21000 32.18000
H  35.75400 50.17200 33.04300
N  35.77800 51.85300 24.91300
C  35.34500 52.89700 25.71200
C  35.01800 54.04800 24.89700
C  35.22800 53.61400 23.55600
C  35.72900 52.26700 23.58900
C  34.31200 55.29100 25.41100
C  34.94900 54.50200 22.29500
O  35.10400 54.16000 21.16300
C  34.31900 55.88800 22.35600
N  36.67400 49.39800 23.59400
C  36.46600 50.17400 22.49800
C  36.80900 49.50200 21.18100
C  37.66800 48.30800 21.72500
C  37.21100 48.25200 23.17400
C  35.70400 49.01400 20.17600
C  39.23100 48.44200 21.65500
C  40.06700 47.15400 21.28800
N  36.68100 48.02200 26.06400
C  37.11000 46.91900 25.36200
C  37.29900 45.71400 26.17100
C  37.08400 46.22600 27.44600
C  36.73000 47.62900 27.29700
C  37.87800 44.35200 25.74300
C  37.21800 45.97100 28.91100
O  37.67100 45.01800 29.48200
C  36.66200 47.22400 29.63400
C  35.51400 46.87700 30.44200
O  34.36000 46.80900 29.99900
O  35.90100 46.43300 31.66000
C  34.82300 45.88000 32.56800
H  34.77000 53.65200 27.76300
H  35.99100 51.80600 21.46600
H  37.59900 46.17100 23.53500
H  34.99900 50.00000 30.49800
H  36.05000 52.63300 29.69100
H  34.39700 53.29200 30.75400
H  33.55000 51.74200 30.84900
H  33.32200 52.76200 29.43700
H  37.50600 51.47200 30.56500
H  37.85700 49.88400 30.18300
H  37.76100 50.87300 32.65600
H  37.50500 49.22800 32.27200
H  33.29900 55.25700 25.00800
H  34.85100 56.21900 25.22000
H  34.26800 55.14500 26.49000
H  34.43300 56.30800 21.35700
H  34.92300 56.58800 22.93400
H  33.29000 55.82900 22.71200
H  37.50900 50.17000 20.67900
H  37.35600 47.40000 21.20800
H  34.77200 49.56900 20.28500
H  35.45300 47.97600 20.39200
H  36.05300 49.10600 19.14700
H  39.64300 49.01200 22.48800
H  39.51700 49.18700 20.91200
H  40.47900 46.76300 22.21700
H  40.86200 47.41000 20.58800
H  39.29800 46.52600 20.83700
H  38.45600 44.02500 26.60700
H  38.55300 44.38000 24.88700
H  37.07400 43.64700 25.53500
H  37.39900 47.55100 30.36700
H  33.91100 46.47700 32.58200
H  35.14600 45.73800 33.59900
H  34.61500 44.89000 32.16300

