158

Mg 46.50300 35.44100 28.69400
C  44.55300 33.62100 30.96700
C  46.56200 38.15100 30.82000
C  47.63100 37.37000 26.05000
C  45.84500 32.91400 26.30600
N  45.65300 35.77600 30.55700
C  45.12400 34.79800 31.38700
C  45.45200 35.20800 32.81900
C  45.57700 36.74700 32.67900
C  45.98400 36.95400 31.25200
C  44.34500 37.45300 33.18800
C  46.75300 34.49700 33.31600
C  47.11500 34.79500 34.78200
H  46.08300 35.39300 35.72600
N  47.13300 37.41400 28.52500
C  47.13400 38.30100 29.54200
C  47.81200 39.50900 29.01700
C  48.22700 39.28800 27.66900
C  47.65300 37.95200 27.31900
C  47.99500 40.73000 30.01000
C  49.05700 40.16400 26.65300
O  49.39400 39.72200 25.54100
C  49.45500 41.53900 27.06500
N  46.66200 35.26800 26.46600
C  47.16000 36.20000 25.67900
C  47.28600 35.75900 24.23900
C  46.43900 34.44100 24.25400
C  46.31400 34.09100 25.70500
C  46.82700 36.69800 23.09400
C  47.25300 33.19600 23.67600
C  46.35300 32.18600 22.94700
N  45.61000 33.61000 28.63700
C  45.49800 32.65500 27.68400
C  44.74900 31.53800 28.11000
C  44.36500 31.91000 29.42400
C  44.86300 33.17100 29.64600
C  44.65000 30.26900 27.40500
C  43.65800 31.38700 30.57500
O  43.12800 30.30400 30.82000
C  43.65600 32.55200 31.58500
C  44.10600 31.94200 32.93000
O  44.99900 31.16500 33.07400
O  43.29500 32.40900 33.96500
C  43.77100 31.97800 35.29400
H  46.59100 38.96600 31.54700
H  48.19600 37.85600 25.25100
H  45.69700 32.13500 25.55500
H  44.62100 34.86900 33.43700
H  46.41800 37.07500 33.28900
H  44.62600 38.39200 33.66500
H  43.85000 36.75400 33.86200
H  43.62900 37.74800 32.42100
H  47.63700 34.85900 32.79000
H  46.73600 33.42600 33.11200
H  48.05400 35.34200 34.86000
H  47.20400 33.77700 35.16400
H  47.03700 40.94900 30.48200
H  48.47000 41.62100 29.59800
H  48.61800 40.42700 30.85100
H  50.16500 41.57600 27.89100
H  48.62800 42.19900 27.32900
H  49.93900 41.99800 26.20300
H  48.33900 35.52700 24.07700
H  45.42800 34.51000 23.85400
H  47.65100 37.32700 22.75600
H  46.13500 37.45500 23.46600
H  46.47200 36.22500 22.17800
H  47.86100 32.70600 24.43700
H  48.01100 33.59300 23.00100
H  46.53000 31.21400 23.40900
H  46.38600 32.14600 21.85800
H  45.28600 32.36900 23.07900
H  44.68800 29.40000 28.06200
H  45.50000 30.11800 26.73900
H  43.77100 30.33400 26.76400
H  42.66500 32.98100 31.73700
H  43.28700 31.04100 35.56900
H  43.43500 32.61800 36.11100
H  44.84600 31.80100 35.31900
Mg -2.85200 34.93600 26.40600
C  -3.86200 33.43400 29.25900
C  -1.19900 37.27400 28.42800
C  -1.83100 36.60400 23.58100
C  -4.73100 32.80400 24.59600
N  -2.42800 35.15100 28.58700
C  -2.95500 34.41300 29.56800
C  -2.39400 34.75500 30.90600
C  -1.64200 36.12800 30.58100
C  -1.80600 36.23000 29.10200
C  -2.25600 37.38700 31.33600
C  -1.55700 33.60800 31.60000
C  -1.95500 33.10200 32.97200
H  -0.91400 33.35000 34.04400
N  -1.69700 36.63500 26.05800
C  -1.10000 37.45400 27.00100
C  -0.45100 38.60100 26.32400
C  -0.56200 38.41600 24.91100
C  -1.44200 37.15700 24.81700
C  0.29500 39.58900 27.07700
C  -0.05200 39.19400 23.74900
O  -0.36200 38.98000 22.58100
C  1.00900 40.23500 24.09200
N  -3.29500 34.81000 24.37500
C  -2.71900 35.51500 23.36600
C  -3.10900 34.90400 21.95100
C  -3.71600 33.53400 22.33900
C  -3.95400 33.70300 23.85300
C  -3.97100 35.84300 21.05400
C  -2.75400 32.39600 22.08700
C  -3.32900 31.21100 21.30500
N  -4.10500 33.39100 26.81700
C  -4.78400 32.57000 25.99200
C  -5.32200 31.47600 26.75800
C  -5.05000 31.83100 28.06000
C  -4.20600 32.95200 28.00900
C  -6.24100 30.41000 26.25700
C  -5.23200 31.41100 29.39700
O  -5.93500 30.49600 29.84500
C  -4.43000 32.45800 30.22400
C  -5.44900 33.08900 31.09000
O  -6.43400 33.75700 30.71600
O  -5.25700 32.69100 32.36100
C  -6.03900 33.35900 33.35600
H  -0.66300 37.97900 29.06600
H  -1.50600 36.97200 22.60600
H  -5.28400 32.00300 24.09900
H  -3.24800 34.93800 31.55800
H  -0.56800 36.02000 30.73200
H  -1.34900 37.98600 31.41000
H  -2.65400 37.24200 32.34000
H  -2.94500 37.95200 30.70700
H  -0.55900 34.03000 31.72600
H  -1.48500 32.78200 30.89200
H  -2.22100 32.04800 32.89600
H  -2.85900 33.63500 33.26600
H  1.30000 39.41900 26.69000
H  0.13900 39.53300 28.15400
H  0.06200 40.62600 26.83600
H  1.36400 40.48900 23.09400
H  1.86900 39.79400 24.59600
H  0.69500 41.08500 24.69800
H  -2.16600 34.79800 21.41500
H  -4.55200 33.19100 21.73000
H  -4.88300 35.26600 20.90000
H  -3.44000 35.99500 20.11500
H  -4.07500 36.86000 21.43200
H  -2.29400 32.11300 23.03400
H  -1.93900 32.77700 21.47200
H  -3.31500 30.40800 22.04200
H  -2.69200 30.87000 20.48900
H  -4.38100 31.26600 21.02300
H  -5.84000 29.40400 26.37900
H  -6.39300 30.56800 25.18900
H  -7.21700 30.46200 26.74000
H  -3.75800 31.90200 30.87700
H  -6.41800 34.32800 33.03200
H  -5.31900 33.50800 34.16000
H  -6.83900 32.71400 33.72100

