158

Mg 34.36800 3.06800 29.27700
C  32.27100 4.16600 32.00500
C  36.82100 2.71800 31.44500
C  36.34600 2.66900 26.49900
C  31.49500 3.45100 27.22500
N  34.49200 3.40900 31.43800
C  33.53400 3.81900 32.42400
C  34.15300 3.91600 33.80800
C  35.64400 3.47600 33.54300
C  35.66600 3.21800 32.01700
C  36.72400 4.51300 33.94800
C  33.27300 3.19500 34.92600
C  34.21500 2.70100 36.05600
H  35.09300 3.79100 36.77900
N  36.31900 2.68400 28.97100
C  37.13000 2.50300 30.03200
C  38.39300 2.06600 29.54300
C  38.37800 2.27800 28.12200
C  36.96900 2.61000 27.74400
C  39.45000 1.56200 30.48100
C  39.47700 2.01600 27.14200
O  39.30500 2.17400 25.94200
C  40.74100 1.54200 27.58400
N  33.95800 3.20300 27.23400
C  34.90200 2.87200 26.33400
C  34.33600 3.02200 24.86400
C  32.83300 2.75200 25.17400
C  32.71400 3.09700 26.65300
C  34.67400 4.44600 24.35100
C  32.41600 1.23500 25.08200
C  31.14100 0.89600 24.21500
N  32.27200 3.56500 29.53600
C  31.22800 3.78500 28.60800
C  29.99700 4.16500 29.26900
C  30.40600 4.40900 30.56300
C  31.75500 3.99700 30.70700
C  28.64100 4.39200 28.67400
C  29.91700 4.80100 31.81800
O  28.75500 5.16400 32.11700
C  31.11500 4.67700 32.87500
C  31.20400 5.96300 33.70800
O  31.52500 7.08000 33.39100
O  30.64500 5.63400 34.93600
C  30.29700 6.59800 35.99900
H  37.68200 2.78100 32.11300
H  36.88400 2.50300 25.56300
H  30.68300 3.63400 26.51800
H  34.14400 4.96600 34.10200
H  35.82400 2.52800 34.05200
H  37.33200 4.22100 34.80500
H  36.22900 5.47500 34.07900
H  37.38800 4.72300 33.10900
H  32.69900 2.42200 34.41500
H  32.59900 3.90800 35.40100
H  34.84300 1.89800 35.66900
H  33.61100 2.31800 36.87800
H  39.13000 1.66800 31.51800
H  40.43400 2.03200 30.48400
H  39.72700 0.51100 30.40800
H  40.72500 0.49500 27.88400
H  41.15600 2.17400 28.36900
H  41.39400 1.65800 26.72000
H  34.68900 2.27800 24.14900
H  32.26400 3.40200 24.51100
H  35.05100 4.40700 23.32800
H  35.48200 4.90800 24.91700
H  33.78400 5.06700 24.45300
H  32.40600 0.81700 26.08800
H  33.21100 0.65900 24.60800
H  30.60000 1.78500 23.89100
H  30.37800 0.36600 24.78400
H  31.38900 0.26400 23.36200
H  28.46200 3.84500 27.74900
H  28.24800 5.40900 28.67700
H  27.97500 3.68200 29.16300
H  30.77100 3.91200 33.57100
H  30.91200 6.44500 36.88600
H  29.28300 6.29200 36.25400
H  30.23000 7.63900 35.68300
Mg -10.06600 37.32300 42.33600
C  -7.91600 34.81500 41.53100
C  -7.94900 39.71200 41.30100
C  -12.55400 39.79100 42.68700
C  -12.58800 34.96600 42.84000
N  -8.12300 37.24500 41.58300
C  -7.43200 36.10300 41.22900
C  -6.07700 36.47800 40.65900
C  -5.97000 38.04400 40.72800
C  -7.44300 38.38000 41.28300
C  -4.79500 38.67200 41.56700
C  -5.91900 35.95100 39.20000
C  -4.50100 35.57700 38.78600
H  -4.05200 35.99900 37.31800
N  -10.22400 39.48500 42.01700
C  -9.19500 40.24800 41.62500
C  -9.53900 41.57800 41.50500
C  -10.81400 41.67700 42.15000
C  -11.24700 40.24700 42.36000
C  -8.62900 42.62200 40.92500
C  -11.61600 42.94300 42.48000
O  -11.08800 44.04000 42.18800
C  -12.93700 42.96000 43.25400
N  -12.21300 37.40500 42.81500
C  -12.98200 38.47600 42.77100
C  -14.44300 38.13300 42.86100
C  -14.51500 36.61300 42.84600
C  -13.00300 36.31000 42.79600
C  -15.11200 38.67200 44.17800
C  -15.35300 36.01500 41.72800
C  -16.18700 34.74000 42.11800
N  -10.21000 35.29900 42.40100
C  -11.23300 34.46000 42.71100
C  -10.75100 33.10300 42.73700
C  -9.45500 33.21200 42.15000
C  -9.20900 34.57200 42.05900
C  -11.42400 31.86100 43.16000
C  -8.39200 32.47800 41.57700
O  -8.28900 31.30500 41.24400
C  -7.27600 33.47000 41.24000
C  -6.00500 33.21800 42.09400
O  -5.05800 32.49000 41.75000
O  -5.99800 33.96100 43.25100
C  -4.73600 34.07500 44.03800
H  -7.23000 40.47500 40.99700
H  -13.28200 40.60500 42.66900
H  -13.40800 34.24500 42.81300
H  -5.33900 36.10100 41.36700
H  -5.85000 38.56200 39.77700
H  -3.92600 38.01900 41.64800
H  -5.14800 38.96500 42.55600
H  -4.38200 39.49100 40.97800
H  -6.27600 36.76500 38.56800
H  -6.50700 35.04100 39.07800
H  -4.36800 34.49900 38.87200
H  -3.77500 36.04900 39.44800
H  -8.60200 42.75800 39.84400
H  -7.59700 42.38600 41.18400
H  -8.83800 43.62200 41.30500
H  -13.08800 43.92300 43.74000
H  -12.87700 42.30300 44.12200
H  -13.69600 42.63400 42.54300
H  -14.91700 38.46600 41.93800
H  -14.93800 36.21900 43.77000
H  -14.44100 39.17900 44.87100
H  -15.67800 37.90600 44.70900
H  -15.87100 39.38600 43.85900
H  -14.79400 35.72400 40.83900
H  -16.06300 36.77700 41.40800
H  -17.24800 34.89800 41.92800
H  -16.07400 34.48900 43.17300
H  -15.83100 33.98000 41.42300
H  -11.33600 31.75000 44.24100
H  -11.00400 31.05100 42.56300
H  -12.50200 31.99600 43.08000
H  -7.05300 33.43100 40.17400
H  -3.89700 33.78000 43.40700
H  -4.84900 33.49900 44.95600
H  -4.42200 35.10700 44.19300

