158

Mg 16.99400 -2.86500 27.99500
C  15.79500 -0.85600 30.64700
C  18.84200 -4.71000 30.32900
C  18.31200 -4.54300 25.44100
C  15.19400 -0.95600 25.79300
N  17.32700 -2.62000 30.27100
C  16.71200 -1.82500 31.12200
C  17.05100 -2.17300 32.58300
C  18.14000 -3.33100 32.37900
C  18.15400 -3.57600 30.86000
C  19.53900 -3.03700 32.88100
C  15.80800 -2.51600 33.51500
C  15.86300 -1.94400 34.95900
H  17.11700 -1.22700 35.53300
N  18.42100 -4.43700 27.93600
C  19.00700 -5.08500 28.98100
C  19.78900 -6.19000 28.44200
C  19.67600 -6.11700 27.02100
C  18.74800 -5.05000 26.74800
C  20.57800 -7.10400 29.30800
C  20.42100 -7.01000 25.93600
O  20.27800 -6.72700 24.72900
C  21.34800 -8.07900 26.35100
N  16.87300 -2.67400 25.87800
C  17.56800 -3.43400 24.99000
C  17.38100 -2.84800 23.53800
C  16.27400 -1.76100 23.66400
C  16.02600 -1.86100 25.22900
C  18.77800 -2.37900 22.82200
C  15.01400 -2.09200 22.76100
C  14.62800 -0.88600 21.83700
N  15.63000 -1.35400 28.18400
C  14.97100 -0.68300 27.15000
C  14.17800 0.36200 27.69900
C  14.44500 0.35300 29.12500
C  15.30100 -0.74000 29.36000
C  13.37200 1.39200 26.91900
C  14.20400 1.06300 30.32400
O  13.59300 2.10900 30.53800
C  15.02600 0.21600 31.45600
C  15.88500 1.16100 32.24900
O  17.07500 1.23100 32.22500
O  15.20800 1.91200 33.16000
C  15.81500 2.83100 34.12700
H  19.32400 -5.32900 31.08800
H  18.66000 -5.08600 24.56000
H  14.60500 -0.47900 25.00800
H  17.52300 -1.25500 32.93400
H  17.85500 -4.28700 32.81700
H  19.54600 -2.08300 33.40900
H  20.23300 -2.84700 32.06200
H  19.99800 -3.87800 33.40000
H  15.76700 -3.59400 33.66700
H  14.93600 -2.10600 33.00500
H  15.62900 -2.71800 35.69000
H  15.05400 -1.21300 34.95800
H  20.46700 -6.83300 30.35800
H  21.64500 -6.99000 29.11600
H  20.44300 -8.17900 29.19000
H  20.74100 -8.74300 26.96600
H  22.14100 -7.67600 26.98200
H  21.76800 -8.56900 25.47200
H  17.01100 -3.71700 22.99400
H  16.62600 -0.75600 23.43200
H  18.81800 -1.31400 22.58900
H  19.20500 -2.96300 22.00800
H  19.51000 -2.36400 23.63000
H  14.23500 -2.56600 23.35800
H  15.33800 -2.90300 22.10900
H  14.02800 -1.10300 20.95300
H  15.49700 -0.29600 21.54500
H  14.08400 -0.14900 22.42900
H  12.93400 0.90400 26.04900
H  14.01600 2.23300 26.66000
H  12.46700 1.64900 27.47000
H  14.35800 -0.29800 32.14800
H  16.03900 3.76500 33.61200
H  16.79700 2.53600 34.49600
H  15.03100 2.92400 34.87900
Mg 30.28100 59.97000 39.30100
C  27.23900 58.35400 38.04900
C  32.01900 57.25400 38.21400
C  33.14600 61.66000 39.75000
C  28.25700 62.79200 39.76600
N  29.67500 58.10300 37.98800
C  28.42400 57.61900 37.78600
C  28.58600 56.31800 37.02100
C  29.94500 55.82000 37.51700
C  30.60700 57.12200 37.95400
C  30.02300 54.70600 38.64600
C  28.29200 56.53400 35.47900
C  27.14200 55.74900 34.78400
H  26.25400 56.41700 33.81600
N  32.33600 59.50600 39.04200
C  32.80300 58.32700 38.65200
C  34.19600 58.37400 38.65800
C  34.62000 59.61000 39.15900
C  33.38300 60.33800 39.38000
C  35.09000 57.30800 38.02700
C  36.03800 60.05500 39.39900
O  36.94100 59.33900 39.06000
C  36.32200 61.27000 40.13500
N  30.63400 61.93000 39.62000
C  31.86800 62.37700 39.83400
C  31.80100 63.94600 39.82100
C  30.29600 64.21200 40.19600
C  29.66000 62.88500 39.88000
C  32.81500 64.68200 40.79900
C  29.68600 65.42800 39.47000
C  28.83600 66.39900 40.43200
N  28.13000 60.52100 39.05300
C  27.51600 61.70100 39.33800
C  26.05300 61.56400 39.16000
C  25.88100 60.18700 38.67600
C  27.18100 59.64400 38.64800
C  24.90300 62.60000 39.22000
C  24.89800 59.24900 38.21000
O  23.66700 59.33300 38.11200
C  25.80600 57.94600 37.84000
C  25.26700 56.83500 38.58200
O  25.72300 56.43600 39.67300
O  24.18600 56.32200 37.93400
C  23.49400 55.22500 38.61000
H  32.55600 56.37900 37.84100
H  33.98900 62.35400 39.73300
H  27.68000 63.70900 39.89700
H  27.94000 55.51600 37.38000
H  30.53700 55.44700 36.68100
H  30.79800 55.03100 39.34000
H  30.39300 53.76300 38.24300
H  29.12500 54.66900 39.26400
H  29.17500 56.26400 34.89800
H  28.02800 57.59000 35.43100
H  26.44400 55.26500 35.46800
H  27.59400 54.86500 34.33400
H  34.57400 56.68600 37.29500
H  35.59900 56.79500 38.84300
H  35.92500 57.72200 37.46100
H  37.25900 61.24300 40.69100
H  35.57000 61.27700 40.92400
H  36.27600 62.19700 39.56300
H  32.05600 64.38100 38.85400
H  30.22000 64.30300 41.28000
H  33.50800 64.01900 41.31700
H  32.24000 65.17300 41.58300
H  33.32800 65.44700 40.21600
H  29.04100 65.11200 38.65100
H  30.55800 66.03400 39.22500
H  28.74700 66.01600 41.44900
H  27.83900 66.59900 40.03800
H  29.45400 67.24400 40.73400
H  24.02700 62.11700 38.78800
H  25.27600 63.51400 38.75700
H  24.75000 62.78000 40.28400
H  25.66100 57.69300 36.78900
H  23.99800 54.32300 38.26500
H  22.44500 55.19000 38.31500
H  23.62000 55.30400 39.69000

