158

Mg 25.52900 0.08700 29.27100
C  27.28900 -0.12400 32.26300
C  22.68600 0.14900 31.09500
C  23.86900 0.54400 26.26900
C  28.46800 -0.06400 27.47500
N  25.08600 -0.05500 31.42700
C  25.94600 0.00600 32.50000
C  25.24400 0.06900 33.88100
C  23.72600 -0.14400 33.43500
C  23.81500 0.00700 31.91600
C  23.03600 -1.43000 33.96100
C  25.57700 1.33900 34.77800
C  26.11900 1.06200 36.19600
H  25.07400 0.64200 37.27400
N  23.54100 0.25900 28.80000
C  22.50100 0.20300 29.68500
C  21.28700 0.24800 28.92500
C  21.60900 0.39600 27.49900
C  23.07000 0.45500 27.46200
C  19.85400 0.17200 29.60800
C  20.70700 0.46500 26.24100
O  21.15600 0.62400 25.08800
C  19.24300 0.36000 26.51300
N  26.08200 -0.07000 27.11800
C  25.25100 0.25300 26.10100
C  25.95400 0.37000 24.72000
C  27.46900 0.18700 25.16900
C  27.33400 0.06300 26.71200
C  25.38700 -0.55000 23.65200
C  28.45700 1.35100 24.80600
C  29.87100 0.95100 24.28800
N  27.49400 -0.09500 29.74000
C  28.61100 -0.13300 28.88700
C  29.79700 -0.40300 29.70600
C  29.33700 -0.38800 31.04000
C  27.92100 -0.24100 31.04000
C  31.16600 -0.59300 29.17300
C  29.80300 -0.49800 32.40300
O  30.92200 -0.66700 32.83100
C  28.51500 -0.17600 33.28300
C  28.42300 -1.29600 34.26900
O  27.69900 -2.28400 34.15500
O  29.22600 -1.11200 35.33500
C  28.99900 -2.02500 36.41700
H  21.88900 0.18500 31.84100
H  23.27400 0.80500 25.39200
H  29.32200 -0.14400 26.79900
H  25.43400 -0.81400 34.49100
H  23.02800 0.62100 33.77800
H  23.64400 -2.07200 34.59900
H  22.62800 -2.08500 33.19200
H  22.24600 -1.09600 34.63300
H  24.70600 1.98900 34.86900
H  26.29800 1.93300 34.21800
H  26.65800 1.89700 36.64300
H  26.72200 0.15500 36.15700
H  19.92300 0.10700 30.69400
H  19.41700 -0.79600 29.36600
H  19.18300 0.96300 29.27200
H  18.80200 1.27900 26.89900
H  19.15300 -0.46900 27.21500
H  18.78000 0.08300 25.56600
H  25.80900 1.34500 24.25500
H  27.83700 -0.80300 24.90300
H  25.52500 -0.14100 22.65100
H  24.31500 -0.42700 23.80900
H  25.69200 -1.59500 23.69900
H  28.61100 1.92000 25.72300
H  28.03500 2.06100 24.09600
H  29.84900 -0.10600 24.02500
H  30.52500 1.11100 25.14500
H  30.12300 1.55700 23.41800
H  31.79400 -0.56300 30.06300
H  31.31700 0.09400 28.34000
H  31.24500 -1.64100 28.88400
H  28.64700 0.73800 33.86100
H  28.02900 -1.61700 36.69800
H  29.78300 -1.86200 37.15600
H  28.71500 -3.05100 36.18000
Mg 28.86900 59.54900 41.40000
C  25.73700 58.26100 40.46100
C  30.39400 56.83900 40.01000
C  31.79200 61.25200 41.56300
C  27.12700 62.61300 42.21100
N  28.16500 57.81500 40.32500
C  26.88200 57.40800 40.14900
C  26.78600 56.22000 39.23000
C  28.17300 55.58200 39.41600
C  28.99400 56.75900 39.91300
C  28.23400 54.36600 40.43000
C  26.40900 56.51000 37.86200
C  25.97600 55.21700 37.11600
H  25.20200 55.57000 35.90600
N  30.85700 59.10800 40.87100
C  31.26600 57.94400 40.36500
C  32.69500 57.96800 40.26200
C  33.14400 59.16100 40.81100
C  31.94100 59.91700 41.05200
C  33.58100 56.83000 39.75400
C  34.57200 59.47700 41.04400
O  35.42900 58.61600 40.86500
C  35.14000 60.81700 41.49800
N  29.32600 61.55100 41.73700
C  30.66500 61.94200 41.85300
C  30.78400 63.42100 42.18900
C  29.35200 63.91100 42.30600
C  28.54000 62.68700 42.03300
C  31.69000 63.88500 43.42200
C  28.84800 65.20300 41.51400
C  27.94100 66.11400 42.26900
N  26.81600 60.28900 41.53100
C  26.32100 61.49000 41.81100
C  24.86800 61.51300 41.63300
C  24.59600 60.23500 41.09900
C  25.80000 59.56000 41.07500
C  23.97700 62.61900 42.01800
C  23.53400 59.36600 40.68000
O  22.34200 59.52300 40.57300
C  24.23900 57.98200 40.26800
C  23.70700 56.97000 41.20500
O  23.49300 57.16400 42.43400
O  23.46600 55.79500 40.61100
C  23.48200 54.65100 41.58800
H  30.93300 55.95500 39.66200
H  32.68500 61.83700 41.79000
H  26.67400 63.59200 42.38500
H  25.94500 55.68700 39.67400
H  28.63100 55.39900 38.44300
H  27.22500 53.95400 40.46300
H  28.80600 54.69800 41.29600
H  28.87200 53.65500 39.90500
H  27.28200 56.94500 37.37500
H  25.65200 57.27500 37.68800
H  25.57600 54.46000 37.78900
H  26.97000 54.79600 36.96600
H  33.91500 56.37900 40.68800
H  34.36600 57.17000 39.07700
H  32.97500 56.20200 39.10100
H  34.61500 61.63500 41.00500
H  36.17400 60.97600 41.19200
H  34.97700 60.87800 42.57400
H  31.21800 63.93400 41.33100
H  29.27700 64.01900 43.38800
H  32.58100 63.26800 43.54400
H  31.10900 64.01600 44.33400
H  32.11700 64.85500 43.16700
H  28.39600 64.89000 40.57400
H  29.76700 65.77600 41.38700
H  27.32600 66.73600 41.61900
H  28.60100 66.77500 42.83000
H  27.30600 65.62500 43.00800
H  23.79400 63.23300 41.13600
H  24.47100 63.21800 42.78300
H  22.97300 62.30400 42.30500
H  24.02200 57.75400 39.22500
H  22.59900 54.80200 42.20900
H  24.42300 54.56400 42.13200
H  23.35900 53.72600 41.02500

