158

Mg 40.60900 9.78600 29.85000
C  42.75400 11.09800 32.60900
C  38.26000 9.02400 32.17800
C  39.07600 8.06000 27.51000
C  43.49400 10.06700 27.92700
N  40.56700 9.98100 32.16400
C  41.44100 10.68500 33.02200
C  40.86000 10.73200 34.43500
C  39.45800 10.00300 34.30500
C  39.36200 9.69500 32.80100
C  39.25500 8.74300 35.22700
C  40.75200 12.20500 35.04200
C  39.80000 12.20600 36.31400
H  40.22300 13.12900 37.45400
N  38.85000 8.76200 29.84500
C  38.05300 8.51500 30.88900
C  36.98000 7.64900 30.43600
C  37.18800 7.45500 29.06400
C  38.39300 8.11100 28.73900
C  35.93000 7.17600 31.41200
C  36.30000 6.76200 28.13100
O  36.46900 6.71500 26.92100
C  35.09700 6.03400 28.72600
N  41.16600 9.24000 27.93400
C  40.27000 8.60700 27.09100
C  40.83700 8.48100 25.64900
C  42.14000 9.40800 25.79300
C  42.33800 9.60300 27.31700
C  40.98100 6.98800 25.17000
C  42.23000 10.80300 25.12800
C  40.92900 11.70800 25.23500
N  42.68500 10.43200 30.12200
C  43.68600 10.51700 29.24400
C  44.87200 11.12800 29.78100
C  44.54500 11.37100 31.08800
C  43.18200 10.99400 31.24000
C  46.15100 11.36500 29.09800
C  45.03200 11.97500 32.27800
O  46.06900 12.54300 32.40800
C  43.84100 11.82000 33.33000
C  44.31400 11.09200 34.50400
O  44.78000 9.94100 34.53200
O  44.13100 11.92300 35.58900
C  44.25400 11.40300 36.92700
H  37.50200 8.68600 32.88800
H  38.70400 7.46300 26.67500
H  44.37800 10.28500 27.32300
H  41.50800 10.07400 35.01500
H  38.70000 10.75200 34.53500
H  38.98200 7.87300 34.63000
H  38.43300 8.96900 35.90600
H  40.19500 8.52400 35.73300
H  40.33700 12.95200 34.36600
H  41.73500 12.57600 35.33300
H  39.74500 11.21800 36.77100
H  38.80700 12.57600 36.06100
H  34.95200 7.65600 31.43600
H  36.33400 7.11500 32.42300
H  35.87600 6.10500 31.21600
H  35.35300 5.07800 29.18200
H  34.45500 5.71300 27.90600
H  34.61900 6.68500 29.45800
H  40.17100 9.06600 25.01500
H  43.05900 8.88900 25.52100
H  42.05100 6.78500 25.22500
H  40.59600 6.98400 24.15100
H  40.40000 6.29000 25.77300
H  42.54600 10.73900 24.08700
H  42.97700 11.35900 25.69500
H  41.05100 12.57200 25.88900
H  40.20500 11.14200 25.82100
H  40.61700 11.95100 24.22000
H  46.06800 12.06400 28.26700
H  46.44700 10.45500 28.57500
H  46.91600 11.62100 29.83200
H  43.53100 12.80400 33.68300
H  43.28400 10.92000 37.04000
H  44.34200 12.16100 37.70500
H  45.12300 10.76200 37.07400
Mg 6.49100 53.06900 40.56300
C  6.01600 49.60300 40.05800
C  9.83700 52.74000 39.96900
C  6.81700 56.40200 40.32200
C  3.11500 53.41700 41.09000
N  7.73800 51.41300 40.07200
C  7.37600 50.09500 39.88000
C  8.69300 49.19300 39.89300
C  9.81800 50.21700 40.15400
C  9.09400 51.54900 40.02700
C  10.55500 50.13600 41.50300
C  8.98200 48.44100 38.54600
C  8.74200 49.17500 37.22000
H  7.66600 48.78000 36.26900
N  8.16800 54.40000 40.32200
C  9.45300 54.06700 40.00600
C  10.24300 55.27400 39.94100
C  9.39900 56.35300 40.11000
C  8.05500 55.76200 40.26800
C  11.76400 55.21300 39.65300
C  9.80700 57.82000 40.07700
O  10.99700 58.07100 39.85600
C  8.91600 58.95900 40.20700
N  5.21900 54.64400 40.46400
C  5.54300 55.92100 40.49800
C  4.32400 56.86500 40.77000
C  3.22400 55.88100 41.22400
C  3.91500 54.55100 40.95800
C  4.56200 58.04900 41.79000
C  1.81000 56.07500 40.50800
C  0.65900 56.34500 41.43300
N  4.84100 51.78300 40.62700
C  3.58000 52.06200 40.99400
C  2.84700 50.83100 41.15000
C  3.76900 49.81100 40.72400
C  4.96400 50.47900 40.37600
C  1.36000 50.70600 41.40600
C  4.00500 48.37300 40.61000
O  3.21800 47.45300 40.92700
C  5.47800 48.22100 40.16600
C  5.50300 47.50400 38.94300
O  5.16800 48.06800 37.90300
O  5.93300 46.27400 39.14700
C  5.90700 45.28200 38.01100
H  10.89200 52.46500 39.89800
H  6.82100 57.48400 40.17000
H  2.11700 53.39500 41.53300
H  8.49800 48.46400 40.68000
H  10.58400 50.17700 39.37900
H  10.27300 51.03600 42.05100
H  11.63600 50.04300 41.39900
H  10.30100 49.27700 42.12400
H  8.43900 47.49600 38.58400
H  10.02000 48.12100 38.63200
H  9.60500 49.05900 36.56500
H  8.60500 50.22400 37.48000
H  11.92700 55.63700 38.66200
H  12.13200 54.18700 39.62400
H  12.32100 55.77900 40.40000
H  9.38200 59.94200 40.14900
H  8.37800 58.84800 41.14800
H  8.08200 58.95000 39.50500
H  4.05400 57.29800 39.80700
H  3.07900 56.01000 42.29700
H  4.75000 58.98100 41.25600
H  5.36000 57.76700 42.47700
H  3.65100 58.22500 42.36000
H  1.65200 55.27300 39.78700
H  1.76600 56.94900 39.85800
H  0.02900 55.48900 41.67900
H  -0.00400 57.10700 41.02400
H  1.11200 56.66800 42.37000
H  0.68600 51.15300 40.67600
H  1.30000 51.21600 42.36700
H  1.15200 49.70200 41.77400
H  5.97500 47.68600 40.97500
H  5.41400 44.38500 38.38500
H  6.93600 44.96500 37.84200
H  5.48600 45.65100 37.07500

