158

Mg 8.19400 3.02700 27.61200
C  9.45400 1.60100 30.62900
C  6.04200 4.94000 29.49100
C  6.74100 4.15400 24.76700
C  9.91600 0.54500 25.90700
N  7.96200 3.33900 29.85100
C  8.50300 2.64000 30.83100
C  8.07400 3.18900 32.22000
C  6.89000 4.16900 31.87400
C  6.89200 4.12700 30.30400
C  5.50500 3.74100 32.58900
C  9.18100 3.79400 33.09300
C  9.40200 3.06000 34.48100
H  9.84300 3.98000 35.68700
N  6.73500 4.35800 27.21700
C  6.02900 5.13200 28.10700
C  5.29000 6.14200 27.47200
C  5.34400 5.88100 26.06400
C  6.30600 4.77200 25.96500
C  4.50400 7.19100 28.20800
C  4.62000 6.61200 24.85900
O  5.00600 6.35200 23.69500
C  3.68700 7.76900 25.06200
N  8.24000 2.42700 25.56900
C  7.65300 3.00800 24.58300
C  7.88100 2.33600 23.29200
C  8.68400 1.07900 23.65800
C  9.03600 1.33700 25.17200
C  6.51300 2.00700 22.58200
C  9.94300 0.79400 22.78000
C  10.17200 -0.66800 22.46400
N  9.56500 1.42900 28.14900
C  10.19800 0.57900 27.25800
C  10.88500 -0.36300 28.09300
C  10.70100 0.04200 29.40600
C  9.82300 1.08200 29.36200
C  11.44300 -1.64100 27.66200
C  11.00700 -0.23700 30.78200
O  11.71500 -1.07000 31.36200
C  10.15900 0.71500 31.66300
C  9.35000 -0.25000 32.36800
O  8.27800 -0.71300 32.00000
O  9.80500 -0.43100 33.65100
C  8.89000 -1.03700 34.54000
H  5.41700 5.50200 30.18900
H  6.31800 4.47500 23.81300
H  10.34400 -0.30500 25.37200
H  7.60200 2.32300 32.68400
H  7.07400 5.22800 32.05500
H  4.72300 3.42400 31.89900
H  4.93800 4.36600 33.27900
H  5.73400 2.86100 33.19000
H  9.01800 4.86500 33.21100
H  10.08200 3.81400 32.48100
H  10.19700 2.33500 34.30900
H  8.51700 2.49600 34.77700
H  3.44900 6.91500 28.22800
H  4.55700 8.10500 27.61700
H  4.86200 7.35600 29.22400
H  3.42300 8.12800 24.06700
H  4.15600 8.66700 25.46500
H  2.84400 7.66200 25.74600
H  8.39700 2.99100 22.59000
H  8.09500 0.16600 23.57200
H  5.75900 2.19200 23.34700
H  6.40200 0.98700 22.21400
H  6.40800 2.71600 21.76100
H  10.80500 1.24300 23.27300
H  9.75600 1.13300 21.76100
H  11.21900 -0.94300 22.34300
H  9.60900 -1.03200 21.60500
H  9.82400 -1.35100 23.23900
H  10.83800 -2.10100 26.88000
H  11.53200 -2.35600 28.48000
H  12.48900 -1.48600 27.40000
H  10.67200 1.28300 32.43900
H  9.46600 -1.30100 35.42700
H  8.41800 -1.93800 34.14800
H  8.08000 -0.35900 34.80800
Mg -1.54700 34.26000 26.70800
C  -3.32200 32.52800 29.15800
C  -0.24000 36.31600 29.12600
C  -0.17200 36.00100 24.27900
C  -3.32800 32.31000 24.25400
N  -1.95800 34.59000 28.88000
C  -2.46600 33.55500 29.65000
C  -2.26600 33.87300 31.15800
C  -1.33400 35.18600 31.05600
C  -1.22000 35.46400 29.62800
C  -1.74900 36.46000 31.84500
C  -1.69300 32.60300 31.83300
C  -2.53000 31.95700 32.99800
H  -1.72800 31.89500 34.38400
N  -0.17100 35.89300 26.74700
C  0.26000 36.58800 27.79500
C  1.19400 37.62900 27.36900
C  1.10700 37.55300 25.93600
C  0.16900 36.49400 25.58900
C  1.97100 38.51600 28.34900
C  1.83400 38.44600 24.88800
O  1.79900 38.32100 23.63000
C  2.64700 39.55200 25.45900
N  -1.86000 34.26500 24.60100
C  -1.03100 35.03600 23.80600
C  -1.23000 34.74100 22.27900
C  -1.83300 33.31400 22.40800
C  -2.46700 33.32700 23.84200
C  -2.09400 35.81500 21.52800
C  -0.87400 32.14600 21.99900
C  -0.05200 31.45600 23.09700
N  -2.99400 32.68700 26.66000
C  -3.56300 31.96600 25.60700
C  -4.30800 30.83200 26.15100
C  -4.27500 31.05200 27.54800
C  -3.46900 32.22400 27.81900
C  -5.07700 29.80100 25.43500
C  -4.73900 30.50300 28.75800
O  -5.42500 29.49600 28.95700
C  -4.11400 31.39400 29.89100
C  -5.17100 31.88600 30.75000
O  -5.92700 32.81600 30.34400
O  -5.43200 31.06000 31.80800
C  -6.48600 31.51900 32.71500
H  0.32000 36.73600 29.96400
H  0.14900 36.60300 23.42600
H  -3.68200 31.60600 23.49800
H  -3.26400 34.05200 31.55800
H  -0.34800 34.99900 31.48000
H  -2.65800 36.29300 32.42400
H  -1.88100 37.29400 31.15600
H  -0.98100 36.78700 32.54500
H  -0.67900 32.77800 32.19300
H  -1.49200 31.77100 31.15800
H  -2.74400 30.91400 32.76800
H  -3.40800 32.54700 33.26400
H  1.91100 39.57100 28.08300
H  3.03100 38.27000 28.29200
H  1.73800 38.32400 29.39700
H  1.96200 40.24400 25.94800
H  3.23800 39.97000 24.64400
H  3.32200 39.04200 26.14700
H  -0.28300 34.65200 21.74600
H  -2.78400 33.21200 21.88400
H  -2.12900 36.62700 22.25400
H  -3.05800 35.44500 21.18000
H  -1.60800 36.13100 20.60500
H  -0.14700 32.58400 21.31400
H  -1.38100 31.34400 21.46200
H  -0.35400 31.59700 24.13500
H  0.98800 31.76100 22.97700
H  -0.06300 30.38200 22.91200
H  -6.15400 29.96500 25.42400
H  -4.93900 28.79500 25.83100
H  -4.64400 29.74400 24.43600
H  -3.64700 30.67400 30.56400
H  -6.21800 32.50900 33.08500
H  -6.60800 30.90900 33.61000
H  -7.42300 31.71700 32.19500

