158

Mg 0.48200 7.26500 25.30400
C  1.11700 9.17800 28.08500
C  0.69000 4.40300 27.27300
C  0.17000 5.37200 22.50800
C  0.96600 10.06800 23.26000
N  0.64500 6.85000 27.45300
C  0.89000 7.84200 28.40500
C  1.00400 7.23000 29.84500
C  0.96400 5.68900 29.48100
C  0.81900 5.58300 27.97100
C  2.18200 4.86400 29.91100
C  -0.14900 7.76700 30.64600
C  -0.03000 7.78900 32.19900
H  1.12200 7.19100 33.00400
N  0.42400 5.20900 24.95100
C  0.46900 4.20400 25.91600
C  0.40600 2.93700 25.25300
C  0.16900 3.20700 23.87900
C  0.21600 4.63100 23.70000
C  0.55900 1.56500 25.95300
C  -0.15300 2.23900 22.75600
O  -0.18500 2.53100 21.56500
C  -0.30000 0.73000 23.09500
N  0.60900 7.66600 23.28200
C  0.23000 6.74300 22.32500
C  0.07900 7.34400 20.93900
C  0.15800 8.91100 21.22100
C  0.56300 8.89600 22.67600
C  1.04500 6.85100 19.92500
C  -1.18200 9.71700 20.96700
C  -1.23100 11.20600 20.60400
N  1.03000 9.23700 25.54400
C  1.15900 10.28400 24.64000
C  1.40400 11.51100 25.36500
C  1.46700 11.11800 26.70600
C  1.16900 9.76500 26.76600
C  1.44300 12.91400 24.75300
C  1.68400 11.56500 28.07700
O  1.86700 12.71200 28.57600
C  1.47700 10.32500 28.99200
C  2.73800 10.19500 29.75100
O  3.82000 10.05400 29.20300
O  2.39700 10.44600 31.06500
C  3.52800 10.67800 31.97900
H  0.65400 3.49800 27.88300
H  0.03400 4.82900 21.57000
H  1.00000 11.02400 22.73300
H  1.92100 7.53300 30.34900
H  0.02100 5.33000 29.89400
H  2.73400 4.49800 29.04500
H  1.78000 4.06200 30.52900
H  2.79100 5.42700 30.61900
H  -1.00300 7.10700 30.49100
H  -0.49900 8.73900 30.29900
H  -1.00300 7.40200 32.50100
H  -0.02600 8.83100 32.52100
H  1.33300 0.97600 25.46100
H  -0.41400 1.07500 25.90500
H  0.92000 1.71500 26.97100
H  -0.66300 0.29000 22.16600
H  -1.00800 0.63600 23.91900
H  0.68800 0.31600 23.29400
H  -0.91400 7.07900 20.57600
H  1.03200 9.37200 20.76100
H  1.88900 7.48700 19.65900
H  0.56000 6.66300 18.96800
H  1.49200 5.88800 20.17100
H  -1.80900 9.41800 21.80700
H  -1.55900 9.31400 20.02700
H  -1.82800 11.62800 21.41200
H  -1.56800 11.49400 19.60800
H  -0.29700 11.76800 20.62400
H  1.49800 13.73400 25.46900
H  0.58100 13.13900 24.12500
H  2.28900 12.89200 24.06600
H  0.69600 10.44200 29.74400
H  3.16900 11.40800 32.70400
H  4.47100 11.00800 31.54400
H  3.65800 9.74000 32.52000
Mg 48.03000 34.17000 26.87800
C  45.98600 32.84300 29.43300
C  48.53000 36.96600 28.98600
C  49.37300 35.79300 24.31000
C  47.13800 31.52800 24.88500
N  47.44000 34.74300 29.05000
C  46.60300 34.02100 29.89700
C  46.76900 34.56300 31.32200
C  47.32300 36.00600 31.04100
C  47.88000 35.89000 29.63900
C  46.21700 37.07200 31.11900
C  47.87700 33.78400 32.05000
C  47.94200 33.94700 33.60200
H  47.01000 34.92700 34.32000
N  48.81200 36.05300 26.66500
C  48.99300 37.02400 27.61600
C  49.56500 38.19500 27.06400
C  49.87800 37.93800 25.66500
C  49.28000 36.58300 25.46600
C  49.80600 39.40600 27.91200
C  50.59200 38.78600 24.60500
O  50.81300 38.39600 23.47900
C  51.16700 40.13100 24.89700
N  48.30400 33.75500 24.95800
C  48.88000 34.51200 24.04700
C  49.07800 33.92500 22.71300
C  48.54200 32.52100 23.01000
C  47.89000 32.54000 24.40300
C  48.39900 34.68900 21.59300
C  49.53700 31.23900 22.85600
C  50.83700 31.35600 23.77400
N  46.79900 32.53900 27.03500
C  46.54200 31.50800 26.16800
C  45.68100 30.54900 26.76300
C  45.39600 31.08200 28.02500
C  46.18300 32.21100 28.16600
C  45.06100 29.30200 26.03200
C  44.53000 30.86400 29.13700
O  43.71000 29.99300 29.44400
C  44.79700 32.17100 30.05100
C  44.98500 31.67800 31.37900
O  45.87600 30.85500 31.75500
O  44.12300 32.22600 32.18900
C  44.19000 32.06700 33.59900
H  48.59200 37.85000 29.62400
H  49.67300 36.32500 23.40500
H  47.08000 30.60400 24.30400
H  45.80800 34.54200 31.83600
H  48.08700 36.21100 31.79100
H  45.19000 36.77300 31.32900
H  46.19600 37.53600 30.13300
H  46.50500 37.90100 31.76600
H  48.88200 34.05800 31.73100
H  47.70200 32.72100 31.88400
H  48.95100 34.29800 33.82100
H  47.84200 32.97700 34.08800
H  50.71300 39.94200 27.63300
H  49.79300 39.10600 28.96000
H  48.98500 40.10400 27.75000
H  51.92100 39.88800 25.64500
H  50.43300 40.80900 25.33400
H  51.67700 40.55500 24.03200
H  50.13700 33.78300 22.49600
H  47.68800 32.30800 22.36800
H  49.23400 35.21100 21.12500
H  47.69400 35.43500 21.95900
H  47.89400 34.03900 20.87800
H  49.97300 31.28200 21.85800
H  48.97900 30.30600 22.92600
H  51.73700 31.07900 23.22500
H  50.88300 30.56300 24.52000
H  50.96500 32.27700 24.34100
H  43.97700 29.30800 26.15100
H  45.39000 28.43200 26.60000
H  45.38600 29.13000 25.00600
H  43.93500 32.83900 30.06300
H  43.56700 32.86600 34.00100
H  45.20700 32.16300 33.98100
H  44.01900 31.04000 33.92200

