158

Mg 24.71700 1.12400 30.20900
C  26.78700 0.91700 32.97100
C  22.06700 1.52100 32.36000
C  22.66700 0.63800 27.52100
C  27.43200 0.23900 28.21300
N  24.48000 1.17600 32.50200
C  25.47200 1.11900 33.37500
C  24.99300 1.68300 34.71500
C  23.44400 1.44400 34.58700
C  23.30600 1.34400 33.07000
C  22.98600 0.04300 35.20800
C  25.56100 3.11000 35.10600
C  26.40000 3.19200 36.45400
H  25.98300 4.17500 37.54300
N  22.70100 1.06400 30.00500
C  21.73300 1.32400 30.98200
C  20.47000 1.41500 30.35000
C  20.62900 0.98100 28.99100
C  22.06500 0.94200 28.77900
C  19.20300 1.73700 31.10000
C  19.60700 0.75000 27.95300
O  19.93000 0.51900 26.79400
C  18.22500 0.68800 28.27000
N  25.00800 0.35900 28.23700
C  24.03300 0.52500 27.31700
C  24.56200 0.39800 25.88400
C  26.08200 0.15300 26.07500
C  26.20700 0.25200 27.56900
C  23.85000 -0.49300 24.87000
C  26.93200 1.15400 25.22700
C  26.44500 1.23500 23.78000
N  26.68700 0.63400 30.46900
C  27.71800 0.45500 29.56300
C  28.99700 0.32700 30.26500
C  28.68300 0.51500 31.64100
C  27.25800 0.69500 31.67200
C  30.39200 0.10500 29.75500
C  29.27900 0.65800 32.97800
O  30.44800 0.54600 33.40600
C  28.06500 0.96100 33.87600
C  28.07900 -0.18600 34.80300
O  27.46900 -1.22300 34.65500
O  28.86200 0.15100 35.88700
C  28.73800 -0.74800 37.01600
H  21.22700 1.86900 32.96500
H  22.09100 0.83500 26.61500
H  28.26700 0.09600 27.52400
H  25.37900 1.05500 35.51800
H  22.99700 2.33600 35.02400
H  23.84400 -0.59200 35.43200
H  22.41300 -0.51100 34.46400
H  22.41300 0.29900 36.09900
H  24.70500 3.78300 35.04700
H  26.22900 3.32200 34.27100
H  27.39000 3.52800 36.14500
H  26.36700 2.19000 36.88200
H  19.41800 1.72400 32.16800
H  18.35400 1.10500 30.84000
H  18.96900 2.75200 30.77900
H  18.18300 -0.13100 28.98800
H  17.70700 0.42600 27.34800
H  17.84200 1.61700 28.69300
H  24.34600 1.33900 25.37800
H  26.46900 -0.85600 25.93400
H  24.56400 -1.14500 24.36800
H  23.39700 0.11700 24.08800
H  23.03600 -1.02700 25.36000
H  27.97700 0.84800 25.28700
H  26.73600 2.15100 25.62200
H  25.70900 2.01300 23.57800
H  26.00300 0.31600 23.39500
H  27.26300 1.35800 23.07100
H  30.91800 1.05500 29.66700
H  30.37600 -0.34400 28.76100
H  30.83300 -0.53200 30.52100
H  28.01500 1.91200 34.40700
H  28.50900 -1.75000 36.65400
H  28.01100 -0.37400 37.73700
H  29.71900 -0.61400 37.47200
Mg 27.23900 51.02400 26.73100
C  25.31100 51.97600 29.42200
C  29.60200 49.75800 28.93500
C  29.00800 50.14000 23.99500
C  25.13300 52.98400 24.46300
N  27.53600 51.17500 29.10500
C  26.51000 51.37100 29.94100
C  26.96600 50.95800 31.40000
C  28.52200 50.54800 31.16800
C  28.59400 50.53600 29.64700
C  29.56600 51.49600 31.74400
C  26.07400 49.88900 32.14600
C  24.92400 50.31500 33.12600
H  24.59500 49.50600 34.42100
N  29.05200 50.00000 26.49300
C  29.87300 49.48000 27.51500
C  30.91400 48.65300 26.91400
C  30.76700 48.74400 25.50400
C  29.54400 49.62800 25.24100
C  31.94700 47.91600 27.70700
C  31.53600 48.05000 24.40700
O  31.25400 48.20600 23.23300
C  32.65800 47.10100 24.78100
N  27.03800 51.39500 24.58100
C  27.94100 50.95200 23.69800
C  27.58700 51.26300 22.19300
C  26.36300 52.15700 22.31300
C  26.18400 52.25000 23.89700
C  28.72500 51.79700 21.18300
C  25.03400 51.57900 21.54400
C  24.02900 52.66800 21.00500
N  25.61900 52.30600 26.86600
C  24.86700 53.04800 25.89300
C  23.78400 53.77200 26.54500
C  23.96400 53.37000 27.90700
C  25.03000 52.42600 28.06100
C  22.83000 54.74600 25.89800
C  23.43500 53.57900 29.16100
O  22.45700 54.23300 29.50400
C  24.15900 52.61000 30.24800
C  24.76600 53.41700 31.36800
O  25.80000 54.13000 31.33200
O  23.91500 53.29900 32.48900
C  24.18500 54.35200 33.42100
H  30.26200 49.23200 29.62800
H  29.51700 49.85500 23.07200
H  24.53800 53.48900 23.69900
H  27.07100 51.80800 32.07400
H  28.76800 49.53200 31.47900
H  29.95300 51.12200 32.69200
H  29.04600 52.43300 31.94400
H  30.29600 51.79800 30.99400
H  26.70100 49.17000 32.67200
H  25.59000 49.35000 31.33100
H  23.97300 50.19800 32.60700
H  25.13000 51.34800 33.40500
H  32.11400 46.92700 27.28100
H  31.75600 47.74800 28.76700
H  32.87900 48.48000 27.75900
H  33.28500 47.56600 25.54200
H  33.12500 46.74400 23.86300
H  32.16000 46.19700 25.13300
H  27.19800 50.31800 21.81400
H  26.54100 53.10700 21.80900
H  29.64000 51.97300 21.74900
H  28.48500 52.75400 20.72100
H  28.73700 51.12000 20.32900
H  24.59200 50.89100 22.26500
H  25.34200 50.99400 20.67800
H  23.55300 52.34300 20.08000
H  24.37300 53.69700 20.90400
H  23.21300 52.59500 21.72400
H  23.45400 55.28700 25.18700
H  22.54900 55.50900 26.62500
H  21.97800 54.27100 25.41100
H  23.59400 51.76400 30.64100
H  24.22500 55.28100 32.85400
H  25.14300 54.21500 33.92300
H  23.38200 54.38700 34.15700

