158

Mg 43.18200 41.97600 26.07700
C  42.32800 44.32900 28.42300
C  44.62700 40.01700 28.64600
C  44.29700 39.75800 23.77800
C  42.41100 44.20400 23.51400
N  43.43800 42.23900 28.30900
C  42.92000 43.20000 29.08300
C  43.20000 42.98100 30.61500
C  44.15600 41.71600 30.57300
C  44.05700 41.27900 29.09000
C  45.60600 42.10700 30.90900
C  41.96800 42.73100 31.54700
C  41.83700 43.57900 32.82100
H  40.75300 43.29800 33.86400
N  44.04600 40.11000 26.22700
C  44.57200 39.46900 27.37300
C  45.17900 38.21900 26.94800
C  45.00600 38.07500 25.52600
C  44.42200 39.35700 25.09900
C  45.72500 37.23400 27.97900
C  45.35700 36.90800 24.63800
O  44.97300 36.89100 23.46800
C  46.06000 35.72300 25.18800
N  43.35900 42.00000 23.92200
C  43.83300 40.96100 23.20700
C  43.67400 41.19800 21.69400
C  42.77900 42.55300 21.59000
C  42.93800 42.97500 23.08100
C  45.01200 41.30900 20.86700
C  41.17400 42.48500 21.20700
C  40.29300 41.55300 21.99500
N  42.66400 43.89200 25.93900
C  42.39100 44.69900 24.82900
C  41.85000 45.94700 25.30800
C  41.79500 45.82700 26.68600
C  42.32000 44.54500 27.04100
C  41.28800 47.06700 24.43700
C  41.40900 46.48600 27.88100
O  41.00900 47.64800 28.01700
C  41.81700 45.59300 29.06200
C  42.81300 46.42000 29.84800
O  44.03400 46.45200 29.63900
O  42.24500 47.05000 30.87000
C  43.07300 47.74500 31.90200
H  45.21300 39.61500 29.47500
H  44.61300 39.07900 22.98300
H  42.19600 44.94100 22.73700
H  43.81900 43.82200 30.92700
H  43.86100 40.90300 31.23700
H  45.54200 42.43300 31.94700
H  46.02600 42.86000 30.24100
H  46.20000 41.19500 30.84500
H  41.89300 41.67800 31.81900
H  41.24700 43.04000 30.79100
H  41.71400 44.62200 32.53000
H  42.79900 43.56900 33.33200
H  45.44000 37.52000 28.99200
H  46.78900 36.99800 27.97400
H  45.11600 36.33200 27.92400
H  46.49900 35.20200 24.33600
H  45.30400 35.10100 25.66700
H  46.80800 35.92000 25.95600
H  43.14000 40.34900 21.26700
H  43.28100 43.24000 20.91000
H  45.81900 40.94300 21.50100
H  45.20700 42.33800 20.56600
H  45.07800 40.75100 19.93300
H  41.10800 42.10100 20.18900
H  40.70900 43.46500 21.10000
H  39.52900 42.18000 22.45400
H  40.85900 41.00600 22.74900
H  39.77200 40.88300 21.31100
H  40.20900 47.10000 24.58900
H  41.48200 46.96500 23.36900
H  41.79000 47.97600 24.76800
H  40.95800 45.40100 29.70400
H  43.59400 47.09400 32.60500
H  42.36100 48.32000 32.49300
H  43.89000 48.35400 31.51500
Mg -11.38100 37.69700 42.31700
C  -9.15700 35.05000 41.45000
C  -9.27700 39.92700 40.86400
C  -13.98000 39.99500 42.05700
C  -13.71300 35.14600 43.02500
N  -9.62500 37.43500 41.21000
C  -8.87000 36.29500 40.92800
C  -7.68000 36.53600 40.06600
C  -7.53000 38.09600 40.18400
C  -8.89300 38.55100 40.81600
C  -6.25000 38.52600 40.96500
C  -7.93900 36.08500 38.59900
C  -6.85600 35.17400 38.02400
H  -6.13300 35.68500 36.72500
N  -11.47500 39.86400 41.90100
C  -10.51900 40.54800 41.24400
C  -10.92700 41.90800 41.27800
C  -12.34200 41.87600 41.38500
C  -12.69800 40.55500 41.81500
C  -10.00700 43.02900 40.94500
C  -13.25700 43.02400 41.09600
O  -12.77000 44.14200 40.93200
C  -14.66000 42.93700 41.07300
N  -13.45600 37.60600 42.59600
C  -14.29600 38.72600 42.58700
C  -15.66600 38.33500 43.15600
C  -15.64700 36.80100 43.41600
C  -14.17600 36.48000 43.01000
C  -16.28400 39.14500 44.33300
C  -16.69600 35.95600 42.61200
C  -17.35200 34.82100 43.37400
N  -11.43600 35.50600 42.33300
C  -12.41800 34.68400 42.67400
C  -11.95100 33.34000 42.75900
C  -10.62500 33.40800 42.28400
C  -10.38900 34.76400 41.99600
C  -12.70100 32.16600 43.39600
C  -9.39100 32.69200 41.97100
O  -9.16300 31.49000 42.11300
C  -8.40900 33.72800 41.38900
C  -7.24300 33.77200 42.32600
O  -6.07500 33.80300 42.02700
O  -7.69800 33.90000 43.62500
C  -6.74200 34.09600 44.69800
H  -8.53800 40.65100 40.51600
H  -14.92600 40.53100 41.95700
H  -14.43900 34.36500 43.26100
H  -6.81200 36.02400 40.48100
H  -7.42600 38.56000 39.20300
H  -5.40300 37.87000 40.76000
H  -6.38300 38.55300 42.04600
H  -5.88600 39.50100 40.64200
H  -8.01700 36.98000 37.98200
H  -8.94000 35.65500 38.60200
H  -7.23400 34.23000 37.63100
H  -5.98200 35.05800 38.66500
H  -10.33100 43.61400 40.08400
H  -8.98300 42.70000 40.76800
H  -9.82200 43.76000 41.73200
H  -15.07300 43.89200 40.74900
H  -14.84400 42.80000 42.13800
H  -15.01000 42.06700 40.51700
H  -16.39200 38.55200 42.37200
H  -15.63400 36.65300 44.49600
H  -16.97200 38.50800 44.88900
H  -16.96500 39.88600 43.91600
H  -15.55400 39.57700 45.01700
H  -16.17700 35.58800 41.72700
H  -17.52800 36.60400 42.33500
H  -18.43800 34.90800 43.39200
H  -16.99700 34.86700 44.40400
H  -17.08000 33.87000 42.91600
H  -12.95300 31.37700 42.68700
H  -13.59700 32.54400 43.88700
H  -12.02800 31.63800 44.07200
H  -7.96900 33.45800 40.42900
H  -7.01200 34.89200 45.39300
H  -5.77400 34.40600 44.30500
H  -6.72000 33.12000 45.18200

