158

Mg 54.94600 23.47600 44.39500
C  52.31000 25.89100 43.42000
C  52.62600 21.09500 43.51800
C  57.48600 21.52100 44.50400
C  56.97300 26.30600 45.00800
N  52.72200 23.55300 43.50800
C  51.93500 24.58700 43.12200
C  50.53900 24.09300 42.66100
C  50.49700 22.65500 43.33600
C  52.03600 22.38100 43.51600
C  49.70700 22.53200 44.80800
C  50.46400 24.04600 41.10700
C  49.01800 24.51000 40.63300
H  48.67200 24.43500 39.12300
N  55.12700 21.56900 44.12600
C  54.02800 20.74200 43.69500
C  54.57300 19.44800 43.46100
C  56.01800 19.51700 43.71700
C  56.29200 20.92400 44.10500
C  53.73600 18.24200 43.14300
C  56.91500 18.28700 43.79800
O  56.44400 17.18700 43.54000
C  58.41900 18.47000 44.04300
N  56.91500 23.83900 44.78700
C  57.84000 22.82100 44.88800
C  59.27800 23.28200 44.99900
C  59.06400 24.85000 44.75400
C  57.56300 25.00700 44.90300
C  59.95100 23.03800 46.42100
C  59.65700 25.28400 43.35600
C  60.45700 26.54000 43.28700
N  54.70100 25.61400 44.45400
C  55.56400 26.59100 44.80900
C  54.91200 27.89500 44.70900
C  53.67700 27.60500 44.16200
C  53.58700 26.22300 44.01600
C  55.51200 29.23400 45.10200
C  52.45400 28.28900 43.78400
O  52.17200 29.48000 43.99400
C  51.56500 27.17900 43.15000
C  51.47800 27.42000 41.67400
O  52.42200 27.45800 40.92000
O  50.19100 27.72200 41.28700
C  50.13500 27.95100 39.85600
H  51.93100 20.30800 43.21900
H  58.35900 20.86700 44.45100
H  57.71000 27.10800 44.93300
H  49.72700 24.65900 43.11900
H  50.03700 21.88700 42.71500
H  50.37200 22.19500 45.60300
H  48.78700 21.95700 44.70200
H  49.61400 23.57700 45.10300
H  50.40700 22.99200 40.83200
H  51.24300 24.54100 40.52600
H  48.87500 25.49800 41.07000
H  48.35300 23.88700 41.23000
H  52.72900 18.55700 42.87100
H  53.71900 17.49100 43.93300
H  54.20800 17.78800 42.27200
H  58.88600 19.27900 43.48200
H  58.83900 17.47900 43.86800
H  58.49500 18.68900 45.10800
H  59.86500 22.95100 44.14200
H  59.45200 25.50700 45.53300
H  60.91500 23.51100 46.23200
H  60.04800 21.96200 46.56500
H  59.48700 23.57800 47.24600
H  58.86700 25.41300 42.61600
H  60.18200 24.43600 42.91600
H  61.44800 26.30500 42.90000
H  60.54500 26.95000 44.29300
H  59.94100 27.26400 42.65600
H  56.05700 29.09500 46.03500
H  54.64000 29.86800 45.25900
H  56.17100 29.47200 44.26600
H  50.56200 27.19100 43.57600
H  49.07100 27.91200 39.62300
H  50.59200 27.18200 39.23400
H  50.44400 28.95800 39.57500
Mg 48.57600 45.23800 43.35600
C  45.39400 45.60200 41.81000
C  49.13000 42.61800 41.11900
C  51.94600 45.32000 43.90200
C  48.16100 48.47300 44.61700
N  47.39700 44.33300 41.63500
C  46.14800 44.60000 41.20200
C  45.69500 43.65700 40.12300
C  46.74200 42.51800 40.14500
C  47.88700 43.18400 41.02600
C  46.31500 41.15600 40.65900
C  45.47500 44.28400 38.65200
C  44.10100 43.90700 37.98900
H  44.24300 43.18000 36.65900
N  50.23100 43.95200 42.83300
C  50.20700 42.98300 41.94300
C  51.50200 42.28200 41.95200
C  52.36300 43.04100 42.80300
C  51.51700 44.15400 43.27900
C  51.78100 41.06000 41.16100
C  53.84500 42.73000 43.06700
O  54.36600 41.77100 42.52700
C  54.71100 43.63100 43.99100
N  49.87000 46.63500 44.16700
C  51.22200 46.43700 44.40000
C  51.83100 47.58300 45.07100
C  50.59300 48.59100 45.37500
C  49.49400 47.87400 44.63100
C  52.75700 47.37400 46.26000
C  50.84100 50.09400 45.10900
C  51.98700 50.68900 45.85800
N  47.03200 46.67700 43.46600
C  47.00300 47.92600 44.01000
C  45.62800 48.41000 44.04000
C  44.94900 47.51600 43.16300
C  45.84300 46.47400 42.84500
C  45.18300 49.61700 44.82500
C  43.72300 47.23200 42.60100
O  42.68500 47.84200 42.65300
C  43.93100 46.01400 41.67200
C  42.90400 45.03100 42.06800
O  41.77900 44.86700 41.50600
O  43.23600 44.49700 43.34800
C  42.19800 43.85700 44.17500
H  49.18800 41.77500 40.42700
H  52.99800 45.30800 44.19200
H  47.99000 49.49800 44.95400
H  44.74500 43.31400 40.53300
H  47.09600 42.39900 39.12100
H  46.32400 40.38300 39.89100
H  45.25300 41.20200 40.90000
H  46.82200 40.75900 41.53900
H  46.30800 44.26200 37.94900
H  45.42200 45.36000 38.82000
H  43.56800 44.82200 37.73100
H  43.45200 43.28300 38.60400
H  50.94000 40.54400 40.69700
H  52.24200 40.34300 41.83900
H  52.55300 41.35600 40.45100
H  54.25000 43.74000 44.97300
H  54.86800 44.60300 43.52400
H  55.64600 43.08200 44.10400
H  52.42500 47.98400 44.25000
H  50.35300 48.48400 46.43200
H  53.49200 48.17800 46.28900
H  53.48500 46.56400 46.21200
H  52.27700 47.42200 47.23700
H  49.99700 50.75600 45.30400
H  51.02500 50.23100 44.04300
H  51.72200 51.71100 46.12900
H  52.89000 50.92400 45.29400
H  52.32100 50.03600 46.66400
H  45.93500 49.86600 45.57400
H  44.22200 49.37100 45.27500
H  45.09200 50.50900 44.20500
H  43.67900 46.33800 40.66200
H  42.51200 42.83700 44.39500
H  41.20200 43.82200 43.73500
H  42.11100 44.43400 45.09600

