158

Mg 8.59600 3.73800 26.84700
C  10.09300 2.03800 29.63100
C  6.69800 5.42700 29.09400
C  6.93500 4.93500 24.31100
C  10.38400 1.63400 24.78400
N  8.40300 3.63800 29.14500
C  9.15300 3.01800 30.05500
C  8.81400 3.57500 31.50600
C  7.58700 4.45700 31.28400
C  7.54800 4.47000 29.70600
C  6.25500 3.97700 31.97800
C  9.89800 4.37400 32.15900
C  9.66400 4.46200 33.68600
H  10.79600 4.58400 34.64700
N  7.21000 5.27300 26.70700
C  6.50200 5.78900 27.74900
C  5.40900 6.60500 27.20100
C  5.59100 6.53000 25.79200
C  6.61800 5.55100 25.51800
C  4.48100 7.39400 28.07000
C  4.88200 7.37700 24.72100
O  5.23100 7.35200 23.54300
C  3.72200 8.27700 25.05500
N  8.68800 3.30100 24.80700
C  7.90400 3.93700 23.92900
C  8.13400 3.46000 22.47700
C  9.31300 2.50800 22.69600
C  9.53600 2.52300 24.16500
C  6.83200 2.90800 21.85600
C  10.53200 2.67700 21.70400
C  11.32500 1.45100 21.20900
N  9.91400 2.13500 27.07600
C  10.65800 1.42900 26.13100
C  11.48400 0.42600 26.78000
C  11.24100 0.64400 28.15700
C  10.29800 1.68300 28.32200
C  12.32200 -0.60900 26.12300
C  11.71800 0.23800 29.40200
O  12.47700 -0.64900 29.80100
C  11.14100 1.26800 30.43800
C  10.58900 0.47100 31.60000
O  9.59200 -0.12900 31.43500
O  11.18100 0.78200 32.82700
C  10.57900 0.19700 34.07600
H  5.98900 5.80200 29.83500
H  6.31300 5.20800 23.45500
H  10.89900 0.99800 24.06100
H  8.53800 2.67700 32.05800
H  7.74900 5.49700 31.56700
H  5.84000 4.61300 32.76000
H  6.44500 3.01100 32.44800
H  5.49800 3.86100 31.20300
H  10.02000 5.26300 31.54000
H  10.87500 3.90800 32.02700
H  8.97800 3.67900 34.00800
H  9.09700 5.38300 33.82500
H  4.45000 8.42700 27.72500
H  4.76800 7.36500 29.12100
H  3.51900 6.95100 27.81400
H  2.98000 7.88400 25.75000
H  3.25300 8.59200 24.12300
H  4.08100 9.24200 25.41200
H  8.42900 4.31600 21.87000
H  8.87300 1.53700 22.46800
H  6.16500 2.62600 22.67100
H  7.02400 1.99700 21.28900
H  6.26700 3.60400 21.23600
H  11.16500 3.37800 22.24700
H  10.30200 3.14100 20.74500
H  11.30900 1.50800 20.12100
H  11.07000 0.48100 21.63500
H  12.37400 1.51400 21.50100
H  13.17600 -0.74300 26.78800
H  12.60900 -0.25000 25.13500
H  11.74500 -1.53300 26.16500
H  11.95100 1.92900 30.74700
H  10.25700 1.05700 34.66200
H  11.22400 -0.29800 34.80200
H  9.70000 -0.41500 33.87400
Mg 1.30700 42.65000 26.80800
C  2.63600 42.44400 30.07800
C  -1.73100 41.88300 28.14700
C  0.26300 42.36600 23.78200
C  4.64000 43.24800 25.66100
N  0.50200 42.42400 28.86300
C  1.22500 42.45300 30.00900
C  0.25000 42.26400 31.21200
C  -0.96700 41.66600 30.57100
C  -0.75100 42.06900 29.13200
C  -1.21900 40.16900 30.79600
C  0.06000 43.59300 31.92500
C  0.36200 43.72100 33.47200
H  0.14500 42.60000 34.44100
N  -0.52000 42.37000 26.02400
C  -1.68300 42.04300 26.73700
C  -2.77600 41.82100 25.80700
C  -2.20200 41.95300 24.51100
C  -0.77900 42.21400 24.74300
C  -4.19700 41.63900 26.20900
C  -2.78300 41.63600 23.12800
O  -2.11100 41.63200 22.09800
C  -4.20700 41.07800 23.02700
N  2.37000 42.65300 25.03800
C  1.66100 42.57300 23.85800
C  2.58300 42.53600 22.63700
C  3.88900 43.07000 23.22900
C  3.62600 43.05900 24.76700
C  2.60600 41.13200 22.00100
C  4.55800 44.44600 22.71100
C  3.65900 45.72200 22.54600
N  3.25700 42.91100 27.65900
C  4.55800 43.13400 27.04100
C  5.55900 43.17300 28.04800
C  4.87500 42.82100 29.28200
C  3.49900 42.66000 28.94900
C  6.98800 43.60500 27.97500
C  5.03300 42.62200 30.73300
O  6.07400 42.57000 31.41000
C  3.50400 42.50700 31.31300
C  3.53600 41.25000 32.20000
O  3.45100 40.08400 31.83500
O  3.62600 41.66000 33.48700
C  3.89000 40.63400 34.52100
H  -2.64300 41.49700 28.60600
H  -0.02000 42.33200 22.72800
H  5.58800 43.50700 25.18500
H  0.69200 41.57400 31.93000
H  -1.92600 42.12600 30.81100
H  -0.45500 39.69500 31.41300
H  -1.33000 39.62900 29.85600
H  -2.10500 40.12900 31.43000
H  -0.99100 43.88100 31.89600
H  0.45400 44.40100 31.30900
H  -0.24100 44.51500 33.91200
H  1.41800 43.98600 33.42200
H  -4.44400 40.57900 26.16200
H  -4.96500 42.18300 25.65800
H  -4.18400 41.95600 27.25200
H  -4.45700 40.67900 22.04400
H  -4.85400 41.92500 23.25700
H  -4.28000 40.38800 23.86700
H  2.15000 43.25800 21.94400
H  4.52900 42.18900 23.18000
H  1.84400 40.51800 22.48100
H  3.56700 40.61900 22.04200
H  2.39100 41.32200 20.95000
H  5.27700 44.28000 21.90800
H  5.19700 44.68500 23.56100
H  3.93600 46.36300 23.38400
H  2.60000 45.50300 22.68700
H  3.84000 46.22800 21.59800
H  7.16800 44.01300 26.98100
H  7.69800 42.84400 28.29800
H  7.05600 44.55400 28.50700
H  3.35000 43.47900 31.78100
H  4.67000 39.94600 34.19600
H  2.94600 40.09200 34.57200
H  4.09000 41.06200 35.50300

