158

Mg -1.97000 18.05900 26.96600
C  -2.26300 15.95900 29.79200
C  -2.65900 20.79400 29.22600
C  -1.66200 20.11800 24.52100
C  -2.12900 15.23300 24.85300
N  -2.32400 18.31700 29.21700
C  -2.37500 17.32400 30.16400
C  -2.60900 17.83300 31.54600
C  -2.97900 19.27700 31.25500
C  -2.60800 19.50500 29.78400
C  -4.45500 19.65500 31.58600
C  -1.45200 17.70400 32.66700
C  -2.01100 17.11200 33.92600
H  -1.01000 16.73800 35.02200
N  -2.06200 20.11300 26.92800
C  -2.36200 21.07400 27.88100
C  -2.16600 22.42700 27.37700
C  -1.76700 22.19700 26.04100
C  -1.79400 20.79000 25.78300
C  -2.47000 23.72000 28.11900
C  -1.43000 23.30400 24.95900
O  -1.12000 22.98200 23.78500
C  -1.40000 24.72200 25.33500
N  -2.15400 17.69600 24.90000
C  -1.88400 18.79100 24.12000
C  -1.74700 18.30900 22.64500
C  -2.20000 16.77200 22.74100
C  -2.10400 16.49400 24.23100
C  -2.53700 19.05000 21.53700
C  -1.47400 15.83500 21.76100
C  -0.09500 15.28400 22.11200
N  -2.11900 15.98600 27.16200
C  -2.15900 14.98700 26.25100
C  -2.32700 13.68300 26.86400
C  -2.34200 13.97600 28.26900
C  -2.18500 15.41200 28.41800
C  -2.63100 12.40200 26.22400
C  -2.51200 13.45200 29.62000
O  -2.69000 12.28500 29.99100
C  -2.43900 14.71300 30.66900
C  -1.32000 14.51800 31.63300
O  -0.09400 14.69800 31.34000
O  -1.71400 13.98300 32.80400
C  -0.68100 13.77100 33.88200
H  -2.90100 21.64600 29.86600
H  -1.36800 20.65200 23.61500
H  -1.92900 14.35900 24.22900
H  -3.46000 17.29500 31.96300
H  -2.35200 19.97100 31.81500
H  -4.55900 20.34300 32.42600
H  -5.03300 18.74900 31.76400
H  -4.88100 20.10400 30.68900
H  -1.08200 18.69400 32.93300
H  -0.64300 17.08200 32.28500
H  -2.67200 16.26900 33.72400
H  -2.58000 17.92600 34.37600
H  -1.57400 24.33600 28.20300
H  -2.89800 23.56100 29.10800
H  -3.30400 24.16000 27.57200
H  -0.59200 25.08600 25.97000
H  -2.40600 24.82200 25.74200
H  -1.39200 25.35500 24.44800
H  -0.66900 18.19200 22.53200
H  -3.26800 16.68000 22.54600
H  -3.06000 19.92200 21.92800
H  -3.29400 18.39700 21.10100
H  -1.74000 19.42600 20.89600
H  -1.25300 16.38600 20.84700
H  -2.12500 14.98600 21.55000
H  0.45600 15.72900 22.94000
H  0.45800 15.30000 21.17300
H  -0.15200 14.22700 22.37100
H  -3.62800 12.43100 25.78500
H  -2.65200 11.61600 26.97900
H  -1.84900 12.15200 25.50700
H  -3.30400 14.86600 31.31400
H  -1.20100 13.81900 34.83900
H  0.18100 14.42400 33.74800
H  -0.21500 12.79000 33.78900
Mg 24.62900 -4.64100 46.26400
C  26.61800 -1.99000 44.76700
C  22.11400 -3.65100 44.13900
C  22.93900 -7.43600 47.06400
C  27.52700 -5.67700 47.79700
N  24.41100 -2.97100 44.67200
C  25.28100 -1.99000 44.28500
C  24.92200 -1.39100 43.00300
C  23.42200 -1.64900 42.98100
C  23.29900 -2.85000 43.97200
C  22.51900 -0.42300 43.36400
C  25.70400 -1.84900 41.80600
C  26.21700 -0.78600 40.82300
H  25.37700 -0.57900 39.53300
N  22.69700 -5.52500 45.69900
C  21.85300 -4.91400 44.80900
C  20.72300 -5.75400 44.58200
C  20.93800 -6.88900 45.35800
C  22.17900 -6.66500 46.14000
C  19.62800 -5.48400 43.51400
C  19.96400 -8.13700 45.40000
O  18.98500 -8.15900 44.65500
C  20.10100 -9.19100 46.39800
N  25.18300 -6.44800 47.04500
C  24.31000 -7.39400 47.51000
C  25.05900 -8.47400 48.25600
C  26.39600 -7.76900 48.71600
C  26.39800 -6.56600 47.77700
C  24.22800 -9.05000 49.42600
C  27.73300 -8.57400 48.52400
C  28.64900 -8.60800 49.73600
N  26.60300 -3.95500 46.42700
C  27.64300 -4.48700 47.15100
C  28.74200 -3.51000 47.09400
C  28.38600 -2.64000 46.10500
C  27.11300 -2.97000 45.68100
C  29.99800 -3.48700 47.89300
C  28.93600 -1.51600 45.39900
O  30.04400 -0.97500 45.44500
C  27.81800 -1.18900 44.35400
C  27.56800 0.27700 44.45500
O  27.05500 0.80100 45.39300
O  27.97800 0.89100 43.33600
C  27.72300 2.34700 43.22400
H  21.25900 -3.22500 43.61100
H  22.37900 -8.24300 47.54100
H  28.38200 -5.95400 48.41700
H  25.09500 -0.33800 43.22200
H  23.16600 -2.11700 42.03000
H  23.05100 0.35200 43.91500
H  21.60900 -0.78100 43.84600
H  22.21400 -0.03700 42.39100
H  25.08300 -2.50800 41.19900
H  26.48300 -2.57200 42.04900
H  27.24700 -0.90300 40.48800
H  26.25700 0.13200 41.40900
H  19.62400 -6.34800 42.84900
H  19.91800 -4.60600 42.93700
H  18.57500 -5.41600 43.78700
H  19.45500 -10.04800 46.20700
H  19.79500 -8.78900 47.36400
H  21.12300 -9.53900 46.54200
H  25.31400 -9.20200 47.48600
H  26.27200 -7.40400 49.73500
H  23.27700 -8.51800 49.44600
H  24.87100 -8.93000 50.29800
H  24.09600 -10.10900 49.20200
H  28.26400 -8.06300 47.72000
H  27.49100 -9.59400 48.22600
H  28.77400 -9.63600 50.07500
H  28.21900 -7.93500 50.47800
H  29.60900 -8.26400 49.35100
H  30.02800 -4.41200 48.46900
H  30.04300 -2.66600 48.60800
H  30.86300 -3.51300 47.23000
H  28.13800 -1.24200 43.31400
H  28.56200 2.77300 43.77500
H  26.83300 2.70100 43.74400
H  27.70300 2.60600 42.16600

