158

Mg 6.95500 2.24700 27.69000
C  8.76200 1.06700 30.26200
C  5.02200 4.23300 29.72400
C  5.43600 3.52300 24.84800
C  8.39900 -0.27900 25.60600
N  6.81100 2.52400 29.81500
C  7.80200 2.05500 30.61700
C  7.64100 2.51600 32.01100
C  6.33400 3.44400 31.84800
C  6.00400 3.41800 30.37900
C  5.19300 2.90000 32.83900
C  8.87500 3.32300 32.52600
C  8.67700 4.11100 33.85200
H  9.77700 3.84900 34.84600
N  5.35000 3.63300 27.35300
C  4.75600 4.40300 28.34100
C  3.90500 5.36000 27.65700
C  3.99900 5.14200 26.26400
C  4.94800 4.02700 26.09700
C  3.04500 6.25500 28.42800
C  3.22100 5.81500 25.11100
O  3.31300 5.51300 23.95600
C  2.08500 6.73700 25.42100
N  6.62800 1.49800 25.55300
C  6.32800 2.43100 24.63200
C  6.81200 1.97900 23.15400
C  7.61800 0.66600 23.44400
C  7.51600 0.57900 24.97600
C  5.69000 1.79100 22.09800
C  9.03000 0.76700 22.80400
C  9.39000 -0.48200 22.03100
N  8.24000 0.59900 27.88500
C  8.77200 -0.29400 26.95000
C  9.70700 -1.14200 27.61300
C  9.74600 -0.69600 28.94300
C  8.87400 0.42700 29.03300
C  10.45700 -2.28600 26.96200
C  10.29400 -0.82900 30.32100
O  11.14100 -1.60600 30.75300
C  9.79000 0.33800 31.17100
C  9.17000 -0.37000 32.38300
O  8.43800 -1.34900 32.29000
O  9.57800 0.22900 33.54500
C  9.25700 -0.39600 34.78300
H  4.65200 5.01800 30.38700
H  5.09200 4.02500 23.94100
H  8.73700 -1.05000 24.91100
H  7.36700 1.66400 32.63400
H  6.62100 4.47800 32.04200
H  5.00100 3.51200 33.72100
H  5.45700 1.93400 33.27000
H  4.28800 2.78700 32.24300
H  9.14100 4.00400 31.71700
H  9.74000 2.67200 32.64900
H  7.73800 3.86400 34.34700
H  8.56400 5.13400 33.49300
H  3.49200 6.46400 29.40000
H  2.07200 5.79500 28.60000
H  2.93900 7.15200 27.81800
H  1.40000 6.98500 24.61100
H  2.53800 7.69600 25.67100
H  1.49200 6.30400 26.22600
H  7.45600 2.83200 22.94000
H  7.05800 -0.15200 22.99100
H  4.77200 1.62800 22.66400
H  5.99000 0.98200 21.43200
H  5.50600 2.72900 21.57300
H  9.88200 0.84400 23.47800
H  9.11800 1.64700 22.16700
H  10.05700 -0.22800 21.20800
H  8.53700 -1.07700 21.70300
H  9.85500 -1.13600 22.76900
H  10.61900 -1.99000 25.92500
H  9.79300 -3.14500 27.05800
H  11.33700 -2.47400 27.57800
H  10.57700 1.00600 31.51900
H  10.20000 -0.70600 35.23200
H  8.48400 -1.16500 34.79900
H  8.85100 0.41200 35.39100
Mg 47.24600 16.47400 29.49200
C  45.39800 15.97800 32.48100
C  49.37800 18.41500 31.40500
C  48.88000 17.30800 26.72500
C  44.50200 15.13600 27.64900
N  47.50100 16.97000 31.77000
C  46.63300 16.65000 32.72100
C  47.11500 17.11700 34.15500
C  48.34900 18.03200 33.71800
C  48.41800 17.82800 32.16400
C  48.14200 19.54200 34.11500
C  47.62800 15.97800 34.97700
C  47.03700 15.77600 36.36100
H  47.27200 16.95400 37.32400
N  49.00300 17.43900 29.16900
C  49.66800 18.25400 30.07900
C  50.85500 18.68200 29.47000
C  50.84900 18.32900 28.05800
C  49.53300 17.65600 27.89800
C  51.90400 19.43800 30.22600
C  51.90000 18.56300 26.91900
O  51.68200 18.15300 25.75500
C  53.18300 19.26400 27.16400
N  46.60900 16.48100 27.50200
C  47.59000 16.75200 26.51000
C  47.06600 16.48400 25.07500
C  45.75900 15.66200 25.45900
C  45.62800 15.66700 26.94200
C  46.81900 17.74700 24.24500
C  45.68400 14.22200 24.87100
C  46.35200 13.11400 25.72500
N  45.29800 15.68200 29.91700
C  44.35200 15.09700 29.06600
C  43.33400 14.59800 29.88400
C  43.65400 14.90200 31.18400
C  44.89500 15.55100 31.13800
C  42.07900 13.96200 29.40100
C  43.23600 14.74800 32.54800
O  42.23000 14.29100 33.06200
C  44.35900 15.44300 33.41700
C  43.66200 16.53600 34.18800
O  43.37100 17.65900 33.71900
O  43.63900 16.16100 35.51700
C  43.25500 17.21400 36.51200
H  49.93100 19.13700 32.01000
H  49.43700 17.35400 25.78600
H  43.73900 14.58900 27.09100
H  46.32400 17.53400 34.77800
H  49.30500 17.73600 34.15000
H  49.04300 19.94900 34.57300
H  47.32400 19.72200 34.81300
H  47.90300 19.97000 33.14200
H  48.71600 15.90900 34.99800
H  47.41000 15.01500 34.51600
H  47.23400 14.76700 36.72300
H  45.95200 15.67900 36.32400
H  52.80300 18.82300 30.26700
H  51.64200 19.63200 31.26600
H  52.17800 20.34900 29.69500
H  53.81500 19.22500 26.27600
H  53.57800 18.86800 28.09900
H  52.88400 20.31000 27.23100
H  47.75700 15.82400 24.55000
H  44.92600 16.19600 25.00100
H  45.93600 18.26200 24.62400
H  46.68700 17.55000 23.18100
H  47.69300 18.35600 24.47600
H  46.14100 14.19400 23.88200
H  44.64600 13.95100 24.67800
H  46.70600 13.44900 26.70100
H  47.28900 12.76800 25.28800
H  45.70100 12.24600 25.81900
H  41.88400 14.32800 28.39300
H  41.22800 14.24800 30.01800
H  42.22600 12.88300 29.43200
H  44.68500 14.71300 34.15700
H  43.86400 18.09500 36.30700
H  43.48900 16.86500 37.51700
H  42.18200 17.37100 36.39800

