158

Mg -12.30800 38.75400 42.16000
C  -10.01900 36.40700 40.85200
C  -10.60500 41.13700 40.68500
C  -14.93500 40.81300 42.67200
C  -14.33100 36.03300 43.25300
N  -10.50700 38.70400 40.90100
C  -9.74700 37.71400 40.47000
C  -8.63100 38.17300 39.60000
C  -8.59200 39.69700 40.01400
C  -10.03900 39.87900 40.51700
C  -7.42700 40.08600 40.97400
C  -9.03300 37.74700 38.12400
C  -7.94600 37.08500 37.30700
H  -7.30400 37.77200 36.18200
N  -12.65500 40.73200 41.79500
C  -11.81400 41.54200 41.22000
C  -12.26000 42.91900 41.40500
C  -13.54300 42.84700 41.95700
C  -13.77800 41.42900 42.18600
C  -11.40300 44.13700 41.03000
C  -14.40900 44.05600 42.22900
O  -14.12300 45.18300 41.79600
C  -15.68900 44.01100 42.90500
N  -14.40400 38.45300 42.73600
C  -15.20400 39.47300 43.03600
C  -16.60700 39.03600 43.59600
C  -16.28300 37.53800 43.74000
C  -14.91300 37.30200 43.25000
C  -17.02800 39.80000 44.88000
C  -17.49900 36.71700 43.14400
C  -17.34100 36.29600 41.73300
N  -12.26900 36.64900 42.01100
C  -13.08200 35.70100 42.62300
C  -12.53500 34.38900 42.36400
C  -11.38000 34.63800 41.62500
C  -11.22300 36.03200 41.52300
C  -12.85500 33.05000 42.88600
C  -10.24100 33.98700 40.94100
O  -10.01500 32.79300 40.87200
C  -9.27000 35.13300 40.44800
C  -7.93100 34.88900 41.14500
O  -7.78200 34.98600 42.34200
O  -6.91500 34.60500 40.25700
C  -5.64800 34.07400 40.83400
H  -9.90900 41.91100 40.35600
H  -15.72500 41.53100 42.90100
H  -14.86000 35.15100 43.62100
H  -7.73000 37.69000 39.97900
H  -8.51600 40.24700 39.07700
H  -6.51300 39.49200 40.97700
H  -7.90400 40.19100 41.94900
H  -7.03800 41.02500 40.58000
H  -9.31800 38.61700 37.53300
H  -9.85600 37.04100 38.23300
H  -8.45500 36.19900 36.92800
H  -7.23700 36.76700 38.07200
H  -11.92000 44.46200 40.12700
H  -10.34100 43.96800 40.85300
H  -11.36000 44.98800 41.71000
H  -16.52800 43.76200 42.25500
H  -15.94200 44.92800 43.43700
H  -15.60000 43.37900 43.78900
H  -17.38000 39.18600 42.84200
H  -16.29700 37.25100 44.79200
H  -17.65600 40.65000 44.61600
H  -16.24500 40.23800 45.49900
H  -17.66600 39.13600 45.46200
H  -18.34200 37.40300 43.22300
H  -17.52400 35.81500 43.75600
H  -17.63700 35.24700 41.73400
H  -16.28400 36.32700 41.46800
H  -17.94900 36.85300 41.02000
H  -13.91400 32.95800 43.12900
H  -12.30700 32.81800 43.79900
H  -12.58200 32.31300 42.13200
H  -9.12000 34.99200 39.37700
H  -5.80900 33.49100 41.74000
H  -4.86200 34.79900 41.04500
H  -5.20500 33.30300 40.20300
Mg 0.35100 43.63000 25.60300
C  2.25200 43.71100 28.43400
C  -2.37600 42.80900 27.68000
C  -1.40200 43.08400 22.93600
C  3.24300 44.29700 23.67700
N  -0.05300 43.45700 27.82100
C  0.87300 43.61900 28.76800
C  0.27000 43.54900 30.19100
C  -1.20800 43.13600 29.90100
C  -1.21000 43.12400 28.36200
C  -1.61200 41.76800 30.61700
C  0.38100 44.81100 31.07500
C  0.66400 44.71300 32.59400
H  0.22500 43.32300 33.33400
N  -1.65800 43.08600 25.35600
C  -2.65900 42.87100 26.30000
C  -3.88900 42.45900 25.58400
C  -3.56900 42.44400 24.13700
C  -2.13700 42.82500 24.08900
C  -5.13000 41.87000 26.23300
C  -4.53400 42.04700 23.03500
O  -4.18000 42.11600 21.85000
C  -5.92700 41.52400 23.29100
N  0.85400 43.84200 23.58800
C  -0.09000 43.44800 22.67400
C  0.43500 43.53400 21.23000
C  1.84100 44.18100 21.51900
C  2.02500 44.12500 22.98900
C  0.59000 42.20200 20.54900
C  2.02700 45.65100 20.99000
C  1.53800 45.93200 19.54800
N  2.34700 43.84300 25.92600
C  3.39200 44.05600 25.04900
C  4.60600 44.08200 25.76600
C  4.24300 43.93000 27.11600
C  2.86200 43.76200 27.13400
C  5.99400 44.40900 25.18700
C  4.69800 43.88900 28.49800
O  5.86200 43.83000 28.86700
C  3.43500 43.74300 29.39700
C  3.62800 42.54400 30.25200
O  3.48900 41.34700 29.94400
O  4.02900 42.92900 31.45700
C  4.09900 41.94200 32.50200
H  -3.25700 42.44500 28.21400
H  -1.94700 42.94300 22.00000
H  4.17300 44.31400 23.10500
H  0.74900 42.72200 30.71600
H  -1.91400 43.91400 30.19200
H  -0.86200 41.38200 31.30700
H  -1.75700 41.12600 29.74800
H  -2.54400 41.84400 31.17600
H  -0.56100 45.35900 31.04500
H  1.08600 45.48900 30.59400
H  0.29100 45.57200 33.15100
H  1.74200 44.86800 32.58000
H  -5.92900 42.57600 26.00700
H  -5.06600 41.99600 27.31400
H  -5.18500 40.80000 26.03600
H  -5.73300 40.58800 23.81500
H  -6.50300 41.34100 22.38400
H  -6.55200 42.13600 23.94100
H  -0.10900 44.12300 20.49200
H  2.58600 43.46500 21.17200
H  0.14900 41.39900 21.13900
H  1.58400 41.93200 20.19000
H  -0.08900 42.33300 19.70600
H  3.09400 45.85700 20.90500
H  1.70100 46.41000 21.70100
H  1.26000 45.04100 18.98300
H  2.44700 46.33200 19.10000
H  0.72100 46.65400 19.54500
H  6.40900 45.19200 25.82200
H  5.88200 44.86100 24.20200
H  6.68200 43.56800 25.09400
H  3.39700 44.65600 29.99100
H  5.02200 41.44000 32.21200
H  3.25000 41.26400 32.40800
H  4.11900 42.49400 33.44200

