158

Mg 49.78200 46.10100 42.18000
C  46.58500 46.74600 41.08600
C  49.55600 42.84000 41.03500
C  53.20500 45.75000 42.27000
C  50.14400 49.71300 42.61100
N  48.25800 45.00000 41.21600
C  47.02200 45.47400 40.92500
C  46.34900 44.43700 40.06700
C  47.10400 43.16000 40.37700
C  48.39400 43.66100 40.92300
C  46.36600 42.06100 41.26600
C  46.44700 44.89500 38.58100
C  45.16300 44.61000 37.77500
H  45.26400 43.78800 36.50900
N  51.15500 44.47400 41.79300
C  50.85900 43.29400 41.32900
C  51.97800 42.44300 41.31400
C  53.03100 43.23400 41.68100
C  52.46300 44.55400 42.04300
C  51.96800 40.99700 40.77000
C  54.50300 42.72600 41.78700
O  54.71100 41.58800 41.35800
C  55.64700 43.59100 42.15800
N  51.44800 47.54200 42.45900
C  52.76800 47.08600 42.51700
C  53.70300 48.28100 42.63600
C  52.77800 49.55400 42.74500
C  51.34900 48.93100 42.54800
C  54.86300 48.19300 43.59300
C  53.10000 50.77300 41.74800
C  53.56600 52.08800 42.46200
N  48.66100 47.95000 41.92400
C  48.89400 49.24200 42.27100
C  47.62700 50.01300 42.16700
C  46.66400 49.04600 41.77700
C  47.36900 47.82500 41.55200
C  47.32400 51.46500 42.37600
C  45.20200 48.80300 41.43700
O  44.21900 49.49400 41.46100
C  45.22500 47.43300 40.82100
C  44.25000 46.56200 41.53800
O  44.45800 45.96600 42.60500
O  43.12500 46.36200 40.83400
C  42.14100 45.50900 41.54500
H  49.42900 41.79400 40.74700
H  54.28000 45.56000 42.23900
H  50.31300 50.76500 42.85000
H  45.30700 44.41700 40.38700
H  47.31100 42.60200 39.46400
H  45.93200 41.30900 40.60800
H  45.64000 42.47900 41.96400
H  47.19300 41.61500 41.82000
H  47.21900 44.23900 38.17700
H  46.77900 45.92300 38.43900
H  44.73700 45.56700 37.47300
H  44.48300 44.01400 38.38300
H  51.82800 40.81800 39.70400
H  51.17800 40.38800 41.20800
H  52.76900 40.39000 41.19100
H  55.82900 44.38700 41.43600
H  56.58800 43.04100 42.18400
H  55.32200 43.82500 43.17100
H  54.08800 48.28200 41.61600
H  52.78100 49.84800 43.79500
H  55.80800 47.93100 43.11700
H  54.64100 47.49400 44.40000
H  54.98800 49.16200 44.07700
H  52.35200 51.04300 41.00200
H  53.95100 50.39300 41.18200
H  54.64400 52.24900 42.48700
H  53.24800 52.15700 43.50300
H  52.99800 52.87200 41.96000
H  47.86300 51.73600 43.28300
H  46.25400 51.61300 42.51500
H  47.65300 52.10300 41.55500
H  44.91600 47.31700 39.78300
H  41.75000 45.99100 42.44100
H  42.57000 44.58700 41.93800
H  41.19800 45.43900 41.00300
Mg -11.70100 37.53900 42.44300
C  -9.33500 34.99000 41.66300
C  -9.56400 39.77100 40.85500
C  -14.05800 39.89700 42.43900
C  -13.74500 35.08300 43.66000
N  -9.69300 37.37700 41.35200
C  -8.97700 36.20600 41.06300
C  -7.73900 36.57200 40.24800
C  -7.71800 38.13100 40.18500
C  -9.14100 38.43400 40.81000
C  -6.39800 38.76000 40.85600
C  -7.86300 35.84600 38.89000
C  -6.67100 34.95600 38.39100
H  -5.66700 35.38700 37.26400
N  -11.71100 39.60900 41.92800
C  -10.72700 40.34200 41.36400
C  -11.12600 41.73000 41.32900
C  -12.49200 41.83600 41.70300
C  -12.79900 40.45500 42.03500
C  -10.29500 42.86000 40.84500
C  -13.35500 43.04400 41.87300
O  -12.79300 44.12300 41.67000
C  -14.78200 43.04200 42.34300
N  -13.67800 37.42800 42.83200
C  -14.47900 38.60500 42.78700
C  -15.88900 38.21200 43.25900
C  -15.79700 36.67700 43.67900
C  -14.35200 36.36700 43.36500
C  -16.44000 39.22600 44.28600
C  -16.89700 35.78700 42.94000
C  -18.04300 35.41800 43.82800
N  -11.62900 35.49900 42.65700
C  -12.49500 34.64200 43.27200
C  -11.91100 33.34200 43.46000
C  -10.70600 33.40300 42.80900
C  -10.56300 34.76600 42.33000
C  -12.53800 32.19500 44.15000
C  -9.50300 32.70700 42.46600
O  -9.06700 31.60400 42.72000
C  -8.55500 33.66700 41.65100
C  -7.24600 33.76900 42.26600
O  -6.23400 33.15600 41.96300
O  -7.11500 34.84700 43.14800
C  -5.77700 35.03100 43.75900
H  -8.89300 40.40400 40.27000
H  -14.84200 40.64500 42.57500
H  -14.37100 34.40000 44.23700
H  -6.84300 36.15300 40.70700
H  -7.68400 38.51800 39.16700
H  -5.84500 39.40000 40.16900
H  -5.72500 37.98400 41.21900
H  -6.79500 39.41600 41.63100
H  -7.95600 36.58700 38.09600
H  -8.81400 35.31600 38.96000
H  -7.18200 34.06500 38.02800
H  -6.16400 34.46500 39.22200
H  -9.52100 42.41000 40.22400
H  -9.83600 43.38200 41.68400
H  -10.84600 43.52900 40.18400
H  -15.34700 42.30100 41.77600
H  -14.97900 44.10600 42.21300
H  -14.67700 42.91300 43.42100
H  -16.50600 38.36900 42.37500
H  -15.88400 36.68000 44.76500
H  -16.51800 38.72600 45.25200
H  -17.41400 39.58600 43.95500
H  -15.89800 40.16600 44.38500
H  -16.32100 34.96500 42.51500
H  -17.36100 36.40400 42.17100
H  -19.01600 35.70400 43.42900
H  -18.09200 35.80500 44.84600
H  -18.02500 34.34600 44.02900
H  -13.44000 32.45700 44.70300
H  -11.76900 31.89300 44.86200
H  -12.71300 31.52100 43.31100
H  -8.42400 33.25200 40.65200
H  -5.04200 35.05500 42.95400
H  -5.45800 34.30500 44.50700
H  -5.84100 36.01600 44.22200

