158

Mg 26.24900 -0.09300 29.40300
C  28.12900 -0.61500 32.30800
C  23.51500 0.18700 31.31800
C  24.55400 0.06400 26.58300
C  29.20100 -0.88400 27.53300
N  25.85300 -0.47400 31.59700
C  26.84000 -0.35100 32.60400
C  26.23400 -0.23400 33.91400
C  24.70100 -0.04800 33.59000
C  24.63700 -0.08300 32.08300
C  23.68800 -1.04800 34.33400
C  26.96200 0.66400 34.97300
C  26.26500 1.04700 36.26500
H  26.57600 0.23500 37.51400
N  24.24300 0.10700 29.01400
C  23.28300 0.18300 29.93600
C  22.05600 0.45800 29.25800
C  22.24900 0.29300 27.84500
C  23.71000 0.12300 27.68300
C  20.76200 0.75200 30.06300
C  21.27800 0.24900 26.67100
O  21.52900 0.03300 25.49200
C  19.96700 0.56300 27.04600
N  26.82600 -0.35200 27.34400
C  25.89300 -0.18400 26.34100
C  26.52900 -0.16100 24.91200
C  28.05500 -0.18900 25.31300
C  28.07000 -0.49100 26.83000
C  26.11900 -1.30700 23.96600
C  28.93100 0.96500 24.97200
C  30.41700 0.73000 24.80700
N  28.33000 -0.66800 29.79400
C  29.35700 -0.98500 28.92700
C  30.51200 -1.28000 29.66200
C  30.10700 -1.04900 30.97200
C  28.75100 -0.71700 31.04800
C  31.77700 -1.74900 29.14500
C  30.57700 -1.11500 32.35500
O  31.73400 -1.30800 32.77800
C  29.32000 -0.77300 33.25100
C  29.21300 -1.83000 34.26900
O  28.60900 -2.91300 34.04000
O  29.83400 -1.51800 35.48200
C  29.75000 -2.49200 36.53500
H  22.62900 0.35300 31.93400
H  24.02000 0.09400 25.63000
H  30.05600 -0.93500 26.85500
H  26.35200 -1.21500 34.37300
H  24.31000 0.93600 33.84800
H  22.92100 -1.37500 33.63200
H  23.25800 -0.52100 35.18600
H  24.17400 -1.86600 34.86600
H  27.41300 1.58300 34.59900
H  27.87100 0.14400 35.27700
H  25.18100 1.11300 36.16600
H  26.48700 2.10300 36.41900
H  20.25500 1.55800 29.53200
H  21.04300 1.14700 31.03900
H  20.03500 -0.05800 30.12200
H  19.36500 0.53700 26.13800
H  19.87000 1.62000 27.29400
H  19.50400 -0.08100 27.79300
H  26.27800 0.81300 24.49000
H  28.52600 -1.08100 24.90000
H  25.41400 -1.95700 24.48500
H  26.95900 -1.83400 23.51400
H  25.49900 -0.93900 23.14900
H  28.95400 1.77400 25.70200
H  28.65700 1.51200 24.06900
H  30.62800 1.13000 23.81600
H  30.67100 -0.33000 24.76500
H  31.04200 1.15300 25.59300
H  32.26200 -2.17200 30.02400
H  32.42800 -1.09800 28.56100
H  31.43500 -2.53400 28.47000
H  29.60200 0.17300 33.71500
H  29.79200 -3.52400 36.18400
H  28.74900 -2.38400 36.95400
H  30.44500 -2.45700 37.37400
Mg 45.93200 34.14200 28.00400
C  44.51200 32.06200 30.50000
C  45.67200 36.83400 30.12900
C  47.17900 36.18600 25.65300
C  45.95800 31.40000 25.87900
N  45.10900 34.38400 30.04900
C  44.84000 33.38400 30.92800
C  44.87600 33.90000 32.36400
C  44.88400 35.49500 32.17400
C  45.21400 35.58800 30.70600
C  43.65500 36.29000 32.63600
C  46.06600 33.25400 33.23900
C  46.96800 34.18300 33.97800
H  46.58000 34.67500 35.38000
N  46.32300 36.19800 27.93600
C  46.15200 37.09500 28.90800
C  46.66300 38.40700 28.53200
C  47.21200 38.31100 27.22600
C  46.89600 36.85600 26.87100
C  46.60200 39.55500 29.46400
C  47.91100 39.43700 26.28700
O  48.23300 39.25200 25.10100
C  48.07700 40.81600 26.86000
N  46.33600 33.90500 25.95000
C  46.89600 34.88800 25.24800
C  47.45800 34.30800 23.86500
C  47.12500 32.76300 23.98400
C  46.41900 32.66600 25.33700
C  46.87700 34.94000 22.62500
C  48.28100 31.80500 23.90100
C  48.28200 31.00000 22.64900
N  45.28600 32.17900 28.05000
C  45.44600 31.17300 27.16700
C  44.83500 29.94600 27.68600
C  44.54100 30.19300 29.01600
C  44.77500 31.59800 29.17600
C  44.66900 28.53200 26.96700
C  44.09800 29.59700 30.30600
O  43.92200 28.44600 30.63400
C  43.81900 30.84100 31.22500
C  44.14300 30.49500 32.63800
O  45.09200 29.83600 33.04300
O  43.15800 31.07700 33.41100
C  43.27700 30.89400 34.83800
H  45.81200 37.52800 30.96000
H  47.74100 36.82700 24.97100
H  45.86800 30.59200 25.14900
H  43.94200 33.62200 32.85100
H  45.74900 35.91600 32.68800
H  43.86500 36.85900 33.54200
H  42.78300 35.64800 32.76200
H  43.42800 37.11000 31.95500
H  46.66200 32.57100 32.63200
H  45.69400 32.64100 34.06000
H  47.51400 34.93800 33.41100
H  47.79800 33.50800 34.18700
H  47.59600 39.99400 29.38600
H  46.30500 39.26300 30.47100
H  45.84200 40.30600 29.24700
H  47.10400 41.27400 27.03600
H  48.77000 41.38800 26.24400
H  48.65800 40.79300 27.78200
H  48.54300 34.38000 23.93700
H  46.34300 32.48100 23.27900
H  47.32200 35.93000 22.52800
H  45.83400 35.17800 22.83100
H  47.05100 34.26600 21.78600
H  48.25700 31.12100 24.74900
H  49.18800 32.39300 24.04100
H  49.24700 30.58000 22.36300
H  47.87300 31.72100 21.94200
H  47.55300 30.19100 22.70200
H  45.43200 28.54800 26.18800
H  43.76600 28.33300 26.39000
H  44.93300 27.76900 27.69900
H  42.74400 31.00300 31.15000
H  43.51000 29.87600 35.15000
H  42.29400 30.99200 35.29700
H  43.97600 31.60400 35.27900

