158

Mg 36.66800 49.79900 25.06400
C  36.63800 47.79300 28.02600
C  35.73800 52.34200 26.98400
C  36.46900 51.46800 22.33700
C  37.66100 46.87700 23.32900
N  36.02300 49.88900 27.26700
C  36.24400 49.06500 28.32500
C  35.96700 49.69700 29.66500
C  35.48700 51.10700 29.26200
C  35.74900 51.10400 27.70400
C  34.03000 51.49300 29.56800
C  37.16100 49.64300 30.72600
C  36.88000 49.16400 32.14700
H  35.41100 49.22200 32.69400
N  36.15800 51.74000 24.69300
C  35.89600 52.68200 25.60000
C  35.60300 53.89800 25.00600
C  35.78300 53.64400 23.58100
C  36.17200 52.25800 23.42800
C  35.03800 55.10700 25.78600
C  35.69600 54.56500 22.29300
O  35.86100 54.19600 21.16800
C  35.38200 55.98200 22.50600
N  36.72100 49.14200 23.07000
C  36.76900 50.05400 22.11200
C  36.87100 49.34600 20.79200
C  37.39100 47.89600 21.08700
C  37.20000 47.97000 22.60500
C  35.56500 49.42800 20.05200
C  38.87100 47.57900 20.57100
C  40.01700 48.56300 21.03500
N  37.11400 47.75400 25.50800
C  37.53600 46.67000 24.70600
C  37.83500 45.48600 25.50300
C  37.50600 45.90200 26.82800
C  37.06200 47.25500 26.74600
C  38.34700 44.18100 25.02500
C  37.56500 45.56300 28.19500
O  38.07900 44.57000 28.72700
C  36.93700 46.69900 28.97800
C  35.65500 46.22600 29.58400
O  34.59500 46.09600 29.04000
O  35.87000 45.89800 30.92300
C  34.63400 45.38300 31.56000
H  35.58500 53.20300 27.63700
H  36.43000 52.03600 21.40500
H  38.16300 46.12700 22.71400
H  35.09100 49.16400 30.03500
H  36.11600 51.89000 29.68600
H  33.56200 50.89900 30.35200
H  33.44500 51.46200 28.64800
H  34.04000 52.47600 30.03900
H  37.68000 50.59700 30.81800
H  38.01400 49.06600 30.36900
H  37.61300 49.74800 32.70300
H  37.21600 48.12800 32.17400
H  35.68000 55.88900 25.38100
H  35.21200 55.20700 26.85800
H  33.97900 55.30600 25.62200
H  36.25700 56.49800 22.90200
H  34.45900 56.20700 23.04100
H  35.27100 56.38300 21.49800
H  37.61300 49.88500 20.20400
H  36.79200 47.09900 20.64500
H  34.68700 49.36300 20.69500
H  35.53400 48.77900 19.17700
H  35.57000 50.40300 19.56400
H  38.97400 47.56000 19.48600
H  38.87700 46.52300 20.84100
H  40.61900 48.79300 20.15600
H  40.66500 47.88200 21.58500
H  39.68100 49.36500 21.69300
H  39.24800 44.43800 24.46800
H  37.53700 43.70600 24.47000
H  38.64000 43.50900 25.83200
H  37.42300 47.00100 29.90600
H  34.82400 45.27900 32.62900
H  34.33700 44.41900 31.14700
H  33.82100 46.08300 31.37000
Mg -3.99300 25.22500 24.90000
C  -3.07900 26.45600 28.06300
C  -6.02500 22.94200 26.39900
C  -4.44100 23.89400 21.95200
C  -1.75000 27.52200 23.55600
N  -4.50600 24.76000 27.03400
C  -4.02900 25.42400 28.16200
C  -4.76700 24.93100 29.37000
C  -5.50700 23.62200 28.87300
C  -5.43200 23.82600 27.34300
C  -4.96300 22.31300 29.46700
C  -5.54700 25.96300 30.22500
C  -5.38800 26.01400 31.74400
H  -4.89000 24.73400 32.45500
N  -5.14600 23.67300 24.23700
C  -5.88600 22.84800 24.97500
C  -6.56100 21.85100 24.17500
C  -5.98200 21.97500 22.86900
C  -5.18900 23.27600 22.96300
C  -7.47500 20.74700 24.64700
C  -6.22200 21.18800 21.55600
O  -5.72400 21.46400 20.46000
C  -7.08600 19.95000 21.52200
N  -3.27900 25.71200 23.03700
C  -3.57600 24.99900 21.96400
C  -2.68900 25.45600 20.82000
C  -2.28300 26.87800 21.15000
C  -2.42900 26.74600 22.65000
C  -1.48400 24.58500 20.66800
C  -3.04900 27.98600 20.48400
C  -2.22100 29.02500 19.76100
N  -2.63300 26.69400 25.56300
C  -1.81900 27.54800 24.93500
C  -1.05600 28.29000 25.88300
C  -1.59000 27.99000 27.14600
C  -2.59100 27.02600 26.85700
C  0.09300 29.18600 25.60600
C  -1.57600 28.28100 28.53300
O  -0.81700 29.07700 29.09200
C  -2.72300 27.36800 29.19800
C  -1.99400 26.71300 30.27900
O  -1.42900 25.63700 30.18400
O  -1.99900 27.42600 31.43800
C  -1.14000 26.98500 32.50500
H  -6.67300 22.22500 26.90600
H  -4.43000 23.30100 21.03600
H  -1.19600 28.33300 23.07800
H  -3.86900 24.59900 29.89100
H  -6.55700 23.61800 29.16800
H  -4.35700 22.46300 30.36000
H  -4.36600 21.75700 28.74500
H  -5.67600 21.56300 29.81000
H  -6.62400 25.85100 30.09500
H  -5.35700 26.99000 29.91300
H  -6.32800 26.31600 32.20500
H  -4.71400 26.83900 31.97400
H  -7.07800 19.75500 24.43200
H  -8.34800 20.97300 24.03500
H  -7.78100 20.73200 25.69400
H  -8.08300 20.36200 21.67300
H  -6.89800 19.18100 22.27100
H  -7.01500 19.55000 20.51000
H  -3.28100 25.31300 19.91600
H  -1.24100 27.03700 20.87000
H  -1.74600 23.71400 20.06700
H  -1.07000 24.40500 21.66000
H  -0.69200 24.90900 19.99300
H  -3.74000 28.50300 21.15100
H  -3.69500 27.59000 19.70000
H  -2.66500 28.97400 18.76700
H  -1.20500 28.63400 19.69900
H  -2.35100 29.98700 20.25700
H  -0.37600 30.01600 25.07800
H  0.82800 28.71100 24.95700
H  0.59300 29.47600 26.53000
H  -3.47100 28.02200 29.64700
H  -1.28600 27.84200 33.16100
H  -0.08900 26.98800 32.21500
H  -1.49000 26.09200 33.02300

