158

Mg 48.36400 15.25300 28.32000
C  46.35000 15.04300 31.16100
C  50.57400 17.15400 30.05100
C  50.22200 15.48200 25.52500
C  45.64200 14.16700 26.46200
N  48.43200 16.01100 30.39200
C  47.57800 15.63400 31.43200
C  48.00600 16.21500 32.73900
C  49.23800 17.07100 32.33500
C  49.45900 16.77800 30.83400
C  49.21500 18.60900 32.66700
C  48.35800 15.13000 33.84500
C  47.93000 15.31300 35.26600
H  48.00100 16.79600 35.82700
N  50.24800 16.16800 27.90100
C  51.05900 16.83900 28.75800
C  52.25200 17.22700 28.07100
C  52.17000 16.69500 26.74300
C  50.84400 16.08600 26.66000
C  53.40900 17.99200 28.76100
C  53.27500 16.73900 25.66600
O  53.13600 16.13900 24.60800
C  54.50400 17.47900 25.85300
N  47.98500 14.92600 26.29200
C  48.94400 15.11600 25.32900
C  48.46000 14.66500 23.91500
C  46.96000 14.32400 24.14700
C  46.81000 14.47700 25.72000
C  48.56400 15.96000 22.93300
C  46.51600 12.90000 23.56100
C  47.19600 11.64700 24.19200
N  46.51000 14.65300 28.71400
C  45.50300 14.24500 27.82500
C  44.31700 13.83600 28.49500
C  44.58600 14.24200 29.82100
C  45.93600 14.64900 29.91500
C  42.96200 13.28800 28.00100
C  44.06700 14.26800 31.17900
O  42.99200 13.92300 31.61000
C  45.18700 14.73000 32.08900
C  44.61700 15.76600 32.89400
O  44.43700 16.88000 32.47400
O  44.35400 15.28600 34.16400
C  43.59600 16.28000 35.00500
H  51.37100 17.73200 30.52400
H  50.79300 15.51000 24.59500
H  44.84700 13.70100 25.87600
H  47.25800 16.91700 33.10700
H  50.10500 16.74900 32.91300
H  48.46200 18.82600 33.42400
H  49.01200 19.18900 31.76600
H  50.21800 18.78900 33.05300
H  49.43600 14.97500 33.89800
H  47.92800 14.17100 33.55600
H  48.44900 14.60700 35.91500
H  46.87900 15.02700 35.32500
H  53.50100 18.97500 28.30000
H  54.34900 17.44000 28.74100
H  53.22500 18.21900 29.81000
H  55.20600 17.27700 25.04400
H  54.93900 17.14700 26.79500
H  54.46900 18.54700 26.07000
H  48.95700 13.76700 23.54700
H  46.29500 15.05100 23.68100
H  49.07500 16.83800 23.32700
H  47.57900 16.27300 22.58600
H  49.04100 15.65500 22.00100
H  46.60400 12.95000 22.47600
H  45.43800 12.79700 23.68900
H  47.42500 10.82700 23.51100
H  46.52200 11.12400 24.87100
H  48.10300 11.94800 24.71700
H  42.14300 13.65000 28.62200
H  42.84500 12.20500 28.04500
H  42.78900 13.67500 26.99600
H  45.44400 13.95000 32.80600
H  42.76100 16.53700 34.35300
H  44.04800 17.25900 35.16400
H  43.36700 15.76800 35.93900
Mg 0.13800 43.68700 25.52500
C  2.21900 43.44500 28.32500
C  -2.49200 43.13700 27.72300
C  -1.76000 43.17900 22.80300
C  3.09900 43.91200 23.50700
N  -0.15300 43.51300 27.74100
C  0.87700 43.36200 28.63900
C  0.30700 43.48000 30.09700
C  -1.26600 43.31400 29.90000
C  -1.28800 43.19800 28.34300
C  -1.86500 42.03000 30.63600
C  0.73900 44.81100 30.75700
C  0.88400 44.70500 32.27000
H  0.44000 43.45800 33.11500
N  -1.87300 43.29500 25.32200
C  -2.81500 43.17900 26.31700
C  -4.18600 43.10200 25.69900
C  -3.92400 42.83900 24.33300
C  -2.50400 43.18000 24.05800
C  -5.45900 43.07900 26.61000
C  -4.97200 42.56600 23.22600
O  -4.63600 42.20700 22.06000
C  -6.43800 42.63400 23.59100
N  0.60100 43.31500 23.38400
C  -0.37600 43.24100 22.46000
C  0.24300 43.39300 21.06900
C  1.57500 44.19100 21.39500
C  1.81200 43.77700 22.88500
C  0.44700 41.98600 20.33300
C  1.72000 45.73000 21.20400
C  2.54500 46.20500 19.90700
N  2.24700 43.73100 25.86500
C  3.32300 43.84200 24.93300
C  4.55200 43.90500 25.61600
C  4.20100 43.73000 26.96600
C  2.82200 43.62400 27.02000
C  5.86800 44.12600 24.99700
C  4.75600 43.55900 28.28300
O  5.88800 43.47000 28.71000
C  3.49600 43.58000 29.20700
C  3.66100 42.52800 30.22600
O  3.51800 41.30800 30.16400
O  4.13000 43.12200 31.36200
C  4.49900 42.27800 32.43800
H  -3.40100 42.98400 28.31000
H  -2.44200 43.24200 21.95300
H  3.96500 44.12200 22.87600
H  0.66400 42.62900 30.67600
H  -1.85000 44.19900 30.15000
H  -2.56000 41.57200 29.93300
H  -2.45700 42.55000 31.38900
H  -1.10100 41.33200 30.98000
H  0.01700 45.61500 30.61300
H  1.68300 45.11300 30.30400
H  0.37100 45.55800 32.71300
H  1.91900 44.89600 32.55400
H  -6.27100 43.49100 26.01000
H  -5.40400 43.63400 27.54700
H  -5.66800 42.02700 26.80400
H  -7.05800 42.37000 22.73400
H  -6.59100 43.68900 23.81400
H  -6.52300 41.87800 24.37200
H  -0.28200 44.14400 20.47900
H  2.37100 43.72000 20.81700
H  1.46000 41.61200 20.18400
H  -0.01100 42.08200 19.34900
H  -0.18100 41.19600 20.74600
H  2.13100 46.20700 22.09300
H  0.77100 46.26400 21.15200
H  3.33000 46.87900 20.24800
H  1.92100 46.69300 19.15700
H  3.07900 45.44200 19.34200
H  5.79400 43.97900 23.91900
H  6.50400 43.38200 25.47700
H  6.13300 45.16500 25.19200
H  3.62000 44.54200 29.70400
H  4.37900 42.92200 33.30900
H  5.55600 42.01500 32.39600
H  3.83300 41.44200 32.65100

