158

Mg 2.81400 -0.35500 43.74900
C  6.27100 -0.17400 43.13000
C  2.43400 2.71200 42.09700
C  -0.45000 -1.08200 43.32600
C  3.31100 -3.58800 44.83900
N  4.23000 0.98700 42.73300
C  5.54900 0.90100 42.66000
C  6.13300 2.27000 42.13100
C  4.93900 3.18700 42.07000
C  3.76800 2.17400 42.23700
C  4.86100 4.26800 43.20300
C  6.85000 2.07700 40.74000
C  6.03800 1.32500 39.63800
H  5.97000 1.99700 38.26400
N  1.17100 0.83400 42.96300
C  1.21700 2.05800 42.39400
C  -0.17800 2.42700 42.05300
C  -0.99100 1.26500 42.35100
C  -0.07200 0.24100 42.87600
C  -0.59300 3.73900 41.42600
C  -2.44700 1.13100 42.00600
O  -2.99300 2.19000 41.72800
C  -3.26300 -0.15000 42.11200
N  1.66500 -2.02400 43.93200
C  0.32800 -2.13600 43.85000
C  -0.25500 -3.53400 44.09400
C  0.99100 -4.29800 44.61900
C  2.07100 -3.22800 44.45500
C  -1.53500 -3.51500 44.99100
C  1.33100 -5.74900 44.11800
C  1.46100 -6.88300 45.24100
N  4.43000 -1.64000 44.08500
C  4.44200 -2.86900 44.62700
C  5.84500 -3.31700 44.80700
C  6.62000 -2.29200 44.28600
C  5.71700 -1.28800 43.82700
C  6.35100 -4.60900 45.23100
C  7.99800 -1.76700 43.92100
O  9.09200 -2.24900 44.19200
C  7.82800 -0.44300 43.10800
C  8.66500 0.73900 43.69000
O  9.77800 1.07200 43.26800
O  8.05900 1.26200 44.70100
C  8.74800 2.34800 45.41800
H  2.15300 3.68200 41.68100
H  -1.49400 -1.36800 43.18200
H  3.48700 -4.53500 45.35300
H  6.88200 2.56800 42.86500
H  4.84500 3.59900 41.06500
H  4.49100 3.92500 44.16900
H  4.44900 5.14300 42.70100
H  5.89800 4.53400 43.40900
H  7.81700 1.63000 40.97200
H  7.06300 3.06700 40.33600
H  5.00900 1.16500 39.95800
H  6.40000 0.31600 39.44100
H  -0.66100 3.65700 40.34100
H  0.09900 4.53900 41.68900
H  -1.49900 4.05200 41.94500
H  -3.32000 -0.34700 43.18200
H  -2.67200 -0.86800 41.54300
H  -4.27600 -0.12500 41.70900
H  -0.58300 -3.98700 43.15800
H  1.11400 -4.28300 45.70200
H  -1.58600 -2.65100 45.65400
H  -1.51600 -4.41200 45.61000
H  -2.43600 -3.51000 44.37600
H  2.28300 -5.70000 43.59000
H  0.59800 -6.02900 43.36100
H  0.49800 -7.38700 45.32700
H  1.57000 -6.30200 46.15700
H  2.29800 -7.55900 45.07200
H  5.70600 -5.12700 45.94000
H  7.36300 -4.55200 45.63100
H  6.39200 -5.30100 44.39000
H  8.20000 -0.42200 42.08300
H  8.89900 3.18800 44.74000
H  9.76500 2.11100 45.73100
H  8.04100 2.80100 46.11300
Mg -8.90200 40.78400 41.15400
C  -8.14700 37.48900 40.47000
C  -5.96600 41.71500 39.58500
C  -10.04400 43.82900 41.07800
C  -12.18900 39.57300 42.22000
N  -7.28800 39.76900 40.05600
C  -7.22500 38.41000 39.94300
C  -5.97700 37.98400 39.12000
C  -5.11800 39.27500 39.19100
C  -6.19400 40.34700 39.56700
C  -3.98500 39.25800 40.33100
C  -6.34700 37.56200 37.73200
C  -5.87300 36.20100 37.29000
H  -4.91100 36.29600 36.04400
N  -8.12200 42.54100 40.50100
C  -6.86000 42.73600 40.02200
C  -6.64800 44.20400 39.97400
C  -7.76000 44.81800 40.45100
C  -8.73200 43.69300 40.65000
C  -5.35000 44.71300 39.48500
C  -8.02600 46.35800 40.65800
O  -7.14900 47.15800 40.41700
C  -9.28000 46.90600 41.18000
N  -10.94100 41.56400 41.54300
C  -11.02400 42.93900 41.47200
C  -12.46500 43.28600 41.65700
C  -13.22700 41.97000 42.18300
C  -12.09500 40.96200 41.96500
C  -12.86300 44.53800 42.46000
C  -14.56000 41.78500 41.44100
C  -15.79400 41.38800 42.29900
N  -9.88500 38.90600 41.47700
C  -11.18200 38.59400 41.89800
C  -11.26100 37.19300 42.08000
C  -10.07700 36.66900 41.50700
C  -9.31800 37.78100 41.17500
C  -12.48700 36.44600 42.63500
C  -9.32400 35.51100 41.19100
O  -9.52100 34.35200 41.49300
C  -8.05600 35.98600 40.45200
C  -6.88700 35.39800 41.13900
O  -6.38800 35.80100 42.17900
O  -6.65300 34.16000 40.54200
C  -5.60700 33.30300 41.12000
H  -4.92800 42.00500 39.41200
H  -10.53100 44.79200 40.91000
H  -13.20600 39.20500 42.36800
H  -5.48400 37.15200 39.62300
H  -4.61400 39.56600 38.26900
H  -3.99800 38.27200 40.79400
H  -4.22700 40.00200 41.09100
H  -3.01000 39.41700 39.87100
H  -6.00600 38.34800 37.05900
H  -7.40400 37.70000 37.50500
H  -6.72000 35.52200 37.19800
H  -5.23600 35.68500 38.00800
H  -4.56700 44.37800 40.16500
H  -5.35100 45.80000 39.40900
H  -5.15000 44.46800 38.44100
H  -9.64400 46.46400 42.10700
H  -10.08800 46.87500 40.44900
H  -9.08300 47.97000 41.31300
H  -12.83000 43.59800 40.67900
H  -13.39800 42.18200 43.23800
H  -11.98100 45.02100 42.88100
H  -13.50900 44.41600 43.33000
H  -13.23800 45.35600 41.84400
H  -14.47000 41.02800 40.66200
H  -14.77200 42.71900 40.92000
H  -16.03100 40.38000 41.96000
H  -16.61700 42.04200 42.01000
H  -15.49900 41.37100 43.34900
H  -13.31800 36.48200 41.93100
H  -12.75300 36.91500 43.58200
H  -12.36900 35.41400 42.96700
H  -8.02200 35.72500 39.39500
H  -5.09600 33.82300 41.93100
H  -4.88600 33.12200 40.32300
H  -6.04200 32.37100 41.47900

