158

Mg 24.04700 -6.80300 46.26000
C  26.29500 -4.68900 44.64400
C  21.60500 -5.93100 44.03300
C  22.05700 -9.33600 47.49100
C  26.81600 -8.14800 48.00200
N  23.92700 -5.39100 44.56500
C  24.98500 -4.56200 44.13100
C  24.53900 -3.87600 42.91400
C  23.01200 -4.23500 42.85600
C  22.81100 -5.23300 43.91100
C  22.02200 -3.07000 42.94300
C  25.31600 -4.25400 41.64200
C  25.80700 -3.05200 40.77900
H  25.40400 -3.22400 39.26800
N  22.00500 -7.43700 45.92500
C  21.18000 -6.94600 44.99100
C  19.88900 -7.62300 44.99000
C  19.96300 -8.57000 46.08500
C  21.42600 -8.56600 46.54200
C  18.65800 -7.24700 44.12900
C  18.82200 -9.46500 46.60700
O  17.74800 -9.59200 46.06200
C  18.93200 -10.31700 47.88600
N  24.42000 -8.63700 47.46100
C  23.41800 -9.51100 47.82200
C  23.95800 -10.56700 48.83300
C  25.52100 -10.26800 48.82700
C  25.60800 -8.90400 48.13800
C  23.33700 -10.46600 50.26400
C  26.38600 -11.28500 48.02300
C  27.31400 -12.26300 48.80300
N  26.07000 -6.50800 46.36400
C  27.06700 -7.06100 47.20600
C  28.32500 -6.38900 47.05500
C  28.00000 -5.42100 46.04200
C  26.64000 -5.55900 45.65500
C  29.62400 -6.74600 47.74600
C  28.68400 -4.34600 45.31100
O  29.80900 -3.84100 45.35800
C  27.59700 -3.86700 44.27500
C  27.32000 -2.36500 44.58800
O  26.68500 -1.95000 45.53000
O  27.83800 -1.58200 43.58300
C  27.48600 -0.13200 43.69300
H  20.76600 -5.68000 43.38000
H  21.41900 -10.05000 48.01600
H  27.72200 -8.53200 48.47400
H  24.67800 -2.80500 43.06000
H  22.79100 -4.64300 41.87000
H  21.06300 -3.24900 42.45600
H  22.38300 -2.16300 42.45900
H  21.84700 -2.77400 43.97700
H  24.72300 -4.96500 41.06700
H  26.20300 -4.80700 41.95200
H  26.86600 -2.86800 40.96000
H  25.37700 -2.08000 41.02100
H  17.99000 -6.68700 44.78300
H  17.92100 -8.00500 43.86300
H  18.98800 -6.67500 43.26200
H  19.52000 -9.83200 48.66500
H  19.47300 -11.22500 47.62200
H  18.00200 -10.53200 48.41300
H  23.87500 -11.56000 48.39300
H  25.77700 -10.13900 49.87800
H  22.82800 -9.50500 50.33700
H  24.09000 -10.69300 51.01900
H  22.58300 -11.25300 50.28400
H  27.02500 -10.70700 47.35500
H  25.80900 -11.93400 47.36400
H  27.39600 -11.95500 49.84600
H  28.30300 -12.06200 48.39200
H  27.12200 -13.32900 48.68500
H  29.75500 -7.76700 47.38500
H  29.39000 -6.74000 48.81100
H  30.50300 -6.15600 47.49000
H  28.01900 -4.09900 43.29700
H  26.45200 0.04900 43.98700
H  27.68900 0.41000 42.77000
H  28.19700 0.22200 44.44000
Mg 47.43500 34.93100 28.26400
C  45.81400 32.87400 30.67100
C  47.37000 37.43900 30.46100
C  48.37000 36.87500 25.78500
C  46.55900 32.36500 25.93100
N  46.64400 35.07700 30.31700
C  46.16300 34.15600 31.16100
C  46.03900 34.62700 32.57900
C  46.12000 36.21200 32.38300
C  46.73800 36.29400 30.92100
C  44.83300 37.11000 32.49300
C  47.18000 34.08100 33.47600
C  46.66600 33.84600 34.94200
H  47.13100 34.84600 35.90000
N  47.94000 36.90800 28.22100
C  48.03500 37.74100 29.24800
C  48.85700 38.89400 28.94200
C  49.16500 38.76400 27.56700
C  48.44300 37.53900 27.09900
C  49.27900 39.86200 30.04800
C  49.95300 39.64400 26.65900
O  50.13700 39.27900 25.51300
C  50.46900 40.95600 27.23400
N  47.21800 34.71200 26.11100
C  47.84300 35.64500 25.30500
C  48.10200 35.16900 23.91100
C  47.49300 33.72300 23.99500
C  47.04500 33.54800 25.40100
C  47.53600 36.09400 22.83300
C  48.55600 32.69000 23.51400
C  49.46700 32.02200 24.56400
N  46.52000 32.96700 28.25600
C  46.23300 32.06200 27.28600
C  45.61200 30.88800 27.78300
C  45.41300 31.13600 29.16900
C  46.02600 32.40400 29.40800
C  45.06600 29.65300 27.01700
C  44.84200 30.73000 30.35300
O  44.28400 29.68700 30.61700
C  44.90500 31.83900 31.34700
C  45.37900 31.31700 32.69200
O  46.55200 30.95200 33.00600
O  44.34900 31.20900 33.56600
C  44.63100 30.62000 34.87300
H  47.37200 38.21300 31.23100
H  48.71700 37.45600 24.92700
H  46.35000 31.57800 25.20300
H  45.06600 34.22500 32.86000
H  46.77200 36.56800 33.18000
H  44.72500 37.58800 31.52000
H  44.78700 37.91100 33.23100
H  44.07200 36.37800 32.76400
H  48.01000 34.78400 33.40900
H  47.65200 33.13300 33.21600
H  47.12300 32.88700 35.18700
H  45.57700 33.80500 34.96300
H  48.98200 39.68600 31.08200
H  48.70100 40.77500 29.91100
H  50.35200 40.05300 30.06800
H  51.13400 41.31400 26.44900
H  51.15400 40.75700 28.05800
H  49.58700 41.59600 27.26700
H  49.18800 35.16000 23.81900
H  46.76500 33.57200 23.19800
H  48.29800 36.70600 22.35000
H  46.90300 36.79600 23.37700
H  47.02200 35.51700 22.06400
H  49.24800 33.13000 22.79700
H  48.06900 31.86500 22.99300
H  49.11000 32.30300 25.55400
H  50.47700 32.41200 24.43400
H  49.45400 30.93300 24.50600
H  44.50800 29.88300 26.10900
H  44.47500 29.17900 27.80000
H  45.91400 29.02700 26.74000
H  43.92000 32.30300 31.40800
H  44.70200 31.51300 35.49400
H  45.59700 30.11400 34.89300
H  43.81900 29.94100 35.13300

