158

Mg -1.54800 17.31300 26.54000
C  -1.85100 15.22500 29.41900
C  -1.97600 20.02900 28.48300
C  -1.37400 19.09300 23.78000
C  -1.57000 14.39800 24.56400
N  -1.68100 17.56000 28.62300
C  -1.82900 16.63100 29.66200
C  -1.85600 17.20000 31.04000
C  -2.28800 18.73500 30.74500
C  -1.96000 18.81900 29.20000
C  -3.76900 19.11000 31.31500
C  -0.47300 17.00100 31.62900
C  -0.32700 17.60500 33.01000
H  -0.40400 16.61200 34.19400
N  -1.58700 19.27600 26.17200
C  -1.78700 20.22600 27.07500
C  -1.81300 21.54900 26.35400
C  -1.40600 21.27600 25.00300
C  -1.35000 19.82300 24.95100
C  -2.10000 22.90100 26.93200
C  -1.11500 22.22500 23.82200
O  -0.95200 21.83000 22.70600
C  -0.94400 23.65800 24.14300
N  -1.53400 16.81000 24.43800
C  -1.42800 17.73700 23.48600
C  -1.64300 17.24200 22.08600
C  -1.34800 15.72700 22.41700
C  -1.52900 15.63300 23.90400
C  -3.02200 17.63200 21.43100
C  -0.04300 15.08200 21.96300
C  -0.27300 13.80800 21.05900
N  -1.80400 15.24700 26.83200
C  -1.73800 14.19500 25.94400
C  -1.93500 12.95200 26.64500
C  -1.97600 13.30000 27.99400
C  -1.91000 14.69800 28.04100
C  -1.88400 11.59700 26.07900
C  -2.09700 12.73700 29.35300
O  -2.17200 11.59200 29.73600
C  -2.08700 14.03100 30.29700
C  -1.04300 13.68100 31.32000
O  0.16100 13.52100 31.07100
O  -1.72100 13.49400 32.56400
C  -0.85900 13.08600 33.64800
H  -2.11000 20.91300 29.11000
H  -1.33300 19.56600 22.79600
H  -1.57800 13.58200 23.83800
H  -2.52700 16.67000 31.71600
H  -1.48900 19.27500 31.25300
H  -3.79800 19.73400 32.20900
H  -4.25700 18.15700 31.51800
H  -4.27700 19.63800 30.50800
H  0.20300 17.62900 31.05000
H  -0.08500 15.98300 31.65700
H  -1.21000 18.21800 33.19500
H  0.56300 18.18000 33.26400
H  -2.30100 22.87900 28.00300
H  -2.90200 23.46300 26.45400
H  -1.16600 23.46200 26.92300
H  -0.19400 23.63000 24.93400
H  -1.91800 24.08900 24.37200
H  -0.52500 24.16400 23.27300
H  -0.81400 17.74900 21.59200
H  -2.11900 15.13200 21.92800
H  -2.88600 18.57700 20.90500
H  -3.76000 17.83000 22.20800
H  -3.41600 16.91500 20.71000
H  0.56200 14.81800 22.83100
H  0.53000 15.81300 21.39300
H  0.40300 13.83000 20.20300
H  -1.26400 13.55000 20.68700
H  0.13200 13.03400 21.71100
H  -0.89600 11.14800 26.17500
H  -2.17100 11.65500 25.02900
H  -2.57900 10.98400 26.65300
H  -3.06200 14.12800 30.77300
H  -1.50500 12.97000 34.51800
H  -0.01400 13.74300 33.85000
H  -0.28600 12.19500 33.39300
Mg -2.40900 34.34000 26.73700
C  -3.52600 32.40400 29.33600
C  -1.08900 36.64100 28.82100
C  -1.50600 36.40200 24.05600
C  -3.85400 32.13600 24.56800
N  -2.42000 34.49400 28.83100
C  -2.86100 33.59100 29.78500
C  -2.57400 34.08600 31.26500
C  -1.82600 35.44100 31.05900
C  -1.83400 35.58300 29.44100
C  -2.40900 36.73100 31.79000
C  -1.69800 33.04200 32.10900
C  -2.28300 32.49000 33.42300
H  -1.32900 32.59900 34.63600
N  -1.50800 36.30300 26.52100
C  -0.97400 37.05100 27.57700
C  -0.51200 38.33800 27.07300
C  -0.66800 38.29600 25.64500
C  -1.15600 36.92700 25.34000
C  -0.19200 39.43400 28.07200
C  -0.37100 39.45500 24.68500
O  -0.43900 39.30500 23.45300
C  0.02500 40.77900 25.32800
N  -2.86000 34.43600 24.60500
C  -2.31800 35.29400 23.77400
C  -2.72400 34.91500 22.27800
C  -3.09200 33.40200 22.46000
C  -3.30700 33.30400 23.97700
C  -3.84800 35.85700 21.79300
C  -2.04100 32.41300 21.85100
C  -0.77800 32.04500 22.67000
N  -3.57200 32.65000 26.90900
C  -4.14900 31.85700 25.93300
C  -4.86800 30.70000 26.51600
C  -4.61600 30.79900 27.84000
C  -3.89400 32.04200 28.04800
C  -5.43000 29.54200 25.77100
C  -4.75900 30.27200 29.12900
O  -5.46400 29.33400 29.54100
C  -4.05100 31.24300 30.10100
C  -5.06400 31.61000 31.07100
O  -5.98600 32.42300 30.82600
O  -4.99300 30.91400 32.16000
C  -5.96500 31.13800 33.29300
H  -0.61700 37.17300 29.64900
H  -1.24100 37.03900 23.21000
H  -4.26200 31.37300 23.90100
H  -3.43700 34.40700 31.84900
H  -0.79600 35.24100 31.35300
H  -2.97500 37.35200 31.09500
H  -1.53600 37.30100 32.10700
H  -2.92300 36.46000 32.71200
H  -0.70600 33.41600 32.36300
H  -1.51300 32.16100 31.49500
H  -2.45000 31.42200 33.27700
H  -3.32300 32.77600 33.58100
H  -0.00900 39.16200 29.11100
H  -0.99900 40.16600 28.05200
H  0.75600 39.88500 27.78200
H  0.13500 41.44500 24.47300
H  0.98700 40.68900 25.83200
H  -0.74500 41.09000 26.03500
H  -1.97900 35.05500 21.49500
H  -4.10500 33.23500 22.09300
H  -4.15800 36.56800 22.55800
H  -4.77000 35.30800 21.60000
H  -3.59900 36.35700 20.85700
H  -1.73900 32.83800 20.89300
H  -2.64200 31.53400 21.61700
H  -0.54800 32.64300 23.55200
H  0.08900 31.74900 22.07900
H  -1.07200 31.16600 23.24300
H  -5.30000 28.76500 26.52400
H  -4.90600 29.32600 24.84000
H  -6.51300 29.60600 25.66800
H  -3.23700 30.68100 30.55900
H  -6.96000 31.34300 32.89900
H  -5.60100 31.96900 33.89800
H  -5.99200 30.23600 33.90500

