158

Mg 10.65500 48.27500 26.01800
C  8.37200 48.04700 28.86100
C  12.92900 49.53000 28.19900
C  12.42000 48.71000 23.39300
C  7.75300 48.04500 24.02300
N  10.58800 48.63300 28.35200
C  9.57200 48.52700 29.24900
C  10.13300 48.95100 30.65200
C  11.41100 49.79700 30.29700
C  11.67400 49.40700 28.84400
C  11.41400 51.35200 30.62700
C  10.34200 47.71400 31.53900
C  9.55000 47.68800 32.85000
H  9.81000 46.47500 33.63700
N  12.47300 48.98400 25.90300
C  13.38400 49.36200 26.88900
C  14.63700 49.46000 26.21700
C  14.53300 49.23100 24.85300
C  13.06400 48.98200 24.64200
C  15.91600 49.79200 27.00400
C  15.65000 49.03800 23.74500
O  15.37200 48.73600 22.58200
C  17.04500 48.96700 24.13400
N  10.18900 48.37400 23.91100
C  11.13700 48.47700 23.00200
C  10.59300 48.44700 21.49700
C  8.97200 48.31100 21.78500
C  8.93400 48.20600 23.34100
C  10.88300 49.69200 20.65800
C  8.44900 46.91600 21.04300
C  7.58600 47.17700 19.77100
N  8.55200 47.87200 26.29200
C  7.49900 47.83000 25.40400
C  6.29700 47.50600 26.03700
C  6.59000 47.55600 27.42600
C  7.95200 47.80600 27.54100
C  4.97900 47.24100 25.36600
C  5.96400 47.46000 28.73900
O  4.84600 47.16800 29.03500
C  7.10600 47.71000 29.71500
C  7.32800 46.42900 30.42700
O  8.08600 45.52100 30.11300
O  6.51600 46.28700 31.51900
C  6.61800 45.00200 32.27500
H  13.62800 49.92700 28.93800
H  12.96500 48.60400 22.45300
H  6.94700 47.98100 23.29000
H  9.45400 49.63800 31.15700
H  12.21300 49.44400 30.94600
H  10.67700 51.72300 31.33900
H  11.28400 51.77700 29.63200
H  12.35500 51.71100 31.04400
H  11.39900 47.73200 31.80700
H  10.12600 46.77600 31.02700
H  8.47700 47.80000 32.69200
H  9.99200 48.45300 33.48800
H  15.65700 49.64000 28.05200
H  16.27100 50.80700 26.82500
H  16.55100 49.02900 26.55400
H  17.68400 48.76500 23.27400
H  17.15300 48.07700 24.75500
H  17.34500 49.89100 24.62900
H  11.01900 47.49700 21.17600
H  8.58300 49.26200 21.42100
H  11.75100 50.22400 21.04700
H  10.06500 50.40800 20.73300
H  11.14300 49.35100 19.65600
H  7.83500 46.25600 21.65600
H  9.37100 46.41000 20.75700
H  7.22100 48.18900 19.95000
H  6.81800 46.43300 19.56100
H  8.19300 47.13800 18.86600
H  4.56500 48.19300 25.03400
H  4.23600 46.75200 25.99600
H  4.99500 46.59400 24.48900
H  6.85400 48.52000 30.39900
H  6.40600 45.19200 33.32700
H  7.51100 44.39300 32.13700
H  5.72700 44.40300 32.08600
Mg -11.78900 16.90600 41.14600
C  -8.63800 15.17800 40.97500
C  -10.17300 19.59800 39.80500
C  -14.78900 18.19600 40.53500
C  -13.31900 13.78000 42.01100
N  -9.60600 17.34200 40.55400
C  -8.52000 16.53800 40.63900
C  -7.23500 17.23400 40.06800
C  -7.73200 18.68000 39.88100
C  -9.29400 18.56600 40.14900
C  -7.11600 19.71300 40.97000
C  -6.68400 16.60600 38.67400
C  -5.13100 16.79800 38.58100
H  -4.63500 17.15800 37.18300
N  -12.40500 18.72000 40.36300
C  -11.57500 19.69100 39.83200
C  -12.40500 20.78800 39.35000
C  -13.76000 20.44000 39.57000
C  -13.71500 19.07600 40.16100
C  -11.75100 22.08600 38.85400
C  -15.02600 21.28600 39.18800
O  -14.87700 22.36500 38.68900
C  -16.31700 20.86200 39.42300
N  -13.77700 16.07600 41.21600
C  -14.80500 16.91900 41.12600
C  -16.12100 16.13400 41.47300
C  -15.64300 14.82600 42.21300
C  -14.16000 14.85100 41.77900
C  -17.18700 16.89500 42.32600
C  -16.39000 13.47800 41.78300
C  -16.16000 13.03700 40.40500
N  -11.14100 14.90100 41.43600
C  -11.85800 13.74300 41.73000
C  -10.98000 12.59200 41.81900
C  -9.71200 13.14100 41.49700
C  -9.85500 14.52700 41.33900
C  -11.37200 11.13500 42.04100
C  -8.30500 12.78600 41.38600
O  -7.68900 11.76600 41.55800
C  -7.58300 14.03200 40.96300
C  -6.44900 14.21000 41.85000
O  -6.63800 14.53800 43.00500
O  -5.25400 13.90300 41.28000
C  -4.14800 14.08100 42.18900
H  -9.61100 20.47300 39.47200
H  -15.74600 18.70300 40.39900
H  -13.78300 12.86800 42.39400
H  -6.44600 17.20400 40.81900
H  -7.53900 19.10900 38.89700
H  -6.40700 19.11200 41.53900
H  -7.83000 20.16100 41.66100
H  -6.66700 20.53400 40.41100
H  -7.07700 17.08200 37.77600
H  -7.08500 15.59300 38.62500
H  -4.76700 15.80500 38.84500
H  -4.93500 17.48100 39.40800
H  -11.75800 22.14500 37.76500
H  -10.71000 22.23900 39.13900
H  -12.33400 22.87200 39.33300
H  -16.60000 19.92300 38.94600
H  -16.96900 21.62000 38.99000
H  -16.62600 20.78800 40.46600
H  -16.52000 15.83800 40.50300
H  -15.69900 14.89100 43.30000
H  -17.05300 17.97700 42.33200
H  -17.27700 16.49400 43.33600
H  -18.16100 16.73900 41.86300
H  -17.42700 13.70800 42.02800
H  -16.01700 12.75000 42.50400
H  -15.66000 12.06900 40.38700
H  -15.56000 13.74600 39.83500
H  -17.10100 12.87900 39.87700
H  -10.86500 10.85100 42.96200
H  -11.02400 10.55900 41.18300
H  -12.41600 10.86000 42.19200
H  -7.08100 13.87200 40.00800
H  -4.18000 14.96900 42.82100
H  -3.23200 14.24300 41.62300
H  -4.02200 13.22000 42.84500

