158

Mg 0.22900 7.77900 27.37900
C  1.08400 9.81700 30.13100
C  0.25800 5.12200 29.50700
C  -0.06000 5.80200 24.69800
C  0.79000 10.57600 25.32100
N  0.71400 7.58500 29.58700
C  0.94200 8.47300 30.49600
C  0.73100 7.99300 31.94000
C  0.71000 6.48200 31.77900
C  0.49100 6.37100 30.20300
C  1.99700 5.66200 32.20600
C  -0.66500 8.43700 32.45600
C  -0.81200 8.37600 33.96300
H  0.41500 8.01100 34.86500
N  -0.00100 5.69500 27.22100
C  -0.02300 4.80500 28.17300
C  -0.33600 3.53100 27.62500
C  -0.44000 3.69200 26.23600
C  -0.18800 5.12000 25.99100
C  -0.42200 2.36900 28.53100
C  -0.71700 2.66300 25.16400
O  -0.74300 2.97200 24.02800
C  -0.98400 1.22900 25.53000
N  0.24700 8.18800 25.43100
C  0.10000 7.21200 24.44900
C  0.13100 7.72900 22.98200
C  0.15400 9.31100 23.20400
C  0.47900 9.37700 24.71000
C  1.35200 7.18600 22.28400
C  -1.22800 10.08000 23.03100
C  -1.31600 10.91500 21.70200
N  0.80600 9.78800 27.62500
C  0.89400 10.83600 26.71500
C  1.26500 12.06600 27.38700
C  1.31300 11.66900 28.71100
C  1.00900 10.31100 28.85200
C  1.38900 13.47800 26.79100
C  1.65400 12.21300 30.00200
O  2.13500 13.31600 30.30400
C  1.16000 11.05800 31.00600
C  2.09500 10.95600 32.21600
O  3.07600 10.23700 32.26700
O  1.77100 11.92400 33.18000
C  2.86800 12.25200 34.13100
H  0.26500 4.27100 30.19100
H  -0.37800 5.27800 23.79400
H  0.97400 11.45400 24.69800
H  1.58100 8.24100 32.57500
H  -0.12100 5.94000 32.22900
H  1.82200 4.62600 31.91500
H  2.30900 5.86300 33.23100
H  2.82300 5.93500 31.54900
H  -1.42400 7.76500 32.05400
H  -0.67700 9.47000 32.10700
H  -1.66600 7.75800 34.24200
H  -1.12500 9.35200 34.33400
H  -0.75600 2.65600 29.52800
H  0.50400 1.82800 28.72100
H  -1.11200 1.56400 28.27700
H  -1.87400 1.18400 26.15700
H  -0.21800 0.89000 26.22800
H  -1.04400 0.61200 24.63400
H  -0.73600 7.38500 22.41800
H  0.92400 9.78900 22.59700
H  1.05900 6.42600 21.55900
H  2.08700 6.77800 22.97700
H  1.84400 8.02000 21.78200
H  -1.44700 10.76200 23.85300
H  -2.06100 9.37700 23.06600
H  -0.63500 10.38300 21.03700
H  -0.93100 11.92000 21.87200
H  -2.32100 10.98000 21.28600
H  1.78300 13.33900 25.78400
H  2.18300 13.92700 27.38800
H  0.43800 14.00200 26.88600
H  0.13300 11.34100 31.23700
H  3.75900 12.46600 33.54100
H  3.01400 11.30200 34.64600
H  2.72400 13.15600 34.72200
Mg 48.27400 16.36200 29.25900
C  46.17400 15.91200 32.18900
C  50.40000 18.17600 31.33000
C  50.12100 16.86700 26.62000
C  45.76900 14.94200 27.41300
N  48.23900 17.01600 31.56500
C  47.32900 16.67200 32.52900
C  47.74700 17.16100 33.84900
C  49.01300 18.06800 33.55700
C  49.24200 17.83600 32.07200
C  48.73900 19.46900 33.94800
C  48.00300 15.90200 34.70900
C  48.29100 16.23400 36.20500
H  47.99500 17.61500 36.76700
N  50.10500 17.35800 29.02900
C  50.88900 17.96600 29.99500
C  52.18500 18.28900 29.34100
C  52.07200 18.00500 27.94500
C  50.72300 17.42600 27.77200
C  53.32000 18.78500 30.13500
C  53.12000 18.25100 26.78000
O  52.96800 17.83100 25.63800
C  54.41700 18.92700 27.17700
N  47.95400 16.02700 27.38000
C  48.89300 16.31800 26.42300
C  48.44000 15.99700 24.98400
C  47.12900 15.14100 25.21900
C  46.93500 15.34500 26.76600
C  48.16800 17.17100 24.04800
C  47.17500 13.66900 24.81900
C  46.38600 13.33600 23.51900
N  46.31800 15.61700 29.63200
C  45.48300 15.06800 28.78200
C  44.33100 14.59000 29.42400
C  44.59300 14.87100 30.81700
C  45.81700 15.54200 30.88200
C  43.10100 13.99000 28.73600
C  44.06200 14.73300 32.18000
O  43.10900 14.09300 32.60000
C  45.07800 15.35600 33.10600
C  44.29600 16.42200 33.93600
O  43.84300 17.46500 33.44800
O  44.10500 16.01800 35.19900
C  43.26600 16.93300 36.04700
H  51.23100 18.72100 31.78400
H  50.66700 17.12000 25.70800
H  45.07600 14.24100 26.94200
H  46.87000 17.57000 34.34900
H  49.94800 17.73900 34.01100
H  47.81300 19.59900 34.50700
H  48.62700 19.99600 33.00000
H  49.57000 19.97700 34.43700
H  48.86400 15.35200 34.33000
H  47.11900 15.26900 34.63300
H  49.35400 16.04600 36.35600
H  47.62800 15.64600 36.84000
H  53.47700 18.19900 31.04100
H  53.06200 19.80000 30.44000
H  54.33000 18.79900 29.72500
H  54.17200 19.92900 27.53100
H  54.95900 19.10000 26.24700
H  55.08100 18.30600 27.77800
H  49.38000 15.52800 24.69300
H  46.24000 15.60600 24.79400
H  48.16500 18.09100 24.63200
H  47.24300 17.05100 23.48600
H  48.98800 17.05200 23.33900
H  46.65300 13.13900 25.61500
H  48.19200 13.32800 24.62500
H  46.07500 14.21900 22.96100
H  45.47800 12.79500 23.78700
H  46.97600 12.76700 22.80100
H  43.41900 13.34400 27.91700
H  42.66800 14.85100 28.22700
H  42.47100 13.42600 29.42300
H  45.35100 14.51700 33.74600
H  43.63500 17.95400 35.94300
H  43.55800 16.62500 37.05100
H  42.20000 16.78900 35.87200

