158

Mg 23.68400 -5.79100 45.98300
C  25.86100 -3.55700 44.38600
C  21.10900 -4.68800 44.06800
C  21.99000 -8.63500 46.77700
C  26.61800 -7.18200 47.50400
N  23.54900 -4.45000 44.29600
C  24.54800 -3.52300 43.98100
C  24.05300 -2.50800 42.89300
C  22.49200 -2.80200 42.99200
C  22.35600 -4.04300 43.85500
C  21.60800 -1.60400 43.61400
C  24.64000 -2.79400 41.51900
C  25.26200 -1.62300 40.76200
H  25.11000 -1.57600 39.25300
N  21.76500 -6.56500 45.54400
C  20.80300 -5.91600 44.78000
C  19.56900 -6.68900 44.69600
C  19.92000 -7.94800 45.27000
C  21.27400 -7.82000 45.88400
C  18.29200 -6.25800 43.89000
C  19.06800 -9.16000 45.29400
O  17.93100 -9.09700 44.95400
C  19.65400 -10.53300 45.61600
N  24.29500 -7.70700 46.89700
C  23.33400 -8.63900 47.23100
C  23.92800 -9.68300 48.12400
C  25.36000 -9.12500 48.52300
C  25.49200 -7.97300 47.54000
C  23.11100 -10.05800 49.29600
C  26.35800 -10.25800 48.28400
C  27.46500 -10.27800 49.36100
N  25.82600 -5.38500 46.02800
C  26.82100 -6.00400 46.78400
C  28.04400 -5.26500 46.58300
C  27.75600 -4.27800 45.65300
C  26.40000 -4.44500 45.25100
C  29.40800 -5.51500 47.19500
C  28.36500 -3.18900 44.83800
O  29.45100 -2.63900 44.77300
C  27.08300 -2.67400 43.98500
C  26.80500 -1.25600 44.36400
O  26.39000 -0.92900 45.47100
O  27.17200 -0.51600 43.32400
C  27.13100 0.98100 43.56000
H  20.25400 -4.24400 43.55300
H  21.43200 -9.46900 47.20700
H  27.42700 -7.54600 48.14100
H  24.38500 -1.51300 43.18900
H  22.10500 -3.03600 42.00000
H  21.02400 -1.22600 42.77400
H  22.32000 -0.81300 43.84600
H  20.97800 -1.87100 44.46200
H  23.87300 -3.24100 40.88700
H  25.43700 -3.53600 41.52000
H  26.32500 -1.49300 40.96300
H  24.88100 -0.71700 41.23300
H  18.19100 -7.18700 43.32900
H  18.41300 -5.45100 43.16600
H  17.46500 -5.98600 44.54500
H  19.00200 -11.26700 45.14400
H  19.52100 -10.67300 46.68900
H  20.67400 -10.68700 45.26400
H  24.09100 -10.57900 47.52500
H  25.40600 -8.68900 49.52100
H  22.16600 -9.51400 49.30400
H  23.64200 -9.78400 50.20700
H  22.99300 -11.14100 49.31300
H  26.80300 -10.29800 47.29000
H  25.95200 -11.27000 48.31200
H  27.39100 -11.32700 49.64800
H  27.29500 -9.59700 50.19500
H  28.39700 -10.03400 48.85000
H  29.62200 -6.54800 46.92200
H  29.18700 -5.46300 48.26100
H  30.13100 -4.80000 46.80200
H  27.41000 -2.72200 42.94700
H  26.18500 1.23400 44.03800
H  27.21900 1.58000 42.65300
H  27.94900 1.16100 44.25700
Mg 17.17800 -1.39900 27.99700
C  15.99200 0.25600 30.82300
C  19.61100 -2.97300 29.95900
C  18.62700 -2.66800 25.22600
C  14.99500 0.49300 26.03700
N  17.75400 -1.28700 30.11700
C  17.01900 -0.66600 31.11800
C  17.51100 -0.95600 32.56400
C  18.66500 -2.02000 32.24100
C  18.75800 -2.12300 30.66300
C  20.02600 -1.69500 32.88100
C  16.34900 -1.46700 33.51900
C  16.50500 -1.35200 35.05400
H  17.69300 -0.61200 35.61200
N  18.71400 -2.79000 27.67700
C  19.63200 -3.25100 28.59600
C  20.41000 -4.28800 27.90900
C  20.10700 -4.25900 26.53000
C  19.12900 -3.20500 26.39500
C  21.29100 -5.15100 28.67200
C  20.58100 -5.13600 25.39400
O  20.06800 -5.07100 24.33400
C  21.71400 -6.08700 25.57400
N  16.78800 -1.19000 25.89100
C  17.51600 -1.80300 24.98200
C  17.17000 -1.33600 23.65500
C  15.92100 -0.49700 23.88000
C  15.79100 -0.45600 25.36100
C  18.39600 -0.63900 22.93300
C  14.62900 -1.05300 23.15100
C  13.95300 -0.15800 22.13900
N  15.95200 0.18700 28.31000
C  15.03900 0.81200 27.40000
C  14.31500 1.82900 28.07400
C  14.65400 1.59900 29.38400
C  15.66600 0.63700 29.53100
C  13.41400 2.74300 27.47300
C  14.30000 2.10100 30.64600
O  13.52700 2.99300 30.96700
C  15.24400 1.26000 31.67900
C  16.12100 2.25000 32.38000
O  17.08600 2.83700 31.85700
O  15.67700 2.41500 33.73100
C  16.38400 3.45800 34.50500
H  20.20700 -3.59800 30.62800
H  19.08500 -3.07100 24.32000
H  14.25700 1.12800 25.54200
H  17.98200 -0.04500 32.93600
H  18.46800 -3.01800 32.63400
H  20.79500 -1.69100 32.10800
H  20.22900 -2.45300 33.63700
H  20.08000 -0.63900 33.14600
H  16.12800 -2.52600 33.38000
H  15.43700 -0.99200 33.15700
H  16.40400 -2.29700 35.58800
H  15.65200 -0.76100 35.38700
H  22.21700 -4.64200 28.93900
H  21.38000 -6.09800 28.14000
H  20.73300 -5.47200 29.55200
H  21.99100 -6.42700 24.57600
H  21.35000 -6.92800 26.16400
H  22.47600 -5.52200 26.11000
H  16.91600 -2.16000 22.98900
H  16.15500 0.50600 23.52300
H  18.19900 0.36900 22.56800
H  18.67700 -1.21400 22.05000
H  19.26200 -0.65400 23.59500
H  13.87600 -1.35300 23.87900
H  14.98500 -1.89500 22.55800
H  14.32400 0.86400 22.22500
H  12.86700 -0.21600 22.21200
H  14.20000 -0.46500 21.12300
H  12.67200 2.07400 27.03800
H  13.92800 3.20700 26.63100
H  12.85300 3.41000 28.12900
H  14.63100 0.71000 32.39300
H  17.36600 3.70200 34.09900
H  16.66500 3.03300 35.46900
H  15.76800 4.34100 34.67300

