158

Mg 30.51800 58.45100 40.10800
C  27.59500 56.65200 39.18800
C  32.46200 55.85300 38.92100
C  33.12500 60.59600 40.08200
C  28.35200 61.04300 41.07800
N  29.99900 56.47500 39.25400
C  28.82300 56.00400 38.92900
C  28.95200 54.55300 38.40800
C  30.36700 54.21500 38.97200
C  31.03500 55.61800 39.02600
C  30.43600 53.61500 40.40100
C  28.93400 54.61200 36.83100
C  27.64800 54.13100 36.22400
H  26.88000 55.04200 35.30900
N  32.53200 58.27900 39.68900
C  33.08800 57.11400 39.11000
C  34.53500 57.36900 39.03500
C  34.72600 58.75100 39.30800
C  33.47800 59.32300 39.76700
C  35.48800 56.37600 38.52700
C  36.08900 59.41000 39.17700
O  37.00700 58.77300 38.66600
C  36.41700 60.77600 39.65800
N  30.65700 60.49400 40.40600
C  31.90300 61.16900 40.35100
C  31.74600 62.60600 41.00500
C  30.28900 62.62500 41.54800
C  29.71900 61.35800 40.98000
C  32.77000 63.08300 42.03700
C  29.49900 63.97600 41.30200
C  28.43300 64.30700 42.43500
N  28.35900 58.77400 40.16700
C  27.65400 59.90300 40.53500
C  26.23600 59.65000 40.44800
C  26.11100 58.32700 39.88100
C  27.47600 57.88900 39.70400
C  25.22200 60.56500 41.05800
C  25.23600 57.28900 39.35600
O  24.03900 57.08900 39.17700
C  26.17300 56.12400 38.92600
C  25.70800 54.93900 39.74300
O  26.15600 54.62100 40.86600
O  24.88200 54.15200 38.89900
C  24.38600 52.96800 39.55500
H  32.89800 54.88000 38.68200
H  33.96500 61.29400 40.05600
H  27.79100 61.92800 41.38400
H  28.24800 53.84700 38.84800
H  30.95100 53.51700 38.37200
H  30.89400 52.62700 40.35400
H  29.47200 53.31800 40.81400
H  30.91700 54.32000 41.07900
H  29.70800 53.91000 36.52300
H  29.25400 55.55800 36.39500
H  27.02300 53.76800 37.04100
H  27.94300 53.33600 35.53900
H  35.56600 56.29000 37.44300
H  35.13100 55.37900 38.78500
H  36.49300 56.40500 38.94700
H  35.99200 60.89000 40.65600
H  35.97900 61.50300 38.97400
H  37.48700 60.97700 39.61000
H  31.77600 63.24800 40.12500
H  30.37900 62.43700 42.61700
H  32.28900 63.27100 42.99700
H  33.37600 63.93300 41.72600
H  33.39700 62.21500 42.23900
H  28.99500 63.90300 40.33900
H  30.27000 64.72700 41.13100
H  27.57700 64.85100 42.03500
H  28.91900 64.92600 43.18800
H  28.10500 63.43500 43.00000
H  24.51500 59.92400 41.58400
H  24.62700 61.08000 40.30300
H  25.74200 61.28500 41.69000
H  25.96000 56.00800 37.86300
H  25.13200 52.17600 39.48700
H  23.59800 52.65700 38.87000
H  23.92200 53.08400 40.53500
Mg -11.55100 15.58600 42.07400
C  -8.51100 13.90700 42.01100
C  -9.99600 18.27000 40.39700
C  -14.49600 17.08300 41.76400
C  -13.06500 12.71900 43.20800
N  -9.47600 15.96000 41.23000
C  -8.43200 15.08600 41.34500
C  -7.21400 15.66800 40.59400
C  -7.63000 17.19500 40.39400
C  -9.08400 17.16800 40.67500
C  -6.77500 18.20100 41.22700
C  -6.78100 14.85900 39.29700
C  -5.34400 14.73700 38.97900
H  -4.86900 15.30200 37.66300
N  -12.20600 17.45000 41.29100
C  -11.41100 18.40600 40.68200
C  -12.20600 19.56700 40.34600
C  -13.52900 19.34100 40.72000
C  -13.45900 17.91000 41.28800
C  -11.68900 20.72200 39.61600
C  -14.70100 20.30200 40.67800
O  -14.52800 21.50400 40.35300
C  -16.11300 19.87300 41.06100
N  -13.49100 14.88200 42.14000
C  -14.54500 15.71800 42.20000
C  -15.85600 14.99300 42.70100
C  -15.40400 13.49100 42.83900
C  -13.87000 13.71000 42.72300
C  -16.32300 15.60500 43.99900
C  -15.93000 12.46400 41.69000
C  -16.67700 11.23200 42.29600
N  -10.94600 13.62200 42.55300
C  -11.68600 12.56800 43.05800
C  -10.77700 11.51700 43.35800
C  -9.52300 12.01500 43.04100
C  -9.73000 13.33400 42.49100
C  -11.10000 10.21700 44.09100
C  -8.11500 11.78300 43.09800
O  -7.49800 10.80900 43.50200
C  -7.42100 12.95200 42.41600
C  -6.36600 13.55500 43.29600
O  -6.63700 14.42000 44.13800
O  -5.21900 12.84000 43.16500
C  -4.25600 13.31900 44.22600
H  -9.54500 19.18100 39.99600
H  -15.41300 17.67400 41.81200
H  -13.51900 11.80800 43.60400
H  -6.39700 15.62600 41.31400
H  -7.49500 17.32800 39.32100
H  -6.00900 17.66600 41.78800
H  -7.40800 18.67700 41.97600
H  -6.29100 18.92200 40.56800
H  -7.12300 15.37500 38.40000
H  -7.27900 13.89300 39.38700
H  -5.21700 13.65600 38.92500
H  -4.70800 15.11900 39.77800
H  -12.24000 20.82500 38.68100
H  -10.60500 20.69600 39.50200
H  -11.87500 21.60300 40.22900
H  -16.83300 20.63700 40.76600
H  -16.19800 19.78000 42.14400
H  -16.38400 18.94400 40.56200
H  -16.61900 15.03800 41.92300
H  -15.66900 13.10200 43.82300
H  -16.91500 16.50500 43.83300
H  -15.49500 15.60000 44.70700
H  -17.06700 14.90100 44.37100
H  -15.12700 12.05700 41.07600
H  -16.62500 12.88300 40.96300
H  -16.67400 11.39600 43.37400
H  -16.09500 10.33900 42.07200
H  -17.71400 11.18200 41.96400
H  -10.62200 10.08300 45.06200
H  -10.98200 9.28700 43.53500
H  -12.17900 10.16800 44.24100
H  -6.94500 12.50900 41.54100
H  -4.66000 13.30200 45.23800
H  -3.98100 14.33100 43.93100
H  -3.44800 12.60400 44.06800

