158

Mg -1.31700 17.35000 26.76900
C  -1.99800 15.15000 29.41400
C  -2.03900 19.94400 29.02000
C  -1.23100 19.55000 24.18200
C  -1.33400 14.63700 24.65000
N  -2.00100 17.50300 28.98400
C  -2.18700 16.49800 29.79700
C  -2.51000 16.92000 31.27100
C  -2.66500 18.46400 31.06500
C  -2.20700 18.66600 29.56600
C  -4.01200 19.13700 31.47000
C  -1.53200 16.53500 32.44200
C  -1.50900 17.26200 33.77200
H  -0.27800 17.04500 34.60700
N  -1.52000 19.42900 26.60600
C  -1.79600 20.34900 27.64300
C  -1.77500 21.66500 27.14000
C  -1.64900 21.57300 25.74200
C  -1.43200 20.15300 25.44800
C  -2.05600 22.82800 28.03900
C  -1.75600 22.65300 24.67200
O  -1.74900 22.48400 23.47200
C  -1.91000 24.07200 25.09500
N  -1.39900 17.17700 24.79100
C  -1.22600 18.16800 23.87500
C  -0.88800 17.65400 22.42900
C  -0.73700 16.16900 22.75800
C  -1.17900 15.97400 24.18600
C  -1.98700 18.05600 21.44100
C  0.60200 15.55600 22.46100
C  1.76500 16.19700 23.26400
N  -1.54900 15.30900 26.97700
C  -1.54400 14.33700 26.03700
C  -1.81700 13.06500 26.53300
C  -1.88000 13.29200 27.93900
C  -1.73200 14.70900 28.11200
C  -1.96200 11.75700 25.71300
C  -2.14200 12.65100 29.18000
O  -2.26900 11.47100 29.51700
C  -2.24000 13.83600 30.20200
C  -1.19000 13.53400 31.16400
O  -0.08900 13.93300 31.10100
O  -1.85100 12.95600 32.21200
C  -0.99300 12.66500 33.37200
H  -2.23500 20.72100 29.76200
H  -1.14400 20.16200 23.28100
H  -1.35900 13.87400 23.87000
H  -3.42400 16.36000 31.46900
H  -1.84700 19.01100 31.53400
H  -4.70000 18.30300 31.60900
H  -4.34300 19.73700 30.62200
H  -3.92100 19.86300 32.27800
H  -0.55900 16.42800 31.96300
H  -1.76500 15.51100 32.73600
H  -2.36300 16.94100 34.36900
H  -1.58200 18.34800 33.72000
H  -3.11900 22.99900 27.87300
H  -1.48000 23.71500 27.77400
H  -1.93500 22.67800 29.11200
H  -1.09100 24.36300 25.75200
H  -2.89900 24.17100 25.54300
H  -1.72600 24.73500 24.25000
H  0.04000 18.10900 22.08300
H  -1.45200 15.65700 22.11400
H  -2.72100 18.79300 21.76500
H  -2.49000 17.12100 21.19200
H  -1.45300 18.59000 20.65500
H  0.71300 15.67700 21.38300
H  0.60000 14.48400 22.65900
H  1.43500 16.79700 24.11200
H  2.22200 16.77400 22.46100
H  2.47500 15.41900 23.54500
H  -0.94900 11.53100 25.37700
H  -2.60300 11.79000 24.83200
H  -2.36200 11.03200 26.42100
H  -3.20900 13.91400 30.69500
H  -0.55800 11.66700 33.33100
H  -1.64100 12.75100 34.24400
H  -0.18900 13.39000 33.49600
Mg -2.12000 34.80400 26.37500
C  -4.09600 32.92400 28.74600
C  -1.20500 36.80600 29.01400
C  -0.43600 36.69600 24.10700
C  -3.22200 32.87400 23.82000
N  -2.58100 34.76800 28.63500
C  -3.40400 34.01900 29.34600
C  -3.25100 34.27600 30.82200
C  -2.59600 35.58700 30.82400
C  -2.08700 35.76000 29.38400
C  -3.63000 36.72900 31.13700
C  -2.57900 33.19300 31.63200
C  -2.99700 32.97100 33.06600
H  -3.23300 34.21000 33.90300
N  -0.95800 36.49100 26.54300
C  -0.70900 37.14200 27.69700
C  0.21600 38.27100 27.40800
C  0.32500 38.29300 26.00700
C  -0.32900 37.10600 25.45000
C  0.71900 39.19200 28.49500
C  0.97500 39.29800 25.18100
O  1.15700 39.11700 24.00800
C  1.53200 40.53800 25.80000
N  -1.86000 34.82600 24.25600
C  -1.07700 35.62600 23.55800
C  -0.90500 35.16700 22.07700
C  -1.70300 33.87000 22.11000
C  -2.33100 33.84200 23.46900
C  -1.40200 36.22100 20.95000
C  -0.71800 32.72500 21.82100
C  0.47500 32.63000 22.75000
N  -3.51700 33.35700 26.19900
C  -3.87600 32.66600 25.09400
C  -4.79700 31.65100 25.45900
C  -4.92600 31.72300 26.87800
C  -4.12300 32.73100 27.31400
C  -5.53900 30.71200 24.59600
C  -5.52200 31.14400 28.05700
O  -6.28000 30.21600 28.16000
C  -5.02400 31.86500 29.30300
C  -6.17900 32.45000 30.00400
O  -7.04600 33.12400 29.50800
O  -6.12000 32.09700 31.32900
C  -7.25000 32.34400 32.14100
H  -0.93900 37.39600 29.89400
H  0.05700 37.32200 23.36100
H  -3.55900 32.14400 23.08100
H  -4.26000 34.23600 31.23100
H  -1.77900 35.57400 31.54600
H  -3.12900 37.41600 31.81900
H  -4.53700 36.32600 31.58900
H  -3.96800 37.30200 30.27400
H  -1.49600 33.27900 31.71800
H  -2.70900 32.27600 31.05700
H  -2.22600 32.35800 33.53200
H  -3.96300 32.46800 33.02600
H  1.76000 39.33000 28.20300
H  0.67200 38.88400 29.53900
H  0.08900 40.07800 28.41900
H  0.60000 40.97200 26.16300
H  1.84500 41.13600 24.94400
H  2.39500 40.44700 26.46000
H  0.18100 35.16700 21.98300
H  -2.45900 33.89800 21.32400
H  -2.17900 35.83700 20.28800
H  -0.55600 36.44100 20.29900
H  -1.71600 37.07000 21.55700
H  -0.44800 32.64600 20.76800
H  -1.31500 31.82500 21.96800
H  0.49300 31.65400 23.23600
H  0.65300 33.47300 23.41800
H  1.33700 32.67200 22.08400
H  -4.95200 29.79400 24.59600
H  -5.55300 30.94200 23.53100
H  -6.53300 30.52000 25.00000
H  -4.47000 31.16100 29.92400
H  -7.96900 33.04900 31.72300
H  -6.94800 32.51200 33.17500
H  -7.80900 31.41400 32.24900

