158

Mg 34.81800 3.16500 29.72500
C  32.80500 4.63700 32.22600
C  37.20900 2.71300 32.12400
C  36.88000 2.23000 27.27700
C  32.41400 4.18000 27.38800
N  35.02500 3.70600 31.90100
C  34.00000 4.21800 32.69300
C  34.40700 4.15200 34.17700
C  35.97300 3.80000 34.13600
C  36.09300 3.30500 32.62600
C  36.92900 5.02800 34.36800
C  33.55600 3.21700 35.07900
C  33.11200 3.87100 36.45800
H  33.87200 5.10500 36.95600
N  36.73500 2.52700 29.66500
C  37.57700 2.35900 30.79900
C  38.87500 1.91600 30.39400
C  38.84600 1.83900 28.94700
C  37.44400 2.20200 28.57600
C  39.95100 1.72600 31.37200
C  39.92300 1.31400 27.96500
O  39.74400 1.34600 26.73100
C  41.21300 0.71800 28.50900
N  34.54700 2.98900 27.57700
C  35.56300 2.56900 26.74200
C  35.10100 2.68700 25.24000
C  33.72500 3.27100 25.36800
C  33.51900 3.45000 26.87300
C  36.22000 3.58900 24.55200
C  32.56800 2.54600 24.64100
C  31.87500 1.32000 25.35800
N  32.97100 4.15600 29.69800
C  32.10000 4.47800 28.64600
C  30.84400 5.00900 29.22300
C  31.06200 5.08800 30.66400
C  32.40300 4.61300 30.87000
C  29.69600 5.38000 28.40000
C  30.48600 5.38200 31.93200
O  29.32600 5.68300 32.15400
C  31.66800 5.22100 32.97300
C  31.95200 6.50500 33.64000
O  32.75500 7.35900 33.27600
O  31.12400 6.50000 34.74600
C  31.10300 7.77700 35.45200
H  37.99600 2.58200 32.87000
H  37.58000 1.99300 26.47300
H  31.69700 4.53800 26.64600
H  34.37900 5.20700 34.44700
H  36.29400 3.04100 34.85000
H  36.38100 5.77800 34.93700
H  37.14800 5.43600 33.38100
H  37.88000 4.79100 34.84400
H  34.07500 2.30000 35.36300
H  32.66400 2.77000 34.64000
H  33.07900 3.07600 37.20300
H  32.09300 4.21800 36.28700
H  40.67500 0.97100 31.06500
H  39.53100 1.36400 32.31100
H  40.45000 2.68200 31.52700
H  41.80600 0.19800 27.75700
H  41.03800 -0.06400 29.24700
H  41.79400 1.53100 28.94500
H  35.15200 1.65100 24.90700
H  33.81800 4.23300 24.86200
H  35.81700 4.39100 23.93400
H  36.78500 2.90800 23.91600
H  36.93400 4.02200 25.25300
H  32.88800 2.08200 23.70800
H  31.81400 3.29300 24.39300
H  32.68700 0.59500 25.41900
H  31.12200 0.92100 24.67800
H  31.46600 1.35200 26.36700
H  29.70900 4.83300 27.45700
H  29.79800 6.40500 28.04300
H  28.74600 5.21800 28.90800
H  31.33400 4.50100 33.72000
H  30.53100 8.54600 34.93300
H  32.12300 8.14200 35.56700
H  30.69600 7.62600 36.45200
Mg 48.94000 24.87000 27.43700
C  49.97100 27.21000 29.83400
C  47.60700 22.99300 29.95200
C  48.07900 22.76600 25.09300
C  50.48800 26.86700 25.07200
N  48.82000 25.12900 29.52300
C  49.20700 26.22800 30.29500
C  48.52300 26.14800 31.70900
C  47.96900 24.66800 31.75000
C  48.12100 24.25800 30.27800
C  48.78500 23.71100 32.63600
C  47.57700 27.36400 32.04000
C  47.58200 27.80100 33.53200
H  46.31000 27.81200 34.35600
N  47.95700 23.00500 27.48000
C  47.49200 22.40300 28.64300
C  46.97900 21.10100 28.26400
C  47.02100 21.07500 26.80000
C  47.72200 22.27400 26.38100
C  46.55300 20.02900 29.31500
C  46.50500 19.95200 25.88100
O  46.67200 19.98100 24.66900
C  45.64900 18.79600 26.39200
N  49.53400 24.69600 25.43400
C  48.86900 23.79200 24.65400
C  49.45600 23.86100 23.23800
C  50.05200 25.34000 23.15300
C  50.05200 25.68500 24.66300
C  50.38700 22.68500 22.88500
C  49.15800 26.27100 22.30100
C  49.45900 26.09100 20.79300
N  50.16500 26.70800 27.39800
C  50.72700 27.36100 26.37100
C  51.31400 28.57900 26.89000
C  50.99600 28.58800 28.23200
C  50.33700 27.39300 28.49000
C  51.96200 29.73400 26.08000
C  51.22100 29.34200 29.43100
O  51.73300 30.44900 29.67100
C  50.47900 28.47000 30.59300
C  51.45000 28.18300 31.62500
O  52.60300 27.81200 31.52100
O  50.92100 28.61400 32.82100
C  51.84000 28.41900 33.90600
H  47.27300 22.32100 30.74600
H  47.82600 22.01200 24.34500
H  50.91300 27.41800 24.23000
H  49.35000 26.21500 32.41600
H  46.92600 24.60800 32.06100
H  49.25500 24.25800 33.45300
H  49.59700 23.13700 32.18900
H  48.05000 23.05100 33.09700
H  46.59900 26.95400 31.78700
H  47.79900 28.21200 31.39300
H  48.03600 28.79200 33.51600
H  48.10000 27.07500 34.15900
H  46.92800 20.33500 30.29200
H  46.94200 19.07500 28.96200
H  45.47200 19.99500 29.45200
H  45.13300 18.50000 25.47900
H  45.05600 19.07900 27.26200
H  46.47300 18.12400 26.63100
H  48.57800 23.70500 22.61000
H  51.07000 25.21100 22.78600
H  49.87600 22.02100 22.18900
H  50.77200 22.00500 23.64600
H  51.31000 23.06200 22.44300
H  49.25400 27.29200 22.67000
H  48.13600 25.92200 22.44800
H  49.84000 27.06500 20.48700
H  48.56500 25.94100 20.18700
H  50.10500 25.21800 20.70000
H  51.70000 29.77400 25.02200
H  53.03600 29.59600 26.20000
H  51.69600 30.64300 26.61900
H  49.69600 29.01700 31.11900
H  51.88600 27.36400 34.17600
H  51.31900 28.87800 34.74600
H  52.81500 28.87000 33.71900

