158

Mg 46.48800 35.24600 28.79000
C  45.00300 33.46400 31.11300
C  46.66600 37.92800 31.15000
C  48.10200 37.16200 26.48300
C  46.11100 32.75000 26.42800
N  46.00100 35.63100 30.91900
C  45.43700 34.65200 31.65600
C  45.55200 35.03900 33.11100
C  45.58200 36.60100 33.06000
C  46.15700 36.76200 31.64000
C  44.13000 37.17400 33.29100
C  46.91500 34.43800 33.65300
C  46.86700 34.09200 35.13300
H  45.89900 34.70300 36.09100
N  47.09200 37.23300 28.73900
C  47.07700 38.11600 29.79300
C  47.58700 39.41400 29.29600
C  48.03700 39.21600 27.97600
C  47.74300 37.77700 27.61900
C  47.54300 40.56700 30.20700
C  48.55900 40.24000 26.98600
O  48.94900 39.92300 25.85800
C  48.75700 41.58400 27.40400
N  46.99100 34.95700 26.68500
C  47.73200 35.89900 25.98700
C  48.22300 35.29500 24.64900
C  47.57100 33.89000 24.67000
C  46.81600 33.86100 25.98000
C  47.78800 36.20900 23.54200
C  48.56600 32.67000 24.42400
C  48.26200 31.79300 23.14800
N  45.83200 33.48700 28.74500
C  45.58900 32.54700 27.72300
C  45.09000 31.27400 28.30500
C  44.79800 31.62100 29.64900
C  45.25800 32.95200 29.82400
C  44.86400 29.91600 27.56700
C  44.23900 31.17100 30.85700
O  43.83200 30.06200 31.13100
C  44.27200 32.33000 31.85400
C  44.98100 31.76000 32.97500
O  46.14900 31.41400 33.01800
O  44.12800 31.73000 33.97200
C  44.59100 30.80700 35.01300
H  46.69500 38.74500 31.87400
H  48.76200 37.69800 25.79800
H  45.85500 31.88800 25.80900
H  44.67900 34.64000 33.62800
H  46.29600 36.97400 33.79500
H  43.93500 37.20600 34.36300
H  43.43900 36.55600 32.71800
H  44.11100 38.22100 32.99000
H  47.65800 35.22500 33.52600
H  47.30800 33.64100 33.02100
H  47.84300 34.42900 35.48200
H  46.72100 33.01200 35.11400
H  47.75800 41.53000 29.74500
H  48.19700 40.34000 31.04900
H  46.49500 40.53200 30.50400
H  49.30100 42.12500 26.63000
H  49.38100 41.40100 28.27800
H  47.78800 42.03400 27.62400
H  49.31300 35.29500 24.61000
H  46.77200 33.96200 23.93100
H  47.01700 36.90600 23.87200
H  47.37500 35.57800 22.75500
H  48.54200 36.70200 22.92900
H  48.47400 32.07600 25.33200
H  49.62800 32.91700 24.40700
H  48.12400 30.76100 23.47100
H  49.04100 31.83500 22.38700
H  47.39500 32.15200 22.59400
H  44.95500 29.04700 28.21700
H  45.54900 29.92400 26.71900
H  43.86200 29.92200 27.13800
H  43.24000 32.64600 32.00600
H  44.98700 29.89400 34.56900
H  43.67400 30.61000 35.56900
H  45.29700 31.26200 35.70700
Mg -5.45300 25.17900 27.23600
C  -3.39300 27.12800 29.50700
C  -6.08400 23.04500 29.87700
C  -6.80100 23.07800 25.03600
C  -4.10600 27.16500 24.75000
N  -4.84800 25.19300 29.42100
C  -4.07500 26.08100 30.11500
C  -4.14000 25.72300 31.63800
C  -4.77700 24.29500 31.69700
C  -5.24700 24.15600 30.20200
C  -3.74500 23.19900 32.18500
C  -4.98100 26.83600 32.32500
C  -6.00800 26.53600 33.43500
H  -5.61600 25.91300 34.77200
N  -6.43500 23.36600 27.43900
C  -6.52000 22.60800 28.58200
C  -7.31400 21.39500 28.35700
C  -7.60100 21.45300 26.96300
C  -6.95800 22.69500 26.39700
C  -7.45100 20.30600 29.42700
C  -8.14400 20.39300 26.09000
O  -8.30600 20.50700 24.90400
C  -8.80400 19.12000 26.66100
N  -5.43100 25.12800 25.13000
C  -6.19100 24.22000 24.43600
C  -6.27100 24.56500 22.97400
C  -5.33300 25.80600 22.82400
C  -4.88200 26.04500 24.33500
C  -5.73300 23.36700 22.07100
C  -5.92700 27.05000 22.09000
C  -5.26800 27.63200 20.84900
N  -3.92800 26.76100 27.03200
C  -3.60900 27.55000 25.99600
C  -2.67400 28.52400 26.41800
C  -2.59200 28.46100 27.79400
C  -3.39700 27.34200 28.11600
C  -1.76000 29.42700 25.59300
C  -1.92100 28.93400 28.93900
O  -1.08900 29.82400 29.06300
C  -2.49100 28.11600 30.17100
C  -1.42600 27.54700 31.02700
O  -0.58300 26.78100 30.63800
O  -1.49700 28.03300 32.27400
C  -0.80500 27.31700 33.38200
H  -6.34600 22.42700 30.73900
H  -7.37100 22.45600 24.34200
H  -3.73400 27.85300 23.98800
H  -3.13100 25.75200 32.05100
H  -5.63900 24.30800 32.36400
H  -3.59700 22.47700 31.38200
H  -4.14400 22.78000 33.10900
H  -2.73300 23.55800 32.37500
H  -5.52400 27.37200 31.54700
H  -4.22000 27.48600 32.75600
H  -6.82700 25.99000 32.96700
H  -6.32800 27.52700 33.75500
H  -8.28300 19.62900 29.23000
H  -7.71900 20.69000 30.41200
H  -6.50700 19.78000 29.57200
H  -8.14900 18.41900 27.17900
H  -9.14000 18.53300 25.80600
H  -9.52900 19.38200 27.43100
H  -7.33400 24.74300 22.80900
H  -4.41400 25.50800 22.31700
H  -5.17900 23.67800 21.18500
H  -6.58200 22.86100 21.61100
H  -5.12500 22.66300 22.64000
H  -6.04300 27.97600 22.65400
H  -6.94600 26.78700 21.80600
H  -6.06000 27.60300 20.10000
H  -4.44000 27.01800 20.49500
H  -4.94100 28.66700 20.95500
H  -2.32200 29.77400 24.72600
H  -0.91000 28.82800 25.26500
H  -1.42000 30.30700 26.13800
H  -3.19200 28.66900 30.79800
H  0.26100 27.53700 33.32300
H  -0.88600 26.23300 33.30600
H  -1.16900 27.57900 34.37600

