158

Mg 1.65600 -2.58100 44.28600
C  5.15500 -1.72200 43.76600
C  1.05800 0.43200 42.58000
C  -1.40400 -3.70100 43.75900
C  2.76000 -5.72800 45.38600
N  2.97900 -0.89200 43.16300
C  4.34000 -0.72700 43.23300
C  4.75900 0.57300 42.67500
C  3.42800 1.36000 42.52800
C  2.40100 0.28700 42.85700
C  3.42300 2.52800 43.54600
C  5.57000 0.28400 41.28300
C  6.95600 0.95500 41.22100
H  7.21000 2.01000 40.10800
N  0.04200 -1.69500 43.48600
C  -0.02800 -0.47900 42.86500
C  -1.39300 -0.21300 42.45300
C  -2.16900 -1.36500 42.89500
C  -1.14200 -2.34800 43.46100
C  -1.93100 1.03100 41.79700
C  -3.68200 -1.51600 42.84900
O  -4.41500 -0.66400 42.41600
C  -4.34800 -2.68900 43.55700
N  0.77600 -4.48500 44.47400
C  -0.52000 -4.73300 44.21400
C  -0.91700 -6.23300 44.46800
C  0.34200 -6.70000 45.25500
C  1.40300 -5.60300 45.02500
C  -2.28300 -6.55600 45.22900
C  0.81000 -8.11000 44.92500
C  1.21800 -8.25900 43.46000
N  3.52800 -3.57700 44.49200
C  3.75300 -4.80200 45.07800
C  5.20300 -4.89200 45.38700
C  5.72900 -3.68600 44.88700
C  4.74700 -2.95000 44.23900
C  5.98600 -6.02500 45.98900
C  7.00200 -2.92700 44.86500
O  8.10000 -3.14800 45.34500
C  6.70100 -1.58800 44.10700
C  6.99000 -0.46100 45.04600
O  6.46000 -0.27700 46.16100
O  7.79200 0.37300 44.35100
C  8.13000 1.62500 45.04100
H  0.77400 1.41700 42.20400
H  -2.37500 -4.19800 43.72100
H  3.09700 -6.62600 45.90800
H  5.40300 1.11600 43.36800
H  3.27800 1.82000 41.55100
H  3.39400 2.04500 44.52300
H  2.69000 3.32800 43.44300
H  4.40800 2.99600 43.54900
H  4.96800 0.62900 40.44300
H  5.67900 -0.78700 41.10900
H  7.60000 0.07900 41.30400
H  7.17800 1.54100 42.11300
H  -1.40100 1.22000 40.86400
H  -1.75400 1.95500 42.34700
H  -2.95900 1.02500 41.43600
H  -5.37700 -2.38700 43.75300
H  -3.87200 -2.87400 44.52000
H  -4.40000 -3.64500 43.03600
H  -0.94200 -6.61500 43.44800
H  0.24900 -6.73700 46.34100
H  -3.13700 -6.66600 44.56100
H  -2.58900 -5.71600 45.85300
H  -2.24900 -7.53700 45.70200
H  -0.07400 -8.72300 45.10100
H  1.55800 -8.49400 45.61800
H  1.34100 -7.31200 42.93300
H  0.49800 -8.86000 42.90600
H  2.15000 -8.82400 43.47200
H  6.76200 -5.66300 46.66400
H  6.47800 -6.54400 45.16700
H  5.46300 -6.70800 46.65800
H  7.43100 -1.54700 43.29800
H  9.19800 1.63500 45.26200
H  7.60000 1.77800 45.98100
H  7.81900 2.43300 44.38000
Mg 25.67500 1.32800 29.62500
C  27.65700 0.95900 32.53000
C  22.91100 1.41900 31.70100
C  23.81900 1.38400 26.85000
C  28.60800 0.91000 27.67500
N  25.33000 0.99600 31.90300
C  26.29200 1.03100 32.87700
C  25.64100 1.28400 34.31800
C  24.05400 1.20800 33.91700
C  24.08800 1.23900 32.41300
C  23.31900 -0.07000 34.37600
C  26.08900 2.60400 35.05300
C  26.38800 2.35500 36.52400
H  25.68200 3.22900 37.57200
N  23.66700 1.32100 29.31000
C  22.68500 1.45900 30.25500
C  21.46700 1.73800 29.59500
C  21.73300 1.85800 28.19600
C  23.12800 1.47600 28.08600
C  20.23000 1.97400 30.38400
C  20.80200 2.12200 27.06800
O  21.01900 1.75900 25.88300
C  19.43300 2.77000 27.44200
N  26.17500 1.11300 27.62000
C  25.18900 1.23900 26.61600
C  25.78600 1.10400 25.23700
C  27.37200 1.06000 25.48300
C  27.43000 0.98300 27.00800
C  25.35900 -0.17900 24.43800
C  27.97400 2.36700 24.82400
C  28.63600 2.23600 23.42400
N  27.67600 1.02600 29.92400
C  28.77400 0.89200 29.03900
C  29.95200 0.53200 29.79700
C  29.57800 0.59100 31.15800
C  28.18400 0.97000 31.20600
C  31.14400 -0.03400 29.11900
C  30.09100 0.35300 32.52400
O  31.21600 0.04400 32.90600
C  28.81200 0.70500 33.47000
C  28.65600 -0.39300 34.45600
O  28.26500 -1.53300 34.23000
O  28.90500 0.05800 35.75100
C  28.72100 -0.88000 36.90500
H  22.08600 1.66900 32.37100
H  23.24700 1.45500 25.92200
H  29.52100 0.87800 27.07600
H  26.02800 0.42800 34.87100
H  23.48000 2.02900 34.34600
H  22.41200 0.30200 34.85200
H  23.89800 -0.59800 35.13300
H  23.00900 -0.75600 33.58700
H  25.25100 3.29800 35.00200
H  26.90600 3.08200 34.51400
H  27.47400 2.26500 36.54400
H  25.96700 1.37400 36.74400
H  19.40000 1.36000 30.03200
H  19.97700 3.03400 30.35300
H  20.28200 1.75900 31.45100
H  18.59200 2.08100 27.51900
H  19.21900 3.49500 26.65700
H  19.49000 3.40900 28.32300
H  25.36300 1.96800 24.72600
H  27.97200 0.25300 25.06200
H  26.26000 -0.73600 24.18000
H  24.81900 0.24500 23.59200
H  24.75900 -0.75700 25.14100
H  28.76000 2.79800 25.44500
H  27.15200 3.08200 24.86400
H  28.15600 1.34400 23.02000
H  29.72300 2.15700 23.41000
H  28.42200 3.05400 22.73600
H  31.43400 -0.92000 29.68400
H  32.04200 0.58100 29.05600
H  30.91900 -0.44200 28.13400
H  29.06800 1.57600 34.07400
H  28.10600 -0.42900 37.68400
H  29.68200 -1.08700 37.37500
H  28.28800 -1.82500 36.57700

