158

Mg -2.01700 17.26400 27.44500
C  -2.62300 14.90700 30.10500
C  -2.35100 19.75900 29.86100
C  -1.67300 19.44400 24.99300
C  -1.92400 14.60300 25.23900
N  -2.33200 17.26100 29.80600
C  -2.49100 16.21700 30.62800
C  -2.62700 16.73800 32.01300
C  -2.94600 18.31100 31.84400
C  -2.56100 18.48900 30.39100
C  -4.35500 18.82400 32.28700
C  -1.46500 16.28900 32.97300
C  -1.01200 17.17800 34.11700
H  -0.49600 16.57300 35.40400
N  -1.91500 19.31700 27.43500
C  -2.08000 20.12300 28.54400
C  -2.01300 21.48800 28.05800
C  -1.75700 21.48700 26.64700
C  -1.76300 20.07300 26.30600
C  -2.27400 22.66500 28.97200
C  -1.64700 22.58200 25.68200
O  -1.38500 22.43100 24.52900
C  -1.95900 23.95300 26.18000
N  -1.78000 17.04900 25.34800
C  -1.71700 18.11800 24.57000
C  -1.82900 17.70900 23.11700
C  -1.64100 16.20200 23.19800
C  -1.79800 15.92100 24.65000
C  -3.08100 18.27300 22.41400
C  -0.27000 15.64400 22.72900
C  0.98300 16.34000 23.34400
N  -2.26300 15.20300 27.56700
C  -2.22400 14.24900 26.57000
C  -2.42100 12.95700 27.11400
C  -2.51000 13.15300 28.53100
C  -2.46100 14.53000 28.75600
C  -2.46600 11.68900 26.34900
C  -2.76400 12.53500 29.77200
O  -3.08600 11.35600 29.95200
C  -2.77900 13.62300 30.82600
C  -1.60300 13.26800 31.71900
O  -0.42600 13.54200 31.50400
O  -1.98900 12.68300 32.89500
C  -0.98000 12.40300 33.92600
H  -2.60200 20.43900 30.67800
H  -1.63400 20.11500 24.13200
H  -1.92600 13.72000 24.59600
H  -3.51400 16.30200 32.47300
H  -2.15700 18.82000 32.39600
H  -4.39600 19.79300 32.78300
H  -4.85800 18.09600 32.92400
H  -5.01300 19.01400 31.43800
H  -0.58500 15.90400 32.45700
H  -1.85700 15.44700 33.54400
H  -1.90700 17.63500 34.53900
H  -0.59900 18.15800 33.87700
H  -1.44300 23.36900 28.93500
H  -2.33900 22.40000 30.02800
H  -3.20100 23.22000 28.82100
H  -2.96700 24.10500 26.56400
H  -1.73500 24.59100 25.32500
H  -1.25100 24.25900 26.95000
H  -0.93700 17.93700 22.53300
H  -2.44300 15.79900 22.57900
H  -3.85700 17.53500 22.20800
H  -2.80700 18.68900 21.44400
H  -3.61600 19.03200 22.98400
H  -0.19900 15.68500 21.64200
H  -0.47000 14.60100 22.97200
H  1.55500 16.87800 22.58800
H  1.67700 15.73500 23.92800
H  0.73000 17.17600 23.99600
H  -1.87800 11.66700 25.43100
H  -3.51900 11.44600 26.21000
H  -2.09200 10.92100 27.02600
H  -3.66700 13.54600 31.45300
H  -1.02200 13.18200 34.68700
H  -0.04900 12.19200 33.40000
H  -1.31500 11.45800 34.35500
Mg 45.02100 3.82100 47.89200
C  42.63800 6.50000 47.20600
C  42.34900 1.69600 47.80200
C  47.22100 1.39500 48.14300
C  47.49700 6.17100 47.50400
N  42.78200 4.01000 47.26100
C  42.04400 5.20800 47.15700
C  40.56400 4.94800 47.00700
C  40.42000 3.45500 47.42700
C  41.93200 3.04000 47.53300
C  39.53800 3.15700 48.73000
C  39.96700 5.29900 45.64200
C  38.59700 6.01800 45.55200
H  37.92200 6.05200 44.13300
N  44.81800 1.79700 47.80700
C  43.60600 1.08200 47.82200
C  43.93200 -0.34500 47.93700
C  45.31600 -0.44300 48.10500
C  45.85400 0.94600 48.03100
C  42.89700 -1.45000 48.10500
C  45.97200 -1.70400 48.26200
O  45.32200 -2.75500 48.14800
C  47.50300 -1.85900 48.58600
N  47.08200 3.74600 47.70300
C  47.82700 2.62500 47.97900
C  49.32600 2.89600 48.15700
C  49.34200 4.46300 47.80100
C  47.90800 4.85800 47.61600
C  49.92000 2.46000 49.56900
C  50.08500 4.80900 46.59600
C  51.21200 5.88200 46.84900
N  45.09300 5.90100 47.48700
C  46.17000 6.70500 47.41800
C  45.77400 8.07000 47.24600
C  44.42200 8.06300 47.13000
C  44.02200 6.67900 47.26600
C  46.74900 9.21000 47.16200
C  43.24000 8.89400 46.97700
O  43.13300 10.13900 46.83900
C  42.01300 7.86700 47.07000
C  41.19000 8.31700 48.26500
O  41.35200 7.95100 49.38800
O  40.19900 9.14000 47.77300
C  39.27400 9.77100 48.79000
H  41.53100 1.01700 48.05400
H  47.94900 0.59300 48.27700
H  48.32300 6.88600 47.49300
H  40.00900 5.53400 47.73900
H  39.90500 2.93100 46.62100
H  39.03200 4.09100 48.97600
H  40.08100 2.83000 49.61700
H  38.89500 2.34600 48.38600
H  39.86900 4.44100 44.97800
H  40.58100 5.99300 45.06800
H  38.50400 7.00000 46.01500
H  37.92100 5.44300 46.18600
H  42.90300 -2.17100 47.28800
H  41.92400 -0.98000 48.24800
H  43.00700 -1.99100 49.04500
H  48.00000 -1.47500 47.69500
H  47.79200 -2.90900 48.62800
H  47.79800 -1.31100 49.48100
H  49.95400 2.28000 47.51300
H  49.75700 5.04200 48.62600
H  49.05700 2.41400 50.23300
H  50.55300 3.25400 49.96600
H  50.43000 1.50700 49.42600
H  49.50800 5.27500 45.79700
H  50.61500 3.93300 46.22300
H  52.20600 5.53500 46.56700
H  51.28600 6.22400 47.88100
H  50.86600 6.70700 46.22500
H  46.86300 9.40000 46.09500
H  47.68500 8.86700 47.60300
H  46.45800 10.14600 47.63800
H  41.42200 7.98200 46.16100
H  39.43400 9.48200 49.82900
H  38.28100 9.54600 48.40200
H  39.51700 10.83300 48.83500

