158

Mg 25.83900 1.01200 29.13800
C  27.67600 0.56300 32.14200
C  23.04700 1.22500 30.99700
C  24.06300 1.11600 26.33200
C  28.75400 0.11100 27.42900
N  25.38400 0.65000 31.42900
C  26.29200 0.70400 32.40200
C  25.58000 0.81100 33.78300
C  24.04000 0.95800 33.39000
C  24.13300 0.88900 31.84600
C  23.09500 -0.10800 33.88700
C  26.30800 1.97800 34.56000
C  25.56600 2.69400 35.67300
H  26.10000 2.34300 37.14100
N  23.75900 1.11400 28.72500
C  22.81000 1.36300 29.63200
C  21.55900 1.61000 28.90900
C  21.78900 1.51900 27.50200
C  23.21500 1.19000 27.42800
C  20.19800 1.90900 29.63000
C  20.92800 1.81100 26.33600
O  21.26300 1.67300 25.15500
C  19.51500 2.20800 26.53100
N  26.36800 0.68300 27.12600
C  25.42400 0.86800 26.14600
C  26.04600 0.75900 24.75800
C  27.59900 0.59100 25.11600
C  27.62900 0.45000 26.63500
C  25.45000 -0.41900 23.87000
C  28.52400 1.85100 24.65600
C  29.95800 1.38000 24.14000
N  27.84700 0.51200 29.62100
C  28.87600 0.13300 28.81400
C  30.08300 -0.22800 29.56500
C  29.66200 0.05800 30.87800
C  28.30700 0.40200 30.88300
C  31.43100 -0.68700 29.01300
C  30.03700 -0.01100 32.27400
O  31.14700 -0.22400 32.73800
C  28.81500 0.29900 33.16900
C  28.54300 -0.85200 34.10700
O  27.86300 -1.79100 33.89000
O  29.14200 -0.53100 35.30600
C  28.65500 -1.44900 36.38600
H  22.10600 1.40700 31.51900
H  23.54600 1.07400 25.37100
H  29.64700 -0.23000 26.90100
H  25.72100 -0.18800 34.19400
H  23.60300 1.91700 33.66900
H  23.60700 -0.82600 34.52700
H  22.66800 -0.73500 33.10500
H  22.30700 0.31800 34.50900
H  26.50400 2.80700 33.88000
H  27.26100 1.64100 34.96900
H  24.53000 2.36000 35.73100
H  25.66300 3.75200 35.42900
H  19.60300 1.00000 29.54100
H  19.68400 2.75100 29.16600
H  20.30500 2.15200 30.68700
H  19.11000 2.47300 25.55400
H  19.48000 3.03000 27.24600
H  18.99200 1.31200 26.86400
H  25.85700 1.70000 24.24200
H  28.06000 -0.35900 24.84500
H  24.99400 -1.15400 24.53300
H  26.25000 -0.81100 23.24200
H  24.71000 0.06300 23.23000
H  28.60800 2.46800 25.55000
H  28.06300 2.54800 23.95600
H  30.72300 1.77600 24.80700
H  30.18500 1.81500 23.16600
H  30.00600 0.29100 24.15300
H  31.94700 0.13900 28.52300
H  31.31300 -1.31300 28.12800
H  32.19900 -1.09300 29.67000
H  28.89900 1.21000 33.76200
H  28.81400 -2.49500 36.12300
H  27.57500 -1.39800 36.52400
H  29.06300 -1.22500 37.37100
Mg -10.82100 16.99900 40.17200
C  -7.33300 16.65600 40.37100
C  -10.50900 20.25100 39.76200
C  -14.10800 16.91300 39.13700
C  -10.87600 13.29300 40.00900
N  -9.03300 18.28600 40.19000
C  -7.74900 18.02400 40.32000
C  -6.93600 19.33600 40.15800
C  -8.04800 20.48700 40.32900
C  -9.29700 19.66000 40.18200
C  -7.97500 21.30700 41.64100
C  -6.38400 19.44500 38.67700
C  -4.90300 19.13400 38.45900
H  -4.47900 18.21500 37.36200
N  -12.11200 18.38200 39.62300
C  -11.72600 19.71600 39.43100
C  -12.94900 20.48100 39.17100
C  -14.05900 19.57200 39.04000
C  -13.44200 18.21500 39.30900
C  -12.96700 21.94900 39.11400
C  -15.48300 19.93200 38.67300
O  -15.74600 21.07800 38.25200
C  -16.60100 18.90400 38.61400
N  -12.18100 15.39500 39.46800
C  -13.52800 15.68200 39.23700
C  -14.42100 14.34900 39.20300
C  -13.31400 13.30000 39.36900
C  -12.03900 13.99000 39.65100
C  -15.48400 14.32400 40.35500
C  -13.14400 12.44100 38.00500
C  -12.93500 10.94800 38.31400
N  -9.44100 15.29700 40.31400
C  -9.57400 13.87900 40.24500
C  -8.30400 13.26100 40.50400
C  -7.43500 14.33500 40.56400
C  -8.13900 15.53300 40.42700
C  -7.90800 11.86000 40.67600
C  -6.02900 14.65400 40.81100
O  -5.10400 13.95100 41.14300
C  -5.90900 16.12300 40.62100
C  -5.22100 16.78400 41.77800
O  -4.02800 17.06700 41.75100
O  -6.04500 17.17200 42.75000
C  -5.39600 18.02000 43.77700
H  -10.44200 21.34100 39.73000
H  -15.15700 16.78600 38.86300
H  -10.76600 12.21100 39.90900
H  -6.13000 19.35500 40.89200
H  -8.07200 21.25200 39.55400
H  -7.65900 22.31100 41.35900
H  -7.28800 20.75200 42.28000
H  -8.95600 21.43600 42.10000
H  -6.53600 20.47000 38.33800
H  -6.92100 18.77600 38.00400
H  -4.51000 18.62700 39.34000
H  -4.33800 20.03100 38.20300
H  -13.78600 22.46000 39.61900
H  -12.86800 22.36600 38.11200
H  -12.15900 22.40000 39.69100
H  -17.58100 19.38000 38.63600
H  -16.55200 18.19400 39.44000
H  -16.50700 18.27600 37.72800
H  -14.86300 14.34200 38.20700
H  -13.36600 12.68200 40.26500
H  -15.08800 13.85900 41.25800
H  -16.44400 13.82900 40.20600
H  -15.71300 15.35000 40.64400
H  -12.48100 12.85200 37.24300
H  -14.16100 12.39300 37.61800
H  -11.91400 10.73300 38.00000
H  -13.57600 10.35500 37.66200
H  -13.01700 10.73700 39.38000
H  -6.83700 11.76200 40.85500
H  -8.16900 11.28900 39.78500
H  -8.42700 11.38600 41.50800
H  -5.11700 16.46800 39.95700
H  -4.98200 18.87000 43.23400
H  -4.71200 17.54500 44.48000
H  -6.21500 18.43300 44.36600

