158

Mg 46.26100 3.67400 48.22400
C  44.57500 6.62900 47.18000
C  43.37900 1.92000 47.62800
C  48.09200 0.94600 48.35300
C  49.22300 5.74100 48.31000
N  44.26400 4.23600 47.44100
C  43.78900 5.51500 47.05000
C  42.31200 5.47100 46.64700
C  41.95700 3.98800 46.99500
C  43.26500 3.32900 47.39500
C  40.73400 3.85700 47.94800
C  41.94900 5.99500 45.22500
C  40.59800 6.86500 45.21500
H  39.66100 6.77900 44.07800
N  45.79600 1.64700 48.05400
C  44.60200 1.14000 47.78800
C  44.67200 -0.27100 47.70100
C  46.05800 -0.64500 47.84000
C  46.76000 0.66800 48.13500
C  43.40400 -1.11800 47.27000
C  46.57900 -2.03000 47.54400
O  45.88300 -2.93100 47.12100
C  48.02300 -2.29200 47.88200
N  48.42200 3.47500 48.33300
C  48.83900 2.20000 48.38200
C  50.37800 2.19900 48.68600
C  50.78900 3.70800 48.44500
C  49.39900 4.37200 48.38700
C  50.67800 1.64500 50.10900
C  51.40500 4.05400 47.01300
C  52.92200 4.08600 46.96300
N  46.79200 5.73900 48.01800
C  48.04400 6.44700 48.03600
C  47.78300 7.90000 47.87600
C  46.43700 7.91800 47.47200
C  45.91900 6.64500 47.56800
C  48.88300 8.86500 47.75200
C  45.42300 8.86200 46.98400
O  45.52100 10.03800 46.71100
C  44.22900 8.02400 46.85000
C  43.16600 8.52800 47.73700
O  43.07600 8.35800 48.97500
O  42.20100 9.22000 47.02700
C  41.21500 10.02200 47.74000
H  42.45300 1.41800 47.34200
H  48.74600 0.07800 48.45300
H  50.08600 6.40300 48.40500
H  41.88300 6.01800 47.48700
H  41.73700 3.36000 46.13200
H  40.24800 4.83000 48.02100
H  40.99600 3.43400 48.91800
H  40.07800 3.18700 47.39200
H  41.65900 5.23200 44.50300
H  42.77800 6.53000 44.76300
H  40.89400 7.90900 45.31300
H  40.05900 6.64900 46.13800
H  43.82100 -1.90100 46.63600
H  42.66200 -0.59700 46.66400
H  42.94900 -1.63600 48.11300
H  48.66600 -1.66100 47.26800
H  48.27400 -3.34300 47.73600
H  48.20900 -2.10000 48.93900
H  50.90300 1.58200 47.95700
H  51.25000 4.24200 49.27500
H  49.79000 1.32900 50.65500
H  51.35100 2.28900 50.67600
H  51.34000 0.79400 49.94600
H  51.05200 4.97800 46.55600
H  51.10700 3.25000 46.33800
H  53.13200 3.49000 46.07500
H  53.32300 3.52800 47.81000
H  53.24900 5.12500 46.98800
H  49.47100 8.62800 46.86600
H  49.57300 8.61600 48.55900
H  48.49600 9.88000 47.84400
H  43.76100 8.15200 45.87400
H  40.43200 9.38200 48.14800
H  40.95000 10.69400 46.92400
H  41.72900 10.54600 48.54500
Mg 5.82700 54.44600 40.34400
C  4.65800 51.10700 40.24000
C  9.00300 53.40000 40.12700
C  6.60500 57.77100 40.17900
C  2.34300 55.38300 40.47600
N  6.77800 52.44600 40.04000
C  6.06700 51.19800 40.07000
C  7.10300 50.06400 39.97500
C  8.55700 50.79300 40.21700
C  8.12500 52.28500 40.26600
C  9.37900 50.36700 41.43000
C  7.09200 49.29700 38.58400
C  7.35700 50.09200 37.34300
H  6.38500 49.94800 36.14500
N  7.51300 55.45700 39.91900
C  8.78200 54.77600 39.96100
C  9.81700 55.82000 39.83400
C  9.22400 57.06700 39.91100
C  7.72200 56.80700 40.00100
C  11.31700 55.61000 39.80800
C  9.89200 58.40800 39.84200
O  11.06500 58.57000 39.85600
C  9.12300 59.63800 39.85200
N  4.56700 56.30900 39.98300
C  5.21100 57.52100 40.23700
C  4.14700 58.67000 40.32600
C  2.78200 57.90500 40.19400
C  3.23400 56.38300 40.19700
C  4.32500 59.64800 41.53200
C  1.89600 58.35000 39.01700
C  0.43200 58.90900 39.28900
N  3.91200 53.53800 40.47500
C  2.62200 54.03700 40.52900
C  1.63800 53.01600 40.76700
C  2.42800 51.82700 40.72200
C  3.76100 52.21300 40.45900
C  0.27700 53.33000 41.09200
C  2.37900 50.41000 40.80900
O  1.41500 49.61800 40.96000
C  3.80100 49.86100 40.48500
C  3.62100 49.09200 39.21800
O  3.37100 49.54700 38.12600
O  4.00800 47.78600 39.55300
C  3.91800 46.76000 38.55300
H  10.05900 53.18300 39.95300
H  6.78900 58.82800 40.38000
H  1.34700 55.72000 40.77100
H  6.99600 49.33600 40.77900
H  9.22400 50.64100 39.36900
H  9.39700 51.22300 42.10500
H  10.41400 50.18700 41.13900
H  9.06800 49.42800 41.88700
H  6.08800 48.88200 38.50000
H  7.72000 48.40600 38.59700
H  8.37400 49.82900 37.05200
H  7.29400 51.15200 37.58600
H  11.71100 55.71600 40.81900
H  11.92900 56.09400 39.04700
H  11.42900 54.54400 39.61000
H  9.72800 60.54300 39.81100
H  8.41500 59.78500 40.66700
H  8.45000 59.65000 38.99500
H  4.18900 59.30700 39.44300
H  2.13200 58.00800 41.06300
H  3.36900 59.89900 41.99200
H  4.67200 60.64200 41.25300
H  5.01600 59.16600 42.22500
H  1.81900 57.55300 38.27700
H  2.41400 59.14300 38.47900
H  0.37600 59.93700 38.93100
H  0.27600 58.80400 40.36200
H  -0.33300 58.31600 38.78600
H  -0.42900 52.50000 41.05900
H  -0.07300 54.03100 40.33400
H  0.12500 53.75100 42.08600
H  4.12600 49.24400 41.32300
H  3.85600 47.22700 37.57000
H  3.01600 46.15800 38.66600
H  4.77200 46.08200 38.54500

