158

Mg 9.28200 4.38700 28.03400
C  10.81600 2.88100 30.90300
C  7.25000 6.17700 30.20000
C  7.73900 5.55000 25.43400
C  11.10700 2.06700 26.11100
N  9.02800 4.39900 30.30300
C  9.90500 3.94700 31.30900
C  9.52900 4.58300 32.65400
C  8.24100 5.41400 32.31800
C  8.06200 5.25000 30.83400
C  7.06200 5.02300 33.18600
C  10.76600 5.52200 33.08500
C  10.82200 5.94700 34.58800
H  11.79300 5.20700 35.58100
N  7.81600 5.88300 27.82600
C  7.07000 6.41400 28.80600
C  6.21200 7.38700 28.16500
C  6.44400 7.36200 26.81800
C  7.34500 6.23000 26.62400
C  5.17800 8.17400 28.89500
C  5.82900 8.20500 25.69000
O  6.05600 7.97100 24.55200
C  5.00600 9.25700 25.93900
N  9.27600 3.71700 26.05000
C  8.57000 4.47100 25.13600
C  9.06200 4.14800 23.76800
C  10.01000 2.92700 23.92900
C  10.20200 2.89500 25.47800
C  7.92900 3.89800 22.75700
C  11.40400 2.90900 23.12400
C  11.55700 1.81900 22.07000
N  10.71300 2.80500 28.39800
C  11.35000 1.91600 27.50700
C  12.11400 0.86600 28.16600
C  11.98300 1.26100 29.53900
C  11.10200 2.42900 29.60200
C  12.79300 -0.35600 27.58400
C  12.39600 0.92700 30.94800
O  13.01000 -0.02700 31.39000
C  11.68900 2.01300 31.86900
C  10.87100 1.26300 32.90200
O  9.74600 0.79300 32.83100
O  11.60700 1.21700 34.03000
C  11.12300 0.69200 35.26200
H  6.63200 6.85600 30.79200
H  7.40700 6.01000 24.50100
H  11.73500 1.51700 25.40700
H  9.25700 3.83400 33.39900
H  8.42800 6.48100 32.43500
H  6.38700 4.37600 32.62600
H  6.53800 5.87600 33.61800
H  7.38200 4.55100 34.11500
H  10.90200 6.38400 32.43200
H  11.63900 4.91000 32.85600
H  9.76300 5.79000 34.79300
H  10.98800 7.02000 34.69300
H  5.54800 9.16100 29.17200
H  4.88300 7.67300 29.81700
H  4.21900 8.07200 28.38800
H  4.01200 8.95400 26.26700
H  4.75900 9.80200 25.02800
H  5.58100 9.92900 26.57600
H  9.57200 5.08500 23.54100
H  9.40700 2.04100 23.73400
H  6.96900 3.88900 23.27300
H  8.12300 2.97400 22.21100
H  8.00800 4.74000 22.06900
H  12.18800 2.82200 23.87700
H  11.43800 3.90000 22.67200
H  10.67200 1.76300 21.43500
H  11.69500 0.82200 22.48700
H  12.41200 2.02600 21.42600
H  13.55700 -0.58300 28.32800
H  13.24900 -0.12500 26.62200
H  12.02000 -1.11900 27.68500
H  12.38700 2.66600 32.39300
H  10.52600 -0.20200 35.08100
H  10.46800 1.34100 35.84400
H  11.91800 0.44800 35.96700
Mg 45.99700 2.96100 46.74400
C  43.81200 5.72900 46.24700
C  43.18100 1.00900 46.50900
C  48.14200 0.55300 46.34500
C  48.71400 5.36000 46.49300
N  43.79000 3.30700 46.43700
C  43.16200 4.51300 46.26600
C  41.59800 4.38200 45.98900
C  41.37600 2.89300 46.46900
C  42.83600 2.32000 46.47800
C  40.53600 2.71600 47.75900
C  41.05400 4.75300 44.57400
C  40.21500 6.03100 44.43600
H  40.81000 6.95600 43.38800
N  45.74600 0.99900 46.56500
C  44.48200 0.40700 46.45800
C  44.64800 -1.05200 46.37000
C  46.04800 -1.25100 46.23400
C  46.75100 0.10100 46.41300
C  43.56900 -1.98700 46.29400
C  46.71200 -2.62400 45.99600
O  46.04900 -3.65400 45.88700
C  48.20000 -2.78800 46.09500
N  48.10000 3.00000 46.38500
C  48.74600 1.77200 46.40100
C  50.27800 1.98500 46.52700
C  50.51300 3.54300 46.49400
C  49.04000 3.99400 46.50800
C  50.85700 1.31700 47.76200
C  51.29300 4.08500 45.18100
C  52.77900 3.95600 45.16700
N  46.31500 5.15200 46.49600
C  47.44500 5.94900 46.47400
C  47.06100 7.30900 46.35000
C  45.59700 7.31100 46.45300
C  45.22600 5.93000 46.33100
C  48.01900 8.50500 46.30100
C  44.42100 8.13600 46.53600
O  44.28800 9.33400 46.65900
C  43.18900 7.14000 46.49700
C  42.40800 7.27000 47.77800
O  42.27200 6.44000 48.65700
O  41.76500 8.45700 47.67700
C  40.72000 8.72900 48.62900
H  42.31800 0.34400 46.44700
H  48.83100 -0.28800 46.25000
H  49.50900 6.10800 46.52500
H  41.14300 5.17700 46.58100
H  40.88600 2.24500 45.74200
H  41.03600 2.07800 48.48800
H  39.60200 2.21500 47.50500
H  40.30200 3.65300 48.26400
H  40.45000 3.93400 44.18400
H  41.89500 4.91300 43.90000
H  40.17700 6.57000 45.38200
H  39.19000 5.71900 44.23700
H  42.62200 -1.48900 46.08900
H  43.45200 -2.41200 47.29100
H  43.67000 -2.80700 45.58300
H  48.43600 -3.84800 45.99900
H  48.55900 -2.50800 47.08500
H  48.92300 -2.28300 45.45400
H  50.76900 1.41600 45.73800
H  51.01300 3.94700 47.37400
H  51.45500 1.99900 48.36600
H  51.46400 0.49700 47.37600
H  50.09600 0.93600 48.44300
H  51.08000 5.15300 45.21600
H  50.92600 3.51400 44.32700
H  53.05100 3.67900 44.14900
H  53.13400 3.21300 45.88200
H  53.32800 4.88000 45.34600
H  47.65800 9.29000 46.96500
H  48.01500 9.04200 45.35300
H  49.06100 8.32800 46.57100
H  42.58600 7.52500 45.67400
H  39.81500 8.53200 48.05600
H  40.77500 9.75000 49.00700
H  40.77600 8.07300 49.49900

