158

Mg 53.97600 24.68800 44.58100
C  51.32300 26.73700 44.13800
C  51.69600 22.04700 43.62000
C  56.54200 22.66800 43.99200
C  56.07600 27.40200 45.19100
N  51.77500 24.37900 43.90400
C  50.96700 25.46800 43.87300
C  49.51300 25.01000 43.54600
C  49.53900 23.49200 43.98200
C  51.05900 23.29000 43.80600
C  48.94900 23.15300 45.40500
C  49.18700 25.19800 42.04300
C  50.37900 25.30300 41.05900
H  49.96800 24.99900 39.57200
N  54.13600 22.62200 44.05900
C  53.10100 21.73100 43.72100
C  53.69900 20.47700 43.37500
C  55.08500 20.53100 43.67700
C  55.30400 21.99900 43.95900
C  52.86200 19.22100 43.04100
C  56.15900 19.46000 43.57400
O  55.84000 18.32100 43.34100
C  57.59800 19.64900 44.01400
N  55.99500 25.03600 44.40100
C  56.89600 24.04500 44.16700
C  58.38100 24.53900 44.31100
C  58.18700 26.10500 44.55900
C  56.64600 26.22800 44.73300
C  59.21400 23.92900 45.51200
C  58.86400 27.04500 43.44500
C  58.10500 27.11200 42.15900
N  53.77800 26.66300 44.82700
C  54.69100 27.68100 45.12800
C  53.92900 28.92200 45.27400
C  52.64900 28.56400 44.86000
C  52.60100 27.19300 44.60400
C  54.54000 30.17100 45.71900
C  51.32700 29.12800 44.63900
O  50.99700 30.28400 44.66200
C  50.41100 27.95600 44.20100
C  49.72700 28.46500 42.95900
O  50.24900 28.55800 41.84300
O  48.39600 28.77100 43.27100
C  47.64300 29.12400 42.07000
H  51.08900 21.16600 43.40100
H  57.41700 22.04000 43.80900
H  56.80000 28.16300 45.49100
H  48.85500 25.63700 44.14900
H  48.90300 23.00300 43.24300
H  49.68400 22.75600 46.10500
H  48.09100 22.49100 45.29100
H  48.54600 24.02700 45.91700
H  48.49100 26.03700 42.06200
H  48.60400 24.33600 41.71900
H  51.21700 24.65200 41.31000
H  50.74900 26.32700 41.10700
H  51.86200 19.46300 42.68200
H  52.70500 18.70200 43.98700
H  53.47900 18.70600 42.30500
H  58.06200 18.68700 44.23200
H  57.62500 20.19500 44.95700
H  58.24000 20.14900 43.28900
H  58.86800 24.40700 43.34500
H  58.54500 26.46600 45.52400
H  60.16100 23.62600 45.06500
H  58.67800 23.06200 45.89600
H  59.45000 24.71400 46.23100
H  59.86600 26.62900 43.33700
H  58.97800 28.05500 43.84000
H  57.16000 26.57000 42.12500
H  58.65500 26.83800 41.25900
H  57.79700 28.14600 42.00500
H  54.18500 30.93600 45.02800
H  55.62700 30.14400 45.78500
H  54.03700 30.38400 46.66300
H  49.68600 27.90400 45.01200
H  48.14900 29.81000 41.39100
H  46.79700 29.75000 42.35300
H  47.29300 28.29700 41.45200
Mg 0.76300 42.96800 25.57000
C  2.54800 42.72700 28.39700
C  -2.09900 41.74700 27.42400
C  -0.87900 42.58400 22.69000
C  3.68100 43.89600 23.85000
N  0.30300 42.36200 27.63500
C  1.21400 42.44600 28.64600
C  0.51500 42.03800 30.03000
C  -0.81400 41.45700 29.61000
C  -0.91500 41.90100 28.10500
C  -1.11600 39.96900 29.89000
C  0.46400 43.31700 30.89400
C  1.34500 43.21500 32.26200
H  0.51800 43.46500 33.61600
N  -1.22800 42.35900 25.05500
C  -2.25300 42.03300 25.98500
C  -3.48800 41.91100 25.22800
C  -3.16200 42.00100 23.87400
C  -1.69200 42.35400 23.79400
C  -4.79000 41.65600 25.97200
C  -4.17000 41.97800 22.66200
O  -3.82700 42.23800 21.50800
C  -5.62000 41.61700 22.88300
N  1.37900 43.05000 23.47000
C  0.44500 42.97000 22.50400
C  1.11700 43.22300 21.18300
C  2.48800 43.92800 21.56500
C  2.55900 43.67000 23.03600
C  1.25400 41.90400 20.32800
C  2.55600 45.41000 21.21300
C  3.83600 45.80600 20.50600
N  2.73200 43.26100 25.98300
C  3.84900 43.63400 25.20000
C  5.08200 43.58200 25.96400
C  4.62600 43.20000 27.22000
C  3.23600 43.06700 27.20600
C  6.46800 43.78600 25.40700
C  5.05000 42.84900 28.54100
O  6.19600 42.73500 28.93800
C  3.75000 42.68000 29.42300
C  3.82200 41.46700 30.30800
O  3.44200 40.32300 30.01400
O  4.42600 41.78600 31.48400
C  4.55100 40.79000 32.51600
H  -2.97600 41.39700 27.97200
H  -1.37600 42.54400 21.71800
H  4.63100 44.23600 23.43200
H  1.02800 41.27700 30.61900
H  -1.61700 41.98100 30.12800
H  -1.94900 39.95800 30.59300
H  -0.29000 39.47300 30.40100
H  -1.23900 39.46500 28.93200
H  -0.57300 43.45400 31.20200
H  0.76700 44.24300 30.40600
H  2.06900 44.02900 32.22000
H  1.90600 42.28400 32.34700
H  -4.64500 42.00200 26.99500
H  -5.12100 40.61900 25.90800
H  -5.62000 42.18400 25.50100
H  -6.18400 41.52500 21.95400
H  -6.16100 42.44700 23.33700
H  -5.78300 40.66700 23.39200
H  0.41600 43.89000 20.68000
H  3.35200 43.43600 21.11700
H  2.28100 41.77700 19.98300
H  0.52800 41.78100 19.52400
H  1.05800 41.05600 20.98300
H  2.54800 45.93700 22.16700
H  1.65500 45.76500 20.71200
H  4.49100 46.56500 20.93300
H  3.42500 46.33500 19.64700
H  4.39500 44.97800 20.07000
H  6.89500 42.91600 24.90700
H  7.09800 43.95700 26.28000
H  6.43200 44.71100 24.83100
H  3.77000 43.58600 30.02700
H  4.09300 39.82500 32.29600
H  4.12900 41.01600 33.49500
H  5.59800 40.68600 32.80400

