158

Mg 16.57900 -0.75500 27.83000
C  15.77400 1.30900 30.51000
C  18.68800 -2.55700 29.94200
C  17.99500 -2.34200 24.99200
C  15.28700 1.65000 25.61300
N  17.00600 -0.73700 29.98900
C  16.51900 0.15200 30.87100
C  16.89600 -0.17900 32.36200
C  17.81700 -1.47800 32.12400
C  17.98200 -1.53400 30.56100
C  19.24400 -1.39900 32.79100
C  15.72900 -0.49100 33.36900
C  15.67700 0.19700 34.71600
H  17.00600 0.55200 35.50500
N  18.06600 -2.31200 27.52000
C  18.70400 -2.98600 28.56000
C  19.59400 -3.93000 27.90700
C  19.34100 -3.95500 26.49200
C  18.38600 -2.85400 26.23500
C  20.51800 -4.80600 28.66300
C  19.95900 -4.83300 25.42800
O  19.73800 -4.72300 24.21700
C  21.00500 -5.83100 25.76600
N  16.68600 -0.37100 25.58700
C  17.29000 -1.19700 24.69200
C  17.16200 -0.56700 23.22700
C  16.13900 0.55700 23.55600
C  16.00300 0.62100 25.03100
C  18.50700 0.06500 22.68200
C  14.69500 0.35900 22.87500
C  14.19700 1.59500 21.97300
N  15.63000 1.06700 27.98600
C  15.18600 1.92300 27.01200
C  14.35200 2.89200 27.68600
C  14.63600 2.74500 29.06600
C  15.41500 1.59000 29.14700
C  13.58100 3.98000 27.08800
C  14.40300 3.37500 30.35900
O  13.73400 4.37200 30.64300
C  15.17400 2.40000 31.40200
C  16.09100 3.12600 32.26800
O  17.23000 3.39800 32.01100
O  15.58400 3.55200 33.49700
C  16.48300 4.41900 34.28600
H  19.18000 -3.32200 30.54600
H  18.33700 -2.76400 24.04500
H  14.70300 2.41100 25.09000
H  17.62300 0.57200 32.67000
H  17.31600 -2.35000 32.54400
H  20.06400 -1.28700 32.08200
H  19.29700 -2.28300 33.42500
H  19.31200 -0.50800 33.41500
H  15.72800 -1.55100 33.62200
H  14.74700 -0.36800 32.91100
H  14.99300 -0.35400 35.36200
H  15.12900 1.12400 34.55000
H  21.49400 -4.95400 28.20000
H  20.06100 -5.78800 28.78400
H  20.60800 -4.34700 29.64700
H  20.47200 -6.63200 26.27900
H  21.75700 -5.24000 26.28700
H  21.41700 -6.29000 24.86700
H  16.71400 -1.30800 22.56500
H  16.64500 1.45800 23.21100
H  19.21500 0.08500 23.51000
H  18.51300 1.07300 22.26800
H  18.93500 -0.64400 21.97300
H  13.91200 0.23100 23.62300
H  14.63100 -0.52600 22.24200
H  13.31200 2.06100 22.40700
H  13.87000 1.40100 20.95200
H  14.99000 2.33800 21.89700
H  14.21800 4.49400 26.36900
H  13.39600 4.74200 27.84600
H  12.73400 3.49900 26.59900
H  14.30300 2.04700 31.95400
H  16.47600 5.31500 33.66600
H  17.44300 3.94400 34.48600
H  15.99600 4.62800 35.23900
Mg -9.83700 39.77500 39.60400
C  -9.21300 36.30000 38.94000
C  -6.73000 40.53500 38.55700
C  -10.99800 42.96900 39.24900
C  -13.37300 38.72000 39.98300
N  -8.13400 38.48400 38.68900
C  -8.01900 37.13000 38.63800
C  -6.53800 36.74100 38.36900
C  -5.84000 38.13200 38.56700
C  -6.96900 39.12200 38.69200
C  -4.80200 38.22000 39.65900
C  -6.37300 36.01900 37.00000
C  -6.82700 36.76000 35.76200
H  -8.09300 36.29700 35.01900
N  -8.99800 41.48700 39.04700
C  -7.63300 41.60700 38.66400
C  -7.29600 43.00000 38.64900
C  -8.49200 43.73300 38.83600
C  -9.57400 42.74200 39.05700
C  -5.80600 43.48800 38.59400
C  -8.51400 45.25200 38.73900
O  -7.49500 45.90600 38.48600
C  -9.74200 46.00300 39.04200
N  -11.89600 40.67500 39.64700
C  -12.01400 42.00000 39.57300
C  -13.52200 42.36800 39.67000
C  -14.19400 41.08200 40.16600
C  -13.09000 40.08800 39.91400
C  -13.75800 43.63700 40.59700
C  -15.63400 40.84500 39.52700
C  -16.70700 40.59100 40.66100
N  -11.02900 37.96600 39.60900
C  -12.40600 37.73900 39.72400
C  -12.70800 36.37500 39.43000
C  -11.48700 35.77600 39.26300
C  -10.48600 36.79500 39.37700
C  -14.06500 35.78100 39.46100
C  -10.89100 34.46800 39.09500
O  -11.35200 33.36000 38.91100
C  -9.37500 34.80300 38.84100
C  -8.55000 33.99800 39.79900
O  -8.86100 33.77400 40.99200
O  -7.33200 33.61500 39.19700
C  -6.35100 32.92800 40.00500
H  -5.71300 40.89400 38.38800
H  -11.28400 44.02300 39.24000
H  -14.42600 38.49400 40.16500
H  -6.29900 36.06700 39.19300
H  -5.34800 38.38900 37.62900
H  -3.83300 38.10600 39.17300
H  -4.85300 37.40300 40.37800
H  -4.91200 39.16800 40.18600
H  -6.87500 35.05200 36.97600
H  -5.34100 35.77500 36.74900
H  -6.01400 36.59800 35.05500
H  -7.01200 37.78500 36.08200
H  -5.55600 44.09500 37.72400
H  -5.03700 42.73300 38.75400
H  -5.74600 44.19700 39.42000
H  -10.07500 45.85800 40.07000
H  -10.52300 45.63000 38.37900
H  -9.66300 47.07300 38.84600
H  -13.69700 42.42900 38.59600
H  -14.33700 41.25100 41.23300
H  -12.93100 43.77500 41.29400
H  -14.63300 43.46500 41.22400
H  -13.89700 44.62200 40.15100
H  -15.76600 39.89400 39.01100
H  -15.99900 41.52100 38.75500
H  -17.16100 39.60400 40.56900
H  -17.53000 41.30400 40.69700
H  -16.25100 40.68000 41.64700
H  -13.91900 34.70100 39.41600
H  -14.59900 35.99600 38.53600
H  -14.56200 36.08500 40.38200
H  -9.29300 34.49500 37.79800
H  -5.46600 32.90200 39.37000
H  -6.77500 31.93900 40.18100
H  -6.13500 33.49500 40.91000

