158

Mg 47.57800 25.56100 28.14300
C  48.80100 27.65000 30.68200
C  46.90000 23.21500 30.49300
C  47.06200 23.44600 25.68000
C  49.24400 27.65500 25.74700
N  47.98600 25.39600 30.31900
C  48.27900 26.43900 31.18000
C  47.98600 26.06600 32.68900
C  47.53900 24.53000 32.59800
C  47.45100 24.34600 31.03900
C  48.60200 23.64600 33.28300
C  47.11200 27.12700 33.43300
C  46.24600 26.65700 34.60000
H  46.16300 27.61300 35.71400
N  46.96200 23.57000 28.07300
C  46.69800 22.76200 29.14500
C  46.11600 21.50000 28.67000
C  46.14900 21.55800 27.28500
C  46.71700 22.90600 26.90200
C  45.63700 20.50400 29.60500
C  45.59100 20.54900 26.33200
O  45.62800 20.75900 25.13200
C  45.03100 19.19100 26.93100
N  48.30800 25.48000 25.99000
C  47.76400 24.51900 25.21300
C  48.05600 24.73500 23.69900
C  48.68400 26.20400 23.73900
C  48.73600 26.50700 25.21700
C  48.96800 23.66100 23.04300
C  47.99700 27.28500 22.88900
C  48.68500 27.82900 21.60600
N  48.68300 27.32700 28.14500
C  49.21500 28.09200 27.14200
C  49.74700 29.30300 27.75400
C  49.62500 29.14600 29.10800
C  48.98500 27.97100 29.33300
C  50.50300 30.46500 27.02200
C  49.85700 29.87000 30.40600
O  50.35000 30.96400 30.65800
C  49.29300 28.87200 31.44700
C  50.48500 28.51200 32.29200
O  51.27000 27.61100 32.06200
O  50.40700 29.22700 33.44500
C  51.30000 28.88200 34.55600
H  46.72600 22.55200 31.34300
H  46.77000 22.91500 24.77200
H  49.85700 28.27500 25.09000
H  48.93900 26.31000 33.15700
H  46.60900 24.41900 33.15500
H  49.29300 24.25100 33.87200
H  49.21400 23.09600 32.56800
H  48.16500 22.93000 33.97900
H  46.56200 27.65800 32.65600
H  47.78000 27.87900 33.85300
H  46.55900 25.69000 34.99200
H  45.25700 26.49600 34.17100
H  46.41500 19.74200 29.65600
H  44.61900 20.24700 29.31300
H  45.30700 20.89400 30.56800
H  45.78700 18.77300 27.59600
H  44.87200 18.53800 26.07300
H  44.09600 19.30400 27.48000
H  47.08600 24.67800 23.20500
H  49.74300 26.21400 23.48000
H  49.72500 24.19200 22.46500
H  48.34600 23.14600 22.31200
H  49.38600 23.01500 23.81600
H  47.86400 28.18500 23.48900
H  47.06200 26.87500 22.50700
H  48.96300 28.87700 21.70900
H  47.87400 27.83900 20.87700
H  49.53900 27.28300 21.20500
H  49.90500 30.98400 26.27200
H  51.45600 30.11800 26.62400
H  50.71100 31.17500 27.82300
H  48.44100 29.18300 32.05200
H  50.83300 28.03000 35.05200
H  51.36800 29.74000 35.22500
H  52.28900 28.64400 34.16600
Mg 49.00400 36.40900 27.52300
C  47.00200 34.79200 29.86400
C  49.17600 39.10700 29.78200
C  50.58100 38.28900 25.14800
C  48.37900 33.91500 25.22600
N  48.33100 36.83800 29.73800
C  47.48600 35.97400 30.41100
C  47.29600 36.46600 31.81900
C  47.63700 38.07800 31.60800
C  48.42500 38.06900 30.26200
C  46.46000 39.13300 31.41100
C  48.30100 35.78000 32.80200
C  47.76100 35.49500 34.19200
H  47.99500 36.52300 35.33300
N  49.79800 38.41000 27.50800
C  49.85100 39.30400 28.54200
C  50.70600 40.39600 28.12700
C  51.09800 40.22900 26.77900
C  50.50400 38.92200 26.41400
C  50.93200 41.42600 29.13300
C  51.90800 41.11700 26.00800
O  52.33000 40.73300 24.90000
C  52.25800 42.50300 26.40500
N  49.44800 36.11900 25.55100
C  50.01500 37.10200 24.77600
C  50.12700 36.64700 23.33500
C  49.53600 35.13800 23.33900
C  49.11000 35.00800 24.78500
C  49.49300 37.60300 22.30800
C  50.61200 34.06600 22.91500
C  50.26800 32.82500 22.10200
N  48.04900 34.68400 27.56000
C  47.90500 33.72000 26.53400
C  47.11900 32.61600 27.01800
C  46.66900 32.98900 28.31600
C  47.30600 34.26100 28.55400
C  46.85500 31.30100 26.31000
C  45.79900 32.69400 29.48500
O  45.17600 31.66500 29.75900
C  45.97300 33.87400 30.47900
C  46.27300 33.16400 31.72600
O  47.16400 32.37300 31.85900
O  45.38800 33.60500 32.71100
C  45.44800 32.91500 34.02100
H  48.97500 39.95500 30.44100
H  51.12100 38.84500 24.37800
H  48.06200 33.17100 24.49100
H  46.24800 36.27500 32.05200
H  48.39500 38.45700 32.29400
H  45.49300 38.73500 31.71800
H  46.39300 39.44300 30.36800
H  46.71600 39.98800 32.03800
H  49.24800 36.31900 32.82200
H  48.51000 34.79800 32.37900
H  48.31400 34.63400 34.56900
H  46.70900 35.21200 34.23400
H  50.90200 41.16000 30.18900
H  50.15100 42.17400 29.00500
H  51.88700 41.92500 28.96700
H  51.34300 42.98200 26.75300
H  52.67400 43.07600 25.57700
H  53.01800 42.45500 27.18500
H  51.19300 36.67600 23.10800
H  48.61500 35.09000 22.75900
H  48.92900 36.98900 21.60600
H  50.32600 38.08500 21.79600
H  48.98800 38.49700 22.67400
H  51.14900 33.76400 23.81300
H  51.41000 34.56300 22.36200
H  50.40600 31.87100 22.61000
H  50.82200 32.88900 21.16600
H  49.22100 32.76700 21.80600
H  45.89500 31.38000 25.79900
H  46.68600 30.48500 27.01300
H  47.57400 31.06500 25.52600
H  45.06900 34.48300 30.46600
H  45.28200 33.63800 34.82000
H  46.36300 32.35700 34.21700
H  44.59400 32.23900 34.06400

