158

Mg 36.31400 1.74700 30.15200
C  34.22900 2.85000 32.92100
C  38.90700 1.52600 32.27900
C  38.10700 0.81900 27.54200
C  33.33800 2.08700 28.17600
N  36.42900 1.91300 32.40700
C  35.52800 2.39000 33.32600
C  36.17300 2.46800 34.70100
C  37.75800 2.31700 34.39000
C  37.70000 1.91100 32.91400
C  38.62500 3.52600 34.84800
C  35.52400 1.58300 35.74300
C  35.21200 2.29100 37.12000
H  36.29200 3.15900 37.75500
N  38.25900 1.17300 29.95400
C  39.18900 1.14700 30.93600
C  40.42200 0.62700 30.44100
C  40.24400 0.46000 29.03800
C  38.82600 0.78900 28.78800
C  41.59200 0.32600 31.37900
C  41.28000 0.05400 27.89900
O  41.00500 -0.09200 26.71800
C  42.71000 -0.21100 28.37200
N  35.85700 1.79900 28.11500
C  36.76600 1.20900 27.23000
C  36.10700 0.88500 25.87400
C  34.56100 0.97400 26.18300
C  34.59300 1.73700 27.56500
C  36.59600 1.74000 24.69000
C  33.67000 -0.34800 26.18300
C  32.24400 -0.07900 25.73500
N  34.24400 2.42100 30.39800
C  33.17500 2.53500 29.53500
C  31.98800 2.99600 30.20100
C  32.39000 3.19000 31.50500
C  33.74500 2.77200 31.56500
C  30.71000 3.35100 29.58100
C  31.89900 3.64300 32.74900
O  30.78800 4.03000 33.03500
C  33.06200 3.39000 33.76100
C  33.32400 4.71800 34.45000
O  34.18000 5.50400 34.14900
O  32.38700 4.89300 35.50100
C  32.37500 6.25400 36.02500
H  39.80900 1.56700 32.89300
H  38.63000 0.54400 26.62300
H  32.49000 1.99100 27.49500
H  36.00800 3.50100 35.00800
H  38.12300 1.47000 34.97200
H  39.36500 3.21600 35.58500
H  37.94000 4.28400 35.22700
H  39.23000 3.91500 34.02800
H  36.08100 0.64800 35.68300
H  34.60200 1.19300 35.31200
H  35.04200 1.52600 37.87700
H  34.26200 2.80700 36.98200
H  42.27600 -0.42600 30.98400
H  41.46700 0.11400 32.44100
H  42.14700 1.24900 31.21200
H  42.74200 -0.98600 29.13800
H  43.03500 0.70700 28.86100
H  43.34300 -0.39400 27.50400
H  36.30500 -0.14700 25.58300
H  34.09100 1.59500 25.42000
H  37.28900 2.50100 25.05000
H  35.74300 2.12600 24.13200
H  37.19600 1.07400 24.07100
H  33.47500 -0.82900 27.14200
H  34.25000 -1.03100 25.56200
H  31.90000 0.93200 25.51700
H  31.54100 -0.53300 26.43400
H  32.06100 -0.57800 24.78200
H  30.08100 2.54200 29.20900
H  30.77600 4.11600 28.80700
H  30.03600 3.73200 30.34800
H  32.56000 2.68100 34.42000
H  32.25300 6.98800 35.22700
H  33.34700 6.31200 36.51600
H  31.61400 6.32700 36.80100
Mg 6.30600 53.11700 41.53300
C  5.61800 49.70000 41.39700
C  9.63400 52.45100 40.83900
C  6.97600 56.56500 41.44700
C  2.95000 53.86000 41.87600
N  7.45300 51.19600 40.92500
C  6.98000 49.94600 41.06000
C  8.15500 48.90200 40.88300
C  9.45200 49.88800 40.84000
C  8.85500 51.29100 40.99100
C  10.52700 49.47500 41.93800
C  8.12700 48.17400 39.56800
C  8.08000 48.96000 38.26000
H  7.15700 48.45200 37.19800
N  8.08800 54.34100 41.21200
C  9.35400 53.82200 41.01500
C  10.28600 54.95500 40.75500
C  9.55100 56.09100 40.90000
C  8.11700 55.71600 41.31200
C  11.81100 54.84900 40.51900
C  10.15700 57.53100 40.68900
O  11.34600 57.60500 40.42500
C  9.39200 58.80000 40.69300
N  5.14400 54.93000 41.59200
C  5.63500 56.20400 41.62600
C  4.54300 57.18600 41.60300
C  3.22900 56.36500 41.71500
C  3.78100 54.97800 41.65800
C  4.60500 58.31900 42.67500
C  2.05500 56.49800 40.64300
C  1.01000 57.54100 41.16000
N  4.62600 52.02900 41.57100
C  3.31100 52.49000 41.77300
C  2.42700 51.33600 42.11700
C  3.30500 50.20700 41.87600
C  4.60600 50.69100 41.62000
C  1.03200 51.35800 42.56400
C  3.38700 48.73800 41.98000
O  2.51800 47.92700 42.36100
C  4.81200 48.37500 41.60100
C  4.83600 47.49500 40.46400
O  4.41800 47.76400 39.36000
O  5.36700 46.29200 40.76400
C  5.41400 45.36500 39.61900
H  10.65500 52.14900 40.59600
H  7.15300 57.64200 41.44500
H  1.92700 54.13400 42.14100
H  8.27700 48.17100 41.68200
H  10.08700 49.78100 39.96000
H  11.47700 49.08900 41.56700
H  10.04900 48.90200 42.73300
H  10.77500 50.45900 42.33600
H  7.32900 47.43200 39.57700
H  9.08200 47.64900 39.57800
H  9.05600 48.80300 37.80200
H  7.76200 49.98800 38.43500
H  12.09900 55.34200 39.59100
H  12.10200 53.81100 40.36400
H  12.31700 55.31400 41.36600
H  8.58000 58.77300 39.96700
H  9.93500 59.72300 40.48800
H  9.07900 59.01300 41.71500
H  4.54600 57.56100 40.58000
H  2.76300 56.43700 42.69800
H  3.68500 58.49400 43.23200
H  4.77600 59.30200 42.23700
H  5.41900 58.11300 43.37100
H  1.51500 55.57200 40.44500
H  2.37300 56.88300 39.67400
H  0.85600 58.19100 40.29900
H  1.41400 58.13800 41.97700
H  0.00800 57.21800 41.44200
H  0.76100 50.79100 43.45500
H  0.58000 50.92800 41.67000
H  0.76600 52.40200 42.73100
H  5.24500 47.79300 42.41500
H  5.91500 44.41000 39.77700
H  5.97000 45.76600 38.77200
H  4.40700 45.19200 39.23700

