158

Mg 47.91100 16.21800 28.25300
C  46.06400 16.04700 31.24000
C  50.34500 17.94900 29.98300
C  49.38300 16.85100 25.33500
C  45.19100 14.88400 26.61800
N  48.04900 17.18900 30.38800
C  47.29300 16.76600 31.42100
C  47.86200 17.32200 32.77300
C  49.19800 18.04500 32.28400
C  49.15300 17.82300 30.76300
C  49.22300 19.56900 32.64500
C  48.07800 16.32300 33.92900
C  47.43300 16.49600 35.28700
H  47.17300 17.88100 35.87700
N  49.61500 17.20700 27.71900
C  50.53100 17.73000 28.60700
C  51.70200 18.06700 27.82000
C  51.48900 17.82400 26.48100
C  50.08900 17.34800 26.46000
C  52.97900 18.38700 28.51300
C  52.38200 18.16600 25.33800
O  51.97300 18.05000 24.15200
C  53.76600 18.82000 25.54700
N  47.29300 15.89500 26.18800
C  48.17300 16.13100 25.18600
C  47.52600 15.74500 23.84900
C  46.10600 15.26000 24.23900
C  46.22800 15.26400 25.75000
C  47.64100 16.79800 22.69400
C  45.60800 13.87400 23.75400
C  44.62900 13.77900 22.61400
N  46.15200 15.42400 28.79500
C  45.14400 14.90600 28.02600
C  43.96700 14.58100 28.86400
C  44.32900 14.99500 30.14400
C  45.59400 15.50200 30.06600
C  42.63500 14.17100 28.35100
C  43.85100 15.02000 31.43100
O  42.86500 14.48800 31.88000
C  44.96900 15.68000 32.27000
C  44.44500 16.78200 33.13000
O  44.54100 17.91100 32.76800
O  43.80100 16.32400 34.23800
C  42.92800 17.31700 34.89800
H  51.18000 18.27900 30.60400
H  50.01100 16.74200 24.44800
H  44.36600 14.39700 26.09200
H  47.22600 18.17900 32.99200
H  50.11700 17.59400 32.65800
H  48.74000 20.25100 31.94600
H  50.19100 20.03200 32.83400
H  48.68200 19.79100 33.56500
H  49.14100 16.21700 34.14600
H  47.73500 15.37200 33.52100
H  48.15400 15.97500 35.91700
H  46.49100 15.94700 35.28600
H  53.67500 17.69000 28.04500
H  52.95000 18.08100 29.55900
H  53.15200 19.45300 28.37100
H  54.16500 19.13300 24.58200
H  54.47300 18.05400 25.86700
H  53.65000 19.63700 26.25900
H  48.03200 14.82700 23.55100
H  45.51100 16.08200 23.84300
H  47.96200 16.25300 21.80600
H  48.42200 17.51500 22.94800
H  46.72700 17.38100 22.59200
H  45.18200 13.36300 24.61700
H  46.52900 13.38700 23.43200
H  45.20600 13.42100 21.76100
H  44.15100 14.74800 22.47800
H  43.92000 12.97700 22.82300
H  42.45900 13.10200 28.46700
H  42.41400 14.53800 27.34900
H  41.81300 14.68100 28.85200
H  45.31900 14.98700 33.03500
H  42.62000 18.12800 34.23800
H  43.47700 17.68200 35.76600
H  41.98300 16.82900 35.13600
Mg -6.10800 25.09600 25.64500
C  -4.41900 26.16900 28.60200
C  -7.91600 22.94000 27.47300
C  -6.85700 23.55700 22.92800
C  -3.64900 27.07100 23.90800
N  -6.03700 24.51800 27.71600
C  -5.35200 25.08100 28.78800
C  -5.80800 24.50500 30.17400
C  -6.67200 23.36400 29.71900
C  -6.96200 23.65600 28.21400
C  -6.04300 21.91400 30.06300
C  -6.67600 25.60900 30.90300
C  -6.55400 25.60500 32.46600
H  -5.88700 24.45100 33.16400
N  -7.41200 23.64600 25.25500
C  -8.21100 22.98100 26.13900
C  -9.19800 22.16700 25.47500
C  -8.77100 22.23900 24.10900
C  -7.62800 23.14300 24.03800
C  -10.24600 21.31700 26.09900
C  -9.37700 21.55300 22.85400
O  -8.89500 21.64400 21.71900
C  -10.56500 20.70100 22.97800
N  -5.32100 25.25600 23.70400
C  -5.82700 24.51000 22.71400
C  -5.23700 24.84200 21.33800
C  -4.19000 25.98800 21.67700
C  -4.37100 26.13100 23.18900
C  -4.60300 23.64700 20.59100
C  -4.37400 27.30300 20.82500
C  -3.16200 28.16500 20.43300
N  -4.45900 26.51800 26.09700
C  -3.57000 27.16600 25.29700
C  -2.75400 28.01600 26.11700
C  -3.01000 27.67300 27.45900
C  -4.02000 26.68500 27.36200
C  -1.84000 29.08900 25.57800
C  -2.67500 27.91900 28.85800
O  -1.89300 28.73800 29.38100
C  -3.62900 26.92200 29.67100
C  -2.77600 26.04700 30.53200
O  -2.35500 24.94400 30.29700
O  -2.35100 26.69500 31.69900
C  -1.33700 26.09200 32.65000
H  -8.53900 22.19200 27.96800
H  -7.12900 23.15500 21.95000
H  -2.86000 27.61700 23.38700
H  -4.86500 24.31700 30.68600
H  -7.54100 23.50000 30.36300
H  -5.58300 21.52500 29.15400
H  -6.80500 21.23300 30.44300
H  -5.39100 22.02600 30.93000
H  -7.72400 25.68600 30.61200
H  -6.16600 26.47300 30.47800
H  -7.55800 25.69200 32.88000
H  -5.97400 26.51800 32.60400
H  -9.98800 20.25900 26.06200
H  -11.21300 21.36100 25.59800
H  -10.45700 21.64200 27.11800
H  -11.37600 21.27700 23.42600
H  -10.23700 19.82700 23.54000
H  -10.81900 20.34700 21.97900
H  -5.92300 25.32600 20.64200
H  -3.12400 25.78200 21.58400
H  -3.62400 23.89000 20.17700
H  -5.30100 23.31600 19.82200
H  -4.57700 22.89000 21.37500
H  -5.05700 27.86800 21.45900
H  -4.90300 27.00500 19.92000
H  -3.48700 29.16500 20.14700
H  -2.79800 27.83700 19.45900
H  -2.24600 28.17300 21.02400
H  -2.41500 29.64600 24.83900
H  -0.94200 28.59100 25.21200
H  -1.45300 29.77700 26.33000
H  -4.23000 27.45100 30.41000
H  -0.42400 26.67700 32.54000
H  -1.08600 25.03300 32.58500
H  -1.85600 26.30800 33.58300

