158

Mg -1.52300 17.38500 26.93700
C  -2.18400 15.07000 29.43400
C  -1.89900 19.90800 28.98000
C  -1.17900 19.46300 24.25600
C  -1.48100 14.64600 24.59600
N  -2.02800 17.39900 28.95800
C  -2.14500 16.36400 29.88900
C  -2.23100 16.95400 31.39200
C  -2.15500 18.57300 31.18900
C  -2.07400 18.68600 29.61400
C  -3.33100 19.31900 31.94900
C  -1.16600 16.28700 32.35300
C  -0.97500 16.89200 33.74600
H  -1.03800 15.96900 35.09600
N  -1.52000 19.43800 26.65300
C  -1.80400 20.29100 27.65800
C  -1.80000 21.61200 27.14000
C  -1.59400 21.49300 25.73400
C  -1.36700 20.09800 25.51200
C  -2.05500 22.85000 27.89200
C  -1.62300 22.63100 24.66400
O  -1.55500 22.38800 23.47400
C  -1.98500 23.99500 25.05300
N  -1.44600 17.00000 24.75600
C  -1.14200 18.08100 23.98100
C  -1.04200 17.62800 22.48700
C  -0.86500 15.99700 22.64700
C  -1.28400 15.86900 24.09600
C  -2.18800 18.08900 21.56000
C  0.59500 15.56400 22.36000
C  1.80900 16.34500 22.84100
N  -1.84000 15.22700 26.95300
C  -1.75800 14.23700 25.93600
C  -1.93700 12.95900 26.52800
C  -1.99200 13.23500 27.95100
C  -2.02000 14.65100 28.11700
C  -1.89200 11.62200 25.88600
C  -2.13500 12.57300 29.19100
O  -2.18300 11.39000 29.51900
C  -2.18000 13.69400 30.23900
C  -0.87800 13.60300 30.88800
O  0.23000 14.02800 30.51200
O  -1.07100 13.08300 32.09700
C  0.12200 12.94500 32.99300
H  -2.03300 20.61800 29.79900
H  -1.07600 20.05500 23.34400
H  -1.36700 13.86000 23.84600
H  -3.21200 16.61800 31.73000
H  -1.20400 18.77800 31.68100
H  -4.02800 19.65800 31.18300
H  -2.88900 20.19900 32.41700
H  -3.89400 18.67000 32.61900
H  -0.23400 16.18700 31.79700
H  -1.51600 15.29200 32.62700
H  -1.67500 17.71300 33.90300
H  0.01200 17.35300 33.75800
H  -1.28600 23.61100 27.76500
H  -2.02600 22.64200 28.96200
H  -2.99200 23.31700 27.58900
H  -1.90600 24.57500 24.13300
H  -1.20900 24.47300 25.65000
H  -2.95100 24.05000 25.55500
H  -0.10800 18.04500 22.11000
H  -1.58000 15.45000 22.03300
H  -2.25800 19.13300 21.25300
H  -3.10500 17.65500 21.95800
H  -2.30500 17.50400 20.64800
H  0.68800 15.69100 21.28100
H  0.81100 14.51100 22.53500
H  1.55200 17.13000 23.55200
H  2.35300 16.86000 22.04900
H  2.38700 15.75000 23.54800
H  -1.44700 11.63600 24.89200
H  -2.92600 11.27700 25.91400
H  -1.26900 10.96400 26.49200
H  -2.97900 13.56500 30.96900
H  0.62900 13.88400 33.21200
H  0.93600 12.30000 32.66000
H  -0.09800 12.41700 33.92100
Mg 35.10100 2.22400 28.97100
C  33.06800 3.59500 31.53400
C  37.72600 2.21800 31.02600
C  37.04800 1.38800 26.28800
C  32.47300 2.88400 26.71900
N  35.31300 2.93900 31.02400
C  34.39000 3.22700 31.95800
C  34.99800 3.29700 33.38100
C  36.54300 3.09300 33.07300
C  36.50200 2.72300 31.63000
C  37.37700 4.39000 33.36800
C  34.36100 2.14900 34.28200
C  33.76400 2.61200 35.57000
H  34.52000 3.71200 36.22500
N  37.06200 1.77400 28.69600
C  37.94200 1.70900 29.74600
C  39.16200 1.05200 29.31900
C  39.05900 0.86500 27.91100
C  37.64800 1.30400 27.57100
C  40.34800 0.91500 30.27300
C  40.04000 0.38400 26.84200
O  39.86100 0.41500 25.63700
C  41.32400 -0.20300 27.26500
N  34.70900 1.92500 26.87800
C  35.71400 1.64700 26.02700
C  35.15000 1.67800 24.57100
C  33.66200 2.03700 24.76600
C  33.57800 2.33000 26.20500
C  35.93100 2.71500 23.69300
C  32.62900 0.96100 24.20300
C  32.63700 -0.43400 24.85100
N  33.19200 3.09400 29.03800
C  32.25400 3.20500 28.08600
C  31.04400 3.78100 28.62400
C  31.30800 3.98300 29.98200
C  32.63200 3.50800 30.19800
C  29.77400 4.01700 28.03500
C  30.71600 4.32900 31.23700
O  29.66300 4.84100 31.51700
C  31.85700 4.06700 32.32700
C  32.10400 5.20000 33.22800
O  32.83400 6.15500 33.05800
O  31.32000 5.03300 34.31200
C  31.50100 6.01100 35.44700
H  38.52200 2.11900 31.76700
H  37.66700 1.12000 25.42900
H  31.63600 2.82700 26.02000
H  34.92700 4.27700 33.85200
H  37.04200 2.30900 33.64200
H  38.02200 4.81800 32.60100
H  37.91500 4.16400 34.28900
H  36.70600 5.19500 33.66700
H  35.00200 1.29900 34.51400
H  33.52900 1.79300 33.67500
H  33.64400 1.78700 36.27200
H  32.79200 3.04400 35.33300
H  40.85300 -0.01600 30.01500
H  39.96700 0.80500 31.28800
H  40.98000 1.80200 30.23100
H  41.88300 -0.72600 26.48900
H  41.18600 -0.89500 28.09600
H  41.99500 0.59600 27.57900
H  35.27600 0.66500 24.18900
H  33.51800 2.99600 24.26800
H  36.39200 3.35500 24.44500
H  35.22900 3.23300 23.04000
H  36.66000 2.08100 23.18800
H  32.74800 0.70600 23.15100
H  31.67000 1.47700 24.13800
H  32.66100 -1.22400 24.10100
H  31.71400 -0.58500 25.41200
H  33.52000 -0.54400 25.48100
H  29.74400 5.00000 27.56400
H  28.94900 4.15600 28.73400
H  29.43700 3.41700 27.19000
H  31.44100 3.15400 32.75300
H  30.56000 6.53600 35.60900
H  32.31200 6.69700 35.20200
H  31.77600 5.59000 36.41400

