158

Mg 23.78300 -5.87400 46.14600
C  25.99800 -3.51900 44.77400
C  21.33500 -4.74500 44.21900
C  21.92200 -8.46400 47.25700
C  26.70400 -7.44400 47.64000
N  23.70300 -4.30100 44.75000
C  24.71600 -3.50300 44.25400
C  24.07600 -2.43900 43.32700
C  22.54600 -2.68500 43.37200
C  22.55000 -4.02000 44.11700
C  21.69100 -1.48100 43.85500
C  24.79900 -2.46100 41.88600
C  25.28200 -1.04000 41.42900
H  25.22100 -0.73400 39.92700
N  21.85100 -6.43500 45.89500
C  21.01100 -5.86300 44.99000
C  19.73200 -6.47100 45.05600
C  19.87700 -7.60500 45.92200
C  21.28000 -7.52800 46.42100
C  18.61500 -6.02000 44.09200
C  18.68700 -8.50700 46.31000
O  17.58400 -8.33900 45.82200
C  18.82500 -9.60200 47.34700
N  24.15700 -7.64200 47.39800
C  23.21900 -8.56900 47.71600
C  23.72600 -9.63900 48.68300
C  25.28500 -9.40400 48.60800
C  25.45500 -8.06300 47.84900
C  23.12300 -9.56000 50.06600
C  26.12100 -10.50000 47.82700
C  27.38000 -11.04300 48.55100
N  25.95000 -5.50800 46.31200
C  26.90500 -6.20800 46.99200
C  28.17400 -5.48700 46.81900
C  27.84500 -4.30600 46.01400
C  26.44300 -4.43800 45.71800
C  29.45600 -5.83600 47.47200
C  28.38500 -3.17000 45.28800
O  29.46300 -2.50500 45.31200
C  27.17100 -2.58600 44.46100
C  27.00100 -1.24900 45.04300
O  26.81800 -0.93700 46.22000
O  27.21100 -0.24200 44.01700
C  27.12100 1.17000 44.37600
H  20.57900 -4.22200 43.63000
H  21.34800 -9.35500 47.52200
H  27.57900 -7.92400 48.08400
H  24.35000 -1.51800 43.84100
H  22.24400 -3.02600 42.38200
H  21.43000 -0.99700 42.91400
H  22.39400 -0.84300 44.39000
H  20.72900 -1.71400 44.31100
H  24.19400 -2.78800 41.04100
H  25.63600 -3.15800 41.86900
H  26.31000 -1.00100 41.78800
H  24.80700 -0.22200 41.97000
H  17.84100 -6.76900 43.92400
H  19.00200 -5.61900 43.15500
H  18.13700 -5.27500 44.72800
H  17.87900 -10.14500 47.34700
H  19.09900 -9.12300 48.28700
H  19.52800 -10.38800 47.07200
H  23.38200 -10.58700 48.27000
H  25.76500 -9.16600 49.55600
H  22.10800 -9.94400 49.96600
H  23.13500 -8.58100 50.54500
H  23.52600 -10.34000 50.71100
H  26.51300 -10.07300 46.90400
H  25.43700 -11.32000 47.60900
H  27.49700 -12.11500 48.39400
H  27.40400 -10.75100 49.60000
H  28.25200 -10.51500 48.16300
H  29.39300 -6.55300 48.29000
H  30.00000 -4.95200 47.80400
H  30.06600 -6.15000 46.62400
H  27.54400 -2.53500 43.43800
H  27.43500 1.40900 45.39200
H  26.17200 1.56300 44.01100
H  27.86200 1.54300 43.67000
Mg -2.73700 35.25500 26.30300
C  -4.14700 33.64500 29.12300
C  -1.04700 37.41700 28.40800
C  -1.57900 36.95700 23.58800
C  -4.37300 33.04900 24.22400
N  -2.59800 35.44300 28.56600
C  -3.31200 34.73600 29.46500
C  -2.81600 35.14500 30.90700
C  -1.96900 36.45500 30.59700
C  -1.81700 36.42600 29.08200
C  -2.55600 37.76400 31.18100
C  -2.10000 33.97100 31.69800
C  -2.67000 33.60700 33.13000
H  -1.80600 33.66100 34.39800
N  -1.57800 36.94100 26.05500
C  -0.95500 37.67500 27.05700
C  -0.15200 38.64700 26.48200
C  -0.16100 38.46900 25.10200
C  -1.20800 37.47700 24.83800
C  0.52900 39.72000 27.35500
C  0.78500 39.10000 24.09800
O  0.66100 38.94800 22.89600
C  1.92100 39.89100 24.53800
N  -3.00200 35.06700 24.22800
C  -2.35000 35.86200 23.32600
C  -2.66300 35.46800 21.86900
C  -3.43900 34.06400 22.07200
C  -3.59700 34.02300 23.58700
C  -3.59800 36.62500 21.31600
C  -2.61100 32.85100 21.38000
C  -1.97300 31.71400 22.24600
N  -3.98600 33.72600 26.55300
C  -4.61300 32.87700 25.59500
C  -5.36800 31.90400 26.26300
C  -5.27700 32.23400 27.59600
C  -4.35100 33.27600 27.75600
C  -6.19300 30.77400 25.71400
C  -5.66100 31.73100 28.87000
O  -6.33500 30.71900 29.11500
C  -5.02000 32.69300 29.89200
C  -6.03200 33.35000 30.61300
O  -6.51700 34.42900 30.39100
O  -6.09300 32.71000 31.79900
C  -6.69300 33.41800 32.98400
H  -0.52500 38.05400 29.12600
H  -1.17600 37.52000 22.74400
H  -4.74800 32.26200 23.56600
H  -3.73500 35.27100 31.47900
H  -1.02800 36.30200 31.12600
H  -3.49200 37.64900 31.72700
H  -2.73400 38.37500 30.29700
H  -1.73500 38.10000 31.81500
H  -1.06400 34.23400 31.91100
H  -1.98200 33.03100 31.15800
H  -3.05100 32.58700 33.07000
H  -3.59400 34.13600 33.36100
H  0.15700 39.98800 28.34400
H  0.61600 40.64400 26.78300
H  1.48800 39.20100 27.35100
H  2.48200 39.51700 25.39400
H  1.54700 40.90400 24.68500
H  2.62300 39.96700 23.70700
H  -1.80500 35.32700 21.21200
H  -4.41300 34.10700 21.58400
H  -3.06300 37.52600 21.01600
H  -4.48900 36.77900 21.92500
H  -3.98700 36.21400 20.38500
H  -1.92900 33.38900 20.72000
H  -3.29200 32.34100 20.69800
H  -0.99700 31.60100 21.77300
H  -2.51400 30.77200 22.15900
H  -1.76400 32.02100 23.27100
H  -6.03100 29.86000 26.28500
H  -5.90200 30.56000 24.68600
H  -7.23700 31.05900 25.84200
H  -4.33300 32.08500 30.48000
H  -7.15200 34.38900 32.79600
H  -6.10600 33.48900 33.90000
H  -7.49300 32.70100 33.16700

