158

Mg 25.07400 -7.46100 47.82400
C  26.79500 -4.95500 46.10900
C  22.49800 -7.18300 45.63800
C  23.70500 -10.10000 49.40800
C  28.14500 -8.15500 49.49900
N  24.75600 -6.04900 46.13000
C  25.60100 -5.17700 45.47900
C  24.93000 -4.45600 44.33200
C  23.59700 -5.29100 44.16800
C  23.51500 -6.18800 45.47200
C  22.30100 -4.43600 43.75200
C  25.89100 -4.21400 43.11400
C  26.12600 -2.72800 42.79800
H  25.54400 -2.39500 41.48100
N  23.29900 -8.47100 47.57500
C  22.39000 -8.21000 46.62200
C  21.30100 -9.12100 46.81100
C  21.59800 -9.91200 47.90900
C  22.88600 -9.47600 48.41600
C  20.05400 -9.17500 45.87600
C  20.69500 -10.93300 48.40700
O  19.59900 -11.10800 47.87200
C  21.00000 -11.61000 49.75400
N  25.79300 -8.89600 49.35100
C  25.01000 -9.84700 49.81800
C  25.79000 -10.87600 50.74500
C  27.27000 -10.36800 50.53200
C  27.03500 -9.06400 49.76900
C  25.47500 -10.60500 52.22500
C  28.21400 -11.29900 49.66500
C  29.64100 -11.48500 50.17100
N  27.05200 -6.73300 47.82000
C  28.13400 -7.05000 48.62700
C  29.26800 -6.13900 48.30500
C  28.77700 -5.26600 47.34300
C  27.43400 -5.68800 47.03800
C  30.55800 -6.12700 48.96500
C  29.10900 -4.07900 46.64400
O  30.12900 -3.35800 46.58400
C  27.86700 -3.86300 45.75300
C  27.46600 -2.49900 46.32200
O  26.66100 -2.45200 47.23700
O  28.08600 -1.49200 45.76600
C  27.55300 -0.11500 46.02900
H  21.75300 -7.11000 44.84200
H  23.40500 -10.97900 49.98100
H  29.07800 -8.25400 50.05700
H  24.56900 -3.50000 44.71000
H  23.85300 -5.93800 43.32900
H  21.47200 -4.96200 44.22400
H  22.26900 -4.36300 42.66500
H  22.38500 -3.46000 44.22800
H  25.46700 -4.70500 42.23800
H  26.86700 -4.68700 43.22300
H  27.17800 -2.47300 42.91900
H  25.65200 -2.04300 43.50200
H  19.29700 -8.82700 46.57900
H  19.87400 -10.20100 45.55500
H  20.07900 -8.41900 45.09200
H  21.68500 -12.43200 49.54800
H  20.06500 -12.02900 50.12800
H  21.36800 -10.89800 50.49300
H  25.50800 -11.89000 50.46300
H  27.73100 -10.14300 51.49400
H  26.12300 -9.84400 52.66000
H  25.47600 -11.55200 52.76400
H  24.50900 -10.13400 52.41100
H  28.30100 -10.86100 48.67100
H  27.73500 -12.27200 49.55000
H  29.95700 -12.49900 50.41600
H  29.77900 -11.05500 51.16300
H  30.38200 -11.10000 49.47000
H  30.45500 -5.96500 50.03800
H  31.28600 -5.48100 48.47500
H  31.01000 -7.08700 48.71800
H  28.15500 -3.62700 44.72900
H  26.47800 -0.15000 46.20700
H  27.67300 0.35100 45.05100
H  28.01600 0.40800 46.86500
Mg 1.03900 43.09500 26.32100
C  3.26300 42.78700 29.01000
C  -1.43900 41.83200 28.43900
C  -0.93800 43.25100 23.72500
C  3.81200 43.71400 24.19000
N  0.97200 42.40000 28.51000
C  1.95100 42.57900 29.41800
C  1.39400 42.50000 30.85400
C  -0.10900 41.97100 30.65800
C  -0.23700 42.10400 29.11400
C  -0.46600 40.42300 31.15700
C  1.41900 43.92400 31.53800
C  1.62800 43.77800 33.14300
H  1.23500 42.50200 33.96100
N  -0.87100 42.66900 26.11900
C  -1.77100 42.12900 27.06100
C  -3.05300 41.94200 26.45600
C  -2.96900 42.47600 25.16200
C  -1.58900 42.78000 24.92900
C  -4.19500 41.20500 27.06700
C  -3.95000 42.60100 24.09700
O  -3.69200 43.22100 23.07100
C  -5.31800 42.05600 24.24000
N  1.41200 43.38600 24.21800
C  0.41300 43.54200 23.39500
C  0.83400 43.79600 21.95500
C  2.38700 44.11400 22.12100
C  2.60500 43.68600 23.58300
C  0.50300 42.59300 20.95300
C  2.76600 45.60200 21.79200
C  1.81200 46.69800 22.15100
N  3.11300 43.25700 26.49900
C  4.08500 43.54300 25.57200
C  5.41500 43.46600 26.14100
C  5.12500 43.19000 27.50500
C  3.73000 43.05700 27.64700
C  6.72900 43.79300 25.52500
C  5.70500 42.98400 28.86500
O  6.88200 42.97500 29.13700
C  4.50500 42.86300 29.92100
C  4.76500 41.67600 30.78300
O  4.80200 40.47400 30.46500
O  4.93300 42.24400 32.07200
C  5.09400 41.31100 33.19200
H  -2.28700 41.67400 29.10900
H  -1.50900 43.23400 22.79400
H  4.69500 44.05800 23.64800
H  2.01200 41.79000 31.40400
H  -0.94600 42.49900 31.11400
H  -1.30300 40.54800 31.84400
H  0.39000 39.94100 31.63000
H  -0.73300 39.86800 30.25800
H  0.54100 44.53900 31.34000
H  2.28700 44.42500 31.10800
H  0.98100 44.57500 33.51100
H  2.68600 43.97700 33.31200
H  -5.01700 41.92000 27.05700
H  -4.07900 40.91500 28.11100
H  -4.36100 40.27700 26.52100
H  -5.83800 42.38900 25.13800
H  -5.30100 40.97400 24.10500
H  -6.05200 42.44200 23.53300
H  0.22200 44.66200 21.70400
H  2.96800 43.40900 21.52600
H  0.00100 41.72600 21.38200
H  1.33600 42.35300 20.29300
H  -0.24800 43.05400 20.31000
H  2.87400 45.64500 20.70800
H  3.75000 45.85900 22.18600
H  0.80800 46.39700 22.44900
H  1.65500 47.35800 21.29800
H  2.24200 47.22400 23.00300
H  7.59500 43.47400 26.10500
H  6.92000 44.85300 25.36000
H  6.78700 43.25800 24.57700
H  4.53900 43.79400 30.48900
H  4.94500 41.90000 34.09700
H  6.08100 40.86100 33.29600
H  4.35100 40.51700 33.25800

