158

Mg 16.33600 52.87100 26.84800
C  18.23700 51.57200 29.54900
C  13.94800 53.96000 29.29100
C  14.68800 54.39800 24.42200
C  18.46600 51.18300 24.64800
N  16.16400 52.79200 29.13200
C  17.16100 52.33500 30.03600
C  16.75200 52.66100 31.47400
C  15.24800 53.18600 31.32800
C  15.12100 53.32000 29.80400
C  14.11000 52.32400 31.90000
C  17.70800 53.66300 32.11200
C  17.65800 53.69700 33.61300
H  16.48400 53.04000 34.29900
N  14.56500 54.04100 26.82800
C  13.70900 54.29200 27.88200
C  12.47900 54.99300 27.41700
C  12.64200 55.02000 26.03300
C  14.01200 54.49000 25.70300
C  11.36200 55.52100 28.29100
C  11.80500 55.64000 24.97800
O  12.12700 55.69300 23.80000
C  10.34700 56.23100 25.30700
N  16.61300 52.83600 24.89200
C  15.91400 53.67000 24.07300
C  16.31900 53.37400 22.60800
C  17.66100 52.66500 22.71000
C  17.53300 52.14200 24.17100
C  15.27300 52.48200 21.92000
C  18.93100 53.68000 22.67500
C  20.23700 53.02300 22.20700
N  17.93200 51.53300 26.99100
C  18.70000 50.89000 26.01700
C  19.74400 50.08600 26.70300
C  19.67000 50.41700 28.06900
C  18.50400 51.19300 28.20600
C  20.72000 49.22100 25.89900
C  20.18900 50.16000 29.37200
O  21.17700 49.53600 29.75600
C  19.33300 50.95300 30.38000
C  18.65400 50.06700 31.32300
O  17.81800 49.17300 31.08800
O  19.06500 50.40600 32.54100
C  18.56100 49.63900 33.67300
H  13.29400 54.27900 30.10500
H  14.15000 54.87000 23.59700
H  19.28400 50.78600 24.04300
H  16.80200 51.74000 32.05500
H  15.23000 54.12800 31.87600
H  13.58900 52.85400 32.69800
H  14.52600 51.37700 32.24500
H  13.41000 52.08800 31.09800
H  17.39600 54.64300 31.75000
H  18.71700 53.30500 31.90800
H  17.52400 54.77100 33.74100
H  18.62400 53.46200 34.06100
H  10.52700 54.88000 28.00800
H  11.13000 56.54600 28.00200
H  11.48600 55.49000 29.37400
H  9.78300 55.84300 24.45900
H  10.42400 57.31700 25.36700
H  10.14400 55.62500 26.19000
H  16.43400 54.34500 22.12700
H  17.81300 51.76700 22.11200
H  15.79400 51.81500 21.23300
H  14.62600 53.20300 21.42000
H  14.72200 51.91600 22.67100
H  19.08300 54.22200 23.60800
H  18.74600 54.42200 21.89700
H  20.46600 53.54000 21.27500
H  20.09600 51.97300 21.95100
H  21.01400 53.29600 22.92200
H  21.53000 49.82300 25.48900
H  20.14200 48.79400 25.07900
H  21.09400 48.40500 26.51800
H  19.79000 51.78800 30.91000
H  17.48800 49.49300 33.54600
H  18.76200 50.14600 34.61700
H  18.97100 48.63700 33.79600
Mg -1.70700 35.58200 26.49100
C  -3.43900 33.72400 28.86900
C  -0.80700 37.78500 28.95700
C  0.16600 37.22400 24.08700
C  -2.90400 33.48900 24.07700
N  -2.16900 35.75700 28.63200
C  -2.83300 34.82900 29.44500
C  -2.71000 35.20700 30.93100
C  -2.07100 36.65700 30.89100
C  -1.64100 36.74000 29.41100
C  -3.07000 37.77200 31.22700
C  -1.99300 34.18700 31.85900
C  -2.88700 33.40900 32.89100
H  -2.32200 33.18600 34.36100
N  -0.55000 37.22100 26.56900
C  -0.31500 38.03000 27.63300
C  0.53600 39.11300 27.21300
C  0.90200 38.92400 25.83300
C  0.17300 37.71900 25.43500
C  0.93100 40.20800 28.17500
C  1.89500 39.67500 24.94700
O  2.13800 39.39300 23.79400
C  2.58900 40.84600 25.56400
N  -1.22500 35.28400 24.39600
C  -0.57700 36.12200 23.59100
C  -0.68300 35.73900 22.13400
C  -1.48500 34.42500 22.15900
C  -1.89200 34.39500 23.62400
C  -1.20100 36.81900 21.24200
C  -0.66600 33.12200 21.76000
C  -1.48500 31.99400 21.12500
N  -2.98000 34.02700 26.44100
C  -3.40700 33.30100 25.37200
C  -4.35300 32.30100 25.82300
C  -4.36300 32.48800 27.17300
C  -3.53800 33.48300 27.53700
C  -5.10300 31.42000 24.98900
C  -4.87600 31.97100 28.34900
O  -5.72600 31.13600 28.55600
C  -4.23200 32.75600 29.60700
C  -5.44400 33.18600 30.33500
O  -6.12600 34.17400 30.07000
O  -5.65700 32.36100 31.36200
C  -6.83800 32.62400 32.22900
H  -0.51900 38.50800 29.72400
H  0.67300 37.82900 23.33100
H  -3.33700 32.92400 23.24800
H  -3.68400 35.28800 31.41300
H  -1.18100 36.65600 31.51900
H  -4.05500 37.42500 30.91600
H  -2.73200 38.73500 30.84400
H  -3.17200 37.99700 32.28900
H  -1.33300 34.72200 32.54100
H  -1.57200 33.34900 31.30300
H  -2.98200 32.37100 32.57300
H  -3.89000 33.83600 32.89400
H  1.93400 40.04700 28.57100
H  0.19800 40.21900 28.98100
H  0.77700 41.21600 27.79000
H  3.18900 41.42800 24.86400
H  3.26800 40.55000 26.36300
H  1.82900 41.53100 25.94100
H  0.34600 35.42300 21.96700
H  -2.36400 34.60700 21.54000
H  -1.90300 37.47200 21.76100
H  -1.89400 36.40500 20.50900
H  -0.38900 37.36000 20.75700
H  -0.27800 32.82100 22.73300
H  0.15900 33.47600 21.14200
H  -1.85900 31.28500 21.86400
H  -0.82800 31.37900 20.51000
H  -2.21000 32.27300 20.36100
H  -4.69200 31.44900 23.98000
H  -6.17500 31.60600 25.05900
H  -4.97600 30.38600 25.31000
H  -3.63600 32.13300 30.27400
H  -6.62500 33.35800 33.00700
H  -7.22700 31.70700 32.67000
H  -7.52900 32.99700 31.47300

