158

Mg 40.37500 9.05800 29.83600
C  42.12600 10.13600 32.52300
C  38.08400 7.65300 31.72600
C  38.74900 7.91100 26.99900
C  42.93700 10.29700 27.70600
N  40.32000 8.78000 31.89900
C  41.05500 9.36900 32.88600
C  40.34900 9.29100 34.24900
C  39.16500 8.41800 33.95400
C  39.19600 8.26200 32.40300
C  39.17200 7.07500 34.81900
C  39.85900 10.71400 34.77000
C  39.55900 10.74700 36.31300
H  40.09400 11.76700 37.30800
N  38.61400 7.88900 29.42500
C  37.78300 7.47100 30.38900
C  36.59900 6.90900 29.82700
C  36.81200 6.86900 28.39200
C  38.10400 7.60000 28.24800
C  35.57100 6.24400 30.68600
C  36.01500 6.22900 27.25400
O  36.40500 6.30200 26.09600
C  34.78200 5.45400 27.56800
N  40.75200 9.16900 27.57700
C  39.94500 8.52300 26.68200
C  40.37200 8.96900 25.27100
C  41.84500 9.53600 25.48500
C  41.86800 9.72700 27.01800
C  40.32200 7.87000 24.12700
C  42.04200 10.83400 24.66700
C  41.14800 12.02900 25.06700
N  42.16200 9.98500 30.04200
C  43.08900 10.46800 29.11300
C  44.26200 11.05400 29.79300
C  43.80300 10.98500 31.12100
C  42.58300 10.35300 31.22400
C  45.42600 11.79700 29.27600
C  44.25400 11.42100 32.45400
O  45.28500 11.97300 32.84600
C  43.15700 10.91400 33.41300
C  43.83100 10.05200 34.44100
O  44.43600 8.99600 34.20600
O  43.71300 10.63900 35.66400
C  44.41000 9.96900 36.76800
H  37.29600 7.34400 32.41700
H  38.23800 7.70200 26.05700
H  43.78100 10.69400 27.13600
H  41.07200 8.84500 34.93300
H  38.25600 8.98000 34.16600
H  39.40200 6.22800 34.17300
H  38.15800 6.96400 35.20300
H  39.85400 7.02100 35.66800
H  38.94900 11.05000 34.27300
H  40.59300 11.52000 34.78600
H  39.69000 9.75100 36.73400
H  38.47500 10.81700 36.22800
H  34.59700 6.22600 30.19500
H  35.61900 6.76800 31.64000
H  35.82300 5.19100 30.81700
H  34.84800 4.63800 28.28800
H  34.32900 5.19400 26.61200
H  34.16800 6.20600 28.06500
H  39.67900 9.74300 24.94100
H  42.62700 8.78800 25.35400
H  40.27400 6.91800 24.65500
H  41.21100 7.95800 23.50100
H  39.42400 7.90400 23.51000
H  41.81600 10.54800 23.64000
H  43.09000 11.12700 24.72500
H  40.50800 12.21800 24.20600
H  41.77400 12.87200 25.35900
H  40.48000 11.74900 25.88200
H  46.11700 11.10100 28.80000
H  46.00800 12.26700 30.06800
H  45.13000 12.58500 28.58300
H  42.61800 11.66500 33.99100
H  43.79500 9.96400 37.66800
H  45.34100 10.49200 36.98400
H  44.63300 8.92400 36.55300
Mg 6.40000 54.79600 40.20700
C  5.21400 51.47100 39.61300
C  9.53100 53.66700 39.61500
C  7.36000 58.06200 39.80100
C  3.11300 55.75700 40.57100
N  7.25100 52.85400 39.50000
C  6.59400 51.60900 39.34400
C  7.62900 50.53200 39.03500
C  8.91600 51.22400 39.55200
C  8.59000 52.64600 39.53300
C  9.54000 50.83200 40.87700
C  7.75800 50.24700 37.45800
C  6.85100 51.07000 36.53400
H  6.28200 50.48800 35.30800
N  8.24100 55.72600 39.90500
C  9.43900 55.07900 39.68300
C  10.48300 56.00900 39.50900
C  9.89100 57.33800 39.46600
C  8.40000 57.08400 39.69600
C  11.94300 55.71100 39.39900
C  10.60500 58.63700 39.20700
O  11.77300 58.56800 38.88800
C  10.07900 59.93700 39.46600
N  5.37200 56.68800 40.13900
C  6.01400 57.88400 40.18000
C  5.01700 59.04500 40.29700
C  3.71400 58.28000 40.59000
C  4.03500 56.82200 40.31100
C  5.48100 60.18500 41.30000
C  2.53200 58.67500 39.67200
C  1.13200 58.60300 40.36000
N  4.59600 53.86400 40.05600
C  3.34600 54.40300 40.37300
C  2.39800 53.40300 40.33700
C  3.08100 52.12800 40.14200
C  4.39800 52.51500 39.93500
C  0.88400 53.58200 40.29100
C  2.92000 50.73000 39.89700
O  1.91900 50.06100 39.74700
C  4.34400 50.24600 39.65600
C  4.46100 49.32600 38.52600
O  4.04900 49.59100 37.41400
O  4.95700 48.12900 38.94000
C  5.16400 47.04800 37.94500
H  10.55100 53.27600 39.59600
H  7.66800 59.08500 39.57700
H  2.12900 56.00400 40.97600
H  7.29700 49.70200 39.66000
H  9.74200 51.02900 38.86800
H  9.54300 51.69300 41.54500
H  10.59000 50.58500 40.72500
H  8.95700 50.03800 41.34400
H  7.45300 49.21400 37.29300
H  8.75700 50.39200 37.04700
H  7.55500 51.89500 36.42700
H  5.94100 51.52200 36.92800
H  12.20200 55.70700 38.34100
H  12.18700 54.73500 39.81900
H  12.59400 56.38500 39.95600
H  10.87900 60.67600 39.49400
H  9.71700 60.05600 40.48800
H  9.25900 60.15700 38.78200
H  4.94800 59.57500 39.34700
H  3.42300 58.37500 41.63600
H  4.59000 60.34100 41.90900
H  5.86100 61.03300 40.73200
H  6.27800 59.84200 41.95900
H  2.51100 57.98200 38.83100
H  2.70600 59.68100 39.29000
H  0.51100 59.42400 40.00100
H  1.15200 58.67600 41.44700
H  0.62000 57.68700 40.06800
H  0.61700 53.75000 39.24800
H  0.64500 54.44100 40.91700
H  0.40600 52.66900 40.64800
H  4.64800 49.70600 40.55200
H  4.42000 46.25400 38.00700
H  6.17700 46.68600 38.11800
H  5.11200 47.52300 36.96500

