158

Mg 7.77700 2.67600 27.22000
C  9.31400 1.54600 30.21200
C  5.86700 4.85800 29.07400
C  6.79000 4.14600 24.31800
C  9.81500 0.50500 25.50300
N  7.66100 3.14600 29.35000
C  8.37300 2.57600 30.41300
C  8.15800 3.37400 31.70200
C  6.79700 4.14100 31.38800
C  6.73700 4.03400 29.79700
C  5.48400 3.67100 32.16100
C  9.39400 4.17500 32.16100
C  9.22200 4.75700 33.58700
H  10.12700 4.26700 34.76700
N  6.33100 4.19100 26.70200
C  5.68800 4.93000 27.65900
C  4.75600 5.81800 27.03100
C  5.09100 5.77400 25.58900
C  6.06900 4.65500 25.45000
C  3.84400 6.74200 27.75300
C  4.66700 6.68500 24.40400
O  5.10200 6.60500 23.27200
C  3.65600 7.72900 24.80500
N  8.17300 2.30000 25.23900
C  7.72100 3.12900 24.24500
C  8.11200 2.57900 22.85800
C  9.07900 1.42200 23.22400
C  8.98000 1.39100 24.71000
C  6.97100 2.19000 21.84000
C  10.49700 1.75900 22.80700
C  11.30900 2.66100 23.74400
N  9.19700 1.21600 27.69200
C  9.97500 0.42200 26.88800
C  10.84900 -0.39900 27.71200
C  10.60300 0.03400 29.00300
C  9.55500 0.92400 29.02700
C  11.79400 -1.44100 27.20700
C  11.00400 -0.17600 30.34900
O  11.90600 -0.96000 30.70900
C  10.32800 0.85600 31.19100
C  9.68300 0.17300 32.30000
O  8.59300 -0.37600 32.29200
O  10.44900 0.37700 33.42100
C  9.81700 0.04400 34.68000
H  5.26100 5.42300 29.78500
H  6.67300 4.53600 23.30500
H  10.41300 -0.22600 24.95500
H  7.92900 2.61700 32.45200
H  6.82500 5.17600 31.72700
H  5.75800 2.74200 32.66000
H  4.73600 3.47000 31.39400
H  5.11300 4.44800 32.83000
H  9.42700 5.05500 31.52000
H  10.36800 3.68500 32.13700
H  8.18600 4.51100 33.81900
H  9.30300 5.82600 33.38600
H  4.13200 7.79300 27.76800
H  3.67000 6.32500 28.74500
H  2.85200 6.57500 27.33500
H  2.81300 7.14300 25.17100
H  3.42600 8.41500 23.99000
H  4.07800 8.28400 25.64200
H  8.68200 3.32000 22.29800
H  8.88800 0.43500 22.80300
H  5.95100 2.35800 22.18500
H  7.18500 1.14400 21.62100
H  7.12700 2.74200 20.91300
H  10.40000 2.17300 21.80300
H  10.99700 0.79000 22.79100
H  10.73700 3.06300 24.58000
H  11.51900 3.57100 23.18300
H  12.19500 2.13300 24.09700
H  11.97000 -1.30600 26.14000
H  11.50300 -2.48300 27.33900
H  12.70300 -1.32700 27.79700
H  11.08000 1.59400 31.47200
H  8.79000 -0.32000 34.65500
H  9.71400 0.93800 35.29400
H  10.46500 -0.74300 35.06600
Mg 27.19700 50.81600 25.86200
C  25.31300 51.94500 28.63000
C  29.42000 49.33800 28.19700
C  29.20400 49.98500 23.33900
C  25.20700 52.77000 23.86600
N  27.39100 50.70400 28.18400
C  26.42400 51.20400 29.09100
C  26.77300 50.72300 30.53300
C  28.11500 49.96300 30.32400
C  28.29400 49.95000 28.81700
C  29.30800 50.70600 30.97300
C  25.65200 50.00800 31.33500
C  25.23300 50.51800 32.79400
H  26.29000 50.77100 33.87100
N  29.04600 49.74500 25.78000
C  29.85300 49.30900 26.86400
C  30.99700 48.63900 26.27100
C  30.95600 48.88900 24.85900
C  29.70000 49.54700 24.62100
C  32.06100 47.80200 27.05900
C  32.00500 48.63300 23.77300
O  31.91400 48.84700 22.56800
C  33.29700 47.99700 24.25400
N  27.17800 51.31900 23.89300
C  28.07800 50.78400 22.99900
C  27.69000 51.09100 21.49400
C  26.32100 51.82900 21.61500
C  26.21800 52.01100 23.22600
C  28.73200 51.63400 20.52200
C  25.18800 51.05500 20.93500
C  24.20400 52.08100 20.33900
N  25.51900 52.10000 26.15400
C  24.84200 52.83600 25.21100
C  23.70100 53.54600 25.73900
C  23.85200 53.19300 27.11600
C  25.02700 52.37000 27.28300
C  22.69800 54.38100 25.05300
C  23.20200 53.28000 28.43300
O  22.02000 53.62100 28.70300
C  24.16000 52.52600 29.50900
C  24.62100 53.49600 30.55300
O  25.63600 54.17300 30.58500
O  23.67100 53.48100 31.58300
C  23.97000 54.25800 32.83600
H  30.00200 48.84700 28.98100
H  29.75500 49.63600 22.46300
H  24.50700 53.28100 23.20300
H  26.93100 51.71200 30.96400
H  28.06600 48.93800 30.69000
H  29.83900 51.33400 30.25900
H  30.00200 49.99200 31.41700
H  28.93800 51.33200 31.78500
H  26.00500 49.01200 31.60000
H  24.69600 49.80900 30.85100
H  24.57700 49.74400 33.19200
H  24.72400 51.47900 32.71900
H  32.63100 47.02800 26.54500
H  31.78100 47.32800 28.00000
H  32.89800 48.45700 27.30100
H  33.89300 48.07400 23.34400
H  33.18200 46.95900 24.56400
H  33.69900 48.71200 24.97200
H  27.45300 50.06800 21.20200
H  26.55400 52.82800 21.24700
H  29.68000 51.37100 20.99200
H  28.69100 52.72000 20.43300
H  28.79800 51.02600 19.62000
H  24.73000 50.56400 21.79300
H  25.62500 50.42700 20.15800
H  23.37400 51.46900 19.98600
H  24.55400 52.58700 19.44000
H  23.81400 52.85200 21.00300
H  21.74200 53.87800 24.90600
H  22.97900 54.66000 24.03800
H  22.55900 55.32300 25.58300
H  23.74500 51.67300 30.04600
H  25.04200 54.31700 33.02600
H  23.42000 53.95000 33.72500
H  23.61600 55.27500 32.67100

