158

Mg 26.12000 1.07400 29.27400
C  28.08700 0.54700 32.03300
C  23.39200 1.56200 31.12100
C  24.20500 0.95000 26.36300
C  28.89800 -0.07000 27.30200
N  25.82200 1.06500 31.35100
C  26.73700 0.88400 32.29200
C  26.12200 0.96200 33.76200
C  24.58600 1.07600 33.36800
C  24.55600 1.22000 31.84400
C  23.71800 -0.03400 33.97900
C  26.66900 2.12100 34.68400
C  26.61800 1.91500 36.15600
H  27.04800 3.09100 37.11300
N  24.15000 1.42200 28.80200
C  23.19600 1.69900 29.72600
C  21.91800 1.93400 29.06500
C  22.15700 1.80500 27.66700
C  23.54000 1.34800 27.53400
C  20.67400 2.38100 29.84500
C  21.18800 1.85000 26.54400
O  21.42800 1.47300 25.40300
C  19.75600 2.16200 26.97200
N  26.44900 0.44800 27.11100
C  25.53300 0.54400 26.14700
C  26.19600 0.16500 24.77800
C  27.73600 0.19000 25.09400
C  27.70500 0.21300 26.63400
C  25.65400 -1.10400 24.08100
C  28.60800 1.33800 24.50800
C  29.78000 0.89300 23.66600
N  28.14100 0.32800 29.52500
C  29.09300 0.04800 28.68900
C  30.23000 -0.29600 29.38800
C  29.98100 -0.11200 30.74400
C  28.63600 0.31300 30.78100
C  31.49300 -0.60900 28.76200
C  30.43900 -0.06800 32.12500
O  31.53500 -0.25500 32.56500
C  29.20100 0.41500 32.99800
C  28.94300 -0.50700 34.16100
O  28.24700 -1.51100 34.21900
O  29.60700 -0.06300 35.31700
C  29.33500 -0.84200 36.56000
H  22.46400 1.62000 31.69300
H  23.69500 1.02100 25.40000
H  29.68400 -0.31400 26.58400
H  26.33900 0.05400 34.32500
H  24.15700 1.98600 33.78700
H  23.10100 -0.42400 33.17000
H  23.05700 0.48200 34.67600
H  24.28500 -0.86600 34.39600
H  25.90000 2.89000 34.61000
H  27.55100 2.53800 34.19800
H  27.19200 1.01000 36.35200
H  25.61300 1.58500 36.41600
H  20.87700 2.79900 30.83000
H  20.00000 1.53300 29.96900
H  20.23900 3.28400 29.41600
H  19.01200 2.17600 26.17600
H  19.72100 3.12600 27.48100
H  19.50700 1.35300 27.65800
H  25.86200 1.03800 24.21700
H  28.21000 -0.72700 24.74600
H  26.45300 -1.50100 23.45500
H  24.79300 -0.89600 23.44500
H  25.45400 -1.88300 24.81500
H  28.87200 1.90300 25.40200
H  28.01800 1.94000 23.81700
H  30.10700 -0.14100 23.77600
H  30.67600 1.48000 23.86800
H  29.54300 1.03700 22.61100
H  31.58600 0.02300 27.87900
H  31.56800 -1.60700 28.33300
H  32.38200 -0.34500 29.33500
H  29.35400 1.46200 33.25900
H  28.83400 -1.79700 36.40100
H  28.85000 -0.27800 37.35700
H  30.32600 -1.06300 36.95600
Mg 55.01500 25.01300 45.59000
C  52.23000 26.81300 44.50400
C  53.99600 22.36400 43.71100
C  58.02800 23.50500 46.14200
C  56.27200 27.92700 46.99000
N  53.45300 24.73400 44.02900
C  52.34900 25.57500 43.74500
C  51.53500 24.87200 42.59800
C  51.84900 23.36600 42.75700
C  53.21600 23.46700 43.51300
C  50.87800 22.56200 43.66400
C  51.85900 25.45900 41.19800
C  50.68100 25.82100 40.33500
H  51.13200 26.28000 38.93400
N  55.86300 23.15400 45.00300
C  55.22700 22.18800 44.35100
C  56.05900 21.04600 44.17900
C  57.21900 21.26500 45.00300
C  57.07800 22.69500 45.43600
C  55.64300 19.69100 43.51400
C  58.21900 20.16500 45.35700
O  58.25200 19.01900 44.88200
C  59.21600 20.47100 46.39900
N  56.95800 25.62900 46.20000
C  57.98500 24.79600 46.48600
C  59.06200 25.49000 47.24700
C  58.64300 27.01600 47.22500
C  57.16300 26.82800 46.84300
C  59.29900 24.98400 48.71600
C  59.28800 28.00400 46.14500
C  59.62500 29.47800 46.56800
N  54.36500 26.97900 45.83400
C  54.94500 28.00700 46.52800
C  53.98500 29.08600 46.62600
C  52.88900 28.62300 45.87100
C  53.17700 27.36900 45.37400
C  54.14300 30.22000 47.53600
C  51.54000 28.94700 45.38600
O  50.89000 29.95200 45.54000
C  50.99600 27.75300 44.52600
C  50.39900 28.21500 43.25400
O  50.98900 28.57900 42.25500
O  49.01600 28.01200 43.37600
C  48.16500 28.45000 42.29400
H  53.55000 21.45700 43.29700
H  59.03100 23.12100 46.33800
H  56.78300 28.79200 47.41600
H  50.46900 25.02700 42.76200
H  51.97100 22.81900 41.82200
H  49.90900 22.96900 43.95100
H  51.33300 22.09900 44.54000
H  50.63300 21.66600 43.09300
H  52.49400 24.75000 40.66700
H  52.41900 26.39400 41.20100
H  50.19300 26.69400 40.76900
H  50.08500 24.90900 40.30000
H  54.71800 19.64100 42.94000
H  55.48800 19.03200 44.36900
H  56.57400 19.34000 43.06900
H  58.74900 20.90500 47.28300
H  59.86900 21.17600 45.88400
H  59.82200 19.62400 46.72100
H  59.97000 25.29600 46.67600
H  58.75500 27.47200 48.20900
H  60.16600 24.32600 48.65800
H  58.45300 24.34700 48.97200
H  59.50400 25.73300 49.48100
H  58.63400 28.07700 45.27600
H  60.22200 27.57900 45.77800
H  60.71100 29.53600 46.64500
H  59.26800 29.71300 47.57100
H  59.34300 30.08700 45.70900
H  54.50800 31.04500 46.92500
H  54.87000 30.06600 48.33400
H  53.17100 30.49500 47.94600
H  50.34800 27.05000 45.04900
H  47.14500 28.55400 42.66300
H  48.31400 27.76300 41.46100
H  48.38500 29.47400 41.99200

