158

Mg 41.12100 9.42900 29.72100
C  43.10800 10.76100 32.31000
C  38.95200 8.29900 32.06700
C  39.64500 7.78500 27.21200
C  43.86600 10.13300 27.47400
N  41.23200 9.34200 31.94400
C  42.00400 10.13300 32.76300
C  41.59700 9.91300 34.21000
C  40.27400 9.05300 34.12600
C  40.12500 8.86200 32.63500
C  40.23300 7.73500 34.96600
C  41.44100 11.29800 34.97600
C  40.59200 11.32000 36.26800
H  41.06000 12.27500 37.44400
N  39.46200 8.33400 29.59900
C  38.68500 7.92900 30.69700
C  37.52400 7.12200 30.22300
C  37.63400 7.08000 28.80100
C  38.99000 7.75400 28.47200
C  36.50800 6.48800 31.19000
C  36.66600 6.46600 27.83600
O  36.89700 6.40300 26.65100
C  35.30500 6.13600 28.30700
N  41.74300 8.82700 27.62000
C  40.91600 8.21500 26.78400
C  41.39300 8.38800 25.30600
C  42.63000 9.26100 25.48700
C  42.73500 9.46200 26.98400
C  41.51500 7.08400 24.44700
C  42.67700 10.50300 24.61600
C  43.83300 10.54600 23.58700
N  43.12000 10.25000 29.77200
C  44.07300 10.51800 28.79900
C  45.19800 11.17800 29.42000
C  44.83400 11.32000 30.76600
C  43.55300 10.74900 30.93800
C  46.44300 11.64900 28.73300
C  45.34300 11.78500 32.00900
O  46.41600 12.29400 32.33600
C  44.24700 11.41100 33.08700
C  44.89100 10.49300 34.03000
O  44.94800 9.28100 33.84500
O  45.32600 11.03100 35.17300
C  45.86100 10.07000 36.24300
H  38.17200 8.16500 32.82000
H  39.08000 7.26800 26.43300
H  44.64000 10.52300 26.81000
H  42.36900 9.38500 34.77100
H  39.42000 9.66900 34.40700
H  40.10100 6.85300 34.33900
H  39.44800 7.82600 35.71700
H  41.19000 7.68400 35.48500
H  41.26100 12.09600 34.25700
H  42.42300 11.45400 35.42400
H  40.37800 10.32600 36.66200
H  39.61400 11.70300 35.97700
H  36.79600 6.58700 32.23700
H  36.39100 5.45700 30.85900
H  35.53600 6.97400 31.11300
H  34.98800 6.91900 28.99500
H  35.21200 5.14200 28.74400
H  34.58200 6.12600 27.49100
H  40.58400 8.89400 24.77800
H  43.50700 8.68100 25.19800
H  42.31400 6.41100 24.75700
H  41.60200 7.40000 23.40700
H  40.55700 6.61200 24.66800
H  42.80600 11.40700 25.21100
H  41.74300 10.62900 24.06900
H  44.70200 11.09500 23.94800
H  43.57000 10.96400 22.61500
H  44.25800 9.58400 23.30000
H  46.66400 10.93700 27.93800
H  47.19500 11.52400 29.51100
H  46.36300 12.64700 28.30200
H  43.85300 12.30800 33.56400
H  46.51200 10.73100 36.81500
H  46.52700 9.34800 35.76900
H  45.08600 9.60800 36.85500
Mg 9.06900 49.01700 25.51000
C  6.80500 49.05700 28.28400
C  11.51400 49.96200 27.74800
C  11.28100 48.86700 23.03600
C  6.46700 48.52800 23.46800
N  9.00800 49.61100 27.80000
C  8.11200 49.28600 28.75900
C  8.70800 49.34600 30.12300
C  9.97400 50.24800 29.82900
C  10.26700 49.88400 28.34500
C  9.75900 51.74600 29.93900
C  9.00900 47.93400 30.74100
C  9.61600 47.92900 32.21500
H  8.82600 47.08600 33.19200
N  11.18500 49.20100 25.47300
C  12.00300 49.64600 26.45600
C  13.35400 49.67800 26.02600
C  13.33000 49.27700 24.66000
C  11.87800 49.09600 24.30000
C  14.48800 50.16800 26.92700
C  14.52900 49.10800 23.77600
O  14.43400 48.80000 22.59600
C  15.83200 49.11900 24.36100
N  8.90500 48.95400 23.44100
C  9.94700 48.69900 22.63600
C  9.36200 48.46600 21.19800
C  7.83300 48.28000 21.37300
C  7.73300 48.77700 22.83300
C  9.81500 49.47400 20.05400
C  7.28300 46.86200 21.00200
C  7.39300 45.84300 22.17300
N  7.06900 48.80900 25.74800
C  6.14900 48.47500 24.79900
C  4.80000 48.34100 25.34800
C  5.07900 48.59400 26.73900
C  6.43900 48.87000 26.93500
C  3.47000 48.23800 24.61800
C  4.41600 48.64000 28.03100
O  3.24400 48.61800 28.40400
C  5.53700 49.05100 29.01000
C  5.46800 48.18800 30.25300
O  5.79700 47.06600 30.39700
O  4.71100 48.86100 31.15900
C  4.50500 48.11900 32.39800
H  12.25900 50.14300 28.52700
H  11.99600 48.86500 22.21000
H  5.62200 48.25200 22.83400
H  8.05100 49.86100 30.82500
H  10.85000 49.99000 30.42400
H  8.70600 51.96300 29.76000
H  10.39100 52.21300 29.18400
H  10.17100 52.22300 30.82800
H  9.78900 47.51500 30.10500
H  8.22700 47.17700 30.67500
H  9.73500 48.92600 32.63900
H  10.60200 47.48400 32.08100
H  15.21400 50.76900 26.37900
H  15.05300 49.33200 27.34000
H  14.03700 50.71500 27.75500
H  16.45100 48.51400 23.69900
H  15.70000 48.60000 25.31100
H  16.20200 50.12800 24.54200
H  9.79700 47.47900 21.04000
H  7.11900 48.88300 20.81100
H  8.94900 49.73200 19.44500
H  10.59400 48.96000 19.49000
H  10.33800 50.34900 20.44000
H  7.86000 46.43800 20.18000
H  6.24900 46.89500 20.65800
H  6.36300 45.66200 22.47900
H  7.85900 46.20700 23.08800
H  7.87700 44.93600 21.81000
H  3.08600 47.24000 24.83300
H  3.59100 48.32300 23.53800
H  2.85700 49.06700 24.97100
H  5.38000 50.08300 29.32500
H  4.11100 48.71700 33.21900
H  5.40200 47.62400 32.77100
H  3.78700 47.30500 32.29500

