158

Mg 24.93300 -7.64200 47.71600
C  27.24800 -5.38200 46.27200
C  22.65900 -6.30500 45.22900
C  22.83300 -10.14000 48.43500
C  27.49600 -8.99200 49.47400
N  25.08100 -6.17700 45.83600
C  26.09500 -5.33900 45.52000
C  25.75000 -4.35800 44.31800
C  24.21200 -4.56600 44.11000
C  23.96000 -5.74300 45.16800
C  23.33800 -3.34500 44.43400
C  26.59000 -4.55700 43.07500
C  27.35000 -3.35700 42.48500
H  26.98200 -2.83300 41.11700
N  22.99700 -8.10800 47.08000
C  22.23900 -7.38800 46.10300
C  20.93000 -8.00500 46.16000
C  20.95500 -9.12000 47.08200
C  22.27100 -9.18700 47.63200
C  19.86800 -7.64700 45.18400
C  19.73600 -10.02600 47.27400
O  18.63700 -9.94800 46.69900
C  19.77200 -11.21900 48.12600
N  25.16100 -9.47400 48.56700
C  24.15900 -10.28100 48.93800
C  24.65000 -11.39600 49.79700
C  26.06700 -10.92000 50.21000
C  26.29000 -9.68700 49.39600
C  23.73100 -11.75100 50.95800
C  27.16600 -11.96900 50.24900
C  27.92600 -12.25300 51.62000
N  26.94000 -7.24500 48.03800
C  27.83200 -7.85000 48.87600
C  29.02600 -7.01300 49.00400
C  28.90700 -6.10300 47.89700
C  27.57700 -6.20300 47.43400
C  30.21400 -7.34200 49.82100
C  29.57900 -5.10800 46.99400
O  30.76700 -4.71900 46.93100
C  28.49800 -4.48300 46.04600
C  28.27500 -3.12200 46.56400
O  27.54200 -2.77400 47.51300
O  28.69100 -2.21200 45.57800
C  28.00600 -0.89000 45.70900
H  21.91100 -6.01700 44.48700
H  22.23200 -10.89300 48.94800
H  28.16600 -9.39400 50.23700
H  26.03200 -3.36500 44.66900
H  23.90200 -5.04400 43.18100
H  22.81500 -3.53300 45.37200
H  22.68100 -3.22100 43.57300
H  23.98000 -2.47700 44.59100
H  26.02800 -5.02400 42.26700
H  27.25600 -5.37800 43.33800
H  28.41100 -3.60400 42.52100
H  27.25900 -2.48900 43.13700
H  19.83600 -6.60000 44.88000
H  18.84900 -7.87800 45.49200
H  20.06400 -8.27300 44.31300
H  20.59800 -11.90200 47.92300
H  18.85200 -11.79500 48.02200
H  19.79600 -10.90400 49.16900
H  24.54200 -12.29600 49.19300
H  26.04000 -10.37600 51.15400
H  24.26900 -12.17200 51.80700
H  22.95600 -12.42800 50.59800
H  23.26900 -10.82800 51.30700
H  27.91000 -11.80100 49.47000
H  26.74600 -12.94000 49.98500
H  28.99100 -12.25700 51.38800
H  27.59000 -13.22200 51.98900
H  27.69800 -11.47500 52.34800
H  30.86400 -7.89300 49.14100
H  29.94400 -7.92300 50.70200
H  30.82100 -6.48400 50.11000
H  28.81700 -4.51800 45.00400
H  28.50600 -0.34800 46.51100
H  26.93300 -0.94900 45.89100
H  28.04700 -0.37000 44.75200
Mg 44.59600 3.13900 47.32400
C  42.53600 6.08600 46.82400
C  41.99700 1.15800 46.70200
C  46.73200 0.71600 46.96200
C  47.35100 5.52600 47.30400
N  42.51400 3.62500 46.79400
C  41.87000 4.90400 46.59300
C  40.41000 4.69800 46.25200
C  40.14700 3.12600 46.53300
C  41.66000 2.55900 46.70400
C  39.30200 2.84400 47.78600
C  40.28600 5.03600 44.77600
C  39.19200 6.10100 44.48300
H  39.42300 7.04400 43.23500
N  44.38000 1.17200 46.97900
C  43.22000 0.48200 46.83700
C  43.53700 -0.96000 46.65200
C  44.93300 -1.10300 46.67100
C  45.37700 0.25200 46.95700
C  42.50400 -2.07800 46.38100
C  45.70900 -2.42700 46.42800
O  45.10900 -3.50100 46.04500
C  47.22000 -2.62900 46.49500
N  46.77000 3.16900 47.12400
C  47.35800 1.93900 47.08100
C  48.93200 2.08500 46.88100
C  49.08900 3.63700 47.21500
C  47.67000 4.15800 47.19900
C  49.87800 1.09700 47.60400
C  50.10300 4.41400 46.28700
C  51.39900 4.96900 46.85800
N  44.92800 5.35300 47.27200
C  46.08800 6.08900 47.29100
C  45.84700 7.49100 47.12000
C  44.41400 7.51300 47.05200
C  43.91200 6.24400 47.15100
C  46.82100 8.55300 46.94600
C  43.30800 8.34300 46.77100
O  43.24900 9.55200 46.70500
C  42.01700 7.47800 46.62400
C  41.06600 7.91100 47.70100
O  41.21300 7.68400 48.91900
O  40.09400 8.63500 47.20200
C  39.10600 9.30400 48.08400
H  41.14400 0.50000 46.52000
H  47.43700 -0.11600 46.91800
H  48.22700 6.17800 47.29500
H  39.75200 5.31200 46.86700
H  39.62000 2.48600 45.82600
H  38.89700 3.81300 48.07800
H  39.99400 2.49000 48.55100
H  38.52200 2.11500 47.56500
H  39.99900 4.10200 44.29100
H  41.24900 5.35800 44.37900
H  38.85600 6.68700 45.33900
H  38.42300 5.35500 44.28200
H  42.51500 -2.22500 45.30100
H  41.52700 -1.60100 46.45400
H  42.63100 -3.01600 46.92200
H  47.80700 -2.17200 45.69700
H  47.44900 -3.69300 46.54700
H  47.58600 -2.20200 47.42900
H  49.06000 1.81800 45.83200
H  49.35800 3.87400 48.24500
H  50.46200 0.49000 46.91300
H  49.31100 0.47200 48.29400
H  50.58400 1.68200 48.19400
H  49.58100 5.25400 45.83000
H  50.46800 3.75800 45.49600
H  51.31600 6.04600 47.00900
H  52.23000 4.59100 46.26300
H  51.64100 4.39600 47.75300
H  46.63000 9.19700 47.80500
H  46.57300 9.23000 46.12800
H  47.89600 8.37300 46.96800
H  41.69700 7.75500 45.62000
H  38.91400 10.26600 47.60800
H  39.54000 9.56400 49.05000
H  38.14300 8.80400 48.19500

