158

Mg 1.76800 8.14900 25.71100
C  2.59500 10.10700 28.49300
C  1.94400 5.38100 27.73600
C  1.13100 6.22500 22.99400
C  2.31100 10.93300 23.69300
N  2.42800 7.76800 27.90800
C  2.42100 8.74600 28.84800
C  2.42700 8.11300 30.27500
C  2.49000 6.57700 29.99100
C  2.25800 6.56300 28.45300
C  3.74600 5.78700 30.42000
C  1.14100 8.71100 30.98900
C  1.14600 8.88800 32.50200
H  2.24500 8.23400 33.30500
N  1.53100 6.12900 25.41200
C  1.62000 5.17400 26.37300
C  1.34500 3.93400 25.80300
C  1.04200 4.07700 24.42500
C  1.22800 5.51900 24.22100
C  1.12000 2.62700 26.69900
C  0.61600 2.95400 23.36200
O  0.31400 3.14900 22.23100
C  0.57100 1.56200 23.81600
N  1.89500 8.50900 23.58900
C  1.36300 7.56300 22.68400
C  1.16700 8.18600 21.27400
C  1.47600 9.71500 21.50700
C  1.97800 9.78300 22.97700
C  2.02800 7.51700 20.24600
C  0.45600 10.74200 21.04500
C  -0.85000 10.79300 21.88300
N  2.28600 10.12300 25.96800
C  2.35100 11.11100 25.07900
C  2.47200 12.33100 25.79900
C  2.57700 12.02900 27.09900
C  2.44600 10.63800 27.18800
C  2.58000 13.71900 25.12100
C  2.74700 12.54200 28.45100
O  2.83400 13.67700 28.81800
C  2.65800 11.33700 29.38500
C  3.70900 11.25600 30.33400
O  4.92700 11.07900 30.10100
O  3.12100 11.49200 31.57400
C  4.11400 11.66900 32.58700
H  2.06400 4.47900 28.34000
H  0.77700 5.69700 22.10600
H  2.40200 11.90500 23.20300
H  3.30800 8.30900 30.88600
H  1.64500 6.04400 30.42700
H  4.16200 5.16300 29.62900
H  3.37200 5.16900 31.23600
H  4.51100 6.46900 30.79400
H  0.30400 8.07800 30.69500
H  0.71500 9.63600 30.60100
H  0.18900 8.46800 32.81100
H  1.15500 9.96900 32.64000
H  0.31800 1.94300 26.42200
H  0.89600 2.96100 27.71100
H  2.06100 2.07800 26.65800
H  1.37700 1.24000 24.47500
H  0.38800 0.84400 23.01700
H  -0.29000 1.53400 24.48500
H  0.11100 8.11300 21.01300
H  2.34200 9.82700 20.85500
H  1.51900 6.63300 19.86300
H  2.96600 7.19200 20.69700
H  2.22100 8.16500 19.39000
H  0.20900 10.45400 20.02300
H  0.93600 11.72100 21.04200
H  -0.85300 10.03900 22.67000
H  -1.62200 10.63100 21.13000
H  -1.04300 11.78100 22.30100
H  2.81000 13.61700 24.06000
H  3.44900 14.27500 25.47400
H  1.70800 14.32200 25.37200
H  1.70300 11.47900 29.89100
H  4.76400 12.49800 32.31000
H  4.72400 10.78100 32.75200
H  3.49600 11.92100 33.45000
Mg 36.02000 0.69900 30.82400
C  33.49700 1.97800 32.80500
C  38.19100 0.81700 33.61900
C  38.58400 -0.17600 28.74800
C  33.84500 0.91800 28.08200
N  35.83900 1.49600 32.86300
C  34.71400 1.90100 33.49600
C  34.94600 1.96500 35.06400
C  36.52700 1.81400 35.16100
C  36.89400 1.32800 33.80400
C  37.16200 3.13400 35.45000
C  34.21800 0.79700 35.79800
C  33.76400 1.10400 37.20200
H  34.31400 2.33800 37.99700
N  38.09600 0.35500 31.13000
C  38.77000 0.33100 32.37200
C  40.10200 -0.16700 32.09000
C  40.26200 -0.49800 30.75100
C  38.96400 -0.12500 30.13700
C  41.11900 -0.26800 33.18800
C  41.44800 -1.07800 30.06400
O  41.35000 -1.28300 28.86900
C  42.66800 -1.58800 30.84800
N  36.19500 0.48000 28.77600
C  37.35800 0.12400 28.14400
C  37.06000 0.00400 26.59200
C  35.55400 0.18600 26.47600
C  35.12700 0.55600 27.86100
C  37.78400 1.03100 25.62000
C  34.85100 -1.17100 26.02400
C  33.82800 -1.11700 24.93000
N  34.04600 1.22200 30.50400
C  33.27600 1.24300 29.31500
C  31.93300 1.68200 29.59800
C  31.93300 1.96400 31.01200
C  33.28300 1.76000 31.47900
C  30.92600 1.85900 28.56800
C  31.15400 2.32200 32.20700
O  29.97200 2.50100 32.44400
C  32.17600 2.38500 33.45800
C  31.97400 3.67600 34.09800
O  32.46000 4.72400 33.66300
O  31.38700 3.49800 35.33400
C  31.16600 4.85400 35.90600
H  38.81500 0.82100 34.51600
H  39.37400 -0.35400 28.01600
H  33.16500 0.92000 27.22700
H  34.56800 2.92000 35.43000
H  36.88300 1.12700 35.92800
H  37.86500 3.00300 36.27200
H  36.42800 3.88300 35.75000
H  37.64000 3.48300 34.53500
H  34.94500 -0.00400 35.93000
H  33.34800 0.42100 35.25900
H  33.95600 0.20300 37.78400
H  32.68000 1.20600 37.25300
H  40.96700 0.46700 33.97900
H  42.03000 0.12400 32.73600
H  41.17600 -1.32900 33.43000
H  43.36500 -0.81300 31.16700
H  43.21900 -2.20200 30.13600
H  42.23900 -2.25900 31.59300
H  37.41300 -1.01200 26.41500
H  35.27800 0.93900 25.73800
H  37.14000 1.88800 25.42200
H  38.22600 0.55700 24.74400
H  38.65900 1.42700 26.13500
H  34.31200 -1.67700 26.82400
H  35.61900 -1.80600 25.58200
H  34.01800 -1.80200 24.10400
H  33.77700 -0.11300 24.51000
H  32.88300 -1.43200 25.37300
H  30.77600 0.85400 28.17300
H  31.33100 2.59200 27.87000
H  30.08500 2.31100 29.09400
H  31.75600 1.61800 34.10900
H  31.96100 5.11900 36.60200
H  30.29400 4.91500 36.55800
H  31.02300 5.68700 35.21800

