158

Mg 25.84900 0.86500 30.45200
C  28.08900 0.66600 33.04300
C  23.36300 1.24100 32.76200
C  23.67400 0.73100 27.87700
C  28.39800 -0.38800 28.33500
N  25.78000 0.90700 32.72500
C  26.83100 1.02900 33.51500
C  26.43100 1.31900 34.90500
C  24.84400 1.36000 34.84600
C  24.60800 1.17700 33.37600
C  24.03600 0.25300 35.79000
C  27.10000 2.60100 35.40100
C  27.90000 2.65000 36.70100
H  27.42400 3.65100 37.78000
N  23.75400 1.13700 30.35600
C  22.94100 1.23000 31.41000
C  21.57700 1.19300 30.91600
C  21.62000 1.17200 29.47900
C  23.06000 0.95800 29.20200
C  20.40400 1.39100 31.80300
C  20.56900 1.19600 28.43200
O  20.82300 1.31700 27.20300
C  19.19300 1.28800 28.84100
N  26.04400 0.21500 28.44700
C  24.99100 0.42300 27.56100
C  25.49900 0.33100 26.09500
C  26.97700 -0.00800 26.24600
C  27.15000 -0.09200 27.75600
C  24.72500 -0.53400 25.02700
C  28.01200 0.95500 25.58300
C  29.26200 0.37900 24.98000
N  27.78900 0.21300 30.57700
C  28.72700 -0.19000 29.67500
C  30.00400 -0.43800 30.31400
C  29.81300 -0.11700 31.65400
C  28.47500 0.29200 31.73200
C  31.22800 -0.97000 29.65100
C  30.44200 0.00400 32.95100
O  31.55600 -0.19900 33.33300
C  29.33300 0.51800 33.91300
C  29.24100 -0.51700 35.02900
O  28.66000 -1.60600 34.95100
O  29.89500 -0.02400 36.13800
C  29.89100 -0.84900 37.34300
H  22.58000 1.44100 33.49600
H  23.05300 0.93800 27.00300
H  29.15600 -0.71600 27.62100
H  26.73600 0.45700 35.49800
H  24.45900 2.36000 35.04700
H  23.22000 -0.27300 35.29500
H  23.51700 0.71200 36.63200
H  24.79900 -0.47600 36.06100
H  26.33400 3.36000 35.55900
H  27.63200 2.99400 34.53400
H  28.96500 2.84200 36.56900
H  27.75700 1.69500 37.20700
H  20.64000 1.48400 32.86300
H  19.73200 0.55500 31.60800
H  19.96000 2.33400 31.48200
H  19.04300 2.12600 29.52100
H  19.08900 0.34400 29.37600
H  18.56900 1.29900 27.94700
H  25.50800 1.31400 25.62300
H  27.14900 -0.99600 25.82000
H  23.67600 -0.61300 25.31500
H  25.17000 -1.52700 24.96600
H  24.63400 -0.10400 24.02900
H  28.25300 1.68700 26.35400
H  27.58800 1.55500 24.77800
H  29.34600 -0.68500 25.20000
H  30.08700 0.96300 25.38600
H  29.20400 0.50700 23.89900
H  31.00000 -2.03600 29.67700
H  32.22100 -0.85000 30.08600
H  31.23400 -0.62000 28.61900
H  29.78200 1.42700 34.31300
H  28.85600 -0.90800 37.68000
H  30.49000 -0.32700 38.09000
H  30.14000 -1.89100 37.14100
Mg 35.79400 1.96100 29.61400
C  33.89400 3.28200 32.13200
C  38.70200 2.36600 31.69800
C  37.65600 0.98700 27.06100
C  33.02800 2.22200 27.40900
N  36.21900 2.88000 31.54200
C  35.22600 3.06400 32.47900
C  35.76500 3.12500 33.94100
C  37.27800 3.28200 33.61900
C  37.43900 2.79200 32.20200
C  37.85000 4.67900 33.70900
C  35.40600 1.80200 34.72100
C  34.93100 1.87000 36.19100
H  35.14900 3.15500 37.01900
N  37.86200 1.62100 29.40400
C  38.87100 1.84600 30.36700
C  40.13600 1.46000 29.85100
C  39.94000 1.21900 28.46800
C  38.41800 1.23800 28.24200
C  41.25600 1.48400 30.68100
C  40.97500 0.92500 27.40700
O  40.64600 0.65500 26.28300
C  42.42300 0.98500 27.71800
N  35.38400 1.69500 27.50400
C  36.30600 1.09600 26.76800
C  35.83100 0.87200 25.29800
C  34.26300 1.24800 25.42400
C  34.17600 1.67500 26.87000
C  36.58000 1.65000 24.13900
C  33.40300 0.04600 25.10900
C  33.00100 -0.16500 23.63900
N  33.85900 2.48500 29.70200
C  32.82800 2.48400 28.79700
C  31.62900 2.93200 29.47300
C  31.99400 3.19400 30.80200
C  33.37900 2.95900 30.84100
C  30.28300 3.03500 28.89700
C  31.51200 3.59000 32.09000
O  30.33200 3.66800 32.47600
C  32.76300 3.75900 33.04100
C  32.80100 5.12300 33.55700
O  33.52400 5.99600 33.17000
O  32.04800 5.11100 34.78100
C  32.09500 6.43900 35.55800
H  39.44800 2.34200 32.49600
H  38.21000 0.62000 26.19400
H  32.25100 2.13900 26.64600
H  35.38900 4.03800 34.40300
H  37.91600 2.68900 34.27300
H  37.21100 5.43000 34.17300
H  38.07600 5.09900 32.72900
H  38.79400 4.67700 34.25500
H  36.29000 1.16600 34.77400
H  34.70200 1.18200 34.16500
H  35.40900 1.05100 36.72900
H  33.88400 1.60500 36.33300
H  41.42700 2.47300 31.10600
H  42.22300 1.22000 30.25200
H  41.04200 0.90500 31.57900
H  42.62700 0.03600 28.21500
H  42.64700 1.90200 28.26300
H  42.88400 1.01800 26.73100
H  35.86500 -0.20000 25.10600
H  34.03600 2.21700 24.98000
H  36.94000 0.93500 23.39900
H  37.42100 2.21600 24.53800
H  35.96400 2.38500 23.62200
H  32.47500 -0.03500 25.67500
H  33.88200 -0.89500 25.37900
H  32.01200 0.28300 23.53300
H  33.10600 -1.20700 23.33800
H  33.70100 0.40400 23.02700
H  29.53300 2.48400 29.46500
H  30.21100 2.87200 27.82200
H  30.03100 4.05700 29.17900
H  32.63400 3.08300 33.88600
H  32.89600 6.35800 36.29300
H  31.24700 6.41900 36.24300
H  32.22800 7.36700 35.00200

