158

Mg -1.12800 18.39400 27.43500
C  -1.69900 16.31000 30.27500
C  -1.33000 21.18200 29.61500
C  -1.19700 20.64200 24.80500
C  -1.48300 15.77200 25.39200
N  -1.55600 18.66600 29.70200
C  -1.50300 17.65300 30.64000
C  -1.75200 18.20100 32.08500
C  -2.02400 19.74700 31.78400
C  -1.57100 19.92200 30.26800
C  -3.43900 20.20400 31.96900
C  -0.60300 17.92700 33.04400
C  -1.07200 17.28800 34.35100
H  -0.05800 17.21600 35.48700
N  -1.12300 20.57500 27.23000
C  -1.19000 21.51500 28.22600
C  -1.06100 22.82500 27.71900
C  -0.90600 22.67600 26.27000
C  -1.04700 21.28300 26.06100
C  -1.16600 24.12100 28.47700
C  -0.69300 23.75200 25.08300
O  -0.64900 23.54600 23.88300
C  -0.49600 25.15900 25.55200
N  -1.47400 18.23500 25.43100
C  -1.25300 19.24800 24.48900
C  -1.25800 18.70600 23.04100
C  -1.00600 17.19300 23.36000
C  -1.36100 17.02400 24.86300
C  -2.59200 19.03400 22.41200
C  0.45000 16.69900 22.95300
C  1.63900 17.51800 23.53200
N  -1.68100 16.43200 27.70300
C  -1.63700 15.44200 26.72100
C  -1.77000 14.16100 27.42800
C  -1.74300 14.44600 28.78700
C  -1.63600 15.84500 28.93900
C  -1.98600 12.84600 26.73600
C  -1.90700 13.90400 30.09500
O  -2.04400 12.74900 30.45600
C  -1.69200 15.06300 31.08700
C  -0.40500 14.78600 31.79400
O  0.72300 14.95400 31.33800
O  -0.70800 14.20100 32.98600
C  0.39500 13.66200 33.78200
H  -1.46900 22.00600 30.31700
H  -1.11400 21.20800 23.87500
H  -1.40500 14.91500 24.71900
H  -2.66300 17.70800 32.42200
H  -1.39500 20.41900 32.36800
H  -4.13700 19.52400 32.45800
H  -3.88000 20.73300 31.12400
H  -3.38200 20.99300 32.72000
H  0.01400 18.81100 33.20700
H  0.00000 17.24300 32.44800
H  -1.39500 16.26400 34.16300
H  -1.94600 17.87600 34.63100
H  -1.55700 24.20000 29.49200
H  -1.99200 24.66700 28.02100
H  -0.31300 24.79300 28.39000
H  -1.36700 25.48400 26.12200
H  -0.44400 25.90000 24.75500
H  0.37900 25.12700 26.20100
H  -0.45500 19.06700 22.39800
H  -1.68600 16.54700 22.80300
H  -3.31800 18.22100 22.38800
H  -2.56700 19.31500 21.35900
H  -3.09100 19.81200 22.99000
H  0.55200 16.63900 21.86900
H  0.64000 15.64600 23.16100
H  2.09700 16.89800 24.30200
H  1.38500 18.53100 23.84400
H  2.33000 17.60200 22.69400
H  -3.02600 12.57800 26.54900
H  -1.57800 12.02600 27.32600
H  -1.40400 12.76000 25.81800
H  -2.49200 14.99400 31.82400
H  0.09100 13.85200 34.81100
H  1.29500 14.27400 33.73600
H  0.64700 12.61000 33.64400
Mg 45.62700 3.34000 47.30700
C  43.33800 5.98500 46.58400
C  43.10600 1.16000 46.85100
C  48.02100 1.01800 47.19300
C  48.20100 5.85200 47.02000
N  43.54200 3.60700 46.60000
C  42.80600 4.72200 46.61100
C  41.30700 4.39400 46.36800
C  41.23400 2.83200 46.56800
C  42.75000 2.50000 46.66800
C  40.36000 2.40000 47.74900
C  40.84900 4.88900 44.99100
C  39.64200 5.82100 44.91200
H  39.66200 7.02800 43.93600
N  45.59200 1.28700 47.06100
C  44.43900 0.55700 47.08300
C  44.77900 -0.79300 47.41500
C  46.23600 -0.88100 47.42800
C  46.69400 0.48800 47.22000
C  43.85700 -1.90700 47.57000
C  47.12600 -2.19400 47.68300
O  46.64000 -3.30900 47.98000
C  48.62800 -2.15300 47.59500
N  47.82600 3.46600 46.90300
C  48.53600 2.30700 47.09100
C  49.99200 2.60900 47.20600
C  50.08800 4.12700 47.24000
C  48.63200 4.52700 46.95100
C  50.84400 1.99400 48.38900
C  51.16700 4.63800 46.28500
C  52.54000 5.04900 46.77900
N  45.80500 5.47300 46.75800
C  46.87000 6.27900 46.87600
C  46.50100 7.66200 46.85400
C  45.05800 7.59700 46.77900
C  44.74800 6.22300 46.65800
C  47.37100 8.90800 46.85100
C  43.84700 8.38600 46.71800
O  43.67600 9.59500 46.79600
C  42.72400 7.32500 46.56100
C  41.88400 7.56200 47.75600
O  41.94100 6.89500 48.78700
O  40.80000 8.36500 47.43000
C  39.70400 8.39000 48.34300
H  42.29400 0.43800 46.95500
H  48.78400 0.24600 47.31200
H  48.97100 6.62400 46.95600
H  40.55600 4.80100 47.04500
H  40.95500 2.32300 45.64600
H  39.43300 2.97300 47.78200
H  40.80100 2.59100 48.72700
H  40.10500 1.34300 47.67400
H  40.44200 4.04100 44.43900
H  41.61500 5.27400 44.31800
H  39.32400 6.22800 45.87200
H  38.77500 5.22600 44.62500
H  43.56000 -2.06300 48.60800
H  44.24800 -2.82600 47.13400
H  42.94400 -1.74500 46.99700
H  49.09700 -3.13600 47.54900
H  49.17300 -1.55700 48.32700
H  48.99800 -1.69600 46.67700
H  50.48300 2.16700 46.33900
H  50.42600 4.44000 48.22800
H  50.10200 1.69400 49.13000
H  51.48300 2.75600 48.83700
H  51.36400 1.06300 48.16500
H  50.72900 5.44700 45.70100
H  51.26100 3.90300 45.48500
H  52.77100 6.10900 46.66500
H  53.20700 4.44500 46.16400
H  52.67000 4.71700 47.80900
H  48.42100 8.62000 46.78700
H  47.27800 9.58800 47.69800
H  47.03700 9.43200 45.95600
H  42.15100 7.46800 45.64400
H  39.29500 9.33200 48.70900
H  39.97600 7.92600 49.29100
H  38.89800 7.83500 47.86300

