158

Mg 41.23000 8.64200 29.92300
C  43.07000 9.66100 32.64600
C  39.01300 7.16500 31.99800
C  39.69100 7.24300 27.25800
C  43.85000 9.54600 27.94500
N  41.13600 8.38200 32.09900
C  41.93400 8.90700 33.03300
C  41.34500 8.70100 34.51000
C  40.29200 7.58500 34.20900
C  40.10200 7.74000 32.65600
C  40.53300 6.05300 34.60100
C  40.75500 10.01000 35.21000
C  40.72000 10.04300 36.82000
H  41.27000 11.31300 37.48600
N  39.58800 7.41900 29.68900
C  38.75900 6.95100 30.65800
C  37.64000 6.26300 30.13600
C  37.73500 6.39000 28.72300
C  39.03700 7.07100 28.48300
C  36.68800 5.41600 30.94700
C  36.71600 6.14900 27.62200
O  36.87200 6.44800 26.43900
C  35.31700 5.75600 28.06500
N  41.77600 8.38200 28.00300
C  40.97200 7.80900 27.11600
C  41.44900 7.96100 25.65600
C  42.82500 8.67900 25.81600
C  42.81900 8.94900 27.31300
C  41.58700 6.58500 24.92100
C  43.02600 9.89500 24.95600
C  42.55400 11.28100 25.39100
N  43.01300 9.57100 30.18100
C  43.97600 9.94600 29.25800
C  44.99800 10.75000 29.87400
C  44.69500 10.67200 31.27400
C  43.47300 9.95300 31.35000
C  46.16900 11.46100 29.22800
C  45.15400 11.04900 32.56900
O  46.12300 11.71300 32.87400
C  44.04700 10.47300 33.53200
C  44.85400 9.58100 34.46000
O  45.52800 8.67000 34.07400
O  44.60800 10.00700 35.73000
C  44.92600 8.97900 36.68200
H  38.42500 6.53500 32.66900
H  39.26500 6.96000 26.29300
H  44.69800 9.86100 27.33300
H  42.10300 8.21100 35.12300
H  39.35000 7.97700 34.59400
H  40.40000 5.47700 33.68500
H  39.75400 5.84200 35.33400
H  41.51000 5.84800 35.03900
H  39.73300 10.15600 34.86000
H  41.38900 10.83400 34.88200
H  41.31600 9.21400 37.20100
H  39.66000 9.94600 37.05700
H  36.89500 5.42700 32.01700
H  36.46400 4.39200 30.65000
H  35.70600 5.87500 30.83400
H  35.12100 6.42200 28.90500
H  35.20700 4.80900 28.59400
H  34.49800 6.06500 27.41500
H  40.75700 8.66000 25.18600
H  43.60200 7.98600 25.49200
H  41.27000 5.80500 25.61300
H  42.58000 6.46700 24.48700
H  40.81800 6.68700 24.15600
H  42.56200 9.65500 23.99900
H  44.08800 10.09600 24.81700
H  42.32600 11.99200 24.59700
H  43.17600 11.79300 26.12500
H  41.62300 11.08400 25.92300
H  46.31900 12.43100 29.70300
H  46.01300 11.51900 28.15100
H  47.15900 11.02400 29.35200
H  43.67400 11.28000 34.16300
H  46.00600 8.84500 36.62300
H  44.41300 8.05500 36.41800
H  44.61900 9.32400 37.66900
Mg 41.34700 40.56000 26.54700
C  40.98000 42.99600 29.02400
C  42.30800 38.30100 28.90500
C  42.28100 38.39000 24.14100
C  40.64900 43.00500 24.22600
N  41.65700 40.68600 28.66700
C  41.31000 41.72000 29.56000
C  41.40200 41.33300 31.06600
C  42.29400 39.99900 30.92500
C  42.10700 39.60300 29.39200
C  43.76700 40.22400 31.42900
C  40.03400 41.04300 31.62800
C  39.62600 41.84600 32.90300
H  39.06300 41.03700 34.06700
N  42.09000 38.50400 26.56700
C  42.36500 37.72900 27.62600
C  42.78400 36.38000 27.24000
C  42.87000 36.41100 25.85100
C  42.41600 37.81000 25.42700
C  43.17200 35.33800 28.24200
C  43.26700 35.31400 24.80900
O  43.38600 35.54800 23.62300
C  43.40100 33.91900 25.35200
N  41.63300 40.71900 24.43700
C  41.88800 39.66100 23.64900
C  41.68600 39.95500 22.17100
C  40.85300 41.35700 22.16800
C  41.08100 41.77100 23.67500
C  43.05900 40.00200 21.36200
C  39.36900 41.29300 21.74400
C  38.50200 40.07400 22.18000
N  40.88000 42.61300 26.56400
C  40.66100 43.49400 25.53600
C  40.36400 44.82900 25.99900
C  40.47100 44.70700 27.39000
C  40.80200 43.31100 27.65500
C  40.15700 46.04700 25.14700
C  40.29500 45.35000 28.65100
O  40.04200 46.47000 28.89300
C  40.64400 44.31800 29.74400
C  41.66500 44.92700 30.63200
O  42.82200 45.21800 30.34700
O  41.09700 45.17800 31.78500
C  41.88300 45.64900 32.87100
H  42.43000 37.56400 29.70100
H  42.55000 37.77400 23.28000
H  40.20500 43.67600 23.48700
H  41.86000 42.17400 31.58600
H  41.85600 39.15000 31.45100
H  44.52500 39.66700 30.87700
H  43.75100 39.85600 32.45500
H  44.11400 41.24600 31.58100
H  39.79700 39.99700 31.82300
H  39.30500 41.13800 30.82300
H  38.92600 42.62400 32.59800
H  40.38800 42.49900 33.32800
H  44.15900 34.97900 27.94800
H  42.53800 34.46300 28.09800
H  43.09800 35.65300 29.28300
H  42.39500 33.59700 25.62000
H  44.09000 34.00000 26.19300
H  43.70900 33.26600 24.53600
H  41.04900 39.19200 21.72600
H  41.26800 42.10700 21.49400
H  43.86700 39.95900 22.09200
H  43.13600 40.86400 20.69900
H  43.08100 39.12400 20.71600
H  39.27500 41.39600 20.66300
H  38.82000 42.11400 22.20400
H  37.62000 40.38500 22.73900
H  39.21300 39.46300 22.73600
H  38.12600 39.48700 21.34100
H  39.37900 45.74100 24.44700
H  41.03300 46.29900 24.54900
H  39.96300 47.00500 25.62900
H  39.73000 44.11200 30.30000
H  42.95500 45.47200 32.78100
H  41.50700 45.37700 33.85800
H  41.66600 46.71700 32.88200

