158

Mg 24.08300 -4.68400 45.58600
C  26.24700 -2.40100 44.23200
C  21.51100 -3.54400 43.37300
C  22.23800 -7.46000 46.15400
C  26.67000 -5.99300 47.43500
N  24.01200 -3.27900 43.90800
C  25.06500 -2.37200 43.56000
C  24.65000 -1.33400 42.53100
C  23.09500 -1.59800 42.47200
C  22.85100 -2.89200 43.28600
C  22.20000 -0.39700 42.85200
C  25.40200 -1.54700 41.15700
C  25.24800 -0.46600 40.16600
H  24.59900 -0.79500 38.76900
N  22.16000 -5.39200 44.88700
C  21.30100 -4.79400 43.99000
C  20.11900 -5.53000 43.82300
C  20.32700 -6.73200 44.62200
C  21.63100 -6.59200 45.30800
C  18.88300 -5.05400 42.89000
C  19.24800 -7.83900 44.70200
O  18.10200 -7.79000 44.16200
C  19.42400 -9.11100 45.53400
N  24.48500 -6.55700 46.55100
C  23.49600 -7.45100 46.78200
C  23.98400 -8.64200 47.60600
C  25.42400 -8.02000 48.19300
C  25.49400 -6.72000 47.41400
C  22.95200 -8.98200 48.69600
C  26.65400 -8.96100 48.01500
C  26.49600 -10.44100 48.44800
N  26.01600 -4.26500 45.92100
C  26.93700 -4.90000 46.65900
C  28.16200 -4.13300 46.64200
C  27.89800 -3.08700 45.75400
C  26.60600 -3.33400 45.23800
C  29.41300 -4.46000 47.34900
C  28.45700 -1.86700 45.09900
O  29.49900 -1.26400 45.19600
C  27.38600 -1.47200 44.05400
C  27.23500 0.00500 44.08900
O  26.74600 0.55400 45.06400
O  27.71300 0.70600 42.97900
C  27.50200 2.13900 42.93800
H  20.69700 -3.22400 42.72000
H  21.64100 -8.34600 46.38000
H  27.62800 -6.23300 47.90000
H  24.80300 -0.29900 42.83600
H  22.86300 -1.84400 41.43600
H  21.69800 -0.50800 43.81300
H  21.44200 -0.35200 42.07000
H  22.66900 0.58700 42.83200
H  25.06600 -2.44500 40.63800
H  26.42400 -1.73900 41.48300
H  26.27200 -0.15300 39.96400
H  24.74600 0.31800 40.73400
H  18.23900 -5.78300 42.39800
H  19.23800 -4.36700 42.12100
H  18.15000 -4.56400 43.53000
H  18.59200 -9.80800 45.43200
H  19.54100 -8.97800 46.61000
H  20.30400 -9.68800 45.25300
H  24.13800 -9.54000 47.00600
H  25.44300 -7.80300 49.26100
H  23.46000 -8.68600 49.61400
H  22.69800 -10.03500 48.56900
H  21.99800 -8.47100 48.56500
H  27.49200 -8.58900 48.60500
H  26.89400 -8.77500 46.96800
H  25.49800 -10.69200 48.80700
H  27.27100 -10.68700 49.17500
H  26.58200 -11.10300 47.58600
H  29.25000 -4.68000 48.40400
H  30.16500 -3.67900 47.24600
H  29.77400 -5.37000 46.86900
H  27.84300 -1.65400 43.08100
H  26.46900 2.46600 42.81900
H  27.94500 2.55500 42.03300
H  27.95500 2.66300 43.77900
Mg 47.93000 15.75300 28.26100
C  46.14400 15.63000 31.16400
C  50.54300 17.23500 30.00800
C  49.51900 15.82100 25.44900
C  45.23100 14.24300 26.59600
N  48.16100 16.61600 30.32800
C  47.35800 16.28800 31.40000
C  47.97800 16.78400 32.70100
C  49.19100 17.66900 32.25000
C  49.38700 17.14700 30.78900
C  49.16200 19.27400 32.43100
C  48.32100 15.69200 33.69700
C  47.70000 15.82700 35.06600
H  47.51500 17.24800 35.77500
N  49.76900 16.53500 27.76300
C  50.72100 16.99000 28.59000
C  52.02000 17.11700 27.85200
C  51.72300 16.63400 26.53400
C  50.31700 16.34500 26.48500
C  53.30800 17.73900 28.40400
C  52.61400 16.55300 25.27700
O  52.20400 16.26800 24.13900
C  54.07000 16.77400 25.50200
N  47.31100 15.30400 26.21400
C  48.28000 15.30000 25.25800
C  47.80200 14.77300 23.86200
C  46.52200 13.90800 24.45800
C  46.28500 14.54400 25.85000
C  47.54200 15.79700 22.76400
C  46.86200 12.39900 24.56300
C  46.51400 11.53900 23.34800
N  45.98000 15.08900 28.72100
C  44.93100 14.55400 27.96900
C  43.87600 14.14300 28.82700
C  44.22700 14.49700 30.09200
C  45.48900 15.17700 29.97400
C  42.62100 13.43100 28.40700
C  43.91700 14.51900 31.49800
O  42.98500 14.08900 32.20700
C  45.12100 15.23900 32.19300
C  44.46200 16.46600 32.75900
O  44.54100 17.59200 32.32400
O  43.88500 16.06100 33.98100
C  43.17100 17.06900 34.71400
H  51.39200 17.63200 30.56900
H  50.09700 15.70800 24.52900
H  44.47900 13.64800 26.07500
H  47.28600 17.50000 33.14400
H  50.08000 17.44400 32.83900
H  49.18300 19.70600 31.43000
H  50.12900 19.61800 32.79800
H  48.31900 19.60400 33.03800
H  49.40100 15.66700 33.83800
H  47.81600 14.76900 33.41000
H  48.35600 15.23100 35.70100
H  46.78600 15.23400 35.03400
H  54.04600 16.99400 28.70100
H  53.18100 18.41000 29.25400
H  53.92200 18.38500 27.77800
H  54.27800 17.83900 25.40600
H  54.53600 16.30000 24.63900
H  54.47000 16.25800 26.37500
H  48.58600 14.22200 23.34300
H  45.68200 14.02400 23.77300
H  47.70500 16.82800 23.07800
H  46.48400 15.79600 22.50100
H  47.98400 15.53200 21.80400
H  46.23500 11.96800 25.34400
H  47.92500 12.29000 24.77600
H  45.59600 11.82800 22.83600
H  46.53700 10.48500 23.62300
H  47.24400 11.61800 22.54100
H  42.84000 12.71900 27.61100
H  41.94300 14.12600 27.91200
H  42.14700 13.01400 29.29500
H  45.41200 14.53300 32.97000
H  43.60500 18.06700 34.65100
H  43.22800 16.82500 35.77500
H  42.11700 17.04500 34.43900

