158

Mg 0.12000 7.39400 27.23600
C  0.77100 9.36900 30.07400
C  0.69700 4.58200 29.13200
C  -0.12200 5.60000 24.38400
C  0.08200 10.37700 25.38600
N  0.62400 7.06400 29.41100
C  0.66000 8.02100 30.36400
C  0.71600 7.36300 31.77500
C  0.97300 5.80800 31.36300
C  0.77400 5.81000 29.87000
C  2.48300 5.35900 31.49800
C  -0.65300 7.57600 32.52500
C  -0.53200 8.15400 33.86800
H  0.69500 7.88600 34.71600
N  0.16100 5.34700 26.82500
C  0.36100 4.32200 27.77000
C  0.22800 3.09300 27.06800
C  -0.00900 3.37600 25.67800
C  0.04300 4.80900 25.59000
C  0.32900 1.70400 27.87300
C  -0.03300 2.36700 24.63200
O  -0.03500 2.74800 23.47900
C  -0.23600 0.90700 24.93400
N  -0.24100 7.89800 25.15200
C  -0.21700 6.96700 24.14300
C  -0.19900 7.59700 22.75000
C  -0.40200 9.13200 23.10100
C  -0.22100 9.15600 24.65600
C  1.05500 7.41100 21.85400
C  -1.78300 9.73400 22.72700
C  -1.87500 10.22900 21.32200
N  0.32400 9.40300 27.57000
C  0.40300 10.51700 26.75000
C  0.71900 11.71400 27.42200
C  0.83600 11.30700 28.73800
C  0.60800 9.91700 28.80800
C  0.76400 13.02200 26.76500
C  1.10200 11.75900 30.07000
O  1.30300 12.91200 30.42700
C  0.95900 10.48200 31.04300
C  2.22000 10.48700 31.81100
O  3.30200 9.96700 31.51200
O  1.91000 11.15400 32.95700
C  3.06500 11.56600 33.80300
H  0.77500 3.63100 29.66300
H  -0.13200 5.09500 23.41500
H  0.18400 11.22400 24.70400
H  1.60100 7.75500 32.27700
H  0.30500 5.10100 31.85600
H  2.62000 4.27900 31.54200
H  2.92800 5.83000 32.37500
H  3.18200 5.55800 30.68600
H  -1.23200 6.65900 32.62600
H  -1.25700 8.29200 31.96700
H  -1.21200 7.56800 34.48500
H  -0.91300 9.17500 33.84600
H  -0.40100 0.95200 27.57400
H  0.15600 1.83500 28.94200
H  1.32900 1.30600 27.69700
H  0.42100 0.34800 25.60000
H  -0.19400 0.42400 23.95800
H  -1.25500 0.77100 25.29800
H  -1.09600 7.31400 22.19900
H  0.39200 9.74200 22.67000
H  0.69100 6.81700 21.01500
H  1.81400 6.89800 22.44400
H  1.43100 8.38800 21.55000
H  -1.96800 10.51300 23.46600
H  -2.55200 8.96900 22.83200
H  -0.93400 10.02600 20.81000
H  -2.14700 11.27900 21.22100
H  -2.68800 9.72600 20.79800
H  1.33800 13.69900 27.39700
H  -0.25500 13.36800 26.58600
H  1.25400 12.91600 25.79700
H  0.11700 10.75700 31.67800
H  2.64300 11.89700 34.75100
H  3.59300 12.36200 33.27700
H  3.81700 10.81200 34.03400
Mg 35.48400 49.26500 26.73900
C  35.61100 47.11700 29.58100
C  34.29200 51.73400 28.75100
C  35.00800 50.94300 24.02200
C  36.25400 46.32700 24.85200
N  35.10200 49.30100 28.86700
C  35.10400 48.38600 29.84500
C  34.94300 48.91600 31.24500
C  34.23200 50.23500 30.86500
C  34.61900 50.49000 29.40500
C  32.71700 50.29800 31.06600
C  36.28200 49.17800 32.08500
C  36.32800 48.59500 33.52900
H  35.05700 48.71700 34.37100
N  34.76700 51.12300 26.39000
C  34.35900 51.99600 27.33800
C  34.19000 53.27300 26.70600
C  34.34900 53.06300 25.29300
C  34.65100 51.65600 25.16700
C  33.91700 54.51500 27.54900
C  34.35600 53.98900 24.14200
O  34.64200 53.71900 22.96700
C  33.79400 55.40200 24.38600
N  35.61600 48.70500 24.76200
C  35.46200 49.62200 23.76000
C  35.79400 49.10300 22.39300
C  36.21800 47.65500 22.67500
C  35.99900 47.54500 24.19600
C  34.73700 49.25600 21.28800
C  37.66600 47.16800 22.22900
C  38.91900 47.73500 22.78100
N  35.86900 47.14300 27.03900
C  36.22300 46.11300 26.21400
C  36.51200 44.92400 26.92000
C  36.28200 45.26600 28.25000
C  35.90000 46.64000 28.29700
C  37.15600 43.62200 26.31400
C  36.47100 44.72300 29.61800
O  36.96200 43.61100 29.97800
C  35.87600 45.89000 30.51700
C  34.58900 45.47700 31.19500
O  33.46600 45.35000 30.62000
O  34.88100 45.11600 32.45100
C  33.86900 44.38100 33.23800
H  33.83000 52.50900 29.36600
H  34.76000 51.51100 23.12300
H  36.51900 45.44200 24.27000
H  34.27100 48.27100 31.81100
H  34.53700 51.06900 31.49600
H  32.52400 51.16300 31.69900
H  32.28000 49.40900 31.52100
H  32.15100 50.53700 30.16600
H  36.51100 50.23300 32.23300
H  36.99700 48.66500 31.44100
H  37.07200 49.08800 34.15500
H  36.73500 47.58400 33.53200
H  33.66500 54.32100 28.59200
H  33.02400 54.93900 27.09200
H  34.64200 55.32800 27.49800
H  32.82000 55.46500 24.87200
H  33.70100 55.87600 23.41000
H  34.54400 55.92300 24.98100
H  36.65500 49.72800 22.15900
H  35.54600 47.01300 22.10600
H  34.55500 48.29000 20.81800
H  35.14100 49.93000 20.53300
H  33.74300 49.50200 21.66300
H  37.69100 47.30900 21.14800
H  37.67200 46.09400 22.41300
H  38.71600 47.84200 23.84600
H  39.24400 48.68400 22.35400
H  39.70800 46.98600 22.70600
H  38.19000 43.56000 26.65300
H  37.08000 43.57700 25.22700
H  36.65600 42.73400 26.70200
H  36.59100 46.08300 31.31700
H  33.90000 43.30800 33.04800
H  32.84300 44.69700 33.05000
H  34.04500 44.50300 34.30700

