158

Mg 17.50000 -0.69600 27.71000
C  16.49100 1.45700 30.26500
C  19.66600 -2.21000 29.75800
C  18.84400 -2.00100 24.92500
C  15.46200 1.41600 25.48700
N  18.02500 -0.31200 29.70300
C  17.45900 0.53400 30.63400
C  17.91000 0.17200 32.06600
C  19.10600 -0.73200 31.84500
C  18.89700 -1.10000 30.37600
C  20.49000 -0.03100 32.16200
C  16.76700 -0.33600 32.98700
C  16.71000 0.30800 34.36500
H  17.85400 1.02600 35.05600
N  19.01800 -1.91000 27.39700
C  19.72200 -2.51400 28.37800
C  20.62700 -3.43800 27.76400
C  20.35200 -3.56100 26.36400
C  19.34100 -2.48600 26.14800
C  21.63700 -4.14700 28.61200
C  20.88500 -4.60800 25.38000
O  20.61200 -4.61900 24.22100
C  21.72100 -5.85100 25.79400
N  17.06500 -0.39900 25.53800
C  17.94400 -0.98600 24.62200
C  17.61400 -0.58600 23.20000
C  16.41800 0.38000 23.36000
C  16.21500 0.42000 24.89200
C  18.76900 0.11000 22.51100
C  15.23000 -0.06600 22.58900
C  14.22700 -1.06700 23.15600
N  16.03600 0.95200 27.88100
C  15.42700 1.71100 26.92000
C  14.74800 2.85600 27.52700
C  15.10200 2.77200 28.89800
C  15.88800 1.63300 29.05100
C  13.90700 3.91500 26.78700
C  14.98200 3.42200 30.18100
O  14.41300 4.46000 30.47700
C  15.74000 2.39800 31.16500
C  16.48900 3.24600 31.99200
O  17.63200 3.68200 31.74300
O  15.91700 3.40900 33.15600
C  16.42600 4.54100 33.92300
H  20.35100 -2.74300 30.42100
H  19.34300 -2.32300 24.00800
H  15.00600 2.19800 24.87800
H  18.33100 1.03800 32.57700
H  19.02400 -1.55500 32.55600
H  20.98400 -0.70200 32.86500
H  20.40500 0.91300 32.69900
H  21.13000 0.06600 31.28500
H  17.04200 -1.37300 33.18400
H  15.75100 -0.30100 32.59300
H  16.32900 -0.53300 34.94300
H  15.86500 0.99300 34.29500
H  21.26000 -5.08000 29.03100
H  22.00300 -3.57600 29.46500
H  22.54400 -4.28600 28.02400
H  22.76500 -5.56600 25.93100
H  21.64400 -6.45000 24.88600
H  21.29000 -6.29800 26.68900
H  17.23700 -1.44200 22.63900
H  16.65100 1.42300 23.14400
H  19.58700 0.15800 23.22900
H  18.56600 1.13000 22.18400
H  19.08400 -0.46700 21.64100
H  15.49700 -0.41400 21.59100
H  14.71300 0.86800 22.36700
H  13.24000 -0.62400 23.28700
H  14.50700 -1.49700 24.11800
H  14.02800 -1.88600 22.46500
H  13.00100 3.89600 27.39200
H  13.70700 3.65100 25.74800
H  14.39000 4.89000 26.85100
H  14.99100 1.84600 31.73300
H  16.63500 5.40300 33.28900
H  17.33900 4.13600 34.35900
H  15.63000 4.67700 34.65500
Mg 48.09400 34.15900 27.12400
C  46.25300 32.72000 29.75400
C  48.97200 36.64000 29.35600
C  49.90600 35.43200 24.69800
C  47.27000 31.33500 25.08900
N  47.65000 34.56100 29.24100
C  46.99100 33.80400 30.16200
C  47.34400 34.27000 31.62500
C  47.79300 35.71900 31.37200
C  48.11400 35.66600 29.84300
C  46.66600 36.71100 31.65100
C  48.39900 33.44700 32.29700
C  48.34900 33.41900 33.85400
H  47.36700 34.26500 34.78300
N  49.16200 35.89800 26.97800
C  49.42000 36.84200 28.06000
C  50.41500 37.77800 27.52300
C  50.73900 37.38500 26.20200
C  49.88700 36.19800 25.88800
C  50.99300 38.88600 28.48000
C  51.68100 38.07400 25.17200
O  51.94400 37.55300 24.07100
C  52.32100 39.46100 25.52500
N  48.36000 33.55900 25.09400
C  49.18300 34.29500 24.22800
C  49.54000 33.53100 22.93000
C  48.78800 32.11100 23.15500
C  48.03700 32.31000 24.51600
C  49.22800 34.29000 21.59100
C  49.75900 30.89900 23.16600
C  50.02900 30.23700 21.83200
N  46.84600 32.52600 27.30900
C  46.61200 31.48200 26.40900
C  45.67300 30.56000 26.98900
C  45.50800 31.01000 28.31400
C  46.25900 32.17600 28.45600
C  45.11200 29.34900 26.31600
C  44.84300 30.68300 29.55500
O  44.14700 29.69000 29.84000
C  45.26200 31.82200 30.57000
C  45.86500 31.07300 31.62900
O  46.85500 30.37200 31.51400
O  45.05800 31.03600 32.73600
C  45.62300 30.25300 33.83800
H  49.14500 37.51000 29.99200
H  50.57500 35.71100 23.88200
H  47.22000 30.43300 24.47500
H  46.50700 34.26600 32.32400
H  48.65300 36.01500 31.97300
H  45.95500 36.40100 32.41700
H  46.10000 36.82000 30.72500
H  47.09900 37.67400 31.91800
H  49.37600 33.86200 32.05300
H  48.45100 32.45700 31.84500
H  49.36400 33.71900 34.11500
H  48.30200 32.39600 34.22600
H  51.99100 38.57400 28.78700
H  50.27600 39.00600 29.29200
H  51.13200 39.85200 27.99300
H  51.56700 40.23500 25.66700
H  53.01000 39.65000 24.70300
H  52.88500 39.26600 26.43700
H  50.61500 33.36300 22.99100
H  48.01800 32.10700 22.38300
H  48.69900 35.23100 21.74400
H  48.62800 33.71900 20.88100
H  50.17500 34.23900 21.05500
H  49.62100 30.18400 23.97700
H  50.74300 31.32600 23.35800
H  49.54400 30.72000 20.98300
H  49.61300 29.22900 21.82400
H  51.09500 30.08500 21.66700
H  45.00000 29.59400 25.26000
H  44.14300 29.10400 26.75100
H  45.87300 28.58800 26.48600
H  44.40900 32.41600 30.90000
H  45.60500 29.24000 33.43500
H  44.96600 30.21700 34.70700
H  46.64800 30.47200 34.13700

