158

Mg 43.96200 4.89400 46.96500
C  41.73200 7.75900 46.93500
C  41.09800 2.98700 46.49400
C  45.93000 2.30600 46.26000
C  46.70000 6.99000 46.92800
N  41.65500 5.37800 46.55900
C  41.01600 6.58500 46.79600
C  39.50600 6.37100 46.75100
C  39.30100 4.87500 46.66100
C  40.76400 4.33300 46.63900
C  38.50300 4.43500 47.84700
C  38.73500 7.26900 45.70300
C  39.52000 7.43600 44.40500
H  38.79400 7.41900 43.07000
N  43.58600 2.88500 46.54000
C  42.36800 2.32400 46.39300
C  42.51000 0.91400 46.02400
C  43.92600 0.69500 45.97700
C  44.57600 2.00700 46.29000
C  41.36300 -0.04200 45.62800
C  44.54300 -0.62700 45.55800
O  43.81000 -1.55100 45.31700
C  46.02600 -0.88900 45.34600
N  46.10500 4.66600 46.50500
C  46.63700 3.45000 46.50600
C  48.19700 3.52600 46.80200
C  48.45000 5.13000 46.86400
C  47.05400 5.66800 46.73400
C  48.65000 2.73600 48.06800
C  49.34400 5.73000 45.67600
C  50.66700 6.38800 46.28000
N  44.21800 6.98200 47.00800
C  45.40600 7.72200 47.01100
C  45.09200 9.10800 47.21700
C  43.62800 9.13500 47.19400
C  43.14300 7.86700 46.96100
C  46.10400 10.19100 47.43700
C  42.48800 10.03100 47.27300
O  42.44900 11.29400 47.30200
C  41.21300 9.16100 47.21900
C  40.49400 9.20600 48.50600
O  40.74900 8.45700 49.39500
O  39.48500 10.18100 48.51500
C  38.70500 10.31200 49.78900
H  40.24500 2.32400 46.33300
H  46.68300 1.53300 46.09200
H  47.49000 7.74300 46.97400
H  39.14800 6.76400 47.70300
H  38.70300 4.63600 45.78200
H  39.06500 4.80600 48.70400
H  38.46500 3.34800 47.91700
H  37.55700 4.97300 47.89600
H  38.63200 8.30000 46.04300
H  37.77400 6.85200 45.40100
H  40.26200 6.64700 44.28500
H  40.14500 8.31300 44.56800
H  41.28300 -0.89700 46.30000
H  41.57400 -0.31400 44.59400
H  40.35800 0.37900 45.66400
H  46.60900 -0.64100 46.23400
H  46.34900 -0.18700 44.57700
H  46.25500 -1.88500 44.96700
H  48.84400 3.13700 46.01600
H  48.90400 5.43000 47.80800
H  48.01000 2.95300 48.92300
H  49.70300 2.92800 48.27600
H  48.61000 1.68800 47.77100
H  48.78900 6.48600 45.12100
H  49.59600 4.86300 45.06400
H  51.05400 6.98500 45.45400
H  51.35900 5.66600 46.71300
H  50.31400 7.05300 47.06800
H  47.05900 9.88600 47.00900
H  46.36100 10.40300 48.47500
H  45.90400 11.08300 46.84300
H  40.55800 9.55400 46.44200
H  38.59900 11.33900 50.13800
H  39.03600 9.81200 50.69800
H  37.77400 9.78500 49.58200
Mg 49.28900 35.55800 27.96900
C  47.07200 34.35700 30.32200
C  49.75100 38.42600 30.11600
C  51.12800 37.22300 25.62400
C  48.70900 32.99200 25.76800
N  48.50400 36.29100 30.01400
C  47.62600 35.53800 30.76200
C  47.36900 36.30900 32.07600
C  48.13400 37.72200 31.86600
C  48.81900 37.48200 30.51300
C  47.12600 38.87200 31.72100
C  47.72500 35.61900 33.39000
C  49.02500 34.76500 33.54100
H  50.28100 35.40700 34.10700
N  50.21300 37.57000 27.81600
C  50.34300 38.49800 28.80400
C  51.12300 39.65900 28.30800
C  51.49000 39.35100 26.94200
C  50.91600 37.99700 26.72200
C  51.36600 40.92700 29.22300
C  52.25600 40.16600 25.95700
O  52.64000 39.75100 24.86900
C  52.79700 41.48600 26.43700
N  49.86400 35.13700 26.00000
C  50.72700 35.89100 25.30500
C  51.21500 35.08400 24.07600
C  50.45200 33.72700 24.17600
C  49.60600 33.93800 25.36000
C  51.02500 35.84400 22.66200
C  51.36700 32.48700 24.16200
C  50.87500 31.40900 23.12400
N  48.18300 33.95700 28.02900
C  48.02800 33.00500 27.02800
C  46.85400 32.16200 27.51700
C  46.50000 32.59100 28.85100
C  47.33300 33.68600 29.05600
C  46.20500 31.01000 26.77500
C  45.58100 32.41000 29.88000
O  44.61800 31.62100 29.95600
C  45.85800 33.55600 30.93300
C  46.30500 32.76900 32.10100
O  47.36000 32.18400 32.21900
O  45.35300 32.83300 33.05400
C  45.59800 32.11300 34.29600
H  50.00100 39.26900 30.76400
H  51.80700 37.56500 24.84000
H  48.45300 32.13900 25.13700
H  46.29700 36.47400 31.97000
H  48.93200 37.97300 32.56400
H  46.82500 39.25200 32.69700
H  46.24200 38.72200 31.10100
H  47.65600 39.68000 31.21700
H  46.83100 35.02100 33.56700
H  47.85700 36.42200 34.11500
H  49.21100 34.39400 32.53300
H  48.76800 33.93700 34.20200
H  52.37700 41.03000 29.61600
H  50.65500 40.93600 30.05000
H  51.16100 41.81900 28.63200
H  52.15600 42.33700 26.66700
H  53.43400 41.90000 25.65500
H  53.44200 41.19700 27.26700
H  52.27400 34.84900 24.18200
H  49.86600 33.78000 23.25800
H  50.44700 36.76600 22.72000
H  50.64700 35.13300 21.92800
H  52.02800 36.05500 22.29200
H  51.29800 31.93500 25.09900
H  52.43500 32.69900 24.10800
H  51.78700 31.13600 22.59200
H  49.96600 31.66900 22.58200
H  50.61500 30.47000 23.61400
H  45.50400 30.48100 27.42100
H  46.97500 30.29000 26.49900
H  45.61800 31.25700 25.89000
H  44.88300 34.01100 31.10900
H  45.67000 31.03600 34.14500
H  44.81700 32.43800 34.98400
H  46.59200 32.29500 34.70400

