158

Mg 17.80600 -2.33300 28.02700
C  16.74200 0.01400 30.54000
C  19.64700 -3.89200 30.60700
C  19.16800 -4.22700 25.69900
C  16.24100 -0.41100 25.59000
N  17.98300 -2.06700 30.34800
C  17.42000 -1.06300 31.06900
C  17.74600 -1.29000 32.55900
C  18.76500 -2.49700 32.55500
C  18.75100 -2.90500 31.06900
C  20.12600 -2.01900 33.06400
C  16.44500 -1.53300 33.47700
C  16.25800 -0.70600 34.70300
H  17.47200 0.00600 35.30700
N  19.15400 -3.84300 28.13000
C  19.69300 -4.44800 29.23600
C  20.48800 -5.55000 28.86200
C  20.37600 -5.65800 27.41900
C  19.50600 -4.53300 27.04000
C  21.32000 -6.44700 29.80500
C  21.10900 -6.58000 26.46600
O  21.09300 -6.48400 25.25600
C  22.00100 -7.65800 27.01100
N  17.86700 -2.14800 25.94900
C  18.43500 -3.11200 25.20500
C  18.33200 -2.79400 23.69000
C  17.32400 -1.61500 23.66700
C  17.06600 -1.40900 25.15700
C  19.68400 -2.51400 22.94100
C  16.03800 -1.87200 22.91000
C  15.54200 -0.93700 21.76800
N  16.73400 -0.59300 28.01200
C  16.17100 0.10200 26.91300
C  15.49700 1.29400 27.41600
C  15.70800 1.28900 28.76700
C  16.46300 0.19000 29.11400
C  14.73800 2.26100 26.63600
C  15.46600 2.00800 30.04100
O  14.80500 3.00600 30.31800
C  16.17700 1.19400 31.18300
C  17.06200 2.11400 31.86700
O  18.30000 2.03900 31.85200
O  16.41100 2.97900 32.76800
C  17.18500 3.90300 33.57600
H  20.20000 -4.33200 31.43900
H  19.49300 -4.85200 24.86500
H  15.67700 0.16600 24.85500
H  18.22200 -0.32800 32.74700
H  18.44900 -3.29900 33.22200
H  20.10000 -1.02000 33.50000
H  20.75200 -1.89100 32.18100
H  20.59700 -2.75500 33.71500
H  16.46800 -2.59600 33.72000
H  15.59300 -1.48100 32.80000
H  15.80700 -1.38500 35.42600
H  15.51800 0.04300 34.42300
H  22.35300 -6.50700 29.46400
H  20.98800 -7.48500 29.83300
H  21.37700 -6.04400 30.81600
H  21.50700 -8.19500 27.82100
H  22.85900 -7.08800 27.36600
H  22.32900 -8.39300 26.27600
H  17.93600 -3.72100 23.27500
H  17.91600 -0.72600 23.44600
H  20.37600 -2.25300 23.74200
H  19.64200 -1.72800 22.18800
H  20.10700 -3.43300 22.53400
H  15.23400 -2.06000 23.62200
H  16.17400 -2.85100 22.45000
H  15.76200 -1.32400 20.77300
H  16.20600 -0.07300 21.75200
H  14.54300 -0.50100 21.79100
H  14.54300 3.17900 27.19100
H  13.83100 1.81100 26.23400
H  15.37300 2.59900 25.81700
H  15.47900 0.83700 31.94100
H  16.78800 4.91500 33.49400
H  18.26000 3.89300 33.39700
H  17.08100 3.63100 34.62700
Mg 48.06400 15.91300 28.72000
C  45.82000 15.33600 31.33700
C  50.13800 17.44100 30.87500
C  49.90100 16.81700 26.09200
C  45.73000 14.54000 26.51000
N  47.93100 16.41300 30.83800
C  47.02100 16.01900 31.78000
C  47.31000 16.36600 33.18200
C  48.53800 17.32300 32.93300
C  48.97100 17.04400 31.52600
C  48.26900 18.81100 33.33600
C  47.49900 15.11500 34.13300
C  46.67400 15.02500 35.40300
H  46.57800 16.18600 36.39100
N  49.80800 16.90900 28.55700
C  50.62600 17.42000 29.56500
C  51.85700 17.89300 29.02100
C  51.77600 17.71000 27.59600
C  50.41700 17.18400 27.36600
C  52.99100 18.38800 29.89000
C  52.87600 17.94500 26.55900
O  52.89500 17.59000 25.38300
C  54.09900 18.74900 26.91900
N  47.77200 15.93800 26.50700
C  48.67300 16.30600 25.62400
C  48.31600 15.92900 24.14300
C  47.03500 15.06000 24.43000
C  46.86500 15.08500 25.91600
C  48.17800 17.10400 23.07900
C  47.17100 13.67400 23.71500
C  46.45000 13.56700 22.27900
N  46.18500 15.08500 28.86100
C  45.38500 14.56000 27.91000
C  44.22000 13.94900 28.41700
C  44.25200 14.32800 29.80100
C  45.53100 14.94500 30.00900
C  43.09000 13.35400 27.66200
C  43.57400 14.24400 31.03400
O  42.49300 13.67200 31.36200
C  44.50000 14.99300 32.13300
C  43.75600 15.97900 32.82200
O  43.50000 17.11200 32.49500
O  43.38600 15.47700 34.03300
C  42.76400 16.49800 34.87400
H  50.75500 17.95100 31.61700
H  50.53000 17.13300 25.25800
H  45.06500 13.93200 25.89300
H  46.42300 16.88600 33.54400
H  49.33600 16.94800 33.57500
H  48.97100 19.24900 34.04600
H  47.20800 18.92500 33.56000
H  48.39100 19.34800 32.39500
H  48.55100 14.90800 34.33000
H  47.18600 14.24300 33.55700
H  47.11500 14.17700 35.92700
H  45.65700 14.71500 35.16300
H  52.91900 19.40700 30.27000
H  54.02500 18.35200 29.54500
H  52.99100 17.74000 30.76700
H  54.93700 18.17800 27.31900
H  53.81000 19.58000 27.56200
H  54.44400 19.24300 26.01100
H  49.20300 15.39100 23.80900
H  46.15900 15.62700 24.11600
H  47.10700 17.27200 22.96600
H  48.77600 16.87400 22.19800
H  48.58400 18.04600 23.44900
H  46.79600 12.82100 24.28000
H  48.22200 13.46800 23.51500
H  46.87300 14.08400 21.41800
H  45.41700 13.91500 22.28900
H  46.53400 12.48600 22.16500
H  42.62600 14.12200 27.04300
H  42.34000 12.86200 28.28200
H  43.56400 12.52700 27.13400
H  44.74700 14.20700 32.84700
H  43.49200 17.23900 35.20200
H  42.20900 16.08100 35.71400
H  41.98700 17.02900 34.32400

