158

Mg 40.80500 40.67900 27.57600
C  39.99200 43.09800 29.92500
C  41.80400 38.65500 30.00500
C  41.85200 38.50400 25.17300
C  40.36600 43.10600 25.04300
N  40.84100 40.90400 29.68600
C  40.42100 41.89300 30.49900
C  40.50800 41.52600 31.96500
C  41.17900 40.15400 31.93700
C  41.40800 39.92000 30.42400
C  42.46000 39.96100 32.77500
C  39.14300 41.73900 32.66100
C  39.02000 42.71100 33.83300
H  38.34200 42.27200 35.13300
N  41.53200 38.81400 27.54100
C  41.85600 38.12800 28.69000
C  42.29600 36.77200 28.35500
C  42.28100 36.66200 26.93800
C  41.86200 38.02900 26.45000
C  42.67800 35.70400 29.30800
C  42.68300 35.51100 25.96900
O  42.54900 35.54700 24.75200
C  43.13100 34.10000 26.57400
N  41.18100 40.84000 25.44100
C  41.51500 39.75400 24.64000
C  41.62100 40.13500 23.14300
C  40.82800 41.45000 23.10800
C  40.78200 41.84800 24.63600
C  43.11800 40.25400 22.65500
C  39.45500 41.45200 22.43200
C  38.30900 40.73200 23.08500
N  40.35400 42.72000 27.45500
C  40.16600 43.57300 26.34000
C  39.67900 44.83100 26.77600
C  39.65000 44.75200 28.22000
C  40.05100 43.42400 28.56300
C  39.28700 45.96400 25.90200
C  39.24500 45.37600 29.49000
O  38.78200 46.46300 29.72200
C  39.50600 44.38600 30.62500
C  40.58700 44.94400 31.42400
O  41.77600 44.96100 31.08300
O  40.05600 45.49500 32.51900
C  41.07600 45.98200 33.45300
H  41.93900 38.05600 30.90800
H  42.14700 37.78700 24.40400
H  40.08400 43.75900 24.21400
H  41.08600 42.38200 32.31300
H  40.46300 39.41600 32.29700
H  43.40700 39.85000 32.24600
H  42.35000 39.05100 33.36400
H  42.70400 40.76900 33.46400
H  38.65500 40.79200 32.89100
H  38.51700 42.20800 31.90200
H  38.32100 43.49800 33.55200
H  40.02000 43.10100 34.02500
H  43.74600 35.48600 29.33300
H  42.12100 34.80300 29.05400
H  42.33100 35.99100 30.30100
H  43.40700 33.45600 25.73900
H  42.24700 33.79400 27.13500
H  44.00000 34.17300 27.22700
H  41.17600 39.31400 22.58200
H  41.31200 42.24800 22.54600
H  43.25000 39.54700 21.83500
H  43.73600 39.77400 23.41400
H  43.36300 41.28000 22.38100
H  39.56500 41.04200 21.42800
H  39.18300 42.49000 22.23900
H  38.59700 40.08300 23.91100
H  37.69800 40.10300 22.43800
H  37.64500 41.47100 23.53300
H  38.75400 45.58900 25.02800
H  40.05800 46.59100 25.45400
H  38.56000 46.54700 26.46600
H  38.54000 44.26700 31.11400
H  41.65500 45.14000 33.83300
H  40.51400 46.54100 34.20100
H  41.65400 46.79800 33.01800
Mg -11.45900 17.16700 42.83400
C  -8.10600 17.46700 43.15800
C  -11.72900 20.52600 42.09400
C  -14.83800 16.75600 42.13800
C  -11.03200 13.70100 42.90600
N  -10.09300 18.68800 42.54600
C  -8.74500 18.61100 42.76500
C  -8.03300 19.89200 42.24300
C  -9.18600 20.88900 42.03000
C  -10.43800 20.04900 42.27800
C  -9.16100 22.21600 42.91600
C  -7.10800 19.62000 41.03600
C  -5.63000 20.15700 41.10000
H  -5.15700 21.01000 39.96900
N  -13.04700 18.51200 42.47000
C  -12.96500 19.88400 42.23400
C  -14.25400 20.45600 42.03500
C  -15.15900 19.38700 42.07700
C  -14.34700 18.10900 42.15000
C  -14.46300 21.87500 41.57300
C  -16.69800 19.54100 41.96900
O  -17.28200 20.60500 41.77100
C  -17.70500 18.35700 42.13400
N  -12.79800 15.52100 42.56400
C  -14.13300 15.59900 42.46400
C  -14.77400 14.20500 42.67600
C  -13.50700 13.31600 42.31200
C  -12.34400 14.22200 42.49500
C  -15.27500 14.01100 44.17500
C  -13.38500 12.72400 40.85400
C  -13.58100 11.23200 40.83000
N  -9.86100 15.76200 42.84300
C  -9.86900 14.41700 42.97300
C  -8.55100 13.91100 43.18900
C  -7.80700 15.08300 43.34100
C  -8.65700 16.17400 43.09400
C  -8.01200 12.53600 43.21500
C  -6.46000 15.59200 43.49600
O  -5.42300 14.99100 43.56900
C  -6.59700 17.15400 43.44600
C  -6.21500 17.76100 44.75300
O  -6.66300 17.39400 45.82800
O  -5.30500 18.72000 44.59400
C  -4.92600 19.51400 45.71700
H  -11.78900 21.61100 41.98800
H  -15.89200 16.58000 41.91300
H  -10.83600 12.63100 43.00000
H  -7.42200 20.35000 43.02100
H  -9.29400 21.16800 40.98200
H  -9.64400 22.93200 42.25100
H  -8.16000 22.60000 43.11200
H  -9.71100 22.15200 43.85500
H  -7.62500 19.96000 40.13800
H  -7.00100 18.53900 40.94400
H  -5.04600 19.23700 41.13700
H  -5.59500 20.75100 42.01300
H  -13.57900 22.50100 41.45300
H  -15.16700 22.41700 42.20500
H  -14.92900 21.79600 40.59100
H  -17.77400 17.80000 41.20000
H  -18.69900 18.74200 42.36100
H  -17.27500 17.79600 42.96400
H  -15.52800 14.02700 41.90900
H  -13.48500 12.47600 43.00600
H  -15.37000 15.01400 44.59000
H  -14.65800 13.29900 44.72300
H  -16.24800 13.51900 44.17200
H  -12.42600 12.80400 40.34300
H  -14.17700 13.25700 40.32800
H  -14.01000 10.74200 41.70400
H  -12.62900 10.76500 40.58000
H  -14.33700 11.15700 40.04800
H  -6.92600 12.53700 43.11500
H  -8.44300 12.07400 42.32700
H  -8.30100 12.21500 44.21600
H  -5.85400 17.41800 42.69300
H  -5.63800 20.33800 45.76900
H  -4.05500 20.09200 45.40900
H  -4.74400 19.12500 46.71800

