158

Mg 53.68100 24.74800 43.82600
C  51.12100 26.96200 43.30700
C  51.56200 22.29000 42.47100
C  56.30700 22.65300 43.26300
C  55.78000 27.36900 44.50500
N  51.67300 24.69600 42.68200
C  50.85100 25.74400 42.65100
C  49.51700 25.43500 41.97100
C  49.53200 23.80800 42.00600
C  50.99300 23.53100 42.44600
C  48.45600 23.11700 42.87700
C  49.28700 25.92100 40.47400
C  50.42900 25.84400 39.48400
H  50.03300 25.30400 38.14100
N  53.92600 22.66000 43.17100
C  52.90400 21.87500 42.72400
C  53.44300 20.54100 42.52700
C  54.84000 20.62200 42.77100
C  55.07600 22.02200 43.07500
C  52.57400 19.38700 42.25100
C  55.82200 19.47800 42.70200
O  55.52100 18.32200 42.41700
C  57.17200 19.51900 43.31500
N  55.77600 24.94400 43.78100
C  56.62100 23.99400 43.59400
C  58.02800 24.51700 43.70900
C  57.85500 26.06400 43.91000
C  56.35200 26.15800 44.16100
C  58.89300 23.82800 44.76300
C  58.31400 26.92800 42.69400
C  58.83800 28.28400 43.00300
N  53.51600 26.69300 44.11800
C  54.43900 27.68400 44.45300
C  53.70800 28.87700 44.81700
C  52.37300 28.60800 44.40600
C  52.35400 27.26400 43.92000
C  54.33100 30.10600 45.36000
C  51.13800 29.30100 44.22500
O  50.74900 30.48300 44.35300
C  50.25100 28.16100 43.45200
C  49.72100 28.76100 42.24400
O  50.27600 28.93800 41.17200
O  48.41500 29.10300 42.50400
C  47.68100 29.90700 41.54700
H  50.93500 21.47500 42.10200
H  57.17200 22.02600 43.04100
H  56.51900 28.07400 44.88900
H  48.74600 25.92200 42.56800
H  49.42900 23.41000 40.99700
H  48.71500 22.38200 43.64000
H  47.80100 22.57700 42.19300
H  47.81600 23.88300 43.31600
H  48.95400 26.95700 40.54900
H  48.31300 25.53100 40.17800
H  51.24300 25.27700 39.93500
H  50.79200 26.86700 39.38600
H  52.03100 19.62700 41.33700
H  51.77700 19.28900 42.98800
H  53.00700 18.42600 41.97400
H  57.67300 18.55900 43.43700
H  57.10400 19.97400 44.30300
H  57.72000 20.16400 42.62800
H  58.55600 24.24700 42.79500
H  58.54600 26.40400 44.68200
H  59.84400 23.56300 44.30000
H  58.45800 22.86500 45.03300
H  59.04500 24.41900 45.66600
H  57.48200 27.03700 41.99800
H  59.04400 26.33200 42.14700
H  59.36200 28.64400 42.11800
H  59.61000 28.21500 43.76900
H  58.08800 29.02600 43.27900
H  53.56800 30.82800 45.65400
H  54.94800 30.55200 44.58000
H  54.94700 29.87700 46.22900
H  49.43900 27.84300 44.10600
H  47.15200 29.23900 40.86700
H  48.31800 30.59800 40.99600
H  46.97000 30.52400 42.09800
Mg 6.63600 54.38000 41.02400
C  5.76500 50.95700 40.84300
C  9.83900 53.34600 39.89500
C  7.50100 57.59600 40.60600
C  3.39900 55.23900 41.74200
N  7.61300 52.39300 40.39200
C  7.09800 51.11600 40.47600
C  8.10500 50.00700 40.20300
C  9.43700 50.76600 40.25700
C  8.96700 52.26700 40.18900
C  10.39400 50.49400 41.49400
C  7.92100 49.30000 38.83500
C  7.60300 50.25100 37.62500
H  6.59600 49.69500 36.52200
N  8.51700 55.38900 40.44500
C  9.60700 54.78200 39.92200
C  10.49100 55.76300 39.34900
C  9.88300 56.99300 39.70000
C  8.56200 56.71800 40.26400
C  11.88600 55.49600 38.87900
C  10.46100 58.32800 39.32200
O  11.61000 58.36000 38.75900
C  9.89400 59.68600 39.48700
N  5.67600 56.09000 41.29900
C  6.26100 57.33900 41.15500
C  5.29100 58.41600 41.70700
C  3.98400 57.70000 41.88100
C  4.33600 56.26800 41.66400
C  5.69900 59.07400 43.09200
C  2.72700 58.18100 40.99700
C  1.43200 58.73900 41.75700
N  4.84900 53.42400 41.24400
C  3.64400 53.85100 41.67600
C  2.69500 52.77900 41.62600
C  3.43600 51.60000 41.36800
C  4.78600 52.03500 41.13500
C  1.20300 52.90100 41.74100
C  3.43700 50.09100 41.28100
O  2.50400 49.29500 41.45100
C  4.92000 49.64100 40.88100
C  4.79100 48.90600 39.58100
O  4.33100 49.32300 38.51800
O  5.14000 47.57500 39.85200
C  4.65800 46.60800 38.89000
H  10.84900 53.04400 39.61100
H  7.66100 58.66700 40.74500
H  2.35200 55.53900 41.81500
H  7.89100 49.28300 40.99000
H  10.05500 50.55400 39.38500
H  11.32600 50.18600 41.02000
H  10.03000 49.60100 42.00200
H  10.51200 51.38700 42.10900
H  7.30700 48.40200 38.89700
H  8.89900 48.90400 38.56000
H  8.55700 50.28400 37.10000
H  7.37200 51.27900 37.90600
H  12.07200 55.47200 37.80500
H  12.22300 54.52300 39.23500
H  12.56500 56.22400 39.32400
H  10.57200 60.52400 39.32600
H  9.78200 59.72400 40.57000
H  8.93000 59.90200 39.02600
H  5.33400 59.12700 40.88200
H  3.64700 57.77000 42.91500
H  6.27600 59.96200 42.83200
H  6.28600 58.46800 43.78200
H  4.79900 59.43900 43.58800
H  2.44700 57.36700 40.32900
H  3.18200 58.94200 40.36400
H  1.46500 58.42100 42.80000
H  0.59100 58.34300 41.18900
H  1.26400 59.81600 41.75500
H  1.06600 53.50500 42.63800
H  0.81600 51.88700 41.84300
H  0.84800 53.48300 40.89000
H  5.32900 48.96300 41.63000
H  5.02500 45.62900 39.19700
H  5.09900 46.69300 37.89700
H  3.56900 46.62600 38.86200

