158

Mg 43.29800 5.03300 46.64500
C  41.37700 8.00200 46.91800
C  40.23600 3.32700 46.48700
C  44.94100 2.24900 45.77200
C  46.00900 7.02400 45.86700
N  41.04000 5.55300 46.81900
C  40.53500 6.85300 46.99300
C  39.00400 6.84200 46.95100
C  38.68000 5.31700 47.12700
C  40.03200 4.70700 46.70700
C  38.19700 4.99700 48.55500
C  38.41200 7.37800 45.61800
C  38.93300 6.87000 44.24100
H  39.71000 7.70300 43.19400
N  42.66400 3.05600 46.33300
C  41.36900 2.58800 46.23800
C  41.46300 1.21600 45.85300
C  42.81700 0.81400 45.70900
C  43.55100 2.05100 45.95200
C  40.19500 0.39500 45.61200
C  43.36600 -0.56500 45.43400
O  42.60100 -1.45500 45.22700
C  44.80700 -0.93600 45.51000
N  45.21600 4.69400 45.86700
C  45.67700 3.47500 45.74600
C  47.25000 3.46800 45.59600
C  47.44100 4.93900 45.28900
C  46.13500 5.58800 45.74300
C  47.89400 2.96900 46.93600
C  47.89500 5.16900 43.81400
C  49.42900 5.14300 43.66000
N  43.71300 7.10500 46.55000
C  44.86900 7.76800 46.21700
C  44.72600 9.20700 46.32600
C  43.34100 9.37100 46.64900
C  42.76200 8.01800 46.69000
C  45.83400 10.24100 46.24200
C  42.28200 10.36600 46.94000
O  42.35500 11.61600 47.01600
C  40.93300 9.50500 46.97400
C  40.13600 9.77400 48.17000
O  40.19100 9.17200 49.26700
O  39.18600 10.79400 47.92700
C  38.35000 11.22600 49.04400
H  39.31500 2.75700 46.35100
H  45.62100 1.41200 45.59700
H  46.93600 7.59100 45.76000
H  38.66500 7.46100 47.78100
H  37.97200 5.06000 46.34000
H  37.16100 4.66100 48.57300
H  38.43000 5.70300 49.35200
H  38.74100 4.12600 48.92300
H  38.42900 8.46600 45.55700
H  37.32700 7.27000 45.63200
H  38.02600 6.45100 43.80500
H  39.66800 6.07500 44.36700
H  39.52300 0.75900 46.38900
H  40.26800 -0.69200 45.63400
H  39.86600 0.52300 44.58000
H  45.24800 -0.50800 46.41100
H  45.29400 -0.55000 44.61500
H  44.82300 -2.02100 45.61200
H  47.48600 2.78600 44.77900
H  48.24800 5.35200 45.89500
H  47.30900 2.23200 47.48600
H  47.97600 3.83800 47.58900
H  48.84700 2.53800 46.63000
H  47.35800 5.97600 43.31500
H  47.45600 4.36200 43.22700
H  49.82000 5.65700 44.53800
H  49.78600 5.80200 42.86800
H  49.74500 4.10000 43.68000
H  46.50400 10.18700 45.38400
H  46.45100 10.11700 47.13200
H  45.38900 11.23600 46.25000
H  40.32500 9.86100 46.14200
H  37.34400 10.84600 48.87000
H  38.21600 12.30500 48.96300
H  38.73900 10.90900 50.01200
Mg 5.60000 55.35500 40.57900
C  3.91000 52.29400 40.14900
C  8.27200 53.99600 38.68000
C  7.03200 58.21300 40.82200
C  2.57200 56.71800 41.67600
N  5.95300 53.41500 39.44300
C  5.16400 52.32300 39.49000
C  5.78800 51.24000 38.61300
C  7.22500 51.72800 38.33400
C  7.15000 53.16800 38.77100
C  8.36700 50.92200 39.09200
C  5.00300 50.97400 37.35900
C  4.70800 49.46600 37.04500
H  5.19500 48.95100 35.70000
N  7.40900 55.96200 39.97000
C  8.38000 55.27500 39.30200
C  9.50900 56.17500 39.08600
C  9.20900 57.44200 39.63100
C  7.83700 57.23900 40.22000
C  10.68500 55.84500 38.16000
C  10.04400 58.69400 39.45600
O  11.16900 58.62800 38.96400
C  9.61600 60.10800 39.99100
N  4.93100 57.27600 41.23600
C  5.76200 58.22700 41.33900
C  5.06500 59.53100 41.82700
C  3.58200 59.05500 42.03800
C  3.63500 57.59500 41.58500
C  5.66900 60.20200 43.05200
C  2.49300 59.76900 41.23500
C  1.21900 60.07100 41.92000
N  3.63400 54.70300 40.92500
C  2.46200 55.37900 41.32200
C  1.29300 54.45600 41.43100
C  1.92000 53.21400 41.19100
C  3.25700 53.42200 40.70900
C  -0.13000 54.82100 41.83900
C  1.69500 51.76800 41.21600
O  0.71800 51.16600 41.66400
C  3.01700 51.11000 40.62700
C  2.73000 49.95800 39.72500
O  2.03800 49.93100 38.73300
O  3.09000 48.86000 40.51800
C  2.91600 47.55100 39.92700
H  9.08700 53.56000 38.09800
H  7.48700 59.16200 41.11300
H  1.61500 57.11600 42.01800
H  5.83000 50.33500 39.21800
H  7.42600 51.76200 37.26300
H  8.62100 51.52500 39.96300
H  9.26800 50.95900 38.48000
H  8.06500 49.89200 39.28500
H  5.58500 51.27700 36.48800
H  4.12900 51.61400 37.48100
H  3.62300 49.41000 36.95800
H  5.01500 48.84700 37.88800
H  11.62900 56.05700 38.66200
H  10.52000 56.39300 37.23300
H  10.85000 54.79700 37.90900
H  8.56000 60.36200 39.90000
H  10.13600 60.85800 39.39500
H  9.94200 60.29300 41.01400
H  5.01500 60.22600 40.98900
H  3.44400 59.02400 43.11800
H  5.00600 60.38600 43.89700
H  6.07200 61.18400 42.80500
H  6.42900 59.59500 43.54300
H  2.34500 59.25500 40.28500
H  2.84400 60.77600 41.00500
H  1.25900 61.04800 42.40200
H  1.11100 59.37700 42.75400
H  0.42200 59.80100 41.22800
H  -0.20000 55.59100 42.60700
H  -0.65800 53.92500 42.16600
H  -0.61400 55.13800 40.91600
H  3.56000 50.79800 41.51900
H  2.46400 47.66800 38.94200
H  2.42000 46.85400 40.60300
H  3.90000 47.20300 39.61100

