158

Mg 48.39600 25.58200 29.49700
C  49.89100 27.27600 32.20500
C  47.39600 23.14900 31.76200
C  47.52500 23.60800 26.94500
C  49.73500 27.81500 27.29800
N  48.63800 25.27300 31.68300
C  49.15800 26.17000 32.59700
C  48.85000 25.80800 33.99000
C  48.32600 24.30900 33.87100
C  48.04000 24.31100 32.35400
C  49.29300 23.12900 34.30500
C  47.86700 26.82000 34.68700
C  48.47300 27.60100 35.89600
H  47.46100 28.07400 36.98600
N  47.49900 23.74300 29.40200
C  47.05800 22.90800 30.39900
C  46.41400 21.81200 29.87400
C  46.35900 21.98500 28.46000
C  47.14400 23.21000 28.22300
C  45.90000 20.70300 30.72800
C  45.68900 21.10000 27.39500
O  45.73300 21.45600 26.24000
C  44.99700 19.76300 27.73500
N  48.41100 25.79700 27.39500
C  48.17700 24.78100 26.59800
C  48.54600 25.05400 25.08800
C  49.01700 26.51000 25.18600
C  48.99900 26.79600 26.70000
C  49.60200 24.09100 24.44600
C  48.22500 27.54600 24.30100
C  46.74300 27.56500 24.67000
N  49.51000 27.34400 29.65400
C  49.94400 28.11000 28.68300
C  50.70800 29.25000 29.26600
C  50.71500 28.95600 30.66100
C  49.97600 27.79000 30.82800
C  51.38000 30.36600 28.47900
C  51.19100 29.37900 31.97800
O  51.79300 30.38100 32.24300
C  50.60200 28.33100 33.02600
C  51.72900 27.85000 33.97200
O  52.73200 27.24200 33.55300
O  51.55300 28.40100 35.21200
C  52.62900 28.03200 36.19700
H  46.97900 22.37200 32.40600
H  47.51800 22.85400 26.15500
H  50.15100 28.55400 26.61000
H  49.73400 25.75400 34.62600
H  47.43700 24.07100 34.45500
H  49.81900 22.54600 33.54900
H  48.64600 22.36200 34.73000
H  50.02200 23.46400 35.04300
H  47.07400 26.16500 35.04800
H  47.35800 27.50300 34.00600
H  48.80700 28.55300 35.48100
H  49.31700 27.09800 36.36800
H  45.48900 21.01900 31.68700
H  46.61800 19.90300 30.90900
H  45.04600 20.27400 30.20200
H  45.70700 19.04800 28.15100
H  44.67100 19.36500 26.77400
H  44.13300 19.92300 28.37900
H  47.63700 25.02200 24.48800
H  50.03500 26.60100 24.80700
H  50.12200 24.65800 23.67400
H  49.07800 23.27000 23.95600
H  50.29100 23.65600 25.17000
H  48.32700 27.28700 23.24700
H  48.57100 28.56100 24.49400
H  46.52000 28.61000 24.45600
H  46.61800 27.48600 25.75000
H  46.10000 26.98600 24.00700
H  50.69900 31.11600 28.07700
H  52.11200 30.05600 27.73300
H  51.94000 30.76800 29.32300
H  49.90400 28.96700 33.57100
H  53.17900 28.95700 36.37100
H  53.38900 27.29300 35.94200
H  52.25500 27.89500 37.21200
Mg 43.49000 42.13800 27.00900
C  42.33400 44.26000 29.50600
C  45.22100 40.36900 29.42500
C  44.88600 40.17000 24.47500
C  42.42600 44.31400 24.54600
N  43.64700 42.28200 29.07000
C  42.96200 43.09600 29.93100
C  43.22200 42.75700 31.42700
C  44.35700 41.75600 31.32400
C  44.43600 41.44900 29.81400
C  45.75500 42.23300 31.87200
C  41.91400 42.19700 32.05100
C  42.03400 41.94000 33.53000
H  41.32800 42.86100 34.51600
N  44.80000 40.50700 26.91600
C  45.37800 39.92200 28.05500
C  46.13000 38.72700 27.66600
C  46.10100 38.70100 26.25800
C  45.19800 39.76200 25.83800
C  46.79500 37.94300 28.78200
C  46.76600 37.83400 25.28300
O  46.69100 37.99000 24.06200
C  47.63500 36.73200 25.73700
N  43.60800 42.18000 24.84700
C  44.19200 41.31700 24.02400
C  44.04800 41.61100 22.51200
C  43.18700 42.90900 22.58300
C  43.03100 43.12100 24.13500
C  45.32600 41.61000 21.65200
C  41.88800 42.88600 21.75700
C  40.71400 41.96700 22.35800
N  42.50100 43.94000 26.97600
C  42.10800 44.66800 25.93800
C  41.57600 45.89600 26.40700
C  41.52400 45.70900 27.82200
C  42.14500 44.53200 28.09900
C  41.11900 47.09000 25.57100
C  41.17500 46.33400 29.10900
O  40.77100 47.48300 29.40400
C  41.50700 45.33000 30.28300
C  42.38500 45.91700 31.33900
O  43.42500 46.48600 31.10800
O  41.82300 45.86100 32.59200
C  42.58800 46.59000 33.57900
H  45.57400 39.76600 30.26400
H  45.24100 39.60200 23.61200
H  41.92300 44.94800 23.81300
H  43.49500 43.58800 32.07700
H  44.21300 40.83800 31.89400
H  45.65300 43.12000 32.49700
H  46.50300 42.42400 31.10200
H  46.09600 41.43300 32.52900
H  41.65400 41.31100 31.47300
H  41.19000 42.96400 31.77700
H  43.08800 41.89000 33.80400
H  41.73800 40.89400 33.61900
H  46.09500 37.54800 29.51900
H  47.45700 38.62400 29.31600
H  47.39700 37.12200 28.39300
H  48.48100 37.03300 26.35400
H  48.02600 36.32000 24.80600
H  47.09300 35.97800 26.30700
H  43.44500 40.87900 21.97400
H  43.76000 43.80300 22.33400
H  46.13300 41.49700 22.37600
H  45.58900 42.39100 20.93800
H  45.30900 40.67700 21.09000
H  42.23600 42.56300 20.77600
H  41.60100 43.91400 21.53700
H  40.33600 41.29300 21.58900
H  39.88900 42.49400 22.83600
H  41.06900 41.25900 23.10700
H  40.39400 46.61100 24.91300
H  41.98100 47.48300 25.03300
H  40.75500 47.83400 26.28000
H  40.61900 44.83900 30.67900
H  43.64500 46.33200 33.51300
H  42.21000 46.39300 34.58200
H  42.49700 47.65200 33.35100

