158

Mg 41.82900 41.85200 26.99400
C  40.83200 44.21600 29.52800
C  42.49000 39.72600 29.27500
C  42.75100 39.90600 24.48900
C  41.19700 44.38300 24.70100
N  41.51200 42.01100 29.17200
C  41.18600 42.98300 30.05300
C  41.38100 42.58000 31.49300
C  41.96100 41.13200 31.39200
C  42.06300 40.90200 29.85900
C  43.36500 40.87500 32.12900
C  40.03200 42.71800 32.33700
C  39.90800 41.73300 33.51500
H  39.59000 42.32300 34.83800
N  42.57200 40.00500 26.92200
C  42.85100 39.23200 27.96000
C  43.36400 38.02800 27.54600
C  43.38100 38.02900 26.13800
C  42.87300 39.33600 25.76000
C  43.71900 36.97600 28.57600
C  43.69000 36.96200 25.05900
O  43.54200 37.12200 23.87400
C  44.17700 35.65800 25.46600
N  41.94200 42.12400 24.91800
C  42.37500 41.16200 24.10400
C  42.28800 41.63900 22.64500
C  41.52600 42.99400 22.68000
C  41.61800 43.24500 24.13600
C  43.72800 41.58500 22.00200
C  40.06400 43.07200 22.19900
C  39.09800 42.14200 22.92900
N  41.15900 43.94700 27.07200
C  41.01000 44.78600 26.00800
C  40.64000 46.07900 26.50900
C  40.52900 45.97500 27.84800
C  40.85200 44.59200 28.15700
C  40.33600 47.29200 25.63600
C  40.20500 46.62600 29.11700
O  39.84200 47.76500 29.39600
C  40.42100 45.49100 30.20600
C  41.34000 45.98500 31.33300
O  42.52900 46.26200 31.27600
O  40.52600 46.36000 32.30000
C  41.23300 46.93400 33.51000
H  42.72300 39.03800 30.09100
H  43.13300 39.35500 23.62700
H  41.06800 45.14500 23.93100
H  42.21400 43.20100 31.82200
H  41.25500 40.34500 31.65600
H  44.03100 41.61500 32.57200
H  44.01800 40.40500 31.39400
H  43.03500 40.13000 32.85400
H  39.16300 42.65700 31.68200
H  40.06400 43.67600 32.85700
H  40.79400 41.12800 33.71000
H  39.13200 41.04100 33.18700
H  44.80500 36.91400 28.64000
H  43.32800 36.01600 28.23800
H  43.24000 37.13200 29.54300
H  43.35100 35.21500 26.02200
H  45.15800 35.73000 25.93500
H  44.21700 35.04400 24.56500
H  41.69000 40.90900 22.09900
H  42.06200 43.86500 22.30300
H  44.51200 41.42200 22.74100
H  44.01100 42.48200 21.45300
H  43.58900 40.73900 21.32900
H  39.93900 42.90200 21.13000
H  39.72600 44.08300 22.42700
H  38.50900 42.64700 23.69400
H  39.61300 41.28100 23.35400
H  38.39000 41.66300 22.25200
H  41.11300 48.00500 25.91000
H  39.36700 47.75000 25.83500
H  40.33600 46.98600 24.59000
H  39.46600 45.38100 30.72000
H  41.80100 46.12500 33.97000
H  40.43900 47.21000 34.20500
H  41.96800 47.68600 33.22300
Mg -1.96300 33.63600 27.20900
C  -3.43100 31.86900 29.91800
C  -0.50400 35.63100 29.50700
C  -1.02700 35.56100 24.65900
C  -3.86100 31.68800 25.08900
N  -2.20000 33.83800 29.48800
C  -2.57800 32.82800 30.35400
C  -2.12300 33.06700 31.81200
C  -1.12700 34.33000 31.58900
C  -1.28500 34.62600 30.10200
C  -1.32100 35.55700 32.45400
C  -1.46400 31.77600 32.44200
C  -2.11000 31.21900 33.82000
H  -1.19500 31.06800 34.99900
N  -0.94500 35.41100 27.13500
C  -0.37000 35.99200 28.18400
C  0.56000 36.97100 27.62900
C  0.37600 37.04700 26.22500
C  -0.60500 36.03900 25.97500
C  1.47000 37.81400 28.53000
C  1.13200 37.92300 25.15900
O  0.87800 37.82000 23.92300
C  2.15300 38.88800 25.57700
N  -2.43200 33.62500 25.18100
C  -1.91200 34.57700 24.29500
C  -2.27600 34.17300 22.79800
C  -2.89000 32.74700 22.97400
C  -3.04000 32.63500 24.49000
C  -3.17100 35.16900 22.06700
C  -2.12000 31.55400 22.30000
C  -0.97400 31.01800 23.24000
N  -3.30800 32.02700 27.33100
C  -4.06500 31.42300 26.43800
C  -4.88400 30.38500 27.06200
C  -4.62700 30.44600 28.41800
C  -3.68500 31.49400 28.58700
C  -5.84100 29.58500 26.34000
C  -4.97400 29.91500 29.68800
O  -5.65900 28.98400 29.98000
C  -4.21600 30.83200 30.69000
C  -5.18000 31.43300 31.69500
O  -5.97700 32.36900 31.53200
O  -5.04500 30.78500 32.92600
C  -5.96600 31.17700 33.98300
H  0.18800 36.15700 30.16800
H  -0.62300 36.08700 23.79100
H  -4.46700 31.10200 24.39500
H  -2.95000 33.46400 32.40000
H  -0.11300 33.97600 31.77900
H  -1.83500 36.33800 31.89300
H  -0.33100 35.89900 32.75600
H  -1.86600 35.38200 33.38100
H  -0.41300 31.92900 32.69000
H  -1.55100 30.92000 31.77300
H  -2.44000 30.23000 33.50100
H  -3.04100 31.70700 34.10700
H  1.03800 38.81100 28.62100
H  2.44600 37.81000 28.04400
H  1.75100 37.46900 29.52500
H  2.42800 39.52400 24.73600
H  3.14400 38.47900 25.77200
H  1.79600 39.56900 26.35100
H  -1.37700 34.00200 22.20600
H  -3.89800 32.83600 22.57100
H  -3.05600 36.21000 22.37200
H  -4.23200 34.96000 22.20500
H  -2.83200 35.19900 21.03200
H  -1.68400 31.80500 21.33300
H  -2.85700 30.75900 22.19200
H  -1.33200 30.10300 23.71200
H  -0.66900 31.75900 23.97900
H  -0.11700 30.73200 22.63000
H  -5.29700 28.64800 26.21700
H  -6.13600 29.92300 25.34700
H  -6.72000 29.47000 26.97400
H  -3.55200 30.21500 31.29500
H  -6.72600 31.82700 33.55100
H  -5.43400 31.75200 34.74100
H  -6.32400 30.36000 34.61000

