158

Mg 26.88100 50.50100 26.08400
C  24.87000 51.57700 28.77800
C  28.98500 49.03100 28.30300
C  28.81000 49.54700 23.45800
C  24.83700 52.29100 23.99800
N  26.85500 50.23200 28.28100
C  26.00900 50.86000 29.25300
C  26.41000 50.44400 30.67600
C  27.89800 49.94900 30.45200
C  27.94200 49.73200 28.90100
C  29.08400 50.84200 30.84300
C  25.42700 49.35200 31.25700
C  24.64800 49.70900 32.59700
H  24.72000 48.69300 33.81300
N  28.63500 49.32600 25.91700
C  29.30800 48.74800 26.96300
C  30.53200 48.07400 26.41600
C  30.58700 48.34900 25.01800
C  29.29000 49.02400 24.70200
C  31.48400 47.36900 27.33600
C  31.70100 47.95100 23.93400
O  31.57300 48.20600 22.77200
C  32.87500 47.13100 24.45600
N  26.89400 50.90100 23.99400
C  27.82300 50.49900 23.13400
C  27.41700 50.91400 21.71800
C  25.93500 51.42200 21.82900
C  25.92300 51.59100 23.37200
C  28.39700 51.97100 21.18600
C  24.81500 50.45200 21.44700
C  23.44800 50.99300 21.05200
N  25.21200 51.71300 26.24400
C  24.46600 52.35300 25.32000
C  23.29100 52.92000 25.91700
C  23.43300 52.68900 27.34000
C  24.54400 51.82800 27.46300
C  22.23900 53.65900 25.07800
C  22.84500 52.88000 28.62500
O  21.96500 53.59000 29.09000
C  23.79200 52.17200 29.59200
C  24.28900 53.15600 30.51500
O  25.22800 53.91000 30.33100
O  23.51600 53.13300 31.64800
C  24.06000 54.12800 32.58300
H  29.66200 48.64700 29.06900
H  29.34500 49.28500 22.54300
H  24.15600 52.63200 23.21500
H  26.37800 51.38900 31.21900
H  28.14200 49.02700 30.98100
H  29.78300 50.91500 30.01000
H  29.55500 50.39300 31.71800
H  28.65300 51.80600 31.11400
H  25.95700 48.44600 31.55400
H  24.59300 49.23700 30.56400
H  23.60800 49.79700 32.28500
H  24.99000 50.65100 33.02700
H  31.86900 46.41400 26.97600
H  31.17700 47.36900 28.38200
H  32.43200 47.90400 27.27200
H  33.65900 46.96600 23.71700
H  32.50200 46.18800 24.85600
H  33.44600 47.58800 25.26500
H  27.32600 49.99000 21.14700
H  25.86900 52.37400 21.30200
H  29.09300 52.19000 21.99500
H  28.01700 52.98200 21.03100
H  28.92100 51.58900 20.31000
H  24.73500 49.60200 22.12500
H  25.18100 50.08700 20.48700
H  22.59300 50.69100 21.65700
H  23.39200 50.83000 19.97500
H  23.48600 52.07500 21.17800
H  21.62300 52.94600 24.53100
H  22.72100 54.33200 24.37000
H  21.57400 54.25600 25.70300
H  23.11200 51.46400 30.06700
H  25.02400 53.73800 32.91000
H  23.42300 54.24700 33.45900
H  24.21500 55.10200 32.11900
Mg 17.17000 52.19000 25.97500
C  18.96800 50.51300 28.58700
C  14.68500 52.80600 28.28600
C  15.15900 53.54600 23.48100
C  19.42200 51.10200 23.85600
N  16.90100 51.62600 28.09900
C  17.82300 51.11600 28.99600
C  17.41300 51.31700 30.44600
C  15.88400 51.59800 30.22400
C  15.76400 52.00400 28.74000
C  15.05400 50.29400 30.49800
C  18.22300 52.55400 31.08400
C  18.34200 52.51900 32.57700
H  17.28300 51.72500 33.31900
N  15.20400 53.06700 25.85000
C  14.42400 53.24600 26.98700
C  13.23200 54.01300 26.60500
C  13.32500 54.20900 25.21700
C  14.61600 53.64900 24.76000
C  12.14400 54.48400 27.62600
C  12.34400 54.87900 24.28800
O  12.53600 55.06200 23.08800
C  11.03000 55.37900 24.88300
N  17.18500 52.29000 23.89300
C  16.38800 52.95800 23.03300
C  16.94400 52.89800 21.56000
C  18.38500 52.26000 21.81600
C  18.33400 51.84500 23.30700
C  16.02400 52.08100 20.62700
C  19.65700 53.02900 21.39700
C  20.32800 54.05500 22.28800
N  18.86700 51.06100 26.11700
C  19.73700 50.66200 25.16300
C  20.98200 50.05800 25.71900
C  20.60200 49.93500 27.06400
C  19.33600 50.50600 27.24300
C  22.19700 49.70100 24.97500
C  21.12400 49.43900 28.32800
O  22.13700 48.84800 28.57900
C  20.11300 49.95800 29.43900
C  19.70500 48.81800 30.35000
O  18.98200 47.86400 30.08300
O  20.17800 49.04900 31.64300
C  19.68700 48.03600 32.65100
H  13.93100 52.98600 29.05600
H  14.74900 53.90400 22.53400
H  20.09600 50.62800 23.13900
H  17.54100 50.36900 30.96800
H  15.52900 52.35100 30.92800
H  14.95500 49.79100 29.53600
H  14.02100 50.51000 30.77200
H  15.30900 49.60000 31.29800
H  17.80300 53.46400 30.65400
H  19.25100 52.47400 30.73100
H  18.28500 53.55600 32.90700
H  19.25200 51.96300 32.80200
H  11.18300 54.02000 27.40200
H  12.06900 55.56600 27.51700
H  12.42000 54.29900 28.66400
H  10.57100 55.96700 24.08800
H  11.19200 56.05600 25.72100
H  10.35400 54.55100 25.09800
H  17.01200 53.91500 21.17100
H  18.44800 51.29600 21.31000
H  16.58700 51.43900 19.94900
H  15.39800 52.78200 20.07600
H  15.31200 51.42500 21.12800
H  19.52500 53.57400 20.46200
H  20.36200 52.23900 21.13800
H  21.40200 53.95100 22.44100
H  19.70500 54.09600 23.18100
H  20.21000 55.05500 21.87200
H  22.54500 50.51400 24.33900
H  22.07000 48.75700 24.44500
H  22.89400 49.70600 25.81300
H  20.59600 50.72100 30.04900
H  19.74600 47.00300 32.31100
H  18.70700 48.40300 32.95700
H  20.42000 47.93500 33.45000

