158

Mg 24.08800 -4.85300 45.40500
C  25.99500 -2.25500 44.00500
C  21.52100 -4.18300 43.33100
C  22.70500 -7.55400 46.51600
C  27.08900 -5.82500 47.05700
N  23.85100 -3.39600 43.85600
C  24.67600 -2.41700 43.45000
C  24.02800 -1.47400 42.40800
C  22.49900 -1.91100 42.48600
C  22.58400 -3.24800 43.31000
C  21.50600 -0.90500 43.20300
C  24.77400 -1.78800 41.06700
C  25.40400 -0.63200 40.22600
H  25.11700 -0.60700 38.74400
N  22.28300 -5.78300 45.01500
C  21.30800 -5.32900 44.12300
C  20.16000 -6.16100 44.19800
C  20.45200 -7.11200 45.18700
C  21.82900 -6.82700 45.66200
C  18.91500 -5.83000 43.35100
C  19.49700 -8.23600 45.55700
O  18.35500 -8.37300 45.07200
C  19.92900 -9.37800 46.52000
N  24.96100 -6.56400 46.42000
C  24.02800 -7.45700 46.90200
C  24.65100 -8.41000 47.90300
C  25.93000 -7.69300 48.25200
C  26.08200 -6.66700 47.12100
C  23.79200 -8.97300 49.09400
C  27.17600 -8.66100 48.41800
C  27.88500 -8.86900 49.76200
N  26.14800 -4.20300 45.47500
C  27.21600 -4.75800 46.15600
C  28.34800 -3.86500 46.03600
C  27.92500 -2.90000 45.15100
C  26.57600 -3.12600 44.92300
C  29.71800 -4.00000 46.64300
C  28.40600 -1.74100 44.43300
O  29.49000 -1.22300 44.30200
C  27.06600 -1.33700 43.64300
C  26.74900 0.06500 44.08000
O  26.43100 0.51000 45.17400
O  27.02800 0.85000 42.98000
C  27.22300 2.29500 43.16200
H  20.69000 -3.91300 42.67600
H  22.22300 -8.34400 47.09600
H  27.95800 -6.03500 47.68400
H  24.23400 -0.42800 42.63500
H  22.09700 -2.02500 41.48000
H  22.10100 -0.14300 43.70700
H  20.86900 -1.41100 43.92800
H  20.81500 -0.51200 42.45800
H  24.02500 -2.34700 40.50700
H  25.54800 -2.53900 41.23100
H  26.46300 -0.80200 40.41900
H  25.06700 0.34600 40.57100
H  18.00800 -6.29500 43.73500
H  19.00800 -6.29200 42.36800
H  18.72300 -4.76100 43.26100
H  19.12300 -10.09900 46.65500
H  20.14300 -8.96900 47.50800
H  20.79000 -9.94200 46.16100
H  24.94700 -9.32300 47.38600
H  25.75700 -7.04900 49.11400
H  22.92800 -8.33200 49.26700
H  24.46900 -8.96300 49.94800
H  23.35700 -9.94100 48.84500
H  27.93400 -8.40000 47.68000
H  26.98000 -9.70400 48.16800
H  27.60400 -9.86300 50.11000
H  27.50300 -8.12900 50.46600
H  28.94600 -8.72400 49.56200
H  29.45600 -4.02200 47.70100
H  30.33200 -3.10800 46.52100
H  30.19600 -4.95100 46.40500
H  27.26600 -1.44400 42.57700
H  26.71100 2.72800 44.02100
H  26.89800 2.79300 42.24800
H  28.28400 2.54200 43.16300
Mg 49.15600 46.16600 42.60000
C  45.71300 46.77200 41.85700
C  48.93300 43.28800 40.97700
C  52.56200 45.95100 42.73300
C  49.32300 49.51000 43.83400
N  47.53300 45.11800 41.64300
C  46.16600 45.48900 41.44100
C  45.40100 44.39900 40.61900
C  46.44600 43.22800 40.56400
C  47.74300 43.90700 41.11400
C  46.02200 41.98300 41.49700
C  45.06200 44.93100 39.20300
C  43.69100 44.36900 38.59600
H  43.86600 43.78000 37.15900
N  50.55600 44.77500 41.92300
C  50.25900 43.64700 41.31500
C  51.42000 42.79400 41.07000
C  52.52500 43.58500 41.55400
C  51.94700 44.84800 42.14500
C  51.32000 41.51100 40.31000
C  54.02400 43.10700 41.50600
O  54.35700 42.01000 41.11200
C  55.12600 44.00900 41.92300
N  50.76700 47.52700 43.26300
C  52.05800 47.21800 43.12500
C  53.00700 48.31000 43.68600
C  51.95800 49.48300 43.91700
C  50.61300 48.87900 43.53200
C  53.78900 47.78100 44.92900
C  52.28300 50.81900 43.25100
C  52.99400 51.87900 44.19500
N  47.82200 47.80300 42.81000
C  48.04400 49.08600 43.35700
C  46.81300 49.84600 43.29900
C  45.86800 48.95900 42.82500
C  46.55800 47.73100 42.47600
C  46.67400 51.35200 43.76200
C  44.42700 48.79400 42.52900
O  43.54600 49.61700 42.66300
C  44.30900 47.33300 41.81700
C  43.48700 46.40400 42.72300
O  43.78700 45.95500 43.81300
O  42.36700 45.95100 42.06500
C  41.42700 45.03100 42.64400
H  48.89500 42.33500 40.44500
H  53.64300 46.00200 42.88000
H  49.42000 50.54800 44.15600
H  44.53700 44.11700 41.22000
H  46.65200 42.80400 39.58100
H  44.96300 42.10800 41.72300
H  46.61300 41.98500 42.41200
H  46.12900 41.08700 40.88600
H  45.89500 44.65100 38.55900
H  44.91400 46.00800 39.12400
H  43.07500 45.26700 38.54200
H  43.19400 43.63200 39.22700
H  52.32200 41.18000 40.03700
H  50.71900 41.53600 39.40100
H  50.72700 40.74900 40.81600
H  54.97200 44.08000 43.00000
H  54.98100 44.97100 41.43300
H  56.12800 43.58300 41.87300
H  53.66600 48.53000 42.84500
H  51.76200 49.75400 44.95500
H  53.67500 48.46300 45.77100
H  54.83900 47.57000 44.72400
H  53.30900 46.87100 45.28600
H  51.35000 51.12100 42.77600
H  52.97400 50.55100 42.45200
H  53.20100 51.39800 45.15100
H  52.48600 52.83900 44.28100
H  53.99100 51.98900 43.76800
H  47.39500 51.75600 44.47200
H  45.68800 51.44000 44.21800
H  46.75400 52.04500 42.92500
H  43.84200 47.41800 40.83600
H  40.46000 44.97400 42.14400
H  41.38400 45.14600 43.72700
H  41.81700 44.02600 42.48700

