158

Mg 35.25300 2.71000 29.15200
C  33.06400 3.69600 31.76500
C  37.97200 2.78300 31.34100
C  37.31300 1.95300 26.61400
C  32.61600 3.12600 27.01700
N  35.41000 3.11300 31.26600
C  34.42400 3.41000 32.11500
C  34.86400 3.36900 33.57600
C  36.43900 3.27400 33.38000
C  36.67300 3.06100 31.90100
C  37.29100 4.40000 34.09100
C  34.28900 2.10900 34.34800
C  34.11900 2.16100 35.81600
H  34.64200 3.28400 36.60900
N  37.36800 2.28600 29.02800
C  38.25400 2.40900 30.00700
C  39.60300 2.06700 29.50000
C  39.47900 1.95000 28.17300
C  38.00600 2.07000 27.83700
C  40.78200 1.88200 30.43800
C  40.53800 1.74000 27.12800
O  40.26300 1.86900 25.92700
C  41.96100 1.61600 27.50100
N  35.02600 2.49200 27.15200
C  35.96600 2.16000 26.24000
C  35.38000 1.82600 24.91000
C  33.87600 1.95100 25.02000
C  33.79600 2.54600 26.46600
C  35.92700 2.66800 23.64800
C  33.13900 0.64800 24.97300
C  33.33800 -0.26900 23.69200
N  33.25000 3.43300 29.25900
C  32.29200 3.48400 28.32500
C  31.06400 3.96100 28.83700
C  31.27200 4.07200 30.21500
C  32.61100 3.63000 30.42300
C  29.83700 4.20700 28.04900
C  30.77100 4.52800 31.41200
O  29.69000 5.12600 31.65000
C  31.80900 4.04600 32.56700
C  32.03900 5.21900 33.59800
O  32.90000 6.13200 33.46100
O  31.14600 5.02700 34.66500
C  31.40600 5.98800 35.71700
H  38.81000 2.72400 32.03900
H  37.92300 1.62600 25.77000
H  31.79500 3.14100 26.29700
H  34.61300 4.32900 34.02700
H  36.81600 2.40400 33.91700
H  37.50100 4.00000 35.08300
H  36.69500 5.30700 34.18400
H  38.22200 4.51300 33.53500
H  35.01200 1.37100 34.00100
H  33.39200 1.88400 33.77100
H  34.55900 1.21900 36.14200
H  33.08800 1.97500 36.11500
H  40.79700 0.79200 30.39500
H  40.58700 2.20100 31.46200
H  41.63100 2.32600 29.92100
H  42.58300 1.26700 26.67600
H  41.94900 0.91000 28.33200
H  42.28600 2.61700 27.78200
H  35.58800 0.76900 24.74400
H  33.46000 2.52000 24.18800
H  36.86700 3.03900 24.05700
H  35.30600 3.54200 23.45100
H  36.08100 2.05200 22.76200
H  32.06500 0.72600 25.14500
H  33.55600 0.02900 25.76700
H  33.49900 -1.30100 24.00300
H  34.22200 0.02100 23.12300
H  32.39500 -0.28700 23.14600
H  29.50700 3.20000 27.79600
H  30.01600 4.73600 27.11300
H  29.07900 4.55200 28.75100
H  31.43400 3.17500 33.10400
H  31.92500 6.91100 35.45600
H  31.84000 5.62600 36.64800
H  30.41400 6.27000 36.06900
Mg -10.43600 39.73400 41.60900
C  -9.55600 36.54700 40.63700
C  -7.33900 40.89100 40.38100
C  -11.45500 42.88200 41.95600
C  -13.62900 38.63500 42.35000
N  -8.64800 38.81700 40.60700
C  -8.52300 37.43300 40.30800
C  -7.14100 37.10000 39.69200
C  -6.52200 38.48000 39.68000
C  -7.55900 39.44900 40.25800
C  -5.05200 38.64400 40.12900
C  -7.11500 36.36000 38.35100
C  -5.96500 35.48000 37.94600
H  -4.95600 36.01800 36.88500
N  -9.44400 41.63300 41.31300
C  -8.22000 41.91200 40.82900
C  -8.02900 43.32800 40.87300
C  -9.17300 43.93100 41.29400
C  -10.10500 42.77800 41.57400
C  -6.68000 43.91700 40.43800
C  -9.49400 45.37000 41.44100
O  -8.62800 46.21700 41.30300
C  -10.78100 46.06700 41.76600
N  -12.36700 40.59900 41.77000
C  -12.46800 41.94500 42.02400
C  -13.94100 42.37700 42.30200
C  -14.64600 40.98800 42.49900
C  -13.52200 39.99700 42.18500
C  -14.21800 43.43200 43.35800
C  -15.95900 40.66200 41.64000
C  -17.23800 40.54300 42.44100
N  -11.32900 37.96000 41.72300
C  -12.62400 37.65400 42.08400
C  -12.81100 36.16600 42.02500
C  -11.62300 35.74800 41.43100
C  -10.78100 36.83300 41.31700
C  -14.06300 35.35400 42.26500
C  -10.92000 34.54000 40.93800
O  -11.28000 33.41900 40.95200
C  -9.53800 35.06600 40.41500
C  -8.42600 34.28300 41.08900
O  -7.98600 34.42500 42.24500
O  -7.99800 33.33000 40.26000
C  -7.16300 32.21100 40.65800
H  -6.32500 41.08300 40.02400
H  -11.72200 43.86800 42.34300
H  -14.56000 38.22400 42.74600
H  -6.63300 36.48900 40.43800
H  -6.36300 38.82100 38.65700
H  -4.58600 39.31500 39.40700
H  -4.54200 37.68400 40.21100
H  -5.03000 39.06200 41.13600
H  -7.11500 37.17400 37.62500
H  -8.08000 35.88300 38.18000
H  -6.28500 34.50900 37.56900
H  -5.42600 35.16700 38.84100
H  -5.88100 43.22500 40.70400
H  -6.27400 44.82900 40.87600
H  -6.61900 44.08600 39.36300
H  -11.52500 45.66200 41.08000
H  -10.76100 47.14700 41.62000
H  -11.05500 45.89900 42.80700
H  -14.37500 42.80000 41.39600
H  -14.82900 40.91000 43.57000
H  -14.65400 42.96700 44.24200
H  -14.89700 44.20900 43.00700
H  -13.38400 43.93700 43.84500
H  -15.73200 39.71000 41.16000
H  -15.94800 41.45100 40.88700
H  -18.02300 41.09300 41.92300
H  -17.06600 40.92800 43.44600
H  -17.55000 39.50100 42.51100
H  -14.68200 35.43100 41.37100
H  -14.55000 35.72800 43.16600
H  -13.87900 34.29200 42.42600
H  -9.64700 34.75800 39.37500
H  -7.65100 31.27400 40.38800
H  -6.86300 32.27900 41.70300
H  -6.25500 32.28800 40.05900

