158

Mg -1.98700 17.73000 27.37400
C  -2.84200 15.50200 30.10100
C  -2.61300 20.23200 29.43800
C  -1.67000 19.50500 24.77900
C  -1.93700 14.74700 25.31700
N  -2.92700 17.84300 29.45000
C  -2.97200 16.86100 30.44200
C  -2.99300 17.46100 31.84400
C  -3.15200 18.97800 31.58700
C  -2.83100 19.04200 30.03800
C  -4.62800 19.45600 31.90200
C  -1.71100 16.94600 32.62900
C  -1.25000 17.82500 33.78200
H  -0.92200 17.04500 35.10800
N  -2.08900 19.66300 27.14400
C  -2.36100 20.57200 28.08500
C  -2.26100 21.91500 27.55700
C  -2.05200 21.71500 26.18100
C  -1.89800 20.27700 26.05400
C  -2.37500 23.15400 28.33700
C  -1.90200 22.76800 25.07300
O  -1.65800 22.46300 23.88300
C  -2.28500 24.12100 25.35600
N  -1.76900 17.22200 25.38000
C  -1.72300 18.15300 24.48600
C  -1.67800 17.60600 23.07000
C  -1.45000 16.11400 23.24700
C  -1.65900 16.01800 24.75800
C  -2.89300 17.85700 22.14200
C  -0.02600 15.56800 22.63800
C  1.27000 16.31800 22.89900
N  -2.23700 15.64400 27.54800
C  -2.19700 14.58700 26.64900
C  -2.44800 13.31900 27.29200
C  -2.69300 13.66600 28.62300
C  -2.56500 15.06000 28.76800
C  -2.51600 11.92400 26.64200
C  -3.08400 13.12700 29.93100
O  -3.28400 12.00200 30.26900
C  -2.98200 14.26200 30.96700
C  -1.80600 13.98100 31.77300
O  -0.61800 14.28200 31.43200
O  -2.19900 13.37600 32.93000
C  -1.12300 12.99900 33.79200
H  -2.57000 21.05200 30.15800
H  -1.59100 20.13900 23.89300
H  -1.79800 13.87200 24.67900
H  -3.78700 17.16000 32.52700
H  -2.44500 19.60200 32.13300
H  -5.31400 19.46900 31.05500
H  -4.62100 20.45100 32.34600
H  -5.05800 18.85500 32.70300
H  -0.94400 16.81400 31.86600
H  -1.95000 16.01200 33.13700
H  -1.95400 18.60800 34.06600
H  -0.35400 18.31700 33.40100
H  -1.61000 23.84600 27.98500
H  -2.40800 23.08200 29.42400
H  -3.29200 23.68800 28.08800
H  -2.30600 24.78100 24.48900
H  -1.51300 24.42500 26.06200
H  -3.29500 24.05400 25.76000
H  -0.82900 18.05900 22.55900
H  -2.22000 15.43400 22.88200
H  -3.46300 16.98700 21.81300
H  -2.47000 18.39000 21.29100
H  -3.60600 18.58200 22.53300
H  -0.19600 15.41900 21.57200
H  0.04400 14.60700 23.14800
H  1.62200 16.56300 21.89700
H  1.89200 15.62300 23.46300
H  1.00800 17.20400 23.47900
H  -1.50600 11.51700 26.61100
H  -3.00700 12.02600 25.67400
H  -3.10700 11.37400 27.37400
H  -3.89900 14.43100 31.53200
H  -1.44100 12.12100 34.35400
H  -0.77800 13.75400 34.49800
H  -0.27400 12.74700 33.15600
Mg 47.55900 24.97100 28.83000
C  48.25500 27.23700 31.52300
C  46.54000 22.66800 31.01500
C  47.20300 22.79300 26.29200
C  49.28800 27.16400 26.68400
N  47.60300 24.96700 31.03400
C  47.75900 25.95400 31.90900
C  47.30300 25.56500 33.29800
C  46.80900 24.12100 33.06400
C  47.07700 23.81200 31.64000
C  47.56000 23.10600 34.03200
C  46.28500 26.51000 34.00800
C  46.68700 26.80100 35.47900
H  45.61700 26.86200 36.56900
N  46.85200 23.02700 28.65000
C  46.44100 22.22800 29.68300
C  45.94100 20.95100 29.13500
C  46.14300 21.00600 27.74200
C  46.73300 22.24600 27.51700
C  45.49400 19.89800 30.03100
C  45.89600 19.93100 26.71200
O  45.98800 20.21200 25.49100
C  45.16100 18.59000 27.04800
N  48.20200 24.92800 26.76200
C  47.71700 24.01800 25.93500
C  47.98700 24.40700 24.47100
C  48.60600 25.76000 24.55900
C  48.73500 26.00300 26.08900
C  48.69000 23.27500 23.59700
C  47.82400 27.00000 23.89100
C  47.74800 27.03000 22.37500
N  48.55600 26.86300 29.03500
C  49.17300 27.57600 28.04600
C  49.73000 28.78100 28.56700
C  49.32900 28.76400 29.95700
C  48.65300 27.59500 30.15100
C  50.50000 29.83500 27.78200
C  49.51400 29.43300 31.24200
O  50.08900 30.44200 31.48600
C  48.72500 28.48500 32.29900
C  49.73900 28.10700 33.39300
O  50.32900 27.06100 33.44500
O  49.72500 28.97500 34.39600
C  50.47300 28.60300 35.62300
H  46.05200 21.97200 31.70100
H  47.06200 22.05200 25.50100
H  49.71500 27.84600 25.94500
H  48.18300 25.53100 33.93900
H  45.74000 24.01400 33.24900
H  48.09700 22.46600 33.33200
H  46.75100 22.64700 34.59900
H  48.29200 23.59000 34.67900
H  45.27700 26.10000 33.94300
H  46.28300 27.47200 33.49700
H  47.22000 27.74500 35.59200
H  47.45300 26.14900 35.89800
H  44.44300 19.73300 29.79300
H  45.55400 20.07400 31.10500
H  46.02100 18.97500 29.78800
H  44.33900 18.80500 27.73100
H  45.93700 17.97400 27.50300
H  44.83300 18.03900 26.16700
H  47.01300 24.49600 23.99000
H  49.63300 25.70900 24.19800
H  49.09100 22.56200 24.31800
H  49.45600 23.57000 22.88000
H  47.94500 22.72000 23.02700
H  48.28800 27.92800 24.22500
H  46.79300 27.01000 24.24400
H  48.11100 27.96000 21.93700
H  46.70000 26.87000 22.11800
H  48.40500 26.23100 22.03300
H  50.07600 30.83800 27.73700
H  50.67300 29.65400 26.72100
H  51.46400 29.82200 28.29000
H  47.88400 29.00000 32.76300
H  50.17000 29.38600 36.31800
H  51.53400 28.77500 35.44300
H  50.31400 27.55700 35.88700

