158

Mg 6.49000 53.12200 41.01400
C  6.15000 49.71000 41.20000
C  9.76500 52.91600 40.39400
C  6.52600 56.60200 40.89800
C  3.01800 53.46400 41.27200
N  7.74800 51.45400 40.53800
C  7.45100 50.16000 40.81400
C  8.68900 49.37200 40.55000
C  9.81700 50.42900 40.80100
C  9.12700 51.70900 40.59500
C  10.64000 50.25800 42.06200
C  8.94100 48.52100 39.22900
C  8.89900 49.28600 37.89200
H  7.88800 48.83200 36.77200
N  7.88500 54.50900 40.53700
C  9.23400 54.23800 40.26900
C  9.90500 55.46300 39.97800
C  8.93500 56.48900 40.09700
C  7.71000 55.88900 40.58400
C  11.30200 55.41300 39.46900
C  9.23200 57.93400 39.79200
O  10.34800 58.27900 39.56900
C  8.12300 58.91400 39.62400
N  4.90600 54.85200 40.99800
C  5.22600 56.14400 41.08300
C  3.97600 57.01700 41.26800
C  2.84400 55.97500 41.08100
C  3.66300 54.69600 41.08800
C  4.04600 57.77400 42.65200
C  1.98600 56.07200 39.83300
C  0.41300 55.89800 39.98200
N  4.86800 51.94100 41.34200
C  3.47700 52.21900 41.45000
C  2.80200 50.86700 41.63500
C  3.83700 49.91000 41.64400
C  5.03300 50.59600 41.42600
C  1.29200 50.58100 41.83200
C  4.10400 48.54100 41.87700
O  3.34600 47.64200 42.26800
C  5.56800 48.28300 41.49900
C  5.58500 47.43000 40.37500
O  5.03400 47.68800 39.28400
O  6.20800 46.20200 40.69600
C  5.74300 45.08700 39.81300
H  10.82800 52.76400 40.19700
H  6.59300 57.69000 40.96100
H  1.94300 53.58200 41.42600
H  8.72200 48.62400 41.34300
H  10.66600 50.33400 40.12300
H  11.68000 50.54100 41.89700
H  10.53500 49.22000 42.37800
H  10.29200 50.95400 42.82500
H  8.11300 47.81200 39.22300
H  9.77700 47.82500 39.30600
H  9.87500 49.31700 37.40800
H  8.64700 50.33100 38.06900
H  12.12200 55.51800 40.17900
H  11.46400 56.18900 38.72100
H  11.48800 54.46600 38.96300
H  7.27700 58.56300 39.03400
H  8.47600 59.62700 38.87900
H  7.78600 59.46500 40.50200
H  3.99800 57.72900 40.44200
H  2.14800 56.02200 41.91900
H  3.44000 58.67400 42.54700
H  5.08200 57.99000 42.91500
H  3.57800 57.09700 43.36700
H  2.35600 55.49200 38.98700
H  2.13000 57.10900 39.52900
H  0.01800 56.70600 39.36600
H  -0.05000 56.01200 40.96200
H  0.00800 55.02100 39.47600
H  0.92800 50.53200 40.80500
H  0.77000 51.42000 42.29200
H  1.05800 49.66800 42.37900
H  5.88200 47.74000 42.39100
H  6.23800 45.10800 38.84200
H  4.65700 45.13600 39.73100
H  5.99900 44.06800 40.10400
Mg -1.94100 35.13100 26.34700
C  -3.52800 33.02500 28.73100
C  -0.88900 36.96800 29.01200
C  -0.62700 37.17700 24.17600
C  -3.60300 33.33900 23.84200
N  -2.25600 34.99900 28.62500
C  -2.82500 34.02600 29.36600
C  -2.74700 34.20700 30.88100
C  -1.90700 35.55500 30.87800
C  -1.62400 35.85900 29.41100
C  -2.58000 36.69200 31.69100
C  -2.20200 32.93900 31.58100
C  -2.97000 32.26600 32.71100
H  -2.25900 32.24700 34.06300
N  -0.88300 36.88600 26.60100
C  -0.48100 37.43300 27.76000
C  0.46100 38.38000 27.48500
C  0.57300 38.47000 26.04000
C  -0.35700 37.51300 25.54500
C  1.27300 39.06100 28.62400
C  1.55700 39.22000 25.19600
O  1.59600 39.19600 23.94000
C  2.56600 40.11800 25.88900
N  -2.27600 35.27700 24.30700
C  -1.52600 36.23100 23.62500
C  -1.84800 36.24700 22.16500
C  -2.80800 34.97500 22.04600
C  -2.90300 34.47800 23.45600
C  -2.44200 37.65000 21.60700
C  -2.28400 33.95600 21.02900
C  -1.01400 33.06600 21.47900
N  -3.27000 33.42900 26.24300
C  -3.83700 32.84900 25.12700
C  -4.71000 31.74700 25.51000
C  -4.56300 31.72300 26.95100
C  -3.70400 32.84100 27.28100
C  -5.51900 30.80600 24.81100
C  -4.97300 31.04400 28.15900
O  -5.89500 30.27900 28.38200
C  -4.22800 31.77200 29.33700
C  -5.40100 32.09600 30.14900
O  -6.23900 32.98000 29.95700
O  -5.48100 31.15300 31.16000
C  -6.52200 31.44300 32.19300
H  -0.48200 37.39800 29.93000
H  -0.26000 37.84300 23.39100
H  -4.06100 32.70700 23.07900
H  -3.73000 34.30300 31.34300
H  -0.95900 35.42700 31.39900
H  -3.43100 36.28900 32.24100
H  -2.87200 37.47400 30.99100
H  -1.88700 37.11400 32.41900
H  -1.21500 33.27700 31.89700
H  -1.96800 32.13500 30.88300
H  -3.13500 31.26300 32.32000
H  -3.94100 32.76200 32.72900
H  2.35000 39.06400 28.45700
H  1.10500 38.54400 29.56900
H  0.91100 40.08000 28.75800
H  2.98000 40.79000 25.13700
H  3.30000 39.45000 26.34100
H  1.99800 40.72900 26.59000
H  -1.02100 36.12500 21.46500
H  -3.80700 35.32900 21.79100
H  -1.64800 38.02700 20.96300
H  -2.53900 38.27900 22.49100
H  -3.44400 37.58000 21.18200
H  -2.04900 34.48500 20.10600
H  -3.01200 33.21200 20.70300
H  -0.71500 33.34600 22.48900
H  -0.24800 33.25300 20.72600
H  -1.27200 32.01200 21.36900
H  -5.40600 31.01300 23.74700
H  -6.57900 30.86000 25.05600
H  -5.10700 29.81400 25.00000
H  -3.60300 31.07800 29.90000
H  -6.17700 32.07400 33.01200
H  -6.83700 30.43900 32.47800
H  -7.44200 31.94600 31.89300

