158

Mg 34.68700 3.05700 29.53700
C  32.71400 4.03200 32.27100
C  37.49600 2.77500 31.52900
C  36.41800 2.15400 26.84600
C  31.82900 3.37100 27.60000
N  35.11300 3.51000 31.66900
C  34.07200 3.57200 32.59400
C  34.70500 3.53200 34.02400
C  36.20700 3.03500 33.78900
C  36.29900 3.09300 32.25800
C  37.38400 3.81000 34.41700
C  33.89400 2.59700 34.96000
C  33.86600 2.95100 36.44800
H  34.80400 3.99600 37.11900
N  36.72200 2.70100 29.21000
C  37.66800 2.66000 30.12200
C  38.93900 2.22300 29.50500
C  38.73700 1.98900 28.12500
C  37.24100 2.25300 27.98600
C  40.24300 2.19800 30.27100
C  39.66500 1.58300 26.90900
O  39.29800 1.57800 25.74700
C  41.14800 1.12900 27.09700
N  34.18600 2.63500 27.61700
C  35.09400 2.37900 26.62200
C  34.48600 1.99000 25.30200
C  32.96000 2.22700 25.60600
C  32.95800 2.74600 27.02800
C  34.94800 2.97200 24.21400
C  32.04900 1.03000 25.52600
C  32.41100 0.07500 24.43000
N  32.67500 3.82900 29.72200
C  31.63600 3.83800 28.89100
C  30.45800 4.34900 29.61000
C  30.79800 4.39100 30.95900
C  32.18500 4.03000 30.98000
C  29.15100 4.63300 28.96000
C  30.31300 4.65800 32.29700
O  29.17900 4.93600 32.66100
C  31.48400 4.38900 33.24600
C  31.81800 5.49700 34.07600
O  32.08900 6.62100 33.67000
O  31.61500 5.18100 35.41200
C  31.55800 6.32200 36.35700
H  38.28500 2.62500 32.26900
H  36.93900 1.73600 25.98200
H  30.91900 3.37100 26.99600
H  34.86100 4.53700 34.41700
H  36.34500 2.01700 34.15400
H  38.30900 3.23500 34.39700
H  37.12900 4.01100 35.45800
H  37.63000 4.74600 33.91700
H  34.18600 1.54700 34.95000
H  32.82400 2.65400 34.76000
H  34.15700 2.02900 36.95100
H  32.86600 3.06200 36.86600
H  40.79900 3.13400 30.22300
H  40.91300 1.41600 29.91300
H  40.16900 2.05000 31.34800
H  41.69000 0.98300 26.16300
H  41.22100 0.15900 27.59000
H  41.69000 1.87700 27.67400
H  34.73900 0.94000 25.15400
H  32.63800 3.06500 24.98700
H  35.90800 2.73700 23.75300
H  34.93800 3.95700 24.68100
H  34.09900 2.91100 23.53300
H  31.00200 1.32200 25.44200
H  32.01500 0.41000 26.42200
H  33.08700 -0.66600 24.85800
H  32.84600 0.60700 23.58400
H  31.47300 -0.42500 24.18800
H  29.27500 5.22200 28.05100
H  28.71400 5.31500 29.69000
H  28.49000 3.79900 28.72700
H  31.10500 3.50100 33.75300
H  30.50900 6.55500 36.54200
H  32.15500 7.15700 35.99200
H  31.91800 5.94300 37.31300
Mg 2.08000 42.03900 25.98000
C  4.46500 42.43400 28.53700
C  -0.17300 41.13800 28.34400
C  0.05700 41.60200 23.45400
C  4.78000 42.40300 23.58900
N  2.20200 41.62700 28.22000
C  3.20700 42.00200 29.04900
C  2.76800 41.90300 30.47400
C  1.39800 41.25700 30.46200
C  1.09600 41.28600 28.95200
C  1.41700 39.83400 31.10500
C  2.82100 43.31100 31.20300
C  2.90700 43.07500 32.69200
H  1.77500 43.38400 33.74100
N  0.15900 41.61900 25.92900
C  -0.64500 41.20100 26.98800
C  -1.95500 40.93100 26.52500
C  -1.98700 41.24400 25.12600
C  -0.59100 41.49200 24.74200
C  -2.96600 40.46900 27.52100
C  -3.12700 41.24600 24.10800
O  -2.98300 41.56600 22.93400
C  -4.52900 40.65400 24.56200
N  2.38200 42.02900 23.80900
C  1.33500 41.78100 22.98600
C  1.78000 41.83400 21.49200
C  3.29300 42.17600 21.53500
C  3.51000 42.19700 23.09000
C  1.51000 40.46200 20.74100
C  3.79000 43.59200 20.98800
C  3.20300 44.09400 19.65500
N  4.11300 42.36800 26.03100
C  5.03900 42.44900 24.93000
C  6.36000 42.60000 25.44300
C  6.15400 42.64900 26.89200
C  4.83700 42.40400 27.15800
C  7.61100 42.90700 24.64100
C  6.82400 42.78200 28.19800
O  8.02400 42.79400 28.48600
C  5.71300 42.80100 29.31800
C  6.05000 41.88200 30.47700
O  6.20500 40.68800 30.38700
O  6.07300 42.61200 31.64700
C  6.33400 41.88600 32.89000
H  -0.91200 40.90300 29.11300
H  -0.60500 41.57200 22.58600
H  5.54900 42.41900 22.81400
H  3.50700 41.24100 30.92700
H  0.60000 41.74200 31.02400
H  0.47900 39.64400 31.62600
H  2.23000 39.77000 31.82900
H  1.64000 39.01800 30.41800
H  1.98600 43.95900 30.93400
H  3.71300 43.84000 30.86900
H  3.82100 43.60000 32.96700
H  3.20200 42.06400 32.97200
H  -3.95800 40.30800 27.09900
H  -3.28100 41.17400 28.29100
H  -2.61700 39.52900 27.94700
H  -5.21400 40.66000 23.71500
H  -4.91300 41.35100 25.30800
H  -4.38400 39.63900 24.93200
H  1.27900 42.62900 20.94000
H  3.88700 41.45700 20.97100
H  1.80000 39.54100 21.24700
H  1.96000 40.53900 19.75200
H  0.43800 40.40900 20.55300
H  4.79500 43.36300 20.63500
H  3.82000 44.38600 21.73400
H  2.66200 45.00600 19.90500
H  2.54600 43.26900 19.37900
H  3.88500 44.27200 18.82300
H  7.59900 43.99400 24.55700
H  7.78200 42.61100 23.60700
H  8.48300 42.61400 25.22600
H  5.63200 43.76900 29.81200
H  7.28200 42.26600 33.27200
H  6.42500 40.80200 32.81500
H  5.58600 41.99800 33.67400

