158

Mg 46.66400 34.70900 28.33300
C  45.16000 33.01000 30.94800
C  47.45000 37.12200 30.48400
C  47.56600 36.53600 25.65700
C  45.29200 32.34200 26.03600
N  46.30000 34.93700 30.49700
C  45.78500 34.15500 31.38600
C  46.02800 34.60100 32.88400
C  46.48300 35.97900 32.56500
C  46.84300 35.97900 31.09700
C  45.38800 37.15800 32.93800
C  47.00300 33.72300 33.62400
C  47.02300 33.65500 35.13300
H  46.38500 34.83400 35.82900
N  47.50300 36.51900 28.14900
C  47.70300 37.41400 29.14800
C  48.29600 38.53600 28.54100
C  48.41000 38.38400 27.11800
C  47.85800 37.04600 26.94500
C  49.06000 39.45100 29.54800
C  49.15500 39.13100 26.07000
O  49.33200 38.73000 24.91400
C  49.61300 40.57600 26.42000
N  46.53300 34.39900 26.13400
C  46.85600 35.42400 25.28100
C  46.33200 35.16500 23.85800
C  45.62600 33.75200 23.96500
C  45.93600 33.37300 25.47000
C  45.64300 36.41900 23.23700
C  45.96700 32.53100 23.00100
C  44.79400 31.68400 22.47200
N  45.48100 32.99600 28.42200
C  45.10400 32.09900 27.40900
C  44.43600 30.97300 28.04300
C  44.37300 31.35300 29.37800
C  45.08000 32.56100 29.59500
C  43.72100 29.74900 27.31700
C  43.76500 31.02300 30.68500
O  43.08900 30.07600 31.00300
C  44.11900 32.20600 31.61300
C  44.27700 31.83800 33.10400
O  45.06000 31.04200 33.61200
O  43.32100 32.52900 33.80900
C  43.09900 32.00900 35.19100
H  47.79300 37.82200 31.24800
H  47.61900 37.33100 24.91000
H  44.59600 31.70900 25.48100
H  45.09400 34.63100 33.44400
H  47.40700 36.21500 33.09200
H  45.30900 37.79400 32.05600
H  45.79300 37.62300 33.83700
H  44.40400 36.73200 33.13400
H  48.01200 34.08900 33.43300
H  46.97100 32.71800 33.20500
H  48.02100 33.51200 35.54600
H  46.24700 32.91100 35.31400
H  49.31100 40.29600 28.90700
H  49.93300 38.85100 29.80400
H  48.51700 39.64300 30.47300
H  48.83900 41.16800 26.90700
H  49.92300 41.03100 25.48000
H  50.50400 40.46500 27.04000
H  47.23200 35.04500 23.25500
H  44.55000 33.90900 23.89300
H  45.54000 37.18500 24.00600
H  44.63700 36.19400 22.88300
H  46.29400 36.78800 22.44500
H  46.79100 31.91900 23.36700
H  46.46800 33.07900 22.20300
H  44.55000 31.86600 21.42500
H  43.85800 31.83800 23.01000
H  45.06400 30.65200 22.69300
H  44.33100 29.06100 26.73300
H  42.98100 30.16600 26.63400
H  43.30500 29.13100 28.11300
H  43.13900 32.68300 31.58200
H  42.78000 30.96700 35.14100
H  42.39700 32.72000 35.62500
H  43.99300 32.01300 35.81400
Mg -8.22400 40.25300 42.32700
C  -7.10100 36.78000 41.40300
C  -5.74900 41.46700 40.71500
C  -9.87600 43.06400 42.80800
C  -11.14200 38.59400 43.56300
N  -6.63300 39.18700 41.15800
C  -6.31200 37.85500 40.88300
C  -5.02200 37.80200 40.08300
C  -4.58800 39.31900 39.93400
C  -5.71500 40.04500 40.63300
C  -3.24700 39.62400 40.55200
C  -5.32000 37.05000 38.74100
C  -4.30000 35.88100 38.44500
H  -3.31700 35.99800 37.28900
N  -7.82500 42.05900 41.93100
C  -6.73500 42.35500 41.19800
C  -6.70500 43.79800 41.05800
C  -7.88900 44.30500 41.71700
C  -8.58600 43.09400 42.14500
C  -5.60600 44.58000 40.32700
C  -8.21300 45.84200 41.90800
O  -7.51600 46.70600 41.37800
C  -9.36000 46.36900 42.76400
N  -10.30100 40.76600 43.05400
C  -10.62200 42.03600 43.27500
C  -12.08900 42.13200 43.80800
C  -12.47400 40.67700 44.11400
C  -11.26600 39.94800 43.53900
C  -12.49200 43.15100 44.88400
C  -13.84200 40.14400 43.37800
C  -14.67400 39.05700 44.10700
N  -9.01200 38.11800 42.55400
C  -10.22400 37.68300 43.05600
C  -10.33900 36.25400 43.07300
C  -9.11500 35.86600 42.50700
C  -8.34900 37.04700 42.10000
C  -11.33900 35.34100 43.76300
C  -8.32500 34.66700 42.09100
O  -8.53900 33.48600 42.26900
C  -6.97800 35.20900 41.41700
C  -5.82000 34.71000 42.17100
O  -5.69800 34.72000 43.37500
O  -4.87800 34.33500 41.32500
C  -3.55100 33.92900 41.92100
H  -4.93300 42.08400 40.33200
H  -10.30300 44.06000 42.94400
H  -12.02200 38.04500 43.90400
H  -4.35000 37.21500 40.70900
H  -4.52200 39.57300 38.87600
H  -2.51300 40.12100 39.91800
H  -2.89400 38.61200 40.75200
H  -3.53300 40.27000 41.38200
H  -5.18200 37.72000 37.89300
H  -6.33400 36.65000 38.75900
H  -4.88400 35.07700 37.99800
H  -3.78300 35.59200 39.36000
H  -5.85200 45.64000 40.26500
H  -5.62400 44.16100 39.32000
H  -4.65700 44.37300 40.82100
H  -9.34700 47.45200 42.88900
H  -9.15600 45.95700 43.75200
H  -10.29300 45.96500 42.37100
H  -12.62600 42.56600 42.96400
H  -12.44000 40.41000 45.17000
H  -12.55500 42.63800 45.84400
H  -13.48200 43.53000 44.63200
H  -11.65900 43.84700 44.98800
H  -13.50200 39.55900 42.52400
H  -14.44600 41.00200 43.08400
H  -14.63800 39.30500 45.16700
H  -14.14600 38.11500 43.95700
H  -15.69100 38.94400 43.73300
H  -10.86100 34.38700 43.98500
H  -12.27100 35.14400 43.23200
H  -11.70300 35.85200 44.65400
H  -6.99900 34.76900 40.41900
H  -2.89100 34.77100 42.12900
H  -3.09200 33.28300 41.17300
H  -3.63800 33.38800 42.86300

