158

Mg 1.61300 -1.44700 43.68500
C  4.86600 -0.82100 43.21700
C  0.72600 1.22300 41.49700
C  -1.67700 -2.35200 43.77400
C  2.51200 -4.71100 44.86100
N  2.63800 -0.01000 42.40400
C  4.06200 0.12300 42.49200
C  4.50200 1.39000 41.76000
C  3.17200 2.07800 41.29200
C  2.08600 1.06300 41.80600
C  2.94900 3.51500 41.82300
C  5.30200 1.00800 40.47400
C  6.35000 2.03200 40.01400
H  6.22400 2.61800 38.61500
N  -0.18800 -0.57000 42.92800
C  -0.31100 0.43700 42.05800
C  -1.76800 0.57500 41.69600
C  -2.45300 -0.26900 42.58200
C  -1.39600 -1.13200 43.18100
C  -2.26600 1.48300 40.66500
C  -3.98200 -0.42700 42.75500
O  -4.75700 0.12900 42.02300
C  -4.60800 -0.99500 43.98200
N  0.55700 -3.40100 44.05200
C  -0.77600 -3.33700 44.25900
C  -1.19300 -4.57900 44.92100
C  0.03200 -5.53000 44.97800
C  1.13500 -4.47900 44.69100
C  -1.79400 -4.24700 46.28200
C  0.00000 -6.69300 43.90500
C  -0.05500 -8.17900 44.34100
N  3.36400 -2.53900 44.10400
C  3.60700 -3.75200 44.56000
C  5.01300 -3.90600 44.80600
C  5.56800 -2.74600 44.34400
C  4.49700 -1.98700 43.84000
C  5.58700 -5.08300 45.47300
C  6.74600 -2.02500 44.19900
O  7.87200 -2.34800 44.42600
C  6.36200 -0.76900 43.44800
C  6.78700 0.32300 44.33000
O  6.35400 0.61500 45.42700
O  7.72000 1.11800 43.68900
C  8.10900 2.25800 44.51600
H  0.40600 1.98200 40.78000
H  -2.74900 -2.54100 43.86900
H  2.85200 -5.64100 45.32100
H  5.09800 2.04500 42.39600
H  3.21400 2.11900 40.20400
H  2.30800 3.45700 42.70300
H  2.56600 4.14300 41.01900
H  3.91200 3.95500 42.07800
H  4.62700 0.78500 39.64800
H  5.80700 0.04200 40.48400
H  7.33600 1.57500 40.10400
H  6.37000 2.88800 40.68800
H  -2.97300 1.04900 39.95800
H  -1.49900 1.86700 39.99200
H  -2.64400 2.36500 41.18100
H  -5.02100 -1.99100 43.82400
H  -5.43400 -0.32300 44.21600
H  -3.82000 -0.93900 44.73300
H  -1.96300 -4.96300 44.25200
H  0.26800 -5.88200 45.98200
H  -2.67200 -3.63800 46.06600
H  -1.20800 -3.63500 46.96800
H  -2.22800 -5.19200 46.60900
H  0.90700 -6.58000 43.31200
H  -0.79800 -6.58500 43.17100
H  -0.56100 -8.20300 45.30700
H  0.93800 -8.58700 44.53000
H  -0.64200 -8.78500 43.65100
H  5.04600 -5.91500 45.02100
H  5.45800 -4.98500 46.55100
H  6.61200 -5.24700 45.14100
H  6.94000 -0.74100 42.52400
H  9.02000 2.71500 44.12800
H  8.35800 2.04200 45.55500
H  7.30400 2.98700 44.61200
Mg 6.28400 53.28700 40.63800
C  6.05900 49.71400 40.42600
C  9.66100 53.05900 40.10300
C  6.18700 56.62500 40.30100
C  2.72100 53.33000 40.93800
N  7.67300 51.48400 40.23700
C  7.38200 50.16600 40.21200
C  8.69400 49.43600 39.96500
C  9.79700 50.47500 40.33200
C  9.01300 51.79600 40.25200
C  10.44100 50.31800 41.70500
C  8.95400 48.77000 38.52500
C  8.35900 49.53500 37.25200
H  7.26800 48.90800 36.19400
N  7.75200 54.62400 40.24200
C  9.01300 54.32800 40.00800
C  9.71400 55.63100 39.84400
C  8.75000 56.67300 39.92600
C  7.46000 55.97800 40.17500
C  11.26800 55.67100 39.54500
C  9.13700 58.16000 39.85300
O  10.33000 58.49500 39.56600
C  8.14900 59.36800 39.85000
N  4.65500 54.73900 40.74300
C  4.92300 56.08300 40.54900
C  3.67400 56.97100 40.62400
C  2.60000 55.88800 40.63700
C  3.34000 54.54800 40.76200
C  3.67100 57.85300 41.87600
C  1.66100 55.85600 39.38700
C  0.15800 55.67600 39.63000
N  4.69300 51.90300 40.80500
C  3.31600 52.06100 40.94800
C  2.64900 50.79300 40.94900
C  3.63200 49.82400 40.82400
C  4.90100 50.51300 40.71200
C  1.10400 50.64400 41.12900
C  3.90900 48.44100 40.75400
O  3.20900 47.49600 40.81100
C  5.45900 48.32500 40.45900
C  5.61000 47.52800 39.15800
O  5.25600 47.83600 38.04300
O  6.06300 46.29000 39.48200
C  5.90400 45.26700 38.45200
H  10.74000 52.98900 39.95500
H  6.29000 57.70500 40.17000
H  1.63000 53.34100 40.96900
H  8.71300 48.65300 40.72300
H  10.59100 50.46900 39.58500
H  9.79400 49.63900 42.26100
H  10.42700 51.27800 42.22200
H  11.50200 50.11000 41.84200
H  8.49100 47.78600 38.60200
H  10.00600 48.67800 38.25300
H  9.14300 49.79500 36.54100
H  8.02300 50.51100 37.60200
H  11.37100 56.37500 38.71900
H  11.78200 54.71800 39.41900
H  11.74300 56.06700 40.44300
H  8.70500 60.24700 39.52400
H  7.69500 59.53500 40.82700
H  7.33400 59.18100 39.15100
H  3.69800 57.52700 39.68600
H  1.94800 56.00500 41.50200
H  3.95400 58.88200 41.65500
H  4.45900 57.45000 42.51200
H  2.70200 57.83600 42.37400
H  2.01800 55.10500 38.68200
H  1.81200 56.83700 38.93700
H  -0.46000 56.45400 39.18200
H  -0.08800 55.72900 40.69000
H  -0.20800 54.69800 39.31800
H  0.83400 49.68700 41.57500
H  0.56100 50.79700 40.19700
H  0.82400 51.31700 41.94000
H  5.90200 47.83900 41.32900
H  6.90900 45.05400 38.09000
H  5.37200 45.51900 37.53500
H  5.54800 44.38300 38.98200

