158

Mg 49.43700 47.06500 43.39200
C  45.96100 47.36800 42.49900
C  49.48300 44.15100 41.61300
C  52.74500 47.25600 43.50700
C  49.26800 50.48100 44.49100
N  47.92500 45.91600 42.15800
C  46.59000 46.22000 42.00700
C  45.88700 45.25500 41.07700
C  46.91900 44.08800 40.97300
C  48.16000 44.77700 41.58400
C  46.59600 42.69400 41.73400
C  45.54700 45.76900 39.65600
C  44.37900 45.05200 38.98100
H  44.55500 44.20100 37.77000
N  50.91400 45.83300 42.64200
C  50.73000 44.59800 42.06600
C  52.01900 43.90600 41.96300
C  53.03100 44.78500 42.39700
C  52.24600 46.04500 42.90500
C  52.15300 42.59900 41.35400
C  54.49300 44.60700 42.26800
O  55.00000 43.62100 41.65500
C  55.45500 45.64600 42.78400
N  50.81400 48.71900 43.70700
C  52.14100 48.46700 43.83200
C  52.90200 49.69700 44.39700
C  51.77200 50.70200 44.53100
C  50.52400 49.91700 44.25600
C  53.66900 49.43200 45.75600
C  51.84200 51.91400 43.56700
C  51.58100 53.24200 44.28600
N  47.93200 48.65500 43.54000
C  48.03700 49.94700 44.03400
C  46.71600 50.46900 44.16600
C  45.84700 49.50000 43.68600
C  46.67900 48.40600 43.22600
C  46.44000 51.84400 44.75200
C  44.45300 49.09800 43.48500
O  43.42700 49.66700 43.80100
C  44.44800 47.83800 42.49300
C  43.59400 46.82000 43.08900
O  43.61900 46.33700 44.23900
O  42.62800 46.62600 42.09800
C  41.86100 45.38900 42.34000
H  49.53700 43.13000 41.23100
H  53.82100 47.26500 43.69100
H  49.19300 51.52500 44.80400
H  44.98400 44.87900 41.55700
H  47.13000 43.80900 39.94100
H  45.67600 42.77800 42.31300
H  47.29000 42.33900 42.49600
H  46.60000 41.91600 40.97100
H  46.42800 45.77300 39.01400
H  45.35100 46.84000 39.71000
H  43.60400 45.75700 38.68100
H  43.93300 44.38000 39.71500
H  52.41200 42.62000 40.29500
H  51.31400 41.97500 41.66100
H  52.96900 42.08600 41.86500
H  55.28500 46.67600 42.47200
H  56.47400 45.43900 42.45700
H  55.55500 45.58100 43.86700
H  53.61600 49.98400 43.62500
H  51.69800 50.95500 45.58900
H  54.22400 48.49800 45.67600
H  52.94000 49.40900 46.56600
H  54.25900 50.31200 46.01200
H  51.20600 51.87000 42.68300
H  52.88900 51.96800 43.26900
H  50.90400 53.75400 43.60300
H  52.54400 53.73400 44.42400
H  51.10000 53.05900 45.24700
H  46.90100 52.54000 44.05100
H  46.86100 52.10600 45.72300
H  45.35200 51.91200 44.75100
H  44.09600 48.29500 41.56800
H  42.60600 44.61800 42.53500
H  41.39200 45.14800 41.38600
H  41.10800 45.73900 43.04700
Mg 42.69400 42.02100 26.72200
C  41.59800 44.06600 29.36400
C  43.78200 39.75200 28.89500
C  43.73900 40.22600 24.02300
C  42.08900 44.69900 24.58000
N  42.56200 41.91400 28.84300
C  41.92400 42.76000 29.71100
C  41.92300 42.18500 31.17000
C  42.91100 40.99800 31.01300
C  43.07700 40.81100 29.46700
C  44.23900 41.11500 31.76800
C  40.48700 41.77700 31.67400
C  39.91400 42.65100 32.89500
H  39.49600 41.99900 34.24600
N  43.79000 40.24800 26.54300
C  44.05400 39.42900 27.56800
C  44.78700 38.35700 27.02500
C  44.71200 38.41600 25.64000
C  44.07600 39.72500 25.32200
C  45.55100 37.28900 27.86300
C  45.25200 37.47900 24.59700
O  44.98100 37.57500 23.40500
C  46.11000 36.32300 25.00800
N  42.78400 42.40900 24.48600
C  43.27500 41.49200 23.68200
C  43.28000 42.06700 22.22600
C  42.86400 43.53000 22.38100
C  42.48300 43.56700 23.87700
C  44.54500 41.97800 21.46800
C  41.74600 43.98900 21.39600
C  40.29000 44.03000 21.89600
N  41.89400 43.96800 26.86900
C  41.74000 44.90100 25.89600
C  41.21700 46.18000 26.49000
C  41.13100 45.81000 27.84900
C  41.66600 44.52900 28.02900
C  40.71600 47.46400 25.79600
C  40.79300 46.33700 29.21500
O  40.21400 47.35500 29.62500
C  41.01000 45.18500 30.19500
C  42.00600 45.67300 31.15100
O  43.22900 45.69900 30.87300
O  41.42500 46.12800 32.32800
C  42.23700 46.90600 33.26900
H  44.11700 39.04300 29.65400
H  44.06600 39.58800 23.19900
H  42.05100 45.63700 24.02200
H  42.27400 42.93800 31.87600
H  42.37600 40.14200 31.42300
H  44.50200 42.08200 32.19800
H  45.05600 40.82800 31.10600
H  44.20300 40.27200 32.45800
H  40.36800 40.71700 31.90000
H  39.82700 41.88800 30.81400
H  39.06000 43.20800 32.51100
H  40.66300 43.41700 33.09700
H  45.01600 36.34600 27.75400
H  45.37100 37.56400 28.90200
H  46.59600 37.28400 27.55400
H  46.17700 35.70000 24.11600
H  45.64100 35.72900 25.79300
H  47.09200 36.58500 25.40200
H  42.54500 41.55700 21.60300
H  43.67400 44.24700 22.25100
H  45.27900 42.58400 21.99800
H  44.50500 42.41600 20.47100
H  44.90400 40.95000 21.51000
H  41.86800 43.59200 20.38800
H  41.85200 45.05300 21.18500
H  40.17700 43.26400 22.66200
H  39.68400 43.66200 21.06800
H  40.04900 45.00500 22.32000
H  41.46700 47.37600 25.01100
H  40.91400 48.35800 26.38700
H  39.73500 47.33000 25.33900
H  40.04200 44.98800 30.65500
H  41.53800 47.54800 33.80500
H  42.94100 47.54700 32.73800
H  42.64700 46.15500 33.94400

