158

Mg 41.11300 7.61900 29.03700
C  42.68800 9.24200 31.84300
C  38.76100 6.55600 31.38100
C  39.70100 6.29700 26.53300
C  43.83900 8.66400 27.05000
N  40.80600 7.84100 31.42300
C  41.55000 8.62100 32.25100
C  40.92900 8.59000 33.68500
C  39.66900 7.66800 33.46600
C  39.75600 7.24600 31.99000
C  39.42900 6.58800 34.63500
C  40.60600 9.96600 34.30900
C  39.55600 10.11500 35.49000
H  39.99900 10.81800 36.83800
N  39.45100 6.61800 28.90700
C  38.56400 6.27500 29.95200
C  37.32500 5.70300 29.37900
C  37.53100 5.72700 27.97300
C  38.91900 6.22100 27.72300
C  36.19100 5.11500 30.23700
C  36.50300 5.41500 26.81100
O  36.89300 5.56600 25.67300
C  35.04800 4.97800 27.09700
N  41.81100 7.42200 27.00200
C  40.94900 6.82300 26.11600
C  41.51500 6.79800 24.66100
C  42.65700 7.87400 24.84200
C  42.77600 7.99500 26.38700
C  41.88600 5.40600 24.02800
C  42.47300 9.24800 24.20400
C  43.70000 9.97400 23.78900
N  42.85300 8.69200 29.35000
C  43.81800 9.03600 28.42600
C  44.76600 9.91800 29.04700
C  44.35400 9.95900 30.36800
C  43.16700 9.15800 30.55100
C  45.89000 10.71600 28.46900
C  44.71500 10.54800 31.59500
O  45.66500 11.18300 31.92800
C  43.59100 10.21600 32.55400
C  44.15100 9.58600 33.77200
O  44.32900 8.39300 33.98600
O  44.42800 10.57500 34.73300
C  44.65500 10.03300 36.06500
H  38.06300 6.24800 32.16200
H  39.14400 5.95500 25.65800
H  44.69300 8.95500 26.43500
H  41.80900 8.16100 34.16500
H  38.76600 8.27700 33.50900
H  38.39500 6.81200 34.89400
H  40.07300 6.82300 35.48300
H  39.52300 5.55300 34.30700
H  40.28700 10.51700 33.42400
H  41.55900 10.38800 34.62900
H  39.29300 9.10500 35.80600
H  38.63400 10.58300 35.14600
H  35.43100 5.89500 30.18400
H  36.34200 4.96300 31.30600
H  35.87800 4.21600 29.70700
H  35.14600 4.03200 27.62900
H  34.54500 4.75400 26.15600
H  34.59700 5.82500 27.61400
H  40.75600 7.18300 23.98000
H  43.59800 7.51900 24.42200
H  42.94200 5.19200 23.85900
H  41.18500 5.07800 23.26200
H  41.54500 4.81000 24.87500
H  42.06100 9.78300 25.05900
H  41.71300 9.39100 23.43500
H  43.50900 10.15500 22.73100
H  44.62700 9.40300 23.83100
H  43.75000 10.86700 24.41200
H  45.81200 10.77600 27.38300
H  46.74500 10.09600 28.73700
H  45.88300 11.71200 28.91100
H  43.02900 11.13600 32.70900
H  43.75700 9.45100 36.27600
H  44.83800 10.85300 36.76000
H  45.54000 9.40800 35.94600
Mg 0.32700 43.33500 26.48900
C  2.62800 42.73100 29.24900
C  -2.17600 41.94100 28.47900
C  -1.65300 43.53400 23.93600
C  3.12800 43.74400 24.50400
N  0.23400 42.52400 28.52300
C  1.24100 42.54900 29.48000
C  0.62200 42.44500 30.90800
C  -0.79600 41.86100 30.53900
C  -0.92700 42.09400 29.04600
C  -1.18600 40.41900 30.95400
C  0.70200 43.78700 31.72000
C  1.17800 43.69300 33.15500
H  0.64100 42.53600 34.06400
N  -1.75900 42.94300 26.21800
C  -2.64800 42.30400 27.15700
C  -3.95900 42.25900 26.54500
C  -3.82400 42.79500 25.24100
C  -2.36900 43.08900 25.05100
C  -5.23000 41.77800 27.27200
C  -4.87600 42.90600 24.19800
O  -4.57700 43.15400 22.99900
C  -6.29500 42.79600 24.61300
N  0.72600 43.52500 24.45900
C  -0.33000 43.82300 23.66600
C  0.14500 44.29100 22.29300
C  1.65600 44.39300 22.41700
C  1.90000 43.87500 23.88800
C  -0.32500 43.38400 21.08100
C  2.15400 45.84800 22.22900
C  2.20900 46.83400 23.41800
N  2.40900 43.29900 26.73100
C  3.41900 43.45300 25.84100
C  4.72000 43.30000 26.52200
C  4.43700 43.08900 27.88200
C  3.03300 42.98800 27.92600
C  6.05900 43.17200 25.74100
C  5.07300 42.84100 29.16800
O  6.29200 42.92000 29.48200
C  3.87600 42.76800 30.16200
C  4.01100 41.51300 30.98400
O  4.42900 40.46200 30.57800
O  3.74900 41.77600 32.30600
C  3.96700 40.64700 33.18400
H  -3.01100 41.61600 29.10400
H  -2.29800 43.68400 23.06800
H  4.02600 43.97000 23.92500
H  1.15800 41.60400 31.34900
H  -1.57500 42.50400 30.94900
H  -2.10000 40.50200 31.54200
H  -0.53300 40.04000 31.73900
H  -1.20000 39.65700 30.17400
H  -0.25100 44.31600 31.74200
H  1.45500 44.39300 31.21500
H  0.93800 44.64600 33.62500
H  2.26400 43.61100 33.10700
H  -4.83100 41.22800 28.12400
H  -5.65700 40.90000 26.78700
H  -5.86100 42.60300 27.60400
H  -6.55100 41.76400 24.85400
H  -6.90500 43.19300 23.80200
H  -6.52700 43.48700 25.42300
H  -0.27800 45.26700 22.05600
H  2.16400 43.81600 21.64400
H  -0.85300 42.46500 21.33400
H  0.48800 43.08200 20.42100
H  -1.01500 44.01700 20.52400
H  1.59700 46.31100 21.41500
H  3.17100 45.69100 21.87000
H  3.19900 46.85200 23.87200
H  1.39700 46.57800 24.09900
H  2.04800 47.84500 23.04500
H  6.85500 42.70700 26.32200
H  6.40500 44.15800 25.43200
H  5.94600 42.50600 24.88600
H  3.80300 43.66400 30.77900
H  3.78000 40.92100 34.22300
H  4.97000 40.22100 33.15900
H  3.32400 39.79700 32.95500

