158

Mg -1.63600 17.44200 27.43100
C  -2.08600 15.20800 30.13500
C  -2.42400 19.98600 29.58500
C  -1.85200 19.66500 24.85100
C  -1.77300 14.85400 25.25800
N  -2.28100 17.49500 29.61600
C  -2.33600 16.48700 30.51100
C  -2.58700 17.02200 31.99600
C  -2.61600 18.58300 31.75600
C  -2.50500 18.71000 30.21900
C  -3.90300 19.23000 32.28200
C  -1.55400 16.56100 32.99200
C  -1.25200 17.45200 34.19200
H  -0.53000 16.79500 35.33900
N  -1.75800 19.57000 27.32200
C  -2.21000 20.44000 28.24700
C  -2.16400 21.85300 27.77300
C  -1.72500 21.64600 26.39400
C  -1.79700 20.25500 26.12200
C  -2.39100 23.13500 28.59600
C  -1.32700 22.68400 25.39100
O  -0.99200 22.45700 24.27700
C  -1.16900 24.06600 25.92900
N  -1.98000 17.32300 25.32900
C  -2.01200 18.36900 24.46000
C  -1.92800 17.79300 23.04900
C  -1.85700 16.23000 23.19000
C  -1.89600 16.10200 24.70800
C  -3.03600 18.19300 22.09600
C  -0.56700 15.53300 22.71600
C  0.70900 15.97800 23.52000
N  -1.74000 15.43900 27.61100
C  -1.77000 14.52400 26.63300
C  -1.78600 13.20000 27.25700
C  -1.91700 13.41000 28.61500
C  -1.87500 14.81100 28.79300
C  -1.82100 11.94900 26.57400
C  -2.09400 12.70300 29.84700
O  -2.20500 11.52600 30.10000
C  -2.08500 13.89000 30.97700
C  -0.88800 13.71100 31.75400
O  0.20400 14.17500 31.42300
O  -1.16900 13.07900 32.90900
C  0.09900 12.77500 33.63800
H  -2.44400 20.85400 30.24700
H  -1.65900 20.31300 23.99300
H  -1.82700 14.08300 24.48600
H  -3.54900 16.63100 32.32800
H  -1.69500 19.02900 32.12900
H  -4.44800 18.52800 32.91300
H  -4.45100 19.69100 31.46100
H  -3.57100 19.97300 33.00800
H  -0.68000 16.41100 32.35800
H  -1.82300 15.55000 33.29900
H  -2.19900 17.92700 34.44600
H  -0.64800 18.28800 33.83900
H  -3.06100 22.73500 29.35700
H  -3.02200 23.83000 28.04300
H  -1.49700 23.55600 29.05600
H  -2.13300 24.41200 26.30100
H  -0.88400 24.70700 25.09500
H  -0.30200 24.00100 26.58700
H  -0.98900 18.20000 22.67100
H  -2.63200 15.63500 22.70700
H  -3.30100 19.22800 22.31200
H  -3.91800 17.58500 22.30200
H  -2.73400 18.10200 21.05300
H  -0.44200 15.81500 21.67100
H  -0.59900 14.44500 22.67100
H  0.52400 16.85800 24.13600
H  1.52400 16.28500 22.86500
H  1.12300 15.14000 24.08000
H  -1.37800 12.02000 25.58100
H  -2.80800 11.48600 26.60700
H  -1.16200 11.27800 27.12500
H  -2.94500 13.74700 31.63200
H  -0.14900 12.46900 34.65500
H  0.69200 13.68900 33.67800
H  0.73200 11.98200 33.24000
Mg 30.61700 58.21700 38.97900
C  27.93200 56.23100 37.97100
C  32.69600 55.43700 38.43100
C  33.32600 60.22600 39.23300
C  28.43100 61.05600 38.79800
N  30.26200 56.07700 38.33900
C  29.11600 55.50800 37.83600
C  29.36600 54.06300 37.32900
C  30.81600 53.74600 37.84900
C  31.33600 55.20900 38.11300
C  30.98100 52.78300 39.08300
C  29.18300 53.86400 35.74600
C  29.15600 55.22100 34.92900
H  27.98200 55.48700 33.98200
N  32.74100 57.84600 38.98200
C  33.34100 56.62400 38.75200
C  34.80200 56.82900 38.75500
C  34.97000 58.22900 38.98100
C  33.68600 58.83800 39.01300
C  35.78400 55.69500 38.45500
C  36.31400 58.95700 39.05600
O  37.36400 58.27600 39.00500
C  36.52700 60.40100 39.46100
N  30.84200 60.23900 39.05300
C  32.03400 60.87100 39.32000
C  31.93000 62.40100 39.39600
C  30.40300 62.56600 39.14100
C  29.85500 61.19100 38.97700
C  32.43300 63.11800 40.71200
C  30.13100 63.50000 37.86600
C  30.51200 64.98400 38.06200
N  28.57000 58.61400 38.67000
C  27.85000 59.75100 38.58900
C  26.41600 59.38900 38.29000
C  26.50000 57.98400 38.11000
C  27.80000 57.60900 38.29200
C  25.26200 60.30300 38.18400
C  25.69100 56.90700 37.63900
O  24.48400 56.99400 37.36900
C  26.57500 55.64100 37.50900
C  26.01700 54.65500 38.59700
O  26.29900 54.64600 39.82400
O  25.38300 53.59900 37.97600
C  25.25400 52.43200 38.81500
H  33.38100 54.59600 38.30400
H  34.09900 60.98100 39.39400
H  27.64200 61.81000 38.81600
H  28.63700 53.33500 37.68500
H  31.40700 53.30200 37.04700
H  29.99000 52.44900 39.38900
H  31.29900 53.47600 39.86200
H  31.80600 52.11000 38.85100
H  28.16000 53.51200 35.62000
H  29.98200 53.25700 35.32000
H  30.04500 55.30000 34.30300
H  29.16800 56.13000 35.53000
H  35.40700 55.27900 37.52100
H  35.80200 54.95900 39.25800
H  36.75300 56.09600 38.15800
H  35.89300 60.69500 40.29800
H  36.38300 61.02600 38.58000
H  37.58500 60.50300 39.70100
H  32.56900 62.86300 38.64400
H  29.84300 63.06100 39.93300
H  31.65600 63.72400 41.17700
H  33.28300 63.72200 40.39300
H  32.72300 62.25800 41.31500
H  29.04400 63.50600 37.78800
H  30.61700 63.16200 36.95100
H  31.11000 64.98900 38.97300
H  29.61900 65.60600 38.12800
H  31.17300 65.60800 37.45900
H  24.28900 59.81400 38.13900
H  25.45300 60.96000 37.33600
H  25.20800 61.00800 39.01300
H  26.66800 55.23500 36.50200
H  26.27400 52.19300 39.11700
H  24.77200 51.64200 38.23900
H  24.63500 52.53800 39.70600

