158

Mg -1.72400 17.30500 26.77000
C  -2.62600 14.99600 29.31600
C  -2.17300 19.75500 29.03200
C  -1.55700 19.49500 24.15700
C  -1.84300 14.68300 24.53600
N  -2.25400 17.29200 28.96200
C  -2.54900 16.27700 29.78900
C  -2.67100 16.83500 31.27500
C  -2.88200 18.34000 30.99100
C  -2.32400 18.49900 29.58100
C  -4.25500 19.09000 31.22300
C  -1.48500 16.46500 32.13600
C  -1.17700 17.27000 33.46800
H  -0.66200 16.58200 34.76300
N  -1.65400 19.34200 26.62100
C  -1.82400 20.16900 27.70400
C  -1.63700 21.52800 27.25400
C  -1.36000 21.51600 25.86300
C  -1.56100 20.02800 25.47800
C  -1.65600 22.70800 28.14600
C  -0.95500 22.54800 24.80500
O  -0.90700 22.32700 23.56000
C  -0.57200 23.96800 25.19600
N  -2.06500 17.12100 24.64700
C  -1.80700 18.15800 23.80400
C  -1.75400 17.79500 22.36900
C  -1.55600 16.17900 22.49000
C  -1.80000 15.96100 23.99600
C  -3.03300 18.19800 21.53200
C  -0.13600 15.71300 22.01700
C  1.03100 16.57000 22.55400
N  -2.22500 15.20600 26.79300
C  -2.19700 14.28700 25.86200
C  -2.64900 13.02700 26.39500
C  -2.76500 13.20900 27.77100
C  -2.56400 14.59600 27.97800
C  -2.75800 11.71100 25.59000
C  -2.93300 12.56100 29.04000
O  -3.06600 11.36000 29.23500
C  -2.88800 13.73000 30.07200
C  -1.81900 13.46300 31.14600
O  -0.59100 13.64900 30.95000
O  -2.37200 13.01900 32.36000
C  -1.42200 12.50000 33.38900
H  -2.39200 20.53900 29.76000
H  -1.50200 20.11500 23.26000
H  -1.73800 13.85000 23.83800
H  -3.53800 16.35000 31.72300
H  -2.33400 18.89200 31.75500
H  -4.86400 18.20400 31.40100
H  -4.41700 19.64900 30.30100
H  -4.35000 19.78400 32.05900
H  -0.59700 16.38100 31.50900
H  -1.67900 15.52100 32.64500
H  -1.97200 17.98300 33.68500
H  -0.27700 17.85700 33.28000
H  -0.75000 23.28300 28.33700
H  -2.23700 22.47200 29.03800
H  -2.26400 23.44100 27.61500
H  0.43800 23.99700 25.60500
H  -1.33800 24.35300 25.87000
H  -0.66800 24.54900 24.27800
H  -0.83900 18.21000 21.94600
H  -2.35100 15.60100 22.01900
H  -3.91000 18.54900 22.07600
H  -3.38100 17.30100 21.01900
H  -2.78900 19.00400 20.84000
H  -0.17600 15.85800 20.93700
H  0.08200 14.64500 22.05500
H  1.29900 17.22400 21.72400
H  1.85700 15.91300 22.82600
H  0.76100 17.21500 23.38900
H  -1.73800 11.34600 25.47000
H  -3.26600 11.77500 24.62700
H  -3.30200 11.02100 26.23500
H  -3.86300 13.70100 30.56000
H  -1.85200 11.61600 33.85900
H  -1.17100 13.20700 34.18100
H  -0.49100 12.09200 32.99400
Mg 16.12500 -1.54200 28.04300
C  15.28400 0.69700 30.64400
C  18.29100 -3.12700 30.17400
C  17.34000 -3.46600 25.31600
C  14.65800 0.50900 25.64900
N  16.87900 -1.13800 30.14000
C  16.15800 -0.35600 31.07700
C  16.54300 -0.77300 32.48000
C  17.65600 -1.83700 32.30600
C  17.63100 -2.06400 30.81700
C  19.14000 -1.38200 32.76200
C  15.24300 -1.23300 33.26500
C  15.11500 -0.79100 34.66800
H  16.27500 -0.00400 35.29700
N  17.48300 -3.14400 27.81600
C  18.22100 -3.68200 28.84800
C  18.93200 -4.86700 28.34600
C  18.56500 -5.04900 26.99900
C  17.78700 -3.83000 26.63600
C  19.89900 -5.63400 29.18900
C  18.94500 -6.16900 26.01900
O  18.60700 -6.16800 24.84200
C  19.89700 -7.18900 26.50100
N  16.16400 -1.32400 25.76500
C  16.64100 -2.27300 24.94000
C  16.29300 -1.91000 23.42200
C  15.43100 -0.66700 23.51000
C  15.43200 -0.47900 25.06800
C  17.56200 -1.79200 22.50900
C  14.02600 -0.69100 22.83300
C  13.73000 0.41800 21.84200
N  15.04400 0.07000 28.09800
C  14.50400 0.82000 27.02400
C  13.66700 1.80600 27.53900
C  13.93600 1.81600 28.96600
C  14.83400 0.76300 29.26000
C  12.63200 2.69300 26.79600
C  13.65100 2.43500 30.23400
O  12.89800 3.37700 30.47700
C  14.47900 1.66700 31.42200
C  15.38900 2.64800 32.04400
O  16.60100 2.52300 32.17900
O  14.68500 3.62800 32.85300
C  15.53700 4.40700 33.73200
H  18.86000 -3.80200 30.81600
H  17.46800 -4.19000 24.50900
H  14.15000 1.18800 24.96100
H  16.90600 0.12400 32.98200
H  17.28100 -2.68900 32.87400
H  19.41700 -2.05000 33.57700
H  19.07100 -0.33700 33.06400
H  19.90700 -1.48000 31.99400
H  15.14100 -2.31800 33.30600
H  14.34200 -0.87700 32.76400
H  14.87600 -1.67800 35.25500
H  14.30200 -0.08500 34.83400
H  19.36900 -6.52700 29.51900
H  20.24900 -5.15500 30.10400
H  20.73300 -5.82800 28.51400
H  20.12000 -7.96300 25.76700
H  19.32900 -7.65500 27.30600
H  20.91400 -6.87800 26.73700
H  15.60600 -2.68200 23.07500
H  16.02900 0.19500 23.21400
H  17.94600 -2.80400 22.38400
H  18.29100 -1.14300 22.99600
H  17.32800 -1.52100 21.48000
H  13.27400 -0.48400 23.59500
H  13.70600 -1.61600 22.35300
H  13.03000 0.11000 21.06500
H  14.70800 0.59000 21.39400
H  13.40500 1.31700 22.36500
H  12.08400 3.31600 27.50300
H  11.99500 1.97900 26.27500
H  13.07200 3.31200 26.01300
H  13.77300 1.32100 32.17600
H  16.18700 5.00900 33.09700
H  16.13900 3.65900 34.24700
H  15.11500 5.06300 34.49300

