158

Mg 2.38500 -1.41200 43.81700
C  5.85900 -0.82800 43.27000
C  1.75500 1.06900 41.64000
C  -0.79200 -2.50500 43.74000
C  3.35300 -4.44300 45.52600
N  3.73700 -0.14000 42.52000
C  5.09800 0.02400 42.53500
C  5.53900 1.04300 41.52300
C  4.13500 1.63500 41.08000
C  3.07500 0.86900 41.87400
C  4.01200 3.12600 41.26600
C  6.34200 0.43400 40.36400
C  7.71700 1.17300 40.22900
H  8.16200 1.64000 38.80900
N  0.67700 -0.73800 42.89800
C  0.61000 0.40500 42.07500
C  -0.78600 0.67800 41.80300
C  -1.58400 -0.37500 42.39200
C  -0.57800 -1.29400 43.05000
C  -1.24100 1.82900 41.06400
C  -3.08300 -0.48200 42.35100
O  -3.81800 0.30300 41.78700
C  -3.86300 -1.64500 43.07700
N  1.48600 -3.28100 44.39900
C  0.12700 -3.35200 44.35500
C  -0.34800 -4.59600 45.15300
C  0.90300 -5.40100 45.48800
C  2.00500 -4.31100 45.17000
C  -1.26900 -4.09300 46.38000
C  1.06100 -6.69800 44.70800
C  0.95000 -8.01200 45.46300
N  4.21100 -2.42400 44.35500
C  4.39200 -3.56300 45.06900
C  5.81500 -3.77600 45.36000
C  6.41900 -2.63800 44.66200
C  5.40500 -1.90000 44.05200
C  6.46500 -4.93600 46.09300
C  7.63500 -1.97200 44.49500
O  8.72000 -2.20400 44.98000
C  7.41200 -0.77200 43.52200
C  7.97900 0.40200 44.15100
O  7.63400 0.86700 45.24800
O  8.90100 0.91900 43.33500
C  9.37600 2.27300 43.62700
H  1.47400 1.87700 40.96200
H  -1.84500 -2.78200 43.82000
H  3.62600 -5.37100 46.03100
H  6.14100 1.65000 42.20000
H  4.08300 1.50100 39.99900
H  4.98500 3.61000 41.34900
H  3.56400 3.35600 42.23200
H  3.47300 3.61100 40.45200
H  5.73900 0.42600 39.45600
H  6.69600 -0.57400 40.57800
H  8.54600 0.53000 40.52400
H  7.81400 2.06500 40.84800
H  -2.03800 2.34600 41.59900
H  -1.70300 1.48400 40.13900
H  -0.49500 2.60200 40.88100
H  -4.87000 -1.23300 43.13400
H  -3.51200 -1.63700 44.10900
H  -3.77900 -2.63900 42.63800
H  -1.01000 -5.17100 44.50600
H  1.00900 -5.50100 46.56800
H  -1.73400 -3.14500 46.10800
H  -0.65500 -3.92900 47.26600
H  -2.06300 -4.81700 46.55800
H  1.95600 -6.68200 44.08600
H  0.24000 -6.69500 43.99200
H  1.74900 -8.67700 45.13500
H  -0.02800 -8.43400 45.23200
H  0.92000 -7.79400 46.53000
H  6.36400 -4.68800 47.15000
H  7.46800 -5.04800 45.67900
H  5.93400 -5.88100 45.97900
H  7.93800 -1.05600 42.61100
H  10.19500 2.19400 44.34100
H  8.58400 2.88100 44.06400
H  9.65700 2.77400 42.70100
Mg 16.94300 52.28800 26.18400
C  18.79400 50.93200 28.80000
C  14.71000 53.48500 28.47900
C  15.36900 53.99100 23.67900
C  19.30200 51.00800 23.91400
N  16.61200 52.01000 28.35600
C  17.61600 51.60600 29.25300
C  17.35000 52.17200 30.65300
C  15.83300 52.57300 30.57000
C  15.69500 52.67500 29.01500
C  14.78200 51.57900 31.14100
C  18.35200 53.17100 31.28900
C  18.65400 52.88200 32.78500
H  17.70300 52.02600 33.63400
N  15.31800 53.54200 26.13900
C  14.50400 53.92500 27.18300
C  13.43300 54.75800 26.68300
C  13.77600 55.09400 25.28100
C  14.89400 54.22500 24.98500
C  12.52000 55.44900 27.72800
C  13.06600 56.06100 24.29700
O  13.53900 56.26800 23.16300
C  11.86100 56.75800 24.75400
N  17.20900 52.44000 24.03500
C  16.43300 53.18100 23.23000
C  16.92200 53.09700 21.72600
C  18.23300 52.24700 21.85000
C  18.25900 51.79900 23.35500
C  15.83100 52.43800 20.85200
C  19.50700 53.11200 21.54000
C  20.55600 52.52500 20.61900
N  18.57300 51.11900 26.27800
C  19.46000 50.67600 25.31100
C  20.53500 49.92200 25.94700
C  20.36900 50.04300 27.28800
C  19.13700 50.73700 27.47700
C  21.69400 49.29100 25.22200
C  20.93200 49.70300 28.53400
O  21.99900 49.14700 28.80500
C  19.97000 50.34500 29.61200
C  19.40900 49.29300 30.50100
O  18.56600 48.48200 30.14300
O  20.03400 49.30300 31.71200
C  19.65200 48.42800 32.84500
H  14.06400 53.92100 29.24400
H  14.90300 54.56400 22.87500
H  20.11600 50.63000 23.29100
H  17.39100 51.29500 31.29800
H  15.55100 53.50100 31.06700
H  14.00800 51.27400 30.43700
H  14.35600 51.95700 32.07100
H  15.22800 50.61500 31.38700
H  17.87200 54.14800 31.23200
H  19.15600 53.08800 30.55700
H  18.61800 53.83000 33.32200
H  19.68800 52.57100 32.93200
H  11.57200 55.82200 27.34100
H  13.10100 56.26400 28.16000
H  12.13500 54.78100 28.49900
H  12.00200 57.54900 25.49000
H  11.09000 56.04400 25.04600
H  11.41700 57.30000 23.91900
H  17.14900 54.10800 21.38400
H  18.06600 51.36300 21.23400
H  15.47300 53.07100 20.03900
H  15.01500 52.11900 21.50100
H  16.16700 51.46700 20.48700
H  19.90900 53.40500 22.50900
H  19.32600 54.08500 21.08300
H  21.56400 52.74700 20.96900
H  20.42900 52.77700 19.56700
H  20.39300 51.44800 20.57100
H  21.26400 48.53000 24.57100
H  22.33400 48.77000 25.93500
H  22.32200 49.95800 24.63200
H  20.43200 51.17200 30.15100
H  18.75100 47.84800 32.64600
H  19.35600 49.06100 33.68200
H  20.39600 47.71000 33.19000

