158

Mg 16.70500 -1.49700 28.18700
C  15.47700 0.22100 31.01100
C  18.99600 -2.95400 30.32200
C  18.23000 -2.73300 25.48200
C  15.01900 0.87300 26.08600
N  17.09700 -1.31100 30.39700
C  16.49000 -0.60400 31.34500
C  16.96800 -0.95000 32.69800
C  18.15500 -1.92700 32.48900
C  18.05100 -2.10800 30.93200
C  19.54300 -1.47500 33.04500
C  15.85100 -1.50300 33.59100
C  15.63200 -0.94100 34.99400
H  16.86700 -0.29000 35.64400
N  18.30100 -2.77900 27.92600
C  19.09300 -3.31700 28.98600
C  19.86600 -4.37400 28.37600
C  19.65800 -4.35000 26.93000
C  18.70400 -3.26800 26.68800
C  20.68600 -5.28000 29.24300
C  20.27100 -5.22500 25.84500
O  20.01400 -5.18200 24.61700
C  21.31500 -6.22100 26.19300
N  16.61600 -0.97600 25.99900
C  17.34200 -1.68600 25.10600
C  17.35100 -1.02200 23.68800
C  16.10400 -0.06400 23.82100
C  15.90200 0.02400 25.34600
C  18.60100 -0.16900 23.52700
C  14.82800 -0.66900 23.17900
C  13.93200 0.32900 22.43000
N  15.33000 -0.02400 28.40900
C  14.78300 0.85000 27.51300
C  13.83000 1.63900 28.20200
C  14.11500 1.55400 29.54400
C  15.04200 0.48600 29.65100
C  12.83500 2.60200 27.62200
C  13.82400 2.03500 30.85600
O  13.00100 2.92600 31.23700
C  14.73600 1.24200 31.80200
C  15.58400 2.17100 32.52500
O  16.63400 2.52900 32.06400
O  15.18700 2.33300 33.81100
C  16.06100 3.38300 34.45800
H  19.64000 -3.36600 31.10200
H  18.73500 -3.11300 24.59100
H  14.49700 1.70700 25.61100
H  17.47500 -0.05600 33.06100
H  17.87400 -2.92700 32.81700
H  19.44200 -0.79700 33.89200
H  20.14100 -1.07100 32.22800
H  19.89300 -2.42900 33.43900
H  15.97900 -2.58500 33.62400
H  14.87300 -1.40300 33.12000
H  15.30900 -1.75200 35.64700
H  14.81000 -0.23000 35.06900
H  20.14300 -6.20900 29.41500
H  20.94800 -4.89000 30.22600
H  21.65600 -5.44300 28.77300
H  20.87900 -6.93200 26.89500
H  21.98300 -5.49500 26.65600
H  21.50600 -6.78400 25.28000
H  17.30500 -1.82500 22.95200
H  16.29200 0.98600 23.59900
H  19.05300 0.22900 24.43500
H  18.30800 0.76100 23.03900
H  19.34900 -0.70100 22.93900
H  14.30800 -1.15000 24.00800
H  15.12400 -1.42100 22.44800
H  13.64400 -0.01100 21.43500
H  14.44800 1.28600 22.34700
H  13.01700 0.49700 22.99900
H  12.03000 2.11200 27.07400
H  13.31900 3.12900 26.80000
H  12.50800 3.25200 28.43400
H  14.07500 0.70900 32.48500
H  15.97600 3.36200 35.54500
H  15.69300 4.35500 34.12900
H  17.13200 3.30800 34.27300
Mg -12.64400 17.00100 42.32200
C  -9.72700 15.14200 41.83600
C  -10.95800 19.62900 40.98900
C  -15.65900 18.62700 41.88600
C  -14.27700 13.99400 43.08300
N  -10.60400 17.22700 41.26400
C  -9.60600 16.36800 41.26400
C  -8.28900 17.06000 40.71800
C  -8.62300 18.60700 40.80400
C  -10.11900 18.49300 40.99800
C  -7.88000 19.42300 41.85400
C  -7.85800 16.54500 39.32700
C  -6.47900 15.86900 39.41400
H  -6.02500 14.82200 38.40200
N  -13.23900 18.87100 41.75500
C  -12.32300 19.83000 41.26000
C  -13.07900 20.98200 40.97700
C  -14.47600 20.72300 41.15500
C  -14.53500 19.37000 41.64500
C  -12.41300 22.25500 40.41900
C  -15.55900 21.72800 40.76900
O  -15.32300 22.83700 40.44600
C  -17.03400 21.43100 41.01700
N  -14.71400 16.38500 42.25200
C  -15.73100 17.23500 42.21300
C  -17.01900 16.51500 42.59800
C  -16.53700 15.13700 43.12400
C  -15.05800 15.12900 42.81400
C  -17.95000 17.34300 43.50000
C  -17.32800 13.86500 42.60800
C  -17.91100 12.80800 43.65900
N  -12.18000 14.96600 42.46400
C  -12.84500 13.84500 42.91300
C  -12.03500 12.72400 43.13500
C  -10.78400 13.14400 42.72600
C  -10.89700 14.51500 42.30400
C  -12.50600 11.41000 43.61500
C  -9.48800 12.71500 42.57900
O  -9.03200 11.60300 42.79600
C  -8.63900 14.03100 41.99600
C  -7.60400 14.40800 42.99500
O  -7.85700 14.70600 44.18700
O  -6.37500 14.23800 42.49000
C  -5.28700 14.66300 43.41400
H  -10.48700 20.51100 40.54900
H  -16.64200 19.10100 41.91000
H  -14.86300 13.16600 43.48700
H  -7.43500 16.87200 41.36900
H  -8.31500 19.06400 39.86400
H  -7.27300 18.75600 42.46600
H  -8.50500 19.96100 42.56700
H  -7.23100 20.16400 41.38800
H  -7.83300 17.31300 38.55400
H  -8.68000 15.91600 38.98400
H  -6.26200 15.37900 40.36300
H  -5.83800 16.74900 39.36800
H  -13.05100 23.12900 40.54600
H  -11.90600 22.16900 39.45800
H  -11.55000 22.34100 41.07800
H  -17.17200 21.30600 42.09100
H  -17.23400 20.50000 40.48600
H  -17.72800 22.17900 40.63200
H  -17.64300 16.22200 41.75500
H  -16.49000 14.97900 44.20200
H  -17.41200 18.19300 43.92000
H  -18.41700 16.70200 44.24700
H  -18.65500 17.81500 42.81500
H  -16.60800 13.34300 41.97800
H  -18.11100 14.17600 41.91800
H  -17.91700 13.13100 44.70000
H  -17.28900 11.94300 43.43100
H  -18.92800 12.54600 43.36600
H  -13.18400 11.57700 44.45200
H  -11.56100 10.97700 43.94300
H  -12.95200 10.84000 42.79900
H  -8.21100 13.84600 41.01100
H  -4.35100 14.14100 43.21400
H  -5.44400 14.37500 44.45300
H  -5.18600 15.74800 43.42100

