158

Mg 0.68700 -1.79700 43.35600
C  4.09500 -1.99400 42.65000
C  0.63200 1.09000 41.37400
C  -2.70500 -1.83500 43.45600
C  0.88600 -4.93200 44.83300
N  2.13400 -0.64500 42.12200
C  3.49000 -0.86700 42.11500
C  4.26700 0.24600 41.32300
C  3.19800 1.37700 41.08600
C  1.91100 0.60500 41.62100
C  3.46600 2.76400 41.91300
C  4.97800 -0.20600 40.05600
C  6.31000 0.43600 39.90400
H  6.49500 1.59500 38.87600
N  -0.84500 -0.60800 42.47800
C  -0.69100 0.60900 41.74800
C  -1.98200 1.15700 41.33400
C  -2.97400 0.29700 41.96200
C  -2.23000 -0.81700 42.64500
C  -2.13300 2.35700 40.39600
C  -4.48800 0.56900 42.04400
O  -4.91000 1.56200 41.51900
C  -5.58500 -0.26200 42.70500
N  -0.71800 -3.29000 43.91800
C  -2.04300 -2.94400 44.13900
C  -2.78000 -3.91100 45.01700
C  -1.60300 -4.95900 45.25400
C  -0.36000 -4.38300 44.66300
C  -3.61700 -3.35100 46.19700
C  -1.94100 -6.37000 44.62700
C  -2.52300 -7.47300 45.63600
N  2.22600 -3.17200 43.86400
C  2.13000 -4.40300 44.46100
C  3.46600 -4.90800 44.62500
C  4.28800 -4.01600 43.89300
C  3.48100 -2.99500 43.46600
C  3.81300 -6.22800 45.16400
C  5.62200 -3.78000 43.40500
O  6.67500 -4.42400 43.50800
C  5.51900 -2.46100 42.48100
C  6.54100 -1.44500 42.93400
O  6.50200 -0.66800 43.89400
O  7.58800 -1.70400 42.13800
C  8.79700 -0.83800 42.34700
H  0.58300 2.01400 40.79400
H  -3.77900 -1.86700 43.65300
H  1.00700 -5.87400 45.37300
H  4.97400 0.65600 42.04500
H  3.05900 1.71000 40.05700
H  2.62700 2.82600 42.60500
H  3.39500 3.62500 41.24700
H  4.37900 2.76000 42.50800
H  4.29600 0.07300 39.25300
H  5.03400 -1.29400 40.01500
H  7.10000 -0.27500 39.66100
H  6.62700 0.89800 40.84000
H  -3.16600 2.70700 40.41300
H  -1.96400 2.03700 39.36800
H  -1.43200 3.13500 40.69800
H  -6.59900 0.02200 42.42300
H  -5.48200 -0.34800 43.78600
H  -5.36400 -1.26000 42.32500
H  -3.53800 -4.32400 44.35300
H  -1.47000 -5.06100 46.33100
H  -3.41500 -3.90700 47.11300
H  -4.69600 -3.31300 46.04700
H  -3.38900 -2.32000 46.46900
H  -1.02600 -6.85500 44.28600
H  -2.69900 -6.17600 43.86800
H  -3.56900 -7.56300 45.34300
H  -2.22200 -7.18700 46.64300
H  -2.05200 -8.45500 45.59000
H  3.48000 -6.23600 46.20200
H  4.87600 -6.42100 45.02000
H  3.15700 -6.96600 44.70200
H  5.85300 -2.78900 41.49700
H  9.24900 -1.07000 43.31100
H  8.47600 0.20300 42.35400
H  9.51400 -1.05600 41.55600
Mg 46.65100 34.69300 27.45100
C  45.00700 32.85400 29.98000
C  47.03400 37.18500 29.65200
C  47.72900 36.47100 24.90400
C  45.89200 32.06200 25.21000
N  46.23500 34.85700 29.59800
C  45.60100 34.06500 30.44200
C  45.88400 34.48600 31.88100
C  46.08100 36.07700 31.72800
C  46.46200 36.06300 30.21900
C  44.83200 36.93400 32.07400
C  47.22100 33.73500 32.32100
C  47.51000 33.56100 33.80800
H  46.72000 34.39700 34.82700
N  47.46100 36.50200 27.33500
C  47.58500 37.37800 28.32900
C  48.43600 38.44900 27.90800
C  48.51100 38.33400 26.47300
C  47.88000 37.03800 26.17100
C  49.20400 39.40900 28.80000
C  49.23000 39.19000 25.48200
O  49.37700 38.80800 24.29200
C  49.70000 40.55000 25.84200
N  46.73500 34.30500 25.42900
C  47.32900 35.16500 24.57400
C  47.20800 34.76500 23.08900
C  46.83400 33.28400 23.19700
C  46.43700 33.20000 24.67800
C  46.30900 35.56100 22.14200
C  47.98700 32.24300 22.74100
C  49.33800 32.15900 23.49300
N  45.63400 32.79100 27.53900
C  45.40600 31.83500 26.54800
C  44.84700 30.68800 27.14000
C  44.54300 31.07000 28.47300
C  45.07200 32.35100 28.63500
C  44.44800 29.37100 26.51800
C  43.92200 30.70700 29.74200
O  43.38100 29.66400 30.00800
C  44.08800 31.88000 30.69800
C  44.75500 31.32500 31.94100
O  45.82100 30.75000 31.96000
O  43.88700 31.46800 32.99500
C  44.42700 31.29700 34.37100
H  47.07900 37.98600 30.39300
H  48.01000 36.98900 23.98400
H  45.82400 31.22700 24.51000
H  45.10200 34.20900 32.58800
H  46.83500 36.39200 32.45000
H  43.93700 36.31800 32.16700
H  44.65100 37.68200 31.30300
H  44.90300 37.50400 33.00100
H  47.99500 34.30500 31.80600
H  47.29900 32.76700 31.82600
H  48.57000 33.64900 34.04300
H  47.24400 32.52600 34.02600
H  49.19500 39.03300 29.82300
H  48.77400 40.41100 28.79800
H  50.27100 39.40900 28.57500
H  50.35100 40.47600 26.71300
H  48.82600 41.19400 25.93500
H  50.37800 40.99300 25.11200
H  48.19600 35.02800 22.71300
H  45.96800 33.07200 22.57000
H  46.09500 36.49100 22.66800
H  45.43400 34.97300 21.86500
H  46.85900 35.83600 21.24200
H  48.26400 32.57700 21.74100
H  47.52200 31.26900 22.58800
H  49.36400 31.17600 23.96300
H  49.42200 32.96200 24.22600
H  50.25200 32.39100 22.94700
H  44.88500 29.20400 25.53300
H  43.37300 29.38200 26.33600
H  44.80800 28.58400 27.18000
H  43.17200 32.34000 31.06700
H  45.50400 31.45300 34.31500
H  44.33800 30.31400 34.83500
H  43.86300 31.99900 34.98500

