158

Mg 43.28400 3.54500 46.77400
C  41.60700 6.63300 47.14900
C  40.23400 2.06300 46.69400
C  44.81800 0.71600 45.72600
C  46.27400 5.22200 46.64900
N  41.17500 4.25300 46.92100
C  40.72100 5.52100 47.19500
C  39.19800 5.55400 47.32500
C  38.88400 4.08000 47.48400
C  40.17500 3.37300 46.99700
C  38.38100 3.68300 48.87100
C  38.40600 6.16600 46.14600
C  39.05000 6.12300 44.73300
H  38.20000 5.85400 43.47400
N  42.66700 1.64900 46.40600
C  41.30300 1.25200 46.39300
C  41.22700 -0.13200 46.07200
C  42.55000 -0.59100 45.74600
C  43.41500 0.61800 45.99300
C  39.93000 -0.80500 45.94100
C  42.84000 -1.97500 45.30000
O  42.04300 -2.91000 45.14700
C  44.29000 -2.24500 44.88900
N  45.33400 3.03000 46.40300
C  45.71100 1.74200 46.01700
C  47.24300 1.65300 45.82200
C  47.73800 3.07500 46.23800
C  46.39900 3.84800 46.45500
C  47.89400 0.40500 46.63600
C  48.68900 3.67300 45.21200
C  50.00100 4.06800 45.93000
N  43.85900 5.52000 46.77000
C  45.15700 6.00300 46.76400
C  45.02100 7.50500 46.88200
C  43.69000 7.75800 46.97600
C  42.99000 6.52800 46.93800
C  46.20000 8.40600 47.00000
C  42.70400 8.81300 47.09700
O  42.81600 10.08600 47.13000
C  41.37100 8.10600 47.24900
C  40.67600 8.56800 48.53100
O  40.98000 8.16300 49.65500
O  39.57700 9.36500 48.20700
C  38.63000 9.48400 49.33000
H  39.30200 1.49500 46.64200
H  45.32400 -0.22000 45.48000
H  47.19100 5.81500 46.62300
H  38.98000 6.05800 48.26600
H  38.10100 3.73800 46.80700
H  38.03300 4.49100 49.51300
H  39.23400 3.30100 49.43200
H  37.51500 3.02900 48.77100
H  38.29100 7.21300 46.42400
H  37.40700 5.76300 45.97900
H  39.78000 5.32900 44.57600
H  39.56200 7.08500 44.70400
H  40.10700 -1.85300 46.18300
H  39.52400 -0.49900 44.97700
H  39.31200 -0.59000 46.81300
H  44.88300 -2.42300 45.78600
H  44.71000 -1.50800 44.20300
H  44.21200 -3.09800 44.21500
H  47.36300 1.46300 44.75600
H  48.23900 2.93800 47.19600
H  47.50400 0.19800 47.63200
H  48.96200 0.28400 46.81600
H  47.62900 -0.51100 46.10800
H  48.39300 4.53700 44.61700
H  48.91600 2.93600 44.44100
H  49.84100 5.14300 46.01400
H  50.78300 3.84500 45.20500
H  50.20400 3.70400 46.93700
H  46.78500 8.36300 46.08100
H  46.84800 8.04200 47.79700
H  45.93900 9.46300 47.03800
H  40.75300 8.44600 46.41800
H  39.02400 10.12800 50.11600
H  38.16600 8.58000 49.72200
H  37.86500 10.16400 48.95600
Mg -6.25700 25.86200 26.17600
C  -4.92800 27.35300 29.00300
C  -7.69300 23.45000 28.17600
C  -7.04100 24.13900 23.49000
C  -4.55300 28.18000 24.21900
N  -6.36300 25.49200 28.35800
C  -5.79000 26.31900 29.34000
C  -6.10300 25.72600 30.74400
C  -6.74100 24.34100 30.35400
C  -6.90000 24.40800 28.83500
C  -5.88600 23.01100 30.71800
C  -6.91000 26.76600 31.56700
C  -7.81800 26.31100 32.74600
H  -7.32200 25.32200 33.80800
N  -7.45100 24.22300 25.83600
C  -7.98700 23.32700 26.80500
C  -8.91700 22.46300 26.16200
C  -8.78300 22.55000 24.72700
C  -7.70100 23.62000 24.66200
C  -9.75300 21.57200 26.99100
C  -9.28000 21.70900 23.56000
O  -9.15200 22.00100 22.40800
C  -10.12000 20.50800 23.93400
N  -5.69700 25.99900 24.16500
C  -6.22200 25.22200 23.20400
C  -5.86700 25.63700 21.76600
C  -5.28900 27.10800 22.05000
C  -5.26500 27.17100 23.56100
C  -4.86500 24.60000 21.23200
C  -6.23500 28.14600 21.48400
C  -5.72100 28.77000 20.13400
N  -5.03900 27.46400 26.48500
C  -4.45800 28.31300 25.61000
C  -3.76600 29.38200 26.34900
C  -3.81300 28.95300 27.69500
C  -4.65800 27.81500 27.68500
C  -3.04100 30.52400 25.76500
C  -3.22700 29.14300 28.98900
O  -2.32300 29.82100 29.39400
C  -4.00400 28.09000 29.92000
C  -3.09900 27.14900 30.67400
O  -2.47900 26.16000 30.27400
O  -3.32600 27.44600 31.99600
C  -2.65500 26.49700 32.91500
H  -8.16000 22.59500 28.66800
H  -7.48300 23.78900 22.55500
H  -4.11900 28.98600 23.62200
H  -5.16200 25.43900 31.21200
H  -7.75400 24.36100 30.75500
H  -5.36400 23.12100 31.66800
H  -5.21100 22.63700 29.94700
H  -6.71700 22.33300 30.91200
H  -7.74000 26.90500 30.87400
H  -6.50000 27.76500 31.71200
H  -8.66100 25.83400 32.24600
H  -7.99400 27.23200 33.30200
H  -10.77100 21.59300 26.60300
H  -9.95100 21.93500 28.00000
H  -9.34500 20.56200 26.96500
H  -10.42400 20.01400 23.01100
H  -11.03700 20.94300 24.33400
H  -9.53400 19.78700 24.50500
H  -6.73800 25.56800 21.11400
H  -4.28500 27.06900 21.62900
H  -4.10700 24.33900 21.97100
H  -4.34100 25.11200 20.42500
H  -5.38500 23.76800 20.75800
H  -6.42900 28.90000 22.24700
H  -7.23500 27.77200 21.26700
H  -5.62600 29.85500 20.08100
H  -6.33100 28.43600 19.29500
H  -4.69500 28.43600 19.97500
H  -3.27300 31.36400 26.42000
H  -3.39100 30.77800 24.76500
H  -1.95600 30.47100 25.86200
H  -4.57000 28.74700 30.58000
H  -1.61200 26.69500 33.16400
H  -2.71800 25.48800 32.50800
H  -3.33700 26.46700 33.76500

