158

Mg 43.17700 42.46300 25.75700
C  42.39400 44.85500 28.26600
C  44.46500 40.49600 28.24900
C  44.35600 40.39300 23.48800
C  42.21400 44.81100 23.37000
N  43.48000 42.76500 27.94700
C  42.94200 43.72700 28.80600
C  43.19000 43.43900 30.36800
C  44.11400 42.10100 30.27900
C  44.03500 41.76500 28.67500
C  45.50700 42.35100 30.90100
C  41.86800 43.39900 31.16600
C  41.49200 42.32900 32.26100
H  40.86000 42.89300 33.46400
N  44.09500 40.59800 25.83800
C  44.47600 39.93800 27.00500
C  44.86800 38.56900 26.63200
C  44.70600 38.53900 25.20900
C  44.42800 39.85900 24.80500
C  45.30800 37.50400 27.67300
C  44.95400 37.38100 24.22800
O  44.86000 37.46100 22.99900
C  45.18100 36.05000 24.80900
N  43.27700 42.59500 23.74800
C  43.84400 41.57300 23.00700
C  43.76100 41.91000 21.51400
C  42.73000 43.11900 21.49500
C  42.75100 43.56200 22.95000
C  45.09600 42.31500 20.88000
C  41.34000 42.74100 20.91800
C  40.36400 42.08200 21.89200
N  42.48400 44.42600 25.78300
C  42.14500 45.26500 24.74100
C  41.69700 46.52400 25.29400
C  41.78500 46.39800 26.65800
C  42.23600 45.08800 26.88600
C  41.25700 47.68700 24.47300
C  41.54300 47.10000 27.87000
O  41.31800 48.26300 28.10400
C  41.84700 46.12600 28.95100
C  42.88200 46.67800 29.90400
O  44.10800 46.59100 29.69300
O  42.38000 47.16600 31.08900
C  43.36400 47.33000 32.15400
H  44.89500 39.90000 29.05600
H  44.74300 39.72900 22.71200
H  41.91000 45.58400 22.66100
H  43.80200 44.24500 30.77300
H  43.73300 41.21600 30.78800
H  45.71800 43.40900 31.05700
H  46.23500 41.82300 30.28600
H  45.72600 41.89600 31.86700
H  41.00800 43.38300 30.49700
H  41.79200 44.42100 31.53600
H  42.37300 41.74400 32.52600
H  40.85800 41.55700 31.82500
H  45.26800 37.89500 28.69000
H  46.31500 37.17700 27.41500
H  44.66000 36.64700 27.86000
H  45.55400 35.37700 24.03800
H  44.28800 35.69500 25.32500
H  46.04800 36.17600 25.45800
H  43.42100 40.98800 21.04200
H  43.11600 43.99600 20.97500
H  45.73600 42.58700 21.71900
H  44.88800 43.25400 20.36600
H  45.52500 41.51700 20.27300
H  41.54700 42.13000 20.04000
H  41.02100 43.73300 20.60100
H  40.22000 41.10400 21.43200
H  39.42200 42.62800 21.84600
H  40.60100 42.05600 22.95600
H  40.16900 47.67400 24.40800
H  41.60900 47.51500 23.45600
H  41.66300 48.65800 24.75900
H  40.87300 46.03300 29.43000
H  44.04300 46.47800 32.18100
H  42.82800 47.43700 33.09700
H  43.79000 48.33100 32.08300
Mg 1.38500 42.06000 25.94500
C  2.77700 42.31100 29.14300
C  -1.67200 41.25300 27.42500
C  0.12600 41.32900 22.92200
C  4.47700 42.65600 24.57700
N  0.67100 41.78900 28.11700
C  1.42000 42.01300 29.20000
C  0.41200 41.97000 30.40400
C  -0.95600 41.48200 29.87500
C  -0.64600 41.51200 28.41400
C  -1.37300 40.00900 30.22300
C  0.26500 43.36900 31.12200
C  0.20200 43.44300 32.63700
H  0.01800 42.08700 33.54900
N  -0.53700 41.53800 25.29000
C  -1.62800 41.21600 25.99700
C  -2.72100 40.86600 25.14200
C  -2.25600 40.98600 23.80800
C  -0.83600 41.38700 23.93800
C  -4.07800 40.32100 25.66600
C  -3.03600 40.77300 22.50600
O  -2.52500 40.90200 21.39200
C  -4.54600 40.41400 22.51400
N  2.17400 42.08300 24.05000
C  1.46600 41.62800 22.91300
C  2.29400 41.77500 21.66100
C  3.60100 42.48300 22.16700
C  3.46300 42.41400 23.69800
C  2.44300 40.40400 21.04600
C  3.90900 44.02300 21.73500
C  2.66800 44.93100 21.49500
N  3.31600 42.33500 26.65800
C  4.49600 42.63700 25.98100
C  5.61500 42.65700 26.98200
C  4.97900 42.48800 28.22600
C  3.56500 42.37200 27.97600
C  7.04600 42.78000 26.59200
C  5.13200 42.37900 29.67800
O  6.17600 42.26900 30.33900
C  3.66900 42.31400 30.29800
C  3.60300 41.20300 31.13000
O  3.32500 40.08200 30.79000
O  4.04400 41.58600 32.35200
C  4.24100 40.63700 33.44000
H  -2.65500 41.18900 27.89600
H  -0.22600 41.05700 21.92500
H  5.38200 42.77800 23.97800
H  0.93600 41.24900 31.03200
H  -1.80500 42.12600 30.10600
H  -1.42300 39.40200 29.31900
H  -2.35800 39.94100 30.68600
H  -0.65400 39.60900 30.93800
H  -0.71600 43.71800 30.79900
H  1.01400 44.09700 30.81300
H  -0.62200 44.14100 32.78100
H  1.18700 43.81800 32.91500
H  -4.90100 40.84000 25.17500
H  -4.26700 40.66600 26.68300
H  -4.19200 39.24500 25.53300
H  -4.96400 40.06700 21.56900
H  -5.06800 41.17500 23.09300
H  -4.35700 39.45900 23.00400
H  1.79900 42.45200 20.96500
H  4.43600 41.90400 21.77200
H  3.37700 40.21400 20.51800
H  1.69200 40.26700 20.26800
H  2.27600 39.61400 21.77700
H  4.45400 43.91300 20.79800
H  4.58200 44.51600 22.43600
H  1.71500 44.48100 21.77400
H  2.57600 45.20000 20.44300
H  2.71100 45.89500 22.00100
H  7.20700 42.50700 25.54900
H  7.50700 42.09400 27.30300
H  7.39700 43.79800 26.76100
H  3.48500 43.19900 30.90700
H  5.24000 40.21900 33.57100
H  3.60500 39.78400 33.20300
H  3.91600 41.06800 34.38700

