158

Mg 53.07100 23.28700 45.13400
C  50.42700 25.53200 44.10900
C  51.11200 20.68100 43.88800
C  55.91800 21.48700 44.88900
C  54.86500 26.10200 46.30700
N  51.01500 23.23300 44.03100
C  50.13600 24.23700 43.72000
C  48.90400 23.64100 43.01200
C  48.99200 22.14200 43.44400
C  50.43700 21.97000 43.76800
C  48.04100 21.85800 44.62800
C  48.93900 23.67400 41.41100
C  47.61000 23.62800 40.70000
H  47.48100 22.91700 39.30900
N  53.46300 21.34400 44.61300
C  52.53500 20.40400 44.11800
C  53.23400 19.13000 43.93500
C  54.60200 19.28700 44.29500
C  54.72500 20.77100 44.67200
C  52.62300 17.93100 43.28700
C  55.69700 18.25000 44.18000
O  55.46000 17.08100 43.96000
C  57.11200 18.50100 44.63300
N  55.14500 23.75900 45.50500
C  56.08800 22.79100 45.48700
C  57.40000 23.25300 46.12400
C  57.12100 24.71100 46.60700
C  55.68800 24.91900 45.98100
C  57.79800 22.31700 47.29000
C  58.27400 25.74900 46.10600
C  59.13100 26.42100 47.19700
N  52.72600 25.39000 45.31800
C  53.50100 26.35300 45.91200
C  52.76700 27.62100 45.85600
C  51.52700 27.32400 45.17900
C  51.56600 25.97800 44.87200
C  53.23500 29.01600 46.29500
C  50.30800 27.93400 44.75100
O  49.83700 29.05200 44.98600
C  49.47500 26.75600 44.11200
C  48.89000 27.07700 42.76000
O  49.54700 27.36600 41.72500
O  47.55800 27.13200 42.88600
C  46.86300 27.44400 41.64100
H  50.49100 19.85000 43.54700
H  56.84300 20.95200 44.66200
H  55.53700 26.87400 46.68700
H  48.07700 24.23300 43.40300
H  48.71000 21.44000 42.65800
H  47.41300 22.73600 44.77900
H  48.62200 21.72000 45.54000
H  47.41700 21.02000 44.31700
H  49.47500 22.80400 41.03100
H  49.48800 24.56400 41.10400
H  47.34900 24.65200 40.43300
H  46.83600 23.27500 41.38100
H  53.09800 17.61300 42.35900
H  51.63600 18.16100 42.88700
H  52.54900 17.18000 44.07400
H  57.51200 19.03800 43.77300
H  57.58800 17.54300 44.84200
H  57.17300 19.10900 45.53500
H  58.15200 23.09400 45.35100
H  57.08800 24.82500 47.69100
H  58.85600 22.07000 47.20000
H  57.24300 21.38300 47.19900
H  57.61300 22.79400 48.25200
H  57.75500 26.51300 45.52800
H  59.01100 25.24200 45.48300
H  58.95800 25.85400 48.11100
H  58.84100 27.46700 47.29800
H  60.17900 26.37300 46.90300
H  54.10800 28.97600 46.94600
H  52.37900 29.53200 46.73000
H  53.42700 29.69300 45.46300
H  48.66900 26.62200 44.83400
H  46.12300 28.23100 41.78500
H  46.25200 26.62200 41.27000
H  47.45200 27.75500 40.77800
Mg 47.04600 34.21600 28.24800
C  45.55100 32.47600 30.97700
C  47.32800 36.98800 30.40600
C  47.94400 36.02600 25.57200
C  46.02800 31.69500 26.25700
N  46.59800 34.62600 30.47700
C  46.02300 33.74600 31.32100
C  46.07900 34.40800 32.75300
C  46.19400 35.90700 32.39400
C  46.76400 35.83800 30.97800
C  44.90000 36.77200 32.51100
C  47.22500 33.94600 33.75100
C  46.79500 33.61100 35.25200
H  46.96800 34.73600 36.24400
N  47.70300 36.19300 28.07200
C  47.70000 37.19500 29.06600
C  48.11500 38.40900 28.38000
C  48.29000 38.13900 26.97900
C  48.05600 36.72100 26.83400
C  48.13500 39.83100 29.03700
C  48.58700 39.06300 25.85100
O  48.63900 38.67200 24.68900
C  48.93300 40.52500 26.20900
N  46.98000 33.87600 26.20100
C  47.37300 34.78000 25.33600
C  47.27100 34.23700 23.84500
C  46.78400 32.82500 24.03000
C  46.63800 32.76200 25.58100
C  46.43200 35.08800 22.82100
C  47.66200 31.76600 23.45400
C  46.93700 30.53000 23.13200
N  45.94600 32.46900 28.50200
C  45.77400 31.42300 27.58000
C  45.03800 30.35100 28.19900
C  44.95000 30.76300 29.52600
C  45.56400 32.01500 29.65200
C  44.43700 29.15800 27.44200
C  44.46300 30.33200 30.82200
O  43.75100 29.39700 31.13100
C  44.99000 31.37000 31.83100
C  45.67500 30.84600 32.97400
O  46.87900 30.55600 32.92400
O  44.79000 30.67900 33.95200
C  45.39800 30.12200 35.19300
H  47.29200 37.90800 30.99400
H  48.24400 36.46400 24.61700
H  45.71800 30.84600 25.64400
H  45.15300 34.19300 33.28600
H  46.94400 36.43700 32.98100
H  45.08900 37.50000 33.30100
H  44.10500 36.15000 32.92100
H  44.66100 37.11800 31.50500
H  48.00100 34.70500 33.84700
H  47.68800 33.07300 33.29100
H  47.23900 32.69700 35.64600
H  45.75200 33.29500 35.22900
H  47.34300 40.47300 28.65000
H  49.09100 40.32900 28.87800
H  47.97700 39.80800 30.11500
H  49.10500 41.13100 25.32000
H  49.81700 40.50500 26.84700
H  48.11300 41.09200 26.65100
H  48.29800 34.15600 23.48900
H  45.76900 32.79400 23.63400
H  45.71100 34.51500 22.23700
H  47.10000 35.67300 22.18900
H  45.92300 35.93000 23.29200
H  48.42800 31.50600 24.18400
H  48.19400 32.04600 22.54500
H  46.96800 30.42600 22.04700
H  45.88500 30.55400 23.41600
H  47.47200 29.66700 23.52700
H  43.51800 29.59100 27.04700
H  44.19400 28.32600 28.10300
H  45.08900 28.72100 26.68600
H  44.04000 31.79300 32.15900
H  45.47500 30.94000 35.91000
H  46.41200 29.72600 35.14600
H  44.61200 29.43000 35.49600

