158

Mg 47.80800 16.03600 28.44300
C  45.84600 15.90200 31.33900
C  50.14000 17.74000 30.12300
C  49.49700 16.58300 25.45500
C  45.14800 14.76800 26.60700
N  47.93200 16.74900 30.54100
C  47.03300 16.59600 31.58000
C  47.59800 17.24400 32.85000
C  48.81400 18.08700 32.25000
C  48.97400 17.47600 30.88700
C  48.58200 19.55300 32.27300
C  47.91200 16.14200 33.96800
C  48.58700 16.52800 35.26800
H  48.59900 17.95800 35.86900
N  49.59000 16.89400 27.88000
C  50.42500 17.49900 28.81600
C  51.63800 17.88800 28.13900
C  51.50900 17.45700 26.72400
C  50.14400 16.96600 26.63300
C  52.90200 18.46300 28.97800
C  52.61300 17.56700 25.61500
O  52.34500 17.24400 24.48100
C  54.01900 18.10900 25.91700
N  47.35400 15.75900 26.38000
C  48.19900 16.02300 25.33800
C  47.58700 15.84900 23.99100
C  46.32600 15.04100 24.34200
C  46.26100 15.17800 25.88100
C  47.22800 17.23600 23.30600
C  46.49900 13.53000 23.97400
C  45.84900 13.09900 22.58700
N  45.84700 15.41800 28.78400
C  44.91400 14.84100 28.01300
C  43.71700 14.52600 28.79800
C  44.10800 14.86400 30.10200
C  45.37200 15.45700 30.07600
C  42.45800 13.86700 28.25400
C  43.64400 14.83600 31.47200
O  42.64200 14.36200 31.93800
C  44.78400 15.56400 32.36900
C  44.19200 16.77900 32.99600
O  44.25000 17.91400 32.63200
O  43.53400 16.41800 34.16400
C  42.87100 17.44000 34.91400
H  50.75300 18.50600 30.60300
H  50.08300 16.62600 24.53500
H  44.32500 14.46600 25.95600
H  46.87700 17.79900 33.44900
H  49.73600 17.87800 32.79200
H  48.10900 19.81800 31.32800
H  49.53500 20.08100 32.28500
H  47.91900 19.93300 33.05000
H  48.55900 15.39000 33.51700
H  46.95500 15.71300 34.26600
H  49.63700 16.24100 35.22100
H  48.18000 15.83400 36.00300
H  53.19900 19.30300 28.34900
H  53.68300 17.76300 29.27200
H  52.53100 18.88400 29.91200
H  54.01600 19.19100 25.78700
H  54.64200 17.70400 25.12000
H  54.32500 17.74000 26.89600
H  48.34500 15.17800 23.58900
H  45.43900 15.44800 23.85700
H  47.39900 18.06900 23.98800
H  46.23800 17.18100 22.85300
H  47.79900 17.57700 22.44300
H  46.08800 12.85700 24.72600
H  47.56400 13.30000 23.93900
H  44.87900 12.62200 22.72700
H  46.54900 12.35000 22.21800
H  45.78800 13.91000 21.86100
H  41.59500 14.08600 28.88300
H  42.69700 12.80500 28.20700
H  42.21000 14.20900 27.24900
H  45.22900 14.89400 33.10400
H  41.92000 17.50600 34.38600
H  43.24800 18.46000 34.99400
H  42.56800 17.08800 35.90000
Mg 6.43300 54.37600 39.68000
C  5.91300 50.95800 39.50900
C  9.67600 53.96400 39.04700
C  6.63600 57.60700 39.03400
C  2.91800 54.70700 39.95800
N  7.59400 52.66400 39.19600
C  7.26600 51.37800 39.25000
C  8.50000 50.53200 38.84100
C  9.66500 51.46700 39.09300
C  8.94700 52.81600 39.15800
C  10.30600 51.23400 40.53200
C  8.41000 50.04000 37.41400
C  8.48500 51.12300 36.37000
H  7.17300 51.51500 35.57400
N  7.95100 55.62000 39.06800
C  9.22600 55.29500 38.89800
C  10.09900 56.50200 38.64100
C  9.19200 57.59400 38.55700
C  7.82600 56.99600 38.92500
C  11.60400 56.60400 38.41400
C  9.58000 59.07400 38.38400
O  10.74700 59.39400 38.37400
C  8.51600 60.11300 38.35000
N  5.01800 55.98800 39.38100
C  5.42100 57.27000 39.38200
C  4.30700 58.24900 39.73500
C  3.12200 57.35100 39.99800
C  3.71500 55.90100 39.79000
C  4.66500 59.17000 40.93700
C  1.88700 57.50000 39.02700
C  0.72900 58.21800 39.68400
N  4.67700 53.14300 39.82600
C  3.33300 53.41700 39.98100
C  2.58000 52.09100 40.13700
C  3.58800 51.11200 39.99100
C  4.81900 51.79300 39.72000
C  1.03400 51.90700 40.48800
C  3.86800 49.68700 40.03800
O  3.13000 48.72900 40.15200
C  5.41100 49.55500 39.78800
C  5.41000 48.69900 38.61000
O  4.96400 48.86300 37.51000
O  6.09000 47.47800 38.86700
C  6.05200 46.46600 37.82000
H  10.74800 53.89000 38.85200
H  6.53900 58.66900 38.79800
H  1.86800 54.92900 40.15600
H  8.63200 49.64300 39.45800
H  10.43900 51.47000 38.32500
H  10.10800 50.23700 40.92400
H  9.98600 52.01100 41.22800
H  11.39500 51.20100 40.52400
H  7.51500 49.43500 37.27000
H  9.12400 49.23600 37.23600
H  9.11300 50.70500 35.58300
H  9.03900 52.01100 36.67400
H  11.84300 56.85000 37.38000
H  12.13900 55.67100 38.59200
H  12.10300 57.37400 39.00300
H  9.12500 61.00700 38.21900
H  7.89400 60.20600 39.24100
H  7.79000 59.89800 37.56600
H  4.06200 58.87300 38.87600
H  2.75200 57.39500 41.02300
H  5.74800 59.17900 41.06100
H  4.26100 58.70400 41.83600
H  4.30000 60.19200 40.83300
H  1.56400 56.64300 38.43500
H  2.20600 58.22500 38.27800
H  -0.02000 58.47600 38.93500
H  1.21000 59.02700 40.23400
H  0.31000 57.52000 40.40800
H  0.68800 52.92400 40.67300
H  0.93700 51.35000 41.42000
H  0.52000 51.46900 39.63300
H  6.04000 48.99300 40.47900
H  7.03400 46.00000 37.73900
H  5.87000 46.85400 36.81800
H  5.34700 45.65900 38.01900

