158

Mg 24.46200 -5.96100 47.57000
C  27.06200 -3.90000 46.38400
C  22.46300 -4.47500 45.11800
C  22.05700 -8.30100 48.31500
C  26.70200 -7.68300 49.45800
N  24.81000 -4.46900 45.78900
C  25.90100 -3.66900 45.66500
C  25.66300 -2.67500 44.48300
C  24.13700 -2.62800 44.35900
C  23.74000 -3.95100 45.11900
C  23.48900 -1.18100 44.71900
C  26.41900 -3.22500 43.13900
C  27.25400 -2.08800 42.46300
H  26.96500 -1.77500 40.97400
N  22.44900 -6.28400 46.88100
C  21.89400 -5.64100 45.76400
C  20.54900 -6.24100 45.53900
C  20.42100 -7.25700 46.56900
C  21.57900 -7.31000 47.38600
C  19.59700 -5.69000 44.45800
C  19.14800 -8.04100 46.81100
O  18.14800 -7.85200 46.14900
C  19.01300 -9.13500 47.91200
N  24.40400 -7.63500 48.69800
C  23.31100 -8.41200 48.93600
C  23.66700 -9.81800 49.53900
C  25.13800 -9.49500 50.15100
C  25.45500 -8.21100 49.38000
C  22.72100 -10.41200 50.68900
C  26.17100 -10.69200 50.10000
C  26.71100 -11.12400 51.45000
N  26.50000 -5.84600 47.93200
C  27.24500 -6.59400 48.79400
C  28.59300 -6.08300 48.75800
C  28.53000 -5.04300 47.91600
C  27.24000 -4.93600 47.36900
C  29.76000 -6.41200 49.57700
C  29.28100 -3.86700 47.39600
O  30.37500 -3.40200 47.63100
C  28.36800 -3.21000 46.30800
C  28.41300 -1.70300 46.35800
O  28.75900 -0.97900 45.44500
O  27.97600 -1.20600 47.56900
C  27.51400 0.14200 47.40400
H  21.81500 -4.02500 44.36300
H  21.35800 -9.13300 48.42000
H  27.37700 -8.30000 50.05500
H  26.01500 -1.70900 44.84500
H  23.82300 -2.69400 43.31700
H  24.33300 -0.50200 44.84200
H  22.84400 -1.37900 45.57500
H  22.85900 -0.95400 43.85900
H  25.69300 -3.75100 42.51800
H  27.18200 -3.91200 43.50300
H  28.31900 -2.29500 42.57000
H  27.15000 -1.15600 43.01900
H  18.84500 -4.95000 44.73300
H  19.16100 -6.49800 43.87200
H  20.17500 -5.16600 43.69700
H  18.01900 -9.56800 47.80200
H  19.03000 -8.85600 48.96600
H  19.76500 -9.88500 47.66800
H  23.77200 -10.57000 48.75700
H  25.04400 -9.16600 51.18600
H  22.44500 -11.43100 50.41800
H  21.84400 -9.78200 50.84100
H  23.24200 -10.30000 51.64000
H  27.01500 -10.42600 49.46300
H  25.58600 -11.52000 49.69900
H  27.72200 -11.47900 51.25200
H  26.18400 -12.03200 51.74100
H  26.65800 -10.35600 52.22200
H  29.59400 -7.36000 50.09000
H  29.73600 -5.63700 50.34300
H  30.69400 -6.48000 49.02000
H  28.71800 -3.49600 45.31600
H  28.27300 0.89200 47.62600
H  26.66900 0.20400 48.09000
H  27.00000 0.46000 46.49700
Mg -2.40600 34.60300 26.74400
C  -4.02900 32.68700 29.21600
C  -1.04100 36.52000 29.22100
C  -1.18700 36.62900 24.43600
C  -4.34700 32.98900 24.30600
N  -2.46900 34.48900 28.95300
C  -3.19000 33.70500 29.73100
C  -2.85300 34.00100 31.21600
C  -1.88600 35.28800 31.12700
C  -1.79600 35.42500 29.65700
C  -2.51400 36.46500 31.95700
C  -2.21300 32.77900 31.91700
C  -3.01100 32.19600 33.16600
H  -2.32200 32.07100 34.54100
N  -1.15700 36.29600 26.81800
C  -0.65900 36.90900 27.90800
C  0.22700 38.01600 27.50500
C  0.27600 37.91800 26.08400
C  -0.80500 36.98100 25.71800
C  0.87500 38.84100 28.54400
C  1.20100 38.69000 25.11300
O  1.15100 38.45100 23.94000
C  2.10000 39.71700 25.64000
N  -3.01100 34.95700 24.66300
C  -2.24000 35.80300 24.01700
C  -2.72900 35.84700 22.55900
C  -3.54700 34.56800 22.40300
C  -3.65000 34.11200 23.86100
C  -3.54800 37.22100 22.23200
C  -2.75900 33.55400 21.50600
C  -1.67900 32.70400 22.21700
N  -3.91300 33.16100 26.72400
C  -4.47400 32.48100 25.64100
C  -5.21200 31.32100 26.15200
C  -5.04600 31.44400 27.57300
C  -4.25800 32.53700 27.85000
C  -6.00900 30.25900 25.34400
C  -5.46600 30.78500 28.83600
O  -6.10700 29.67700 28.95500
C  -4.93800 31.67300 29.94800
C  -6.04400 32.29700 30.69400
O  -6.72900 33.14400 30.16800
O  -6.10800 31.89700 32.07800
C  -6.99500 32.69500 32.97400
H  -0.59400 37.11500 30.02100
H  -0.89100 37.29900 23.62600
H  -4.82800 32.33700 23.57300
H  -3.73100 34.33700 31.76900
H  -0.90100 35.20100 31.58500
H  -2.74400 37.24400 31.23100
H  -1.82400 36.97700 32.62800
H  -3.43100 36.25400 32.50800
H  -1.23400 33.07400 32.29500
H  -1.99000 31.94700 31.24900
H  -3.25200 31.13800 33.06400
H  -3.94800 32.75300 33.16900
H  1.93200 38.96200 28.30600
H  0.86300 38.51900 29.58500
H  0.45600 39.84500 28.49100
H  2.70600 39.23900 26.41000
H  1.52200 40.54800 26.04500
H  2.80400 40.03600 24.87100
H  -1.86100 35.87200 21.90000
H  -4.52500 34.82000 21.99400
H  -3.84800 37.12800 21.18800
H  -2.89600 38.06000 22.47700
H  -4.48500 37.30200 22.78300
H  -2.12000 34.10000 20.81200
H  -3.44400 32.88300 20.98700
H  -0.86200 32.66300 21.49600
H  -2.09300 31.69500 22.20700
H  -1.32900 32.98000 23.21100
H  -5.54600 30.20300 24.35900
H  -7.08700 30.42000 25.34600
H  -5.78500 29.32800 25.86400
H  -4.31000 31.04000 30.57300
H  -6.31800 33.38800 33.47300
H  -7.59200 32.07900 33.64700
H  -7.73400 33.31300 32.46400

