158

Mg 40.96800 8.31000 29.69400
C  42.68700 9.87600 32.33300
C  38.85800 7.20400 32.04200
C  39.21800 6.81000 27.22600
C  43.51300 9.12800 27.54700
N  40.82800 8.42900 31.90500
C  41.59400 9.16500 32.76200
C  40.99800 9.15200 34.15600
C  39.95500 8.09600 34.10500
C  39.90100 7.89600 32.54400
C  40.15600 6.64800 34.84000
C  40.44100 10.57400 34.64800
C  39.76600 10.61500 36.04700
H  40.11900 11.65400 37.13600
N  39.26400 7.22600 29.60400
C  38.50900 6.89500 30.72300
C  37.37200 6.12600 30.30100
C  37.31600 6.20300 28.88100
C  38.64500 6.74100 28.48700
C  36.44100 5.42000 31.30600
C  36.33500 5.80000 27.89000
O  36.47100 6.05200 26.67300
C  35.14100 5.21100 28.31900
N  41.41700 7.79300 27.69800
C  40.48300 7.21000 26.88200
C  41.03500 7.20500 25.43500
C  42.43100 8.03200 25.53400
C  42.49700 8.27800 27.03600
C  41.07500 5.86300 24.68500
C  42.61600 9.24000 24.64400
C  42.04500 10.63200 25.12100
N  42.79700 9.24500 29.86500
C  43.68000 9.56400 28.91700
C  44.67000 10.41400 29.41600
C  44.29600 10.65700 30.77200
C  43.17700 9.87000 31.01100
C  45.79800 11.03300 28.66100
C  44.63200 11.33200 32.00500
O  45.59700 12.10600 32.24600
C  43.58800 10.87900 33.09500
C  44.29400 10.26200 34.21600
O  44.50500 9.03600 34.45200
O  44.57400 11.23000 35.15600
C  44.97200 10.72000 36.46900
H  38.18400 6.90300 32.84700
H  38.65100 6.28900 26.45200
H  44.16200 9.54600 26.77400
H  41.84900 8.81900 34.74900
H  38.99300 8.33200 34.55900
H  39.29800 6.44300 35.48000
H  41.01000 6.78900 35.50200
H  40.30300 5.82500 34.14000
H  39.82500 10.88500 33.80500
H  41.35200 11.15000 34.81300
H  39.85300 9.61700 36.47700
H  38.70700 10.81300 35.88000
H  35.57800 4.87400 30.92500
H  36.09600 6.08600 32.09700
H  37.08900 4.69300 31.79700
H  34.72600 6.01400 28.92900
H  35.30800 4.22700 28.75800
H  34.55600 5.01500 27.42100
H  40.37200 7.91700 24.94300
H  43.26600 7.36800 25.31200
H  41.09100 5.04900 25.40900
H  42.00300 5.80200 24.11500
H  40.19100 5.72300 24.06200
H  42.14900 8.88000 23.72800
H  43.69400 9.36400 24.53600
H  41.71100 10.65800 26.15800
H  41.13900 10.91400 24.58500
H  42.82100 11.39700 25.10100
H  45.47100 11.99000 28.25400
H  46.21200 10.43100 27.85200
H  46.55200 11.31000 29.39700
H  43.08500 11.81800 33.32300
H  44.56400 11.32500 37.27800
H  46.04500 10.60100 36.61800
H  44.73200 9.68000 36.69000
Mg 53.54500 23.78000 44.40400
C  50.96100 26.00400 43.68300
C  51.51300 21.14100 43.27100
C  56.28800 21.75500 44.12200
C  55.47800 26.47400 45.29000
N  51.46800 23.61000 43.68800
C  50.63600 24.65600 43.35400
C  49.31500 24.11800 42.87900
C  49.46300 22.56200 43.11700
C  50.91200 22.39500 43.42200
C  48.52800 21.90700 44.11000
C  49.11500 24.48100 41.32100
C  47.69400 24.82000 40.94500
H  47.30300 24.17900 39.50800
N  53.86100 21.65600 43.76700
C  52.89300 20.82800 43.26300
C  53.47900 19.51400 42.95000
C  54.82900 19.70400 43.07700
C  55.10100 21.05200 43.69000
C  52.69000 18.33500 42.63200
C  55.83600 18.62000 42.85500
O  55.55500 17.43200 42.56700
C  57.32400 18.91300 42.91600
N  55.62400 24.04100 44.67000
C  56.49800 23.10200 44.53600
C  57.90800 23.63800 44.75800
C  57.67100 25.12400 45.24800
C  56.14300 25.24300 45.05400
C  58.74300 22.79300 45.75300
C  58.38000 26.15300 44.41700
C  59.03900 27.30700 45.13600
N  53.34400 25.85500 44.54300
C  54.15000 26.80800 45.03900
C  53.47700 28.09000 45.16700
C  52.22000 27.78900 44.55900
C  52.17100 26.43400 44.24600
C  53.91300 29.46300 45.71500
C  50.96800 28.35000 44.16800
O  50.49800 29.47600 44.32100
C  50.17400 27.21500 43.42500
C  49.89500 27.66700 42.06500
O  50.72900 27.86700 41.17700
O  48.51900 27.80300 41.92800
C  48.14600 28.38800 40.60400
H  50.91700 20.22900 43.19300
H  57.15700 21.09500 44.08200
H  56.17100 27.29300 45.49800
H  48.51200 24.52200 43.49500
H  49.20300 21.99100 42.22600
H  47.63500 22.49400 44.32900
H  48.98500 21.78900 45.09300
H  48.15000 20.95500 43.73800
H  49.29700 23.50400 40.87400
H  49.83500 25.21900 40.96900
H  47.52500 25.89500 41.00700
H  47.01600 24.39400 41.68400
H  51.86100 18.55600 41.96000
H  52.32600 17.77400 43.49300
H  53.30500 17.63900 42.06100
H  57.71700 19.79700 42.41400
H  57.74600 18.13000 42.28500
H  57.62500 18.92700 43.96300
H  58.32900 23.60000 43.75400
H  57.70800 25.23000 46.33200
H  58.23600 21.89100 46.09800
H  58.96700 23.43900 46.60100
H  59.63900 22.40600 45.26600
H  57.82800 26.59900 43.58900
H  59.22000 25.63200 43.95900
H  60.12800 27.26400 45.15000
H  58.55600 27.50800 46.09200
H  58.82600 28.19800 44.54600
H  54.61400 29.82900 44.96400
H  54.60200 29.40100 46.55700
H  53.09000 30.16800 45.83600
H  49.33200 27.09100 44.10500
H  47.05600 28.39300 40.59800
H  48.42200 27.87000 39.68500
H  48.52500 29.39900 40.75400

