158

Mg 29.93500 58.90500 39.26900
C  27.23800 56.72500 38.40200
C  32.14200 56.39900 38.42300
C  32.38500 61.09000 39.61900
C  27.54500 61.50500 39.59600
N  29.70500 56.81000 38.50800
C  28.55000 56.22400 38.14400
C  28.92200 54.88700 37.33300
C  30.35000 54.55200 37.84400
C  30.80500 56.01800 38.27600
C  30.29200 53.60100 39.00000
C  28.74300 55.04000 35.77200
C  27.72500 54.14800 35.20700
H  26.49800 54.61000 34.37100
N  31.89000 58.74000 39.17400
C  32.67100 57.63600 38.90500
C  34.09100 57.91600 39.12700
C  34.26100 59.32800 39.46700
C  32.78400 59.82800 39.41500
C  35.15700 56.79900 39.01400
C  35.56400 60.02600 39.77100
O  36.64300 59.42200 39.84300
C  35.63000 61.49800 39.95800
N  29.92800 60.96400 39.44000
C  31.12000 61.61600 39.52200
C  30.89100 63.11300 39.70500
C  29.32900 63.27400 39.58500
C  28.92100 61.82200 39.52300
C  31.38100 63.72800 41.06400
C  28.91600 64.27200 38.45800
C  28.67900 65.72000 38.73700
N  27.86600 59.08000 39.26100
C  27.02100 60.23000 39.33400
C  25.68000 59.76700 39.11200
C  25.66500 58.41600 38.81900
C  27.07600 58.05100 38.85400
C  24.50000 60.63900 39.28300
C  24.81100 57.26900 38.40100
O  23.62200 57.13500 38.33800
C  25.80200 56.11600 38.09200
C  25.36800 54.99700 38.93300
O  25.65600 54.75200 40.11000
O  24.43700 54.28300 38.17700
C  23.83800 53.08500 38.80900
H  32.78900 55.55900 38.16500
H  33.23400 61.75400 39.79200
H  26.93200 62.40200 39.70800
H  28.21900 54.15400 37.72800
H  31.00300 54.19700 37.04600
H  29.29000 53.29100 39.29800
H  30.72400 54.08900 39.87400
H  30.98600 52.77200 38.86400
H  29.73400 55.02800 35.31800
H  28.33400 56.04500 35.66400
H  27.21000 53.66700 36.03900
H  28.27000 53.35800 34.69100
H  36.16000 57.22100 38.96500
H  35.04300 56.17200 38.13000
H  34.95100 56.15700 39.87100
H  36.66800 61.78500 40.12400
H  35.08300 61.72800 40.87300
H  35.28400 61.99700 39.05300
H  31.40800 63.64700 38.90800
H  28.92400 63.84200 40.42300
H  31.59500 64.76400 40.80200
H  32.37800 63.36500 41.31300
H  30.62100 63.57300 41.83000
H  28.04300 63.82800 37.98000
H  29.69200 64.19700 37.69600
H  27.60400 65.87900 38.82700
H  29.09500 66.24600 37.87800
H  29.29000 66.09800 39.55700
H  24.05900 60.77400 38.29500
H  24.91300 61.54000 39.73800
H  23.71300 60.16900 39.87300
H  25.71900 55.78300 37.05800
H  22.87100 52.87600 38.35200
H  23.65600 53.20900 39.87700
H  24.40200 52.17800 38.59100
Mg 8.91900 47.70900 27.90700
C  6.95000 47.20000 30.82400
C  11.67500 47.71900 29.90100
C  10.69600 48.47100 25.10700
C  5.95400 47.80700 25.92400
N  9.26300 47.44300 30.13700
C  8.33900 47.28300 31.10600
C  8.93000 47.20400 32.49800
C  10.46000 47.44200 32.25600
C  10.50400 47.45700 30.67300
C  11.09100 48.61900 33.05300
C  8.49400 45.95600 33.37000
C  9.51600 45.33700 34.38400
H  8.95500 44.78600 35.72400
N  10.84900 48.02200 27.54800
C  11.86800 48.00300 28.52700
C  13.14100 48.20700 27.83300
C  12.88300 48.55300 26.43200
C  11.40800 48.35800 26.30500
C  14.51300 48.03900 28.52600
C  13.86600 48.82300 25.25400
O  13.44700 49.25300 24.16300
C  15.19500 48.62600 25.43000
N  8.37600 47.83400 25.69800
C  9.33400 48.33600 24.85100
C  8.67400 48.70400 23.45500
C  7.15000 48.18700 23.67800
C  7.15600 47.97100 25.16600
C  8.58500 50.24100 23.19600
C  6.73000 46.99800 22.75300
C  5.77300 47.28900 21.53600
N  6.92500 47.67100 28.23600
C  5.82200 47.67000 27.36000
C  4.60300 47.52100 28.04400
C  4.99200 47.44400 29.40100
C  6.44600 47.39300 29.51300
C  3.32100 47.41300 27.28000
C  4.51600 47.24700 30.71700
O  3.34600 47.29000 31.10100
C  5.72100 47.00400 31.73200
C  5.60800 45.67600 32.23700
O  5.87300 44.61200 31.65800
O  5.12700 45.70300 33.48600
C  4.99500 44.34000 34.13100
H  12.54800 47.75900 30.55700
H  11.21300 48.66700 24.16600
H  5.09300 47.68800 25.26300
H  8.51600 48.06600 33.02000
H  11.02800 46.60900 32.67000
H  11.40800 49.37500 32.33500
H  11.93000 48.18900 33.60000
H  10.43000 49.15000 33.73900
H  8.11800 45.28300 32.60000
H  7.62800 46.19800 33.98700
H  10.25400 46.13500 34.45900
H  10.01700 44.56700 33.79700
H  14.90100 47.07500 28.19500
H  14.53900 47.99300 29.61400
H  15.16300 48.86900 28.25200
H  15.56200 49.30900 26.19600
H  15.77300 48.72900 24.51100
H  15.29500 47.59600 25.77300
H  9.13900 48.13600 22.65000
H  6.36400 48.87600 23.36700
H  7.68300 50.49800 22.64000
H  9.44600 50.57200 22.61500
H  8.64600 50.74400 24.16100
H  6.13100 46.33100 23.37400
H  7.64600 46.47300 22.48400
H  4.75700 46.91400 21.66100
H  6.23900 46.76100 20.70500
H  5.64100 48.34000 21.27800
H  2.39700 47.66200 27.80200
H  3.23300 46.40500 26.87600
H  3.27200 48.06500 26.40800
H  5.72000 47.62000 32.63100
H  5.91300 43.85500 34.46500
H  4.41900 43.63500 33.53100
H  4.43700 44.44200 35.06200

