158

Mg 41.15200 9.58200 29.58500
C  43.23900 10.67900 32.14400
C  38.83700 8.76000 31.88800
C  39.30100 8.49400 27.07400
C  43.81800 10.08000 27.19300
N  41.18700 9.66500 31.86500
C  41.95600 10.22900 32.73800
C  41.34200 10.31700 34.15800
C  39.93700 9.70500 33.89500
C  40.00400 9.34600 32.42100
C  39.51500 8.52700 34.84800
C  41.31300 11.79600 34.70700
C  40.54000 11.97000 35.98100
H  41.08700 12.76900 37.18700
N  39.32900 8.66400 29.48600
C  38.49600 8.41100 30.54100
C  37.29100 7.63100 30.10200
C  37.39300 7.64300 28.63600
C  38.69200 8.33500 28.35900
C  36.16800 7.18300 31.00400
C  36.49500 7.11300 27.54800
O  36.63800 7.22500 26.32700
C  35.22700 6.40500 27.96000
N  41.55700 9.04800 27.53300
C  40.58700 8.77700 26.65500
C  40.98600 8.95300 25.18800
C  42.33300 9.78300 25.27100
C  42.57900 9.52100 26.76800
C  40.96100 7.59600 24.43400
C  42.14900 11.27500 24.76100
C  41.29100 12.22100 25.61700
N  43.00400 10.35300 29.57800
C  43.95300 10.51100 28.52100
C  45.18100 11.04300 29.12600
C  44.87100 11.21500 30.52200
C  43.59600 10.68300 30.71000
C  46.42600 11.45200 28.39200
C  45.41700 11.77300 31.77700
O  46.47300 12.36800 32.02300
C  44.31500 11.41900 32.89700
C  45.07200 10.60100 33.97200
O  45.90400 9.71500 33.79500
O  44.68600 11.02700 35.21500
C  45.31100 10.39400 36.31400
H  37.97900 8.59500 32.54300
H  38.71800 8.14200 26.22000
H  44.56700 10.27800 26.42300
H  42.00900 9.70200 34.76100
H  39.21300 10.51800 33.93100
H  38.73400 8.94000 35.48500
H  40.33800 8.17900 35.47300
H  39.04200 7.70300 34.31500
H  41.10100 12.51200 33.91300
H  42.29900 12.16100 34.99600
H  40.12500 11.01600 36.30800
H  39.71100 12.58900 35.63700
H  35.18900 7.38300 30.56800
H  36.25900 7.50300 32.04200
H  36.36100 6.11800 31.13200
H  35.39500 5.68500 28.76000
H  34.89200 5.82800 27.09800
H  34.43800 7.05500 28.33800
H  40.17500 9.55800 24.78200
H  43.14500 9.35200 24.68500
H  40.57100 7.67000 23.41900
H  40.34900 6.91000 25.02100
H  41.91600 7.08300 24.32200
H  41.43300 11.27600 23.93900
H  43.09400 11.67700 24.39600
H  40.95000 11.72300 26.52500
H  40.50500 12.72400 25.05500
H  41.95500 13.03600 25.90500
H  46.64300 10.79200 27.55200
H  47.31600 11.31400 29.00600
H  46.32900 12.51000 28.14700
H  43.96000 12.36600 33.30400
H  45.58400 9.34600 36.19300
H  44.69300 10.62000 37.18300
H  46.23100 10.94500 36.50900
Mg 16.42000 52.09000 26.08400
C  18.26400 50.41100 28.57800
C  14.10900 53.00100 28.60200
C  14.82100 53.96700 23.83300
C  18.70000 51.07200 23.71300
N  16.23800 51.79300 28.36200
C  17.14500 51.14700 29.14200
C  16.74000 51.14100 30.62800
C  15.23200 51.66200 30.50200
C  15.22300 52.27600 29.08200
C  14.21200 50.53900 30.75100
C  17.67600 52.12000 31.42900
C  18.05900 51.64600 32.82400
H  17.15300 52.10500 33.98600
N  14.72200 53.31300 26.18500
C  13.92700 53.51800 27.32300
C  12.74200 54.20800 26.82900
C  12.95300 54.67000 25.50800
C  14.22200 53.91800 25.10600
C  11.55200 54.61300 27.78200
C  12.11800 55.59500 24.56100
O  12.42300 55.75600 23.42000
C  10.86000 56.16700 25.07500
N  16.77200 52.48700 24.11000
C  16.02800 53.43900 23.41500
C  16.41200 53.54600 21.96700
C  17.88200 52.87600 21.98000
C  17.72700 52.07100 23.33600
C  15.38500 53.09800 20.90400
C  19.13900 53.85600 21.97700
C  19.64400 54.27700 20.50000
N  18.01000 50.71400 26.01200
C  18.88200 50.39900 24.96800
C  19.97700 49.63700 25.45400
C  19.77100 49.57700 26.81600
C  18.53800 50.26900 27.15600
C  21.12900 49.06000 24.62200
C  20.38200 49.20800 28.10000
O  21.44900 48.64700 28.35400
C  19.43100 49.70300 29.28500
C  18.89800 48.47900 30.03100
O  18.23300 47.58100 29.60600
O  19.49600 48.51500 31.22300
C  19.07300 47.50400 32.15200
H  13.34600 53.20100 29.35600
H  14.37900 54.64400 23.09800
H  19.55100 51.07400 23.02800
H  16.73700 50.16700 31.11600
H  15.05300 52.43500 31.24900
H  13.59100 50.75700 31.62000
H  14.72000 49.57500 30.77700
H  13.46400 50.56100 29.95900
H  17.19200 53.09400 31.48700
H  18.58200 52.34100 30.86600
H  19.04200 52.04300 33.07600
H  18.10800 50.55800 32.85600
H  11.30300 55.67100 27.70000
H  11.80900 54.39500 28.81900
H  10.63700 54.07200 27.54000
H  10.21700 55.44100 25.57300
H  10.25100 56.61600 24.29100
H  11.20100 56.88900 25.81700
H  16.58900 54.61000 21.81000
H  17.96100 52.15500 21.16500
H  15.85700 52.38700 20.22600
H  15.13500 53.99200 20.33200
H  14.55700 52.60000 21.40900
H  19.89300 53.23200 22.45600
H  19.09600 54.70100 22.66500
H  19.42700 55.33800 20.62000
H  18.99000 53.95000 19.69100
H  20.67700 54.03800 20.25000
H  22.09800 49.48600 24.88200
H  20.92800 49.12200 23.55300
H  21.36100 48.02800 24.88700
H  19.93500 50.46500 29.88000
H  19.39500 47.97900 33.07900
H  19.53900 46.54000 31.95000
H  18.00100 47.38600 32.30800

