158

Mg 29.91100 57.21600 41.11100
C  27.05000 55.82300 39.65600
C  31.83000 55.04400 39.29900
C  32.61900 59.23500 41.72300
C  27.86100 59.89500 42.31600
N  29.41400 55.66500 39.53800
C  28.22200 55.15300 39.24500
C  28.32800 53.81700 38.45600
C  29.88200 53.61800 38.35300
C  30.43500 54.82700 39.14200
C  30.45200 52.21700 38.86200
C  27.51500 53.81600 37.12100
C  27.29100 55.09400 36.33300
H  27.76000 55.08100 34.82700
N  31.90200 57.00700 40.79700
C  32.49500 56.03400 40.04400
C  33.94500 56.24400 39.99500
C  34.25700 57.47300 40.71600
C  32.88300 57.99500 41.10800
C  34.85300 55.28500 39.39800
C  35.62300 58.03400 40.86400
O  36.62600 57.47500 40.45700
C  35.84200 59.37100 41.43700
N  30.14500 59.25500 41.90700
C  31.38300 59.84900 42.06000
C  31.32100 61.36300 42.49200
C  29.88400 61.40900 43.02400
C  29.20700 60.15000 42.36400
C  32.53900 61.78900 43.42700
C  29.21800 62.72300 42.75200
C  28.63300 63.42300 43.90700
N  27.88000 57.69800 41.11400
C  27.21800 58.77200 41.68500
C  25.81100 58.53500 41.55500
C  25.66900 57.38500 40.79800
C  26.93600 56.96600 40.47000
C  24.69300 59.39400 42.10100
C  24.74100 56.51900 40.13400
O  23.51200 56.49800 40.05800
C  25.62500 55.41300 39.36200
C  25.34100 54.04400 39.95200
O  25.79000 53.53200 40.99300
O  24.33900 53.51000 39.24800
C  23.94400 52.16800 39.70400
H  32.44700 54.39500 38.67400
H  33.43000 59.95800 41.83500
H  27.27900 60.69600 42.77700
H  27.96400 52.99000 39.06500
H  30.18800 53.62400 37.30700
H  31.11900 52.27400 39.72300
H  31.07100 51.73000 38.10900
H  29.63300 51.56000 39.15400
H  26.53100 53.41800 37.36900
H  27.87700 52.98500 36.51600
H  27.74900 55.92400 36.87200
H  26.22000 55.27800 36.25000
H  35.80400 55.74700 39.13200
H  34.45800 54.92000 38.45000
H  35.03400 54.43700 40.05800
H  35.39200 60.10700 40.77100
H  36.91300 59.52700 41.56700
H  35.35800 59.55300 42.39700
H  31.43600 61.98800 41.60700
H  29.93300 61.27900 44.10500
H  33.26800 62.41000 42.90500
H  33.06100 60.91200 43.80900
H  32.13200 62.32600 44.28400
H  28.47500 62.52400 41.97900
H  29.87000 63.43300 42.24500
H  27.61100 63.69300 43.63900
H  29.28400 64.26100 44.15400
H  28.56800 62.84200 44.82700
H  24.24200 60.01100 41.32400
H  25.04400 60.01600 42.92400
H  23.89400 58.81700 42.56600
H  25.25600 55.47500 38.33800
H  23.24500 51.79300 38.95700
H  23.48500 52.21800 40.69200
H  24.84600 51.55800 39.75000
Mg 17.44000 52.61000 26.25700
C  18.96300 51.34300 29.10400
C  14.85100 53.88000 28.18100
C  16.01500 53.54100 23.36500
C  19.92800 50.88900 24.42300
N  16.98700 52.55100 28.38700
C  17.77400 51.96900 29.40900
C  17.18800 52.38700 30.81500
C  15.79700 52.97500 30.40900
C  15.86900 53.18900 28.89600
C  14.60300 52.14500 30.79300
C  18.14500 53.44900 31.46900
C  18.31000 53.37400 32.99700
H  17.09200 53.04800 33.91800
N  15.72600 53.70400 25.81400
C  14.82300 54.14200 26.76600
C  13.91700 54.95900 26.09100
C  14.25300 54.96300 24.63200
C  15.36200 54.07500 24.54100
C  12.89500 55.72500 26.87400
C  13.53800 55.60300 23.49500
O  13.98300 55.51500 22.38200
C  12.41700 56.51500 23.76700
N  17.79400 52.12100 24.14400
C  17.12300 52.76000 23.17800
C  17.71400 52.51200 21.72600
C  19.18800 51.96000 22.21000
C  19.02100 51.63600 23.67500
C  16.91000 51.62400 20.78500
C  20.35400 53.01100 22.01900
C  21.64900 52.49000 21.44100
N  19.12400 51.36400 26.62300
C  19.94100 50.71000 25.77200
C  20.89000 49.91400 26.51600
C  20.52200 50.12900 27.83600
C  19.41800 50.99400 27.84700
C  22.02700 49.02900 26.05200
C  20.84300 49.82800 29.20000
O  21.72000 49.24100 29.84300
C  19.84300 50.66900 30.07400
C  19.21000 49.78600 31.03200
O  18.33500 49.01000 30.71400
O  19.79100 49.87600 32.31000
C  19.04200 49.14600 33.32100
H  13.99000 54.19100 28.77600
H  15.68500 53.91500 22.39400
H  20.68300 50.42900 23.78200
H  17.04800 51.51300 31.45100
H  15.57000 53.91700 30.90900
H  13.99800 52.74200 31.47500
H  14.95100 51.32900 31.42700
H  14.15800 51.77900 29.86800
H  17.73800 54.44100 31.27400
H  19.02500 53.60500 30.84500
H  18.76100 54.29400 33.37100
H  19.18500 52.73100 33.09900
H  12.12600 55.08200 27.30500
H  12.44200 56.53200 26.29900
H  13.36900 56.12500 27.77000
H  11.56900 56.03900 24.26100
H  12.12600 56.92600 22.80000
H  12.82600 57.31300 24.38700
H  17.83000 53.48800 21.25500
H  19.48900 51.08000 21.64100
H  15.98200 51.18000 21.14700
H  17.59300 50.82000 20.51000
H  16.62200 52.20100 19.90600
H  20.46500 53.56900 22.94800
H  19.93600 53.66700 21.25500
H  21.92200 53.17100 20.63500
H  21.42900 51.46900 21.12600
H  22.43500 52.60100 22.18800
H  22.69500 49.11800 26.90900
H  22.39300 49.38500 25.08900
H  21.72300 47.99100 25.91800
H  20.31100 51.41300 30.71900
H  17.96500 49.30200 33.37200
H  19.53300 49.30900 34.28000
H  19.22500 48.08400 33.15800

