158

Mg 41.00900 9.38400 30.12500
C  42.72900 10.89000 33.00100
C  38.63500 8.38700 32.21400
C  39.68700 7.79800 27.48500
C  43.80300 10.32000 28.26800
N  40.80600 9.57400 32.34200
C  41.52800 10.27300 33.39000
C  40.92600 10.10500 34.78300
C  39.65100 9.25800 34.41000
C  39.69100 9.06600 32.88300
C  39.51600 7.92500 35.31000
C  40.68700 11.47500 35.44200
C  40.83200 11.47200 37.01100
H  41.30500 12.77300 37.73500
N  39.35900 8.26200 29.84200
C  38.45000 8.01600 30.80300
C  37.31100 7.35400 30.15500
C  37.59900 7.17000 28.78300
C  38.94400 7.72300 28.65300
C  36.07300 7.00800 30.99500
C  36.76000 6.51400 27.63800
O  37.23800 6.34900 26.55100
C  35.35200 6.11400 27.94900
N  41.63000 9.19100 28.15300
C  40.85400 8.54500 27.17800
C  41.46100 8.73400 25.78100
C  42.70100 9.50700 26.06300
C  42.72800 9.64600 27.59900
C  41.59100 7.33100 25.02200
C  43.06500 10.84700 25.26200
C  42.43000 12.18300 25.76400
N  42.89400 10.32700 30.47600
C  43.87600 10.72500 29.62500
C  44.86400 11.54400 30.30300
C  44.39900 11.56800 31.61700
C  43.24100 10.82400 31.66600
C  46.11100 12.13800 29.70800
C  44.79600 12.16000 32.87000
O  45.73500 12.82100 33.13700
C  43.65600 11.63400 33.92000
C  44.27700 10.79600 34.96900
O  45.05100 9.79700 34.81500
O  44.05600 11.37100 36.24800
C  44.71000 10.75600 37.45700
H  37.84000 8.04100 32.87700
H  39.22800 7.29000 26.63400
H  44.68200 10.62400 27.69600
H  41.65600 9.48800 35.30700
H  38.85400 9.91700 34.75600
H  40.48300 7.45700 35.49700
H  39.01700 7.14800 34.73000
H  38.96000 8.06500 36.23700
H  39.64300 11.73800 35.27600
H  41.26600 12.29800 35.02300
H  41.64400 10.80100 37.29200
H  39.94800 11.17100 37.57300
H  35.87700 5.93600 31.03600
H  35.24700 7.40700 30.40700
H  36.02400 7.35700 32.02700
H  34.97000 5.77100 26.98800
H  34.87700 7.06300 28.19700
H  35.36300 5.43200 28.79900
H  40.67700 9.29600 25.27300
H  43.55000 8.83700 25.93000
H  40.89500 7.23600 24.18800
H  41.37000 6.54200 25.74200
H  42.59500 7.14500 24.64300
H  42.81500 10.72800 24.20700
H  44.15500 10.85900 25.25800
H  41.75300 12.50400 24.97300
H  43.17900 12.97100 25.84500
H  41.72600 12.01100 26.57900
H  46.62500 12.64000 30.52800
H  45.83200 12.86700 28.94600
H  46.73000 11.37900 29.22900
H  43.18700 12.52900 34.32900
H  45.68000 11.21100 37.65900
H  44.93300 9.70300 37.28900
H  44.11100 10.75300 38.36800
Mg 9.35500 48.13200 25.88000
C  7.26000 48.73300 28.60100
C  12.02200 49.11200 27.85600
C  11.31800 47.58700 23.30300
C  6.53400 47.82900 23.90000
N  9.58900 48.98700 27.98500
C  8.61000 48.95600 28.91700
C  9.16700 49.29100 30.34600
C  10.63700 49.66900 29.95100
C  10.76400 49.16800 28.50800
C  11.16400 51.10000 30.14300
C  9.15900 48.17000 31.53600
C  9.78900 48.53800 32.89400
H  9.14800 48.00700 34.22300
N  11.45100 48.35200 25.58900
C  12.37000 48.74700 26.54400
C  13.72000 48.59100 25.97700
C  13.46800 48.06600 24.60800
C  12.05000 48.07300 24.43300
C  15.00400 48.77200 26.77000
C  14.45700 47.58500 23.58600
O  14.16800 47.19600 22.44000
C  15.92200 47.46300 24.01000
N  8.96400 47.75100 23.80600
C  10.00300 47.52500 22.95600
C  9.41500 46.96900 21.60500
C  7.86300 47.05100 21.81700
C  7.73900 47.47800 23.24200
C  9.98200 47.75200 20.40300
C  7.02300 45.74400 21.52200
C  5.80700 45.97500 20.55500
N  7.35100 48.19400 26.15900
C  6.31800 48.04000 25.25900
C  5.01700 48.12300 25.89700
C  5.38700 48.42100 27.26000
C  6.77500 48.42900 27.33900
C  3.57800 47.98900 25.31700
C  4.82100 48.72700 28.55700
O  3.64800 48.82200 28.82700
C  6.04000 48.90100 29.49000
C  5.81400 47.79700 30.47200
O  5.62400 46.63000 30.23100
O  5.68000 48.30700 31.74500
C  5.19300 47.43200 32.76500
H  12.78900 49.27400 28.61600
H  12.01000 47.46400 22.46700
H  5.67600 47.69800 23.23700
H  8.70600 50.21300 30.70200
H  11.31900 49.06200 30.54600
H  10.42300 51.58900 30.77500
H  11.32500 51.67200 29.22900
H  12.09000 51.13700 30.71700
H  9.68600 47.32100 31.10100
H  8.12000 47.91600 31.74800
H  9.81100 49.62300 32.99500
H  10.82800 48.21800 32.97200
H  15.61900 49.53300 26.29000
H  15.52900 47.81900 26.70900
H  14.95200 49.14800 27.79200
H  16.55600 47.19100 23.16500
H  15.93300 46.75300 24.83600
H  16.14100 48.51200 24.21200
H  9.63400 45.90200 21.55600
H  7.53300 47.85400 21.15700
H  10.55500 48.64900 20.63600
H  9.16500 47.98500 19.72000
H  10.77700 47.12100 20.00600
H  6.79600 45.14600 22.40500
H  7.71700 45.17000 20.90800
H  5.59000 46.96100 20.14400
H  4.93900 45.54900 21.05800
H  6.05100 45.40800 19.65700
H  3.52300 47.50500 24.34200
H  3.04800 48.93600 25.21600
H  3.09600 47.30800 26.01800
H  5.98200 49.89900 29.92400
H  4.12500 47.30600 32.58900
H  5.39600 47.94300 33.70700
H  5.71500 46.47800 32.69800

