158

Mg 45.06700 3.65900 47.03800
C  43.17000 6.55800 46.93400
C  42.39700 1.78400 47.16200
C  47.14600 1.02600 46.28700
C  48.07300 5.89000 46.74200
N  43.03200 4.14800 46.88100
C  42.41500 5.35300 46.86800
C  40.90000 5.23700 46.93400
C  40.72900 3.68800 47.07800
C  42.14000 3.16500 47.05200
C  39.94900 3.10600 48.35500
C  40.07800 5.75200 45.72300
C  40.69600 5.68100 44.38700
H  40.98900 6.92400 43.59600
N  44.75800 1.70100 46.68900
C  43.56100 0.99600 46.87900
C  43.81300 -0.42600 46.69200
C  45.20200 -0.59800 46.35400
C  45.73600 0.78900 46.34900
C  42.76700 -1.48500 46.82500
C  45.85500 -1.88700 45.99300
O  45.24600 -2.94800 46.15400
C  47.25400 -1.94600 45.51600
N  47.36000 3.53100 46.76900
C  47.86000 2.30900 46.43900
C  49.40000 2.42500 46.27700
C  49.71500 3.91800 46.40800
C  48.31500 4.48700 46.71000
C  50.13800 1.53600 47.41000
C  50.50200 4.56400 45.20000
C  51.98400 4.77700 45.38000
N  45.60800 5.77300 46.99000
C  46.74500 6.49100 46.89300
C  46.49000 7.92600 46.87500
C  45.10000 8.04400 46.98600
C  44.61100 6.70500 46.94100
C  47.59600 8.99300 46.74000
C  43.95200 8.87900 47.06100
O  43.79500 10.08100 46.95800
C  42.67500 7.87500 46.98500
C  41.69700 8.22700 48.11100
O  41.67500 7.60800 49.17600
O  40.71700 9.00300 47.57300
C  39.49200 9.05300 48.33400
H  41.55300 1.10200 47.28200
H  47.93600 0.27700 46.19700
H  48.93100 6.54000 46.55400
H  40.38800 5.70100 47.77700
H  40.19900 3.21500 46.25100
H  39.26000 3.89000 48.67000
H  40.71700 2.89200 49.09800
H  39.44500 2.18200 48.07200
H  39.88800 6.82300 45.80200
H  39.09300 5.29300 45.81500
H  39.97900 5.01800 43.90300
H  41.65000 5.16600 44.50500
H  42.83000 -2.08500 45.91700
H  41.77100 -1.05600 46.71100
H  42.91600 -2.15200 47.67400
H  47.39800 -2.97800 45.19900
H  47.94800 -1.76400 46.33700
H  47.34600 -1.21500 44.71300
H  49.73700 2.18500 45.26800
H  50.28700 4.04400 47.32700
H  50.87700 2.21300 47.83900
H  50.67200 0.65500 47.05300
H  49.50000 1.23400 48.24000
H  50.11600 5.57000 45.03800
H  50.36600 4.04100 44.25300
H  52.22100 5.83800 45.46300
H  52.44000 4.32300 44.50000
H  52.33800 4.20000 46.23400
H  48.17500 8.70100 45.86400
H  48.17300 9.06600 47.66100
H  47.16900 9.99700 46.74600
H  42.14900 8.24800 46.10600
H  39.11200 8.03200 48.37200
H  38.74700 9.73700 47.93000
H  39.78500 9.40100 49.32400
Mg 34.76000 2.71000 30.19000
C  32.79300 3.54400 32.94600
C  37.44800 2.52200 32.33000
C  36.67300 2.20300 27.49400
C  31.94800 2.81800 28.17000
N  35.10100 3.20300 32.33800
C  34.11900 3.38700 33.33300
C  34.65100 3.34100 34.73900
C  36.16400 2.97400 34.52100
C  36.26000 2.84100 32.97000
C  37.19900 4.01800 35.00300
C  33.88500 2.20000 35.53900
C  33.59200 2.44200 37.00200
H  34.48200 3.48000 37.75100
N  36.79600 2.41600 29.94800
C  37.74500 2.31500 30.91200
C  39.10300 2.05500 30.30900
C  38.86000 2.03000 28.89100
C  37.40700 2.18200 28.70700
C  40.26100 1.97200 31.20600
C  39.84800 1.88800 27.74300
O  39.51000 1.78700 26.58300
C  41.33400 1.85100 28.01700
N  34.41600 2.58900 28.10900
C  35.36000 2.34300 27.19000
C  34.83800 2.34900 25.73000
C  33.33400 2.13100 26.08400
C  33.21400 2.55900 27.53900
C  35.22000 3.66900 24.99300
C  32.91500 0.67900 25.88800
C  32.12800 0.23200 24.62700
N  32.68300 3.04800 30.43300
C  31.67700 3.05500 29.54100
C  30.46200 3.51800 30.20400
C  30.86800 3.70600 31.52900
C  32.23500 3.40800 31.62200
C  29.13900 3.71400 29.60400
C  30.34300 4.16400 32.77400
O  29.20000 4.47800 33.09900
C  31.62800 4.11600 33.78600
C  31.90800 5.39100 34.43600
O  32.78300 6.22700 34.17400
O  31.02500 5.46600 35.50000
C  31.39000 6.53600 36.46700
H  38.22700 2.33800 33.07200
H  37.14300 2.27200 26.51100
H  31.08400 2.93600 27.51200
H  34.55600 4.29200 35.26200
H  36.51600 1.99900 34.85800
H  36.82800 4.90500 35.51600
H  37.82800 4.52000 34.26800
H  37.86900 3.58700 35.74600
H  34.48900 1.29300 35.56800
H  32.88900 2.00000 35.14500
H  33.76400 1.51700 37.55300
H  32.54000 2.70300 37.11500
H  41.01900 1.40900 30.66000
H  39.97500 1.54400 32.16700
H  40.88200 2.82500 31.47900
H  41.66900 0.94400 28.52000
H  41.66200 2.73000 28.57200
H  41.97600 1.97000 27.14400
H  35.22900 1.50600 25.16100
H  32.87400 2.80200 25.35900
H  36.26900 3.91100 25.16400
H  34.54300 4.45700 25.32300
H  35.10500 3.64600 23.90900
H  32.36600 0.23900 26.72000
H  33.80500 0.05900 25.77800
H  31.23700 -0.32000 24.92700
H  32.67300 -0.38700 23.91500
H  31.84200 1.12500 24.07200
H  28.83200 4.75900 29.64400
H  28.38700 3.15500 30.16100
H  29.09300 3.45600 28.54600
H  31.21900 3.37300 34.47100
H  30.92900 6.33000 37.43300
H  31.00500 7.47800 36.07800
H  32.47200 6.57400 36.59700

