158

Mg 25.01000 1.55000 29.40500
C  27.03100 1.55400 32.28700
C  22.27700 1.94500 31.43400
C  23.12800 1.21400 26.64400
C  27.82900 0.86600 27.50500
N  24.71700 1.67300 31.62700
C  25.72200 1.91300 32.60400
C  25.12200 2.21600 33.93800
C  23.52300 2.09200 33.67600
C  23.44300 1.91900 32.12800
C  22.82300 0.99500 34.54500
C  25.66100 3.58000 34.47900
C  26.36800 3.57500 35.83000
H  25.81900 4.63500 36.84700
N  23.00100 1.58500 29.12200
C  21.99300 1.70200 30.02300
C  20.67800 1.64500 29.43800
C  20.89800 1.45500 28.04500
C  22.41000 1.45400 27.84000
C  19.33100 1.82400 30.23500
C  19.82500 1.19600 26.98800
O  20.19200 1.17200 25.77100
C  18.44500 0.98900 27.42800
N  25.39900 1.06900 27.36900
C  24.47900 1.13700 26.37100
C  25.10300 1.43400 24.91900
C  26.60800 1.33300 25.21200
C  26.61300 1.02400 26.80000
C  24.53300 0.37600 23.93100
C  27.40500 2.53600 24.76900
C  27.31000 3.77500 25.50700
N  26.98100 1.07100 29.81000
C  27.98200 0.84300 28.95100
C  29.25400 0.68300 29.62700
C  28.94000 0.89000 31.01800
C  27.52000 1.11900 31.03200
C  30.51900 0.66600 29.02700
C  29.51800 1.04900 32.31700
O  30.64200 0.85000 32.82700
C  28.24800 1.56500 33.22100
C  28.28300 0.66200 34.41900
O  27.82300 -0.45100 34.41700
O  28.80500 1.36200 35.47100
C  29.14200 0.35700 36.53700
H  21.41600 2.18300 32.06200
H  22.53200 1.22500 25.72900
H  28.70500 0.86300 26.85300
H  25.31000 1.44600 34.68700
H  23.03000 2.98200 34.06700
H  23.53300 0.35600 35.07100
H  22.24700 0.29400 33.94200
H  22.15700 1.48400 35.25600
H  24.83700 4.28700 34.58100
H  26.39100 4.03500 33.81000
H  27.39400 3.76700 35.51600
H  26.49100 2.62900 36.35700
H  19.44600 2.09000 31.28500
H  18.86400 0.84600 30.35400
H  18.74300 2.64000 29.81400
H  18.32000 0.24200 28.21200
H  17.91400 0.77900 26.50000
H  18.13900 1.97300 27.78300
H  24.82200 2.40000 24.50000
H  26.99900 0.52900 24.58800
H  23.96100 0.95300 23.20400
H  23.95200 -0.41200 24.41100
H  25.36400 -0.06500 23.38100
H  27.00600 2.81700 23.79400
H  28.40700 2.11600 24.67900
H  26.72400 3.59800 26.40900
H  26.85400 4.67200 25.08600
H  28.34100 4.05700 25.72100
H  30.93100 -0.32800 28.85600
H  31.24800 1.14000 29.68400
H  30.53100 1.18400 28.06800
H  28.54600 2.57700 33.49300
H  28.26500 -0.13000 36.96400
H  29.72700 0.82700 37.32900
H  29.80900 -0.34100 36.03200
Mg 46.91700 16.94800 28.94000
C  45.43500 16.17300 31.96300
C  49.17700 18.81300 30.72200
C  48.43700 17.69900 25.97300
C  44.32400 15.52500 27.28700
N  47.27200 17.41000 31.17000
C  46.65400 16.89900 32.14800
C  47.19300 17.27900 33.55800
C  48.20100 18.41300 33.16800
C  48.23000 18.22300 31.61600
C  48.04800 19.83600 33.75700
C  47.74300 16.02200 34.38500
C  48.75700 16.19200 35.49400
H  48.47400 17.24200 36.61300
N  48.62300 18.07200 28.41200
C  49.36000 18.76400 29.33200
C  50.41900 19.41100 28.55200
C  50.34600 18.98400 27.18600
C  49.08100 18.19500 27.14600
C  51.36500 20.33600 29.23400
C  51.33400 19.22900 25.97000
O  51.10100 18.84400 24.82100
C  52.56800 19.84200 26.26800
N  46.51000 16.61700 26.87800
C  47.23400 17.09700 25.79500
C  46.58300 16.65500 24.44300
C  45.32800 15.79400 24.91900
C  45.36000 16.01200 26.46900
C  46.19000 17.84800 23.48100
C  45.24700 14.29700 24.56900
C  44.39200 14.01200 23.34000
N  45.20900 16.06800 29.50500
C  44.20000 15.53600 28.69600
C  43.14700 14.89100 29.47800
C  43.61600 15.12700 30.74300
C  44.84500 15.87100 30.74700
C  41.89500 14.17900 29.02500
C  43.26100 14.97100 32.17500
O  42.32500 14.46000 32.73100
C  44.43600 15.64700 32.91900
C  43.89400 16.73400 33.77000
O  43.25900 17.67200 33.31100
O  44.18400 16.55600 35.12500
C  43.67300 17.62500 36.02100
H  49.90500 19.44500 31.23600
H  48.81200 17.96700 24.98300
H  43.55100 14.89100 26.84700
H  46.43800 17.63100 34.26000
H  49.15700 18.02600 33.52000
H  47.00800 19.99500 34.04500
H  48.22400 20.47400 32.89100
H  48.82000 20.05600 34.49400
H  48.08400 15.31500 33.62900
H  46.83000 15.79500 34.93600
H  49.71100 16.42600 35.02100
H  48.91600 15.20800 35.93600
H  50.85000 20.94000 29.98100
H  51.67900 21.17300 28.61000
H  52.27400 19.97100 29.71100
H  53.29800 19.64200 25.48500
H  53.01000 19.44600 27.18300
H  52.42200 20.90200 26.47300
H  47.27200 16.00900 23.89900
H  44.39900 16.30900 24.67300
H  45.29100 17.49100 22.97900
H  46.95200 17.97400 22.71200
H  45.99200 18.75400 24.05300
H  44.97700 13.73000 25.46000
H  46.26600 14.08500 24.24500
H  43.85800 13.07200 23.47700
H  45.12800 13.83300 22.55600
H  43.58100 14.68300 23.05600
H  41.77600 13.22200 29.53400
H  41.94000 14.01400 27.94900
H  40.98600 14.75200 29.20700
H  44.89100 14.88800 33.55400
H  44.37900 17.77700 36.83700
H  42.71700 17.33800 36.45700
H  43.52200 18.60700 35.57100

