158

Mg -2.16100 34.70600 26.82600
C  -4.07700 33.31000 29.38600
C  -1.14200 37.12000 29.00700
C  -0.86500 36.22900 24.24900
C  -3.65500 32.28100 24.66500
N  -2.75200 35.22600 28.93100
C  -3.41700 34.48100 29.82100
C  -3.26100 34.97600 31.28900
C  -2.37900 36.24100 31.14200
C  -2.05400 36.21000 29.63300
C  -3.14600 37.57300 31.56500
C  -2.58500 33.88000 32.11300
C  -2.39000 34.33300 33.60900
H  -2.92100 33.51300 34.77700
N  -1.10100 36.38400 26.68200
C  -0.66700 37.21200 27.65700
C  0.17700 38.28400 27.13500
C  0.12600 38.12700 25.67600
C  -0.54100 36.85200 25.50100
C  0.65200 39.38600 28.00400
C  0.79400 38.98200 24.63400
O  0.63800 38.81500 23.41900
C  1.58400 40.11200 25.14500
N  -2.13400 34.16300 24.73500
C  -1.58900 35.08900 23.86100
C  -1.78900 34.53500 22.46700
C  -2.46700 33.12100 22.59000
C  -2.78200 33.16000 24.06600
C  -2.50300 35.46400 21.47200
C  -1.51200 31.96000 22.24200
C  -0.07700 31.80100 22.73700
N  -3.58800 33.17000 26.91800
C  -4.11900 32.29900 25.98700
C  -5.08700 31.38200 26.63200
C  -5.00800 31.67500 28.00000
C  -4.17500 32.81200 28.07900
C  -5.96500 30.30200 26.04900
C  -5.47700 31.27400 29.26400
O  -6.24400 30.37500 29.44400
C  -4.88300 32.32400 30.32500
C  -5.92000 32.90300 31.14900
O  -6.64100 33.79300 30.83000
O  -5.96600 32.29800 32.36400
C  -7.12000 32.57400 33.24700
H  -0.49400 37.61900 29.73100
H  -0.52100 36.57100 23.27100
H  -4.11900 31.46900 24.10200
H  -4.26800 35.13200 31.67700
H  -1.46700 36.15400 31.73300
H  -3.94100 37.51300 32.30700
H  -3.57000 38.06300 30.68800
H  -2.48700 38.28200 32.06700
H  -1.58500 33.72700 31.70600
H  -3.20700 32.98500 32.12800
H  -2.91800 35.27500 33.76200
H  -1.34500 34.62900 33.70300
H  1.73300 39.51100 27.94400
H  0.59800 39.10300 29.05600
H  0.05700 40.28400 27.84000
H  0.94700 40.77900 25.72500
H  2.13400 40.57700 24.32700
H  2.27100 39.73300 25.90200
H  -0.79100 34.36000 22.06600
H  -3.40300 33.13400 22.03100
H  -3.06300 36.17700 22.07600
H  -3.10700 35.00400 20.68900
H  -1.76600 35.99400 20.86900
H  -1.51200 31.88600 21.15400
H  -1.99800 31.04400 22.57600
H  0.08400 30.91000 23.34400
H  0.32900 32.69400 23.21300
H  0.49900 31.76900 21.81300
H  -5.96100 30.26800 24.95900
H  -6.97000 30.43500 26.45000
H  -5.54500 29.35900 26.40000
H  -4.23700 31.68000 30.92100
H  -7.94400 33.06900 32.73200
H  -7.03000 33.05800 34.21900
H  -7.50400 31.61400 33.59000
Mg -11.70400 16.19500 41.59300
C  -8.62000 14.54100 41.35200
C  -10.33400 18.80500 39.86500
C  -14.79700 17.55900 41.45500
C  -13.00300 13.17800 42.81900
N  -9.64300 16.59400 40.75700
C  -8.53600 15.75800 40.73900
C  -7.35000 16.38000 40.07800
C  -7.96600 17.83500 39.65900
C  -9.39700 17.78500 40.18800
C  -7.24400 19.13200 40.12200
C  -6.73000 15.65200 38.87300
C  -5.15300 15.88500 38.84600
H  -4.57200 16.59500 37.60600
N  -12.38800 18.00200 40.85500
C  -11.70200 18.91800 40.21400
C  -12.54800 20.01200 39.93400
C  -13.83400 19.79100 40.49000
C  -13.73200 18.41500 40.98500
C  -11.97600 21.21200 39.19700
C  -15.10800 20.65000 40.46100
O  -15.06300 21.78800 39.94500
C  -16.39400 20.28400 41.16500
N  -13.65700 15.49600 42.08900
C  -14.75900 16.19100 41.90900
C  -16.06300 15.34000 42.20600
C  -15.45100 13.94800 42.63500
C  -13.92100 14.19600 42.51200
C  -16.92700 15.93600 43.37900
C  -15.96300 12.75200 41.84400
C  -15.83500 11.42200 42.64000
N  -11.06200 14.26100 42.09900
C  -11.69400 13.15100 42.61900
C  -10.73900 12.06800 42.67200
C  -9.51700 12.55100 42.16700
C  -9.78200 13.90400 41.85900
C  -11.11400 10.67500 43.18800
C  -8.07300 12.21800 41.97900
O  -7.43500 11.21900 42.32300
C  -7.44200 13.53400 41.51900
C  -6.48300 13.93800 42.52200
O  -6.69100 14.16900 43.74200
O  -5.30300 14.19500 41.87000
C  -4.21100 14.90000 42.60900
H  -9.89200 19.61900 39.28600
H  -15.84200 17.85900 41.35100
H  -13.49000 12.29200 43.23300
H  -6.57000 16.42500 40.83800
H  -7.95400 17.94700 38.57500
H  -6.41200 18.91700 40.79200
H  -7.94400 19.71200 40.72200
H  -6.93600 19.62600 39.20100
H  -7.15800 16.08000 37.96500
H  -6.97000 14.59000 38.82900
H  -4.60800 14.98600 39.13100
H  -4.87400 16.49200 39.70800
H  -12.74300 21.93800 38.92600
H  -11.42900 20.99300 38.28000
H  -11.43800 21.76200 39.96900
H  -16.82400 19.49700 40.54400
H  -17.11200 21.09700 41.05800
H  -16.21800 19.86500 42.15600
H  -16.64000 15.29400 41.28300
H  -15.77500 13.78300 43.66300
H  -16.66300 16.98800 43.48600
H  -16.73400 15.59700 44.39700
H  -18.00600 15.95600 43.22500
H  -15.41000 12.74400 40.90500
H  -17.02000 12.75700 41.57700
H  -16.66400 10.75000 42.41600
H  -15.69100 11.65200 43.69500
H  -14.98000 10.94800 42.15500
H  -10.27200 10.01100 42.98800
H  -12.02400 10.46400 42.62600
H  -11.42100 10.54500 44.22600
H  -6.97500 13.34900 40.55200
H  -4.42300 15.27900 43.60900
H  -3.89300 15.78200 42.05400
H  -3.37400 14.21600 42.74500

