158

Mg 47.85000 16.31800 29.23600
C  45.63000 15.88400 32.09900
C  49.68000 18.33900 31.12500
C  49.37100 17.17300 26.41600
C  45.56600 14.39900 27.41700
N  47.67100 16.85400 31.41700
C  46.76900 16.69700 32.37500
C  47.12800 17.29200 33.77000
C  48.22800 18.29800 33.33200
C  48.50600 17.83100 31.83800
C  47.81600 19.83100 33.39900
C  47.61200 16.29900 34.85600
C  47.69400 16.67500 36.34600
H  47.24400 18.10500 36.72200
N  49.39200 17.48100 28.88400
C  50.04400 18.19800 29.79800
C  51.23900 18.74800 29.23200
C  51.14700 18.50500 27.82000
C  49.95000 17.62300 27.64400
C  52.11100 19.69700 30.05900
C  51.99500 18.85300 26.61000
O  51.67500 18.81100 25.41800
C  53.41500 19.48400 26.88100
N  47.37300 15.93900 27.10200
C  48.27200 16.29900 26.18900
C  47.86600 15.81800 24.84100
C  46.74600 14.74800 25.16800
C  46.52800 14.98400 26.64800
C  47.32300 17.06600 24.02700
C  47.18800 13.31600 24.97600
C  46.06900 12.24900 24.90100
N  46.07800 15.31700 29.56900
C  45.34700 14.49200 28.79700
C  44.21400 13.95800 29.54800
C  44.32800 14.49800 30.80700
C  45.44600 15.32100 30.82100
C  43.16300 13.08900 28.95200
C  43.64800 14.51100 32.11900
O  42.77400 13.80700 32.59500
C  44.53900 15.45400 33.02200
C  43.77500 16.59500 33.47200
O  43.05800 17.32800 32.81500
O  43.77200 16.51000 34.86000
C  42.92000 17.47700 35.58700
H  50.26800 18.96700 31.79800
H  49.90800 17.35600 25.48200
H  44.90000 13.76100 26.83300
H  46.26100 17.82400 34.16200
H  49.15300 18.15200 33.89000
H  46.86000 19.92300 33.91500
H  47.73000 20.32600 32.43100
H  48.58400 20.33700 33.98400
H  48.60800 15.95100 34.58100
H  46.93200 15.45200 34.77800
H  48.72800 16.53000 36.65700
H  47.21100 15.83700 36.84900
H  52.53300 19.12200 30.88300
H  51.35000 20.35700 30.47600
H  52.84800 20.21700 29.44700
H  53.29200 20.50800 27.23400
H  53.83100 19.56900 25.87700
H  54.02900 18.80300 27.46900
H  48.67700 15.30700 24.32300
H  45.82900 14.87100 24.59200
H  47.38700 18.03600 24.51900
H  46.27500 16.95000 23.75300
H  47.82900 17.20000 23.07100
H  47.77400 13.06500 25.86000
H  47.88800 13.15000 24.15700
H  46.21200 11.68000 23.98200
H  45.09100 12.73100 24.90500
H  46.11800 11.50200 25.69300
H  42.81500 12.44100 29.75700
H  43.58100 12.50100 28.13400
H  42.30900 13.70700 28.67600
H  44.92300 14.81900 33.82000
H  42.13000 17.01100 36.17600
H  42.67100 18.36500 35.00500
H  43.61900 17.83700 36.34200
Mg 47.41300 25.22800 28.51400
C  48.21800 27.27400 31.19700
C  46.44300 22.65900 30.73800
C  47.09000 23.08700 25.94300
C  48.69000 27.68000 26.35100
N  47.18300 25.09500 30.53700
C  47.46400 26.11700 31.49900
C  47.26700 25.65300 32.97500
C  46.89600 24.18000 32.76500
C  46.82900 23.94700 31.24700
C  47.75700 23.24800 33.51300
C  46.29100 26.46000 33.79600
C  46.73800 26.73200 35.25100
H  45.89800 27.54800 36.19000
N  46.73000 23.13700 28.37100
C  46.41200 22.28100 29.38500
C  46.13100 20.97300 28.82200
C  46.26800 21.07600 27.44200
C  46.70700 22.46100 27.17400
C  45.85200 19.76700 29.65900
C  45.91600 20.18300 26.33900
O  46.00100 20.43800 25.13400
C  45.43900 18.82300 26.63800
N  47.81000 25.32100 26.44000
C  47.52500 24.34000 25.55000
C  47.71200 24.78300 24.07200
C  48.03900 26.30800 24.25200
C  48.20000 26.48000 25.79200
C  48.76700 23.90100 23.33700
C  47.02800 27.25500 23.60800
C  47.39300 27.72700 22.18500
N  48.29900 27.05600 28.65700
C  48.82800 27.95200 27.72100
C  49.44200 29.04700 28.38300
C  49.23800 28.83200 29.78300
C  48.53700 27.59100 29.86600
C  50.10200 30.17200 27.68100
C  49.38400 29.41900 31.06100
O  50.00000 30.43700 31.41000
C  48.67700 28.44500 32.01000
C  49.61400 28.12800 33.04700
O  50.52300 27.29600 32.94800
O  49.35800 28.96400 34.05900
C  50.15500 28.91500 35.26000
H  46.26600 21.87900 31.48200
H  47.06400 22.55900 24.98700
H  49.12500 28.34200 25.59900
H  48.20200 25.68600 33.53400
H  45.89200 24.09000 33.17800
H  48.27600 23.70300 34.35600
H  48.50700 22.92000 32.79300
H  47.08400 22.46300 33.85900
H  45.32500 25.97000 33.91900
H  45.98500 27.34600 33.23900
H  47.67200 27.29400 35.25000
H  46.94100 25.77800 35.73800
H  46.46000 18.91700 29.35200
H  44.87100 19.43700 29.31600
H  46.13700 19.85500 30.70700
H  44.51700 18.83300 27.21900
H  46.24700 18.39000 27.22800
H  45.22200 18.28200 25.71700
H  46.74600 24.68800 23.57500
H  48.94100 26.63100 23.73300
H  49.35500 23.51700 24.17000
H  49.27900 24.54700 22.62400
H  48.27900 23.10300 22.77800
H  46.82300 28.10400 24.26000
H  46.08900 26.73900 23.40700
H  47.70600 28.77000 22.13700
H  46.54300 27.56600 21.52100
H  48.21000 27.06300 21.90200
H  49.33200 30.89900 27.42100
H  50.67800 29.72200 26.87300
H  50.76800 30.75200 28.32000
H  47.84100 29.05100 32.35800
H  50.21600 29.94800 35.60300
H  51.12600 28.42600 35.18800
H  49.65100 28.32000 36.02200

