158

Mg 41.68500 40.89400 26.74700
C  41.04300 43.11500 29.47700
C  42.41500 38.41200 28.96300
C  42.50000 38.92700 24.02100
C  40.93800 43.52900 24.57100
N  41.63000 40.82600 28.93600
C  41.33400 41.77200 29.86100
C  41.29600 41.24400 31.36300
C  41.92400 39.77900 31.12500
C  41.95700 39.64300 29.60300
C  43.21100 39.44800 31.93100
C  39.91100 41.35600 32.05300
C  39.93300 42.03000 33.43500
H  39.21700 41.41900 34.68300
N  42.40300 38.96100 26.53900
C  42.70000 38.10000 27.57800
C  43.13200 36.85300 26.99800
C  43.16000 37.00500 25.54000
C  42.64700 38.37100 25.30000
C  43.29000 35.58500 27.80700
C  43.53000 36.03100 24.44900
O  43.63800 36.33800 23.22600
C  43.90900 34.58900 24.91000
N  41.82000 41.14400 24.62300
C  42.10200 40.24100 23.66600
C  41.80600 40.68600 22.22500
C  40.95500 42.02500 22.48900
C  41.23400 42.27200 24.02100
C  43.10400 41.03400 21.38500
C  39.43000 41.82300 22.10500
C  38.66400 40.63900 22.82000
N  41.19400 42.97000 26.92300
C  40.96400 43.90300 25.92300
C  40.64600 45.24900 26.55900
C  40.69400 44.94700 27.98100
C  41.02600 43.60100 28.10500
C  40.33300 46.59900 25.90300
C  40.51100 45.56300 29.23600
O  40.32800 46.73600 29.54800
C  40.72200 44.38100 30.27700
C  41.70800 44.82600 31.25500
O  42.84800 45.22000 31.05000
O  41.12600 44.87500 32.47000
C  42.05300 45.32900 33.59400
H  42.76700 37.66800 29.68000
H  42.49100 38.30700 23.12200
H  40.52300 44.30500 23.92500
H  42.06600 41.72400 31.96700
H  41.25400 38.98000 31.44200
H  43.12200 38.56600 32.56500
H  43.49400 40.32000 32.52100
H  44.08000 39.41200 31.27400
H  39.44500 40.37100 32.05600
H  39.25200 41.95000 31.41900
H  39.49700 43.02900 33.44000
H  40.96300 42.20400 33.74800
H  42.73800 34.69200 27.51400
H  42.82000 35.82900 28.76000
H  44.35800 35.51000 28.01200
H  43.11400 33.98900 25.35300
H  44.73200 34.77000 25.60100
H  44.34300 34.07900 24.05000
H  41.18100 39.85000 21.91200
H  41.33100 42.80500 21.82600
H  43.90900 40.39300 21.74400
H  43.47500 42.05700 21.45000
H  42.92100 40.73800 20.35200
H  39.41300 41.58000 21.04200
H  38.89500 42.76700 22.20800
H  38.24700 41.09700 23.71700
H  39.34200 39.81900 23.05500
H  37.85700 40.13400 22.28800
H  41.24900 46.98000 25.45300
H  39.95200 47.25300 26.68700
H  39.61000 46.47700 25.09600
H  39.75900 44.26100 30.77300
H  43.13900 45.33900 33.49600
H  41.77700 44.70200 34.44200
H  41.85500 46.37900 33.80500
Mg 27.12500 49.92800 26.86100
C  25.09900 51.07000 29.49200
C  29.50400 49.12700 29.19000
C  29.03800 49.25500 24.27100
C  24.72900 51.45000 24.67400
N  27.13800 49.98500 29.12100
C  26.27900 50.54100 29.98700
C  26.77400 50.31200 31.51000
C  28.19900 49.75300 31.35000
C  28.31000 49.66300 29.75800
C  29.40500 50.54000 32.03500
C  25.80100 49.43200 32.32900
C  25.59200 49.86100 33.78900
H  24.94300 48.75000 34.70400
N  28.99700 49.27400 26.77100
C  29.87200 48.98600 27.79800
C  31.08600 48.49200 27.22600
C  31.03200 48.76100 25.87200
C  29.62500 49.10000 25.56200
C  32.18200 48.12500 28.12000
C  32.14500 48.61900 24.83500
O  31.99900 48.87600 23.66600
C  33.46900 48.10700 25.28300
N  26.98800 50.42800 24.76300
C  27.83300 49.87100 23.90400
C  27.42000 50.09300 22.48300
C  26.01100 50.60500 22.60200
C  25.91300 50.87800 24.09900
C  28.39000 51.03900 21.66800
C  24.82600 49.61600 22.02900
C  24.59600 48.27000 22.85100
N  25.29900 51.04200 27.00500
C  24.43300 51.53100 26.02300
C  23.32200 52.27400 26.67000
C  23.56000 52.08300 28.00900
C  24.75900 51.30200 28.15700
C  22.24000 53.12400 26.12200
C  23.01000 52.38600 29.28300
O  21.92900 53.01500 29.52600
C  23.93300 51.79800 30.31400
C  24.47000 52.96300 31.08800
O  25.56500 53.47600 30.96900
O  23.57300 53.31200 32.08400
C  24.03200 53.90400 33.31300
H  30.14100 48.69500 29.96500
H  29.71400 48.96400 23.46400
H  24.03200 51.97200 24.01500
H  26.91800 51.29700 31.95400
H  28.33900 48.77100 31.80200
H  29.00700 51.47500 32.43100
H  30.14300 50.67000 31.24400
H  29.89600 49.94500 32.80500
H  26.04600 48.37400 32.23600
H  24.85800 49.49000 31.78600
H  24.92000 50.71900 33.80500
H  26.57600 50.12000 34.18100
H  31.85700 47.85800 29.12500
H  32.76600 49.02900 28.29100
H  32.83300 47.32200 27.77400
H  34.20300 48.49400 24.57600
H  33.58800 47.02700 25.37200
H  33.73600 48.50000 26.26400
H  27.40900 49.11800 21.99600
H  25.84800 51.62700 22.26300
H  27.95600 52.03800 21.62300
H  28.59500 50.57200 20.70500
H  29.30200 50.97700 22.26100
H  24.99500 49.42600 20.96900
H  23.89500 50.18200 22.05400
H  24.96300 48.40700 23.86800
H  25.04900 47.34500 22.49500
H  23.52800 48.06600 22.91900
H  22.48000 53.31400 25.07500
H  22.15000 54.03700 26.71100
H  21.35800 52.50000 26.26400
H  23.32800 51.15700 30.95500
H  25.08700 53.68200 33.47500
H  23.42700 53.56600 34.15400
H  23.82600 54.97200 33.36500

