158

Mg 9.50200 47.31900 25.85600
C  7.38700 47.02400 28.48900
C  12.05100 48.12300 27.95600
C  11.48500 47.71600 23.14900
C  6.76700 46.99400 23.54300
N  9.75700 47.56900 27.94600
C  8.72900 47.28400 28.88700
C  9.23100 47.57700 30.35100
C  10.75000 47.83400 30.15800
C  10.87900 47.82300 28.58000
C  11.21700 49.20700 30.81600
C  8.80900 46.46200 31.29300
C  9.80300 46.06500 32.38200
H  9.23600 45.43900 33.68500
N  11.50800 47.89500 25.55300
C  12.41100 48.18300 26.56700
C  13.71100 48.42500 25.99800
C  13.57700 48.21200 24.52300
C  12.14500 47.91900 24.34500
C  14.97700 48.62700 26.84000
C  14.68600 48.23400 23.31800
O  14.40100 48.09000 22.10000
C  16.15700 48.46600 23.72000
N  9.15600 47.48700 23.58800
C  10.17100 47.61300 22.74200
C  9.77700 47.47600 21.27900
C  8.15000 47.37800 21.41100
C  8.03400 47.25400 22.94000
C  10.19100 48.72500 20.33300
C  7.49900 46.18300 20.65700
C  6.84500 46.65100 19.37200
N  7.48200 47.05700 25.91000
C  6.47000 46.94000 24.96900
C  5.20100 46.84400 25.58500
C  5.51200 46.83300 26.96600
C  6.91000 46.93000 27.13800
C  3.83400 46.77300 24.87100
C  4.91600 46.71700 28.30000
O  3.75800 46.47200 28.54700
C  6.12400 46.96400 29.31600
C  6.01900 45.82500 30.32800
O  6.22600 44.68500 30.08500
O  5.54100 46.36400 31.48300
C  5.18400 45.35700 32.51000
H  12.89200 48.19700 28.64800
H  12.11400 47.66600 22.25900
H  5.85800 47.03500 22.93800
H  8.77000 48.52100 30.64200
H  11.36200 47.06500 30.62900
H  10.49400 49.69800 31.46700
H  11.49600 49.83000 29.96600
H  11.98500 49.17000 31.58800
H  8.66300 45.60000 30.64200
H  7.91000 46.73300 31.84600
H  10.42000 46.92200 32.65100
H  10.47600 45.25300 32.10800
H  14.78800 48.47600 27.90300
H  15.31300 49.62200 26.54700
H  15.78400 47.97300 26.51100
H  16.24600 49.35600 24.34200
H  16.62000 48.59000 22.74100
H  16.59000 47.49500 23.96000
H  10.25900 46.54300 20.98500
H  7.69500 48.34400 21.19300
H  10.44600 49.55500 20.99300
H  9.39600 49.07200 19.67300
H  11.04500 48.56500 19.67500
H  6.77500 45.69700 21.31100
H  8.21800 45.44500 20.29900
H  7.22200 46.05300 18.54200
H  7.06300 47.70400 19.19300
H  5.75800 46.58100 19.34800
H  3.21000 46.16800 25.52900
H  4.02400 46.23200 23.94400
H  3.48000 47.78300 24.66900
H  5.90600 47.95300 29.71800
H  4.73900 44.42400 32.16700
H  4.53600 45.87800 33.21500
H  6.17400 45.18800 32.93400
Mg -10.37500 17.95900 43.35600
C  -7.15200 16.61700 42.67200
C  -9.00700 21.05300 42.35700
C  -13.52700 19.05700 42.99200
C  -11.57100 14.68500 43.55000
N  -8.27700 18.73100 42.63700
C  -7.15300 18.00800 42.50100
C  -6.00400 18.94300 42.12500
C  -6.61300 20.34300 42.24200
C  -8.03300 20.02900 42.52500
C  -5.91600 21.29600 43.19500
C  -5.20600 18.69400 40.78900
C  -5.92200 17.96500 39.52100
H  -5.45200 18.38100 38.12100
N  -11.15500 19.78000 42.80900
C  -10.43800 20.94100 42.48200
C  -11.39300 21.96900 42.25100
C  -12.68900 21.40600 42.38600
C  -12.52800 20.00100 42.79100
C  -11.00100 23.41300 41.98300
C  -14.12700 22.15900 42.26300
O  -14.15400 23.34700 41.90300
C  -15.47500 21.50300 42.67200
N  -12.35400 16.97400 43.21200
C  -13.48900 17.63900 43.24100
C  -14.69200 16.68700 43.49100
C  -14.04500 15.31600 43.70500
C  -12.61100 15.64600 43.54100
C  -15.57500 17.10200 44.69200
C  -14.61000 14.30500 42.56300
C  -15.07000 12.94500 43.04100
N  -9.54000 16.11300 43.32200
C  -10.18700 14.84300 43.36300
C  -9.15800 13.84000 43.34800
C  -7.94400 14.45400 43.12500
C  -8.27300 15.84300 43.02800
C  -9.44800 12.36000 43.54900
C  -6.42500 14.25500 42.91400
O  -5.86100 13.19000 42.95900
C  -5.96900 15.64700 42.58200
C  -4.91700 16.03800 43.52400
O  -3.76100 15.92900 43.27600
O  -5.36400 16.60000 44.71900
C  -4.36400 17.00800 45.75500
H  -8.58600 22.00800 42.03800
H  -14.58000 19.33900 42.93100
H  -11.83800 13.63600 43.68800
H  -5.33900 18.76600 42.97100
H  -6.65800 20.87600 41.29200
H  -5.18300 20.64300 43.67000
H  -6.73700 21.75200 43.74700
H  -5.49800 22.16300 42.68400
H  -4.26700 18.21400 41.06500
H  -4.95800 19.68300 40.40500
H  -7.00500 17.85500 39.57900
H  -5.38600 17.01700 39.57200
H  -11.14300 23.75200 40.95700
H  -9.96900 23.53300 42.31100
H  -11.53900 24.04300 42.69100
H  -15.30600 21.12300 43.68000
H  -15.83000 20.68700 42.04300
H  -16.24400 22.27300 42.60800
H  -15.30100 16.83200 42.59900
H  -14.32000 14.97900 44.70400
H  -15.21100 17.89300 45.34800
H  -15.81700 16.20900 45.26800
H  -16.44300 17.69000 44.39200
H  -13.83900 14.16600 41.80500
H  -15.39000 14.86800 42.05000
H  -14.47900 12.13400 42.61600
H  -16.12200 12.71100 42.87900
H  -14.78900 12.85800 44.09100
H  -10.19800 12.15400 44.31300
H  -8.50600 11.90700 43.85700
H  -9.62600 12.01500 42.53000
H  -5.50300 15.51600 41.60600
H  -4.55200 16.33400 46.59100
H  -4.48800 18.06100 46.00600
H  -3.28600 16.93500 45.61100

