158

Mg 42.91000 4.24800 46.45600
C  40.90800 7.15900 46.34000
C  39.81600 2.37100 46.45100
C  44.52800 1.54700 45.62700
C  45.63400 6.21300 46.18000
N  40.52000 4.72600 46.58100
C  40.03300 6.00200 46.42200
C  38.42200 5.99400 46.60300
C  38.23900 4.39100 47.01400
C  39.58800 3.75700 46.65800
C  37.89000 4.13600 48.45500
C  37.59700 6.39700 45.31000
C  37.93200 5.63000 44.08600
H  38.51100 6.36700 42.93800
N  42.29100 2.30700 46.01500
C  41.03600 1.75600 46.11600
C  41.11100 0.40000 45.61600
C  42.45400 0.18300 45.19300
C  43.14000 1.38200 45.59500
C  39.86800 -0.49500 45.33700
C  42.97100 -0.98100 44.35600
O  42.28000 -2.01800 44.19800
C  44.35500 -1.06100 43.77000
N  44.83700 3.98000 45.68000
C  45.37100 2.67300 45.77300
C  46.94000 2.61500 45.82000
C  47.17500 4.17800 46.08700
C  45.80300 4.86300 45.96800
C  47.56600 1.60000 46.87500
C  48.27300 4.87000 45.17800
C  49.14800 5.87700 45.89700
N  43.32500 6.30400 46.31100
C  44.48100 6.94900 46.26600
C  44.25400 8.33700 46.50500
C  42.86600 8.53200 46.37600
C  42.35500 7.17000 46.29200
C  45.23400 9.47800 46.62400
C  41.78600 9.47500 46.31100
O  41.80700 10.71700 46.40000
C  40.51600 8.66200 46.32200
C  39.64000 9.04200 47.46000
O  39.89000 8.88000 48.60800
O  38.42400 9.50900 46.98600
C  37.33700 9.74600 47.99600
H  38.88800 1.80200 46.37700
H  45.09900 0.64900 45.38100
H  46.50900 6.86600 46.16000
H  38.09500 6.66700 47.39500
H  37.46600 3.99300 46.35600
H  38.69600 3.74400 49.07500
H  37.03400 3.46500 48.53200
H  37.54400 5.08700 48.85800
H  37.70300 7.46700 45.12900
H  36.53500 6.23400 45.49400
H  37.08000 5.01700 43.79400
H  38.66000 4.83300 44.23600
H  39.88400 -0.75500 44.27800
H  38.95800 -0.03600 45.72300
H  40.05200 -1.46100 45.80600
H  45.11000 -1.25600 44.53000
H  44.60500 -0.10500 43.31100
H  44.43400 -1.80600 42.97800
H  47.26000 2.29500 44.82900
H  47.43000 4.36800 47.13000
H  46.79200 0.90800 47.20800
H  47.76700 2.20300 47.76100
H  48.43500 1.15700 46.38700
H  47.73200 5.40400 44.39800
H  48.87900 4.14600 44.63300
H  50.17400 5.53200 45.76900
H  49.05200 5.97100 46.97900
H  49.03800 6.91800 45.59300
H  45.78300 9.39300 45.68600
H  46.01100 9.29700 47.36700
H  44.70800 10.42800 46.71300
H  40.05300 8.84800 45.35300
H  36.74400 10.57400 47.60700
H  37.73700 10.27600 48.86000
H  36.89700 8.78200 48.24800
Mg 31.08400 58.51600 39.60000
C  28.54500 56.24700 38.35100
C  33.35200 56.00400 39.01300
C  33.27100 60.79600 39.78100
C  28.42200 60.89100 39.98200
N  30.88700 56.41000 38.79500
C  29.83400 55.72200 38.26600
C  30.21300 54.43800 37.66700
C  31.56800 54.19800 38.38100
C  31.94500 55.57500 38.80000
C  31.59000 53.23400 39.62300
C  30.12800 54.47300 36.05300
C  29.03900 53.52900 35.41800
H  28.05500 54.02500 34.38800
N  33.02100 58.47900 39.46700
C  33.77800 57.34300 39.24200
C  35.20500 57.78400 39.21100
C  35.18700 59.15500 39.41900
C  33.81600 59.54500 39.56000
C  36.40400 56.76700 38.89800
C  36.47300 60.00700 39.62200
O  37.60800 59.55200 39.46800
C  36.41600 61.46200 39.79500
N  30.83600 60.55400 39.83600
C  32.00500 61.30400 40.02600
C  31.67500 62.76400 40.23700
C  30.10700 62.73700 40.45300
C  29.77500 61.32900 40.02300
C  32.48100 63.32200 41.44300
C  29.44500 64.00900 39.79000
C  29.62800 65.31500 40.53700
N  28.89800 58.63700 39.38200
C  28.00900 59.65300 39.52000
C  26.66000 59.19500 39.18700
C  26.92200 57.87900 38.69500
C  28.26200 57.59700 38.92800
C  25.35200 59.92500 39.30800
C  26.17100 56.74900 38.27500
O  24.95800 56.56100 38.26000
C  27.22100 55.59500 38.12700
C  26.92800 54.65400 39.23700
O  27.28900 54.74400 40.40900
O  26.07900 53.68900 38.79600
C  25.72700 52.76500 39.86100
H  34.13100 55.26900 38.80300
H  34.05200 61.55700 39.72300
H  27.59000 61.57700 40.15500
H  29.48800 53.70700 38.02500
H  32.30100 53.84400 37.65600
H  32.24400 53.60500 40.41200
H  31.96100 52.32000 39.15800
H  30.62600 53.01100 40.08000
H  31.13100 54.19400 35.73300
H  29.83200 55.50400 35.85500
H  28.43700 52.95200 36.12000
H  29.60700 52.77500 34.87400
H  37.04600 57.10800 38.08600
H  36.04000 55.76000 38.69400
H  36.99100 56.66800 39.81100
H  35.86100 61.82300 40.66100
H  36.11500 61.94300 38.86400
H  37.42200 61.80200 40.03900
H  32.05400 63.18100 39.30400
H  29.98100 62.83700 41.53100
H  33.37000 62.74500 41.69400
H  31.97900 63.53400 42.38800
H  32.84100 64.26300 41.02700
H  28.37500 63.87400 39.63600
H  29.91000 64.13200 38.81200
H  30.37600 65.84100 39.94500
H  29.96700 65.06600 41.54300
H  28.73100 65.92600 40.63300
H  25.15200 60.66100 40.08700
H  24.50900 59.23800 39.24100
H  25.46100 60.60000 38.45900
H  27.07300 55.04700 37.19600
H  26.54300 52.04800 39.95600
H  24.86800 52.28200 39.39600
H  25.44500 53.19100 40.82400

