158

Mg 24.30300 -5.61100 45.67200
C  26.33800 -3.30800 44.06000
C  21.64000 -4.34700 43.73100
C  22.48200 -8.38900 46.25200
C  27.09700 -7.16500 46.98100
N  24.06600 -4.13300 43.84700
C  25.03000 -3.21200 43.59900
C  24.38900 -2.09500 42.68300
C  22.88000 -2.46000 42.64400
C  22.82200 -3.71900 43.49800
C  21.90100 -1.34400 43.13500
C  25.00900 -2.18400 41.24700
C  25.60200 -0.87300 40.63200
H  25.63400 -0.78100 39.06400
N  22.37000 -6.21700 45.15000
C  21.42300 -5.53800 44.44200
C  20.11800 -6.25400 44.47300
C  20.30900 -7.37500 45.34300
C  21.75600 -7.35100 45.65000
C  18.99400 -5.71700 43.64300
C  19.25800 -8.41400 45.67600
O  18.09500 -8.29800 45.24700
C  19.60700 -9.58800 46.50200
N  24.78700 -7.60700 46.29900
C  23.80600 -8.50100 46.61300
C  24.39800 -9.72700 47.28400
C  25.92200 -9.33800 47.38300
C  25.99200 -8.05400 46.78300
C  23.81300 -10.17200 48.65900
C  26.88000 -10.37800 46.83500
C  27.81100 -11.03400 47.84600
N  26.27800 -5.21100 45.79100
C  27.29000 -5.84900 46.48800
C  28.50100 -5.06200 46.43900
C  28.20200 -4.07400 45.48300
C  26.84700 -4.25300 45.04800
C  29.79000 -5.33000 47.10600
C  28.75300 -2.91300 44.80400
O  29.85600 -2.33200 44.84400
C  27.52800 -2.39200 43.84600
C  27.21700 -1.00300 44.24000
O  26.52200 -0.66100 45.13000
O  27.72200 -0.17300 43.18200
C  27.51000 1.27000 43.29200
H  20.77000 -3.91400 43.23300
H  21.96300 -9.32000 46.48600
H  27.93200 -7.64600 47.49500
H  24.56900 -1.09100 43.06700
H  22.51900 -2.65900 41.63500
H  21.50800 -0.81700 42.26600
H  22.53100 -0.62200 43.65500
H  21.14800 -1.69000 43.84300
H  24.61900 -2.73100 40.38800
H  25.93500 -2.73900 41.40000
H  26.62100 -0.85000 41.01700
H  25.13200 0.04400 40.98700
H  19.30800 -5.48100 42.62600
H  18.61600 -4.85700 44.19700
H  18.17500 -6.43500 43.65000
H  20.12100 -9.25800 47.40500
H  20.19800 -10.34800 45.99200
H  18.63400 -9.97100 46.81000
H  24.26900 -10.49900 46.52600
H  26.17600 -9.03600 48.39900
H  23.60200 -11.24100 48.68500
H  23.02500 -9.48600 48.97000
H  24.54100 -10.11700 49.46900
H  27.42300 -9.98600 45.97500
H  26.30700 -11.18700 46.38300
H  28.78700 -11.00800 47.36100
H  27.64800 -12.07500 48.12700
H  27.78900 -10.42500 48.74900
H  30.25800 -6.27600 46.83300
H  29.63600 -5.45600 48.17700
H  30.52300 -4.58500 46.79800
H  28.05300 -2.44000 42.89100
H  28.46000 1.63000 42.89700
H  27.36200 1.51600 44.34400
H  26.72700 1.54100 42.58400
Mg 47.81200 25.03000 28.06600
C  48.96700 27.27500 30.64800
C  47.35600 22.79600 30.66200
C  46.92100 22.98500 25.67300
C  49.30100 27.17000 25.67400
N  48.23100 25.11600 30.41200
C  48.42600 26.20100 31.20400
C  48.09600 25.94100 32.68100
C  47.58200 24.48100 32.63700
C  47.76300 24.02200 31.11700
C  48.26900 23.57300 33.68700
C  47.07200 26.95300 33.14900
C  46.50400 26.59600 34.55600
H  46.87300 27.43400 35.77200
N  47.23700 23.19200 28.13000
C  46.99200 22.42800 29.25800
C  46.41300 21.15500 28.83100
C  46.19400 21.24000 27.44200
C  46.75200 22.51200 27.01700
C  45.93600 20.06700 29.85900
C  45.43100 20.31100 26.45600
O  45.44600 20.44200 25.22300
C  44.86300 19.06400 27.02700
N  47.90500 25.12300 25.98100
C  47.46600 24.12900 25.12500
C  47.94300 24.35800 23.65700
C  48.47800 25.82300 23.72400
C  48.55300 26.05400 25.19200
C  49.08100 23.46700 23.13100
C  47.61300 26.90600 22.97100
C  48.27800 27.85100 21.87900
N  48.83300 26.81500 28.04900
C  49.49700 27.53700 27.06100
C  50.09200 28.67200 27.55200
C  49.89700 28.64200 28.96000
C  49.13800 27.52100 29.22600
C  50.90900 29.59800 26.73400
C  50.23900 29.35800 30.15900
O  50.84400 30.46500 30.19800
C  49.56300 28.56600 31.31300
C  50.58000 28.25600 32.29100
O  51.45100 27.46100 32.20000
O  50.32300 28.92300 33.42700
C  51.05200 28.48100 34.64500
H  46.96700 22.11600 31.42300
H  46.70600 22.33400 24.82300
H  49.72400 27.74900 24.85000
H  49.04800 26.13300 33.17700
H  46.52000 24.56400 32.87100
H  48.99100 22.87100 33.27000
H  47.59600 22.92500 34.24800
H  48.76800 24.24500 34.38600
H  46.24100 26.83100 32.45400
H  47.46400 27.96900 33.18100
H  46.82200 25.58400 34.80500
H  45.42300 26.47300 34.48500
H  44.88000 19.80700 29.79500
H  45.97100 20.41300 30.89200
H  46.66200 19.26800 29.70700
H  45.57000 18.50100 27.63600
H  44.72600 18.42400 26.15600
H  43.95400 19.31400 27.57400
H  47.12400 24.28700 22.94200
H  49.50600 25.97500 23.39500
H  48.78300 22.53600 22.65000
H  49.74500 23.29000 23.97800
H  49.71100 23.95100 22.38500
H  47.20900 27.55500 23.74900
H  46.84900 26.33300 22.44600
H  47.71700 27.87300 20.94500
H  49.28900 27.47700 21.71200
H  48.51600 28.82700 22.30200
H  50.32900 29.75000 25.82300
H  51.93500 29.29000 26.53100
H  50.98100 30.54800 27.26300
H  48.84500 29.23300 31.78800
H  51.04200 29.30700 35.35600
H  52.06300 28.08400 34.54800
H  50.38700 27.73300 35.07600

