158

Mg 25.85100 0.52500 29.90300
C  27.95200 0.38600 32.65300
C  23.17300 0.99700 32.03400
C  23.95400 0.86700 27.09200
C  28.63000 -0.32300 27.85500
N  25.57200 0.68400 32.14100
C  26.66000 0.72700 33.03400
C  26.12300 0.84200 34.53000
C  24.62100 0.97400 34.29800
C  24.43000 0.91200 32.77100
C  23.58300 0.22500 35.16900
C  26.64400 2.15200 35.18900
C  25.78000 2.77100 36.29800
H  26.54200 3.31700 37.58800
N  23.85000 0.81900 29.60900
C  22.92200 0.97000 30.63600
C  21.63000 1.15500 29.96800
C  21.84700 1.06000 28.55100
C  23.26600 0.90400 28.37800
C  20.35000 1.49700 30.75300
C  20.91100 1.15300 27.39700
O  21.22600 0.99500 26.24200
C  19.50000 1.40800 27.68400
N  26.27600 0.43400 27.79900
C  25.32900 0.71500 26.84500
C  25.90300 0.60500 25.48700
C  27.47400 0.33400 25.71300
C  27.46000 0.01200 27.20400
C  25.13300 -0.43300 24.59100
C  28.33800 1.53100 25.23100
C  29.21100 1.28400 24.03800
N  27.85400 0.07100 30.14200
C  28.81200 -0.41900 29.29000
C  30.06700 -0.67100 30.03600
C  29.79600 -0.23800 31.32500
C  28.40800 0.09000 31.37400
C  31.35800 -1.29500 29.68300
C  30.32800 -0.10800 32.65900
O  31.46700 -0.38400 33.01800
C  29.16600 0.40100 33.58200
C  29.07700 -0.56300 34.74100
O  28.91100 -1.76800 34.65200
O  29.19000 0.07200 35.98500
C  28.90300 -0.84900 37.15300
H  22.36000 1.04600 32.76100
H  23.38000 0.89500 26.16200
H  29.50300 -0.43100 27.20800
H  26.29700 -0.03700 35.15000
H  24.30300 1.99900 34.48600
H  24.09100 -0.13800 36.06200
H  23.16300 -0.55200 34.53000
H  22.89600 0.96800 35.57400
H  26.77100 2.91000 34.41600
H  27.62600 1.94300 35.61200
H  24.93900 2.14900 36.60000
H  25.41400 3.70800 35.87800
H  19.96100 2.47100 30.45600
H  20.44300 1.43900 31.83700
H  19.56200 0.85300 30.36200
H  18.93000 0.56100 28.06500
H  19.05300 1.66900 26.72500
H  19.43500 2.26400 28.35600
H  25.78200 1.49400 24.86600
H  27.86400 -0.60000 25.30800
H  25.74200 -1.32900 24.46900
H  24.89900 -0.06000 23.59400
H  24.19500 -0.71300 25.07000
H  28.95400 2.00300 25.99800
H  27.63500 2.31300 24.94400
H  30.19400 1.66400 24.31700
H  28.89000 1.99200 23.27400
H  29.26200 0.23400 23.75200
H  31.31000 -2.19700 29.07300
H  31.97000 -1.49200 30.56300
H  31.84100 -0.51700 29.09200
H  29.48700 1.38600 33.91900
H  29.31200 -0.37100 38.04400
H  29.40900 -1.81200 37.22100
H  27.83100 -1.00900 37.26500
Mg 47.11600 24.72200 28.82600
C  47.86300 27.32600 31.00000
C  45.81900 22.98500 31.60100
C  46.60000 22.14700 26.77800
C  48.93600 26.37000 26.26800
N  46.82100 25.09000 31.01200
C  47.15900 26.29600 31.62600
C  46.66500 26.27500 33.07700
C  46.58900 24.73300 33.30700
C  46.44600 24.18300 31.91900
C  47.76700 24.02000 33.91400
C  45.30300 26.94900 33.34400
C  45.37400 27.97400 34.56900
H  45.82800 27.61900 36.03800
N  46.29200 22.82300 29.12100
C  45.73700 22.31100 30.26600
C  45.09100 21.02800 29.92700
C  45.25000 20.83900 28.52800
C  46.11200 21.95500 28.07200
C  44.43600 20.20000 30.94400
C  44.71700 19.72000 27.58000
O  45.05500 19.61200 26.42300
C  43.93100 18.69100 28.21100
N  47.85900 24.26700 26.81600
C  47.37100 23.12800 26.19500
C  47.93800 23.05100 24.73200
C  48.56900 24.44200 24.50100
C  48.48000 25.13800 25.92100
C  48.91500 21.90700 24.34200
C  47.84900 25.37500 23.40000
C  48.77900 26.04400 22.37500
N  48.16800 26.49100 28.64000
C  48.76300 27.02800 27.51100
C  49.31800 28.38800 27.89000
C  48.97500 28.49100 29.26500
C  48.25300 27.35100 29.65100
C  49.92300 29.40000 26.94400
C  49.16400 29.35500 30.43300
O  49.77700 30.38000 30.60700
C  48.43600 28.55700 31.60700
C  49.43000 28.29500 32.69900
O  50.39800 27.55300 32.80800
O  48.97600 29.04200 33.75700
C  49.64800 28.91000 35.09100
H  45.27200 22.52600 32.42700
H  46.55800 21.33200 26.05200
H  49.45300 26.95800 25.50600
H  47.45600 26.66300 33.71900
H  45.80200 24.38600 33.97700
H  47.80700 22.96100 33.65700
H  47.75400 24.08400 35.00200
H  48.72400 24.39600 33.55400
H  44.60800 26.16500 33.64600
H  44.98200 27.54700 32.49100
H  44.35300 28.33800 34.68900
H  46.03100 28.75400 34.18500
H  44.06900 20.77500 31.79400
H  45.18800 19.57700 31.42900
H  43.62800 19.62400 30.49200
H  43.00300 19.14200 28.56400
H  44.51300 18.29100 29.04100
H  43.75200 17.95800 27.42500
H  47.12200 22.88400 24.02900
H  49.60700 24.48300 24.17100
H  49.58100 22.27300 23.56100
H  48.31500 21.05200 24.03100
H  49.49500 21.62300 25.22000
H  47.37000 26.19500 23.93500
H  47.00100 24.85100 22.95900
H  48.98500 27.07700 22.65600
H  48.37700 25.97200 21.36400
H  49.76500 25.58200 22.33100
H  49.46900 30.35900 27.19300
H  49.67200 29.19100 25.90400
H  51.00500 29.46700 27.05400
H  47.65600 29.27200 31.86800
H  48.83000 28.60000 35.74100
H  49.99600 29.87400 35.46100
H  50.47000 28.19600 35.15100

