158

Mg 0.26700 7.93200 26.81100
C  1.20800 9.92900 29.56600
C  -0.26600 5.44100 29.06300
C  -0.46300 6.00600 24.15700
C  0.77900 10.60800 24.67200
N  0.44900 7.74500 29.06700
C  0.75000 8.70100 29.98900
C  0.71500 8.08700 31.42600
C  0.57100 6.52400 31.15900
C  0.12600 6.57500 29.67500
C  1.83500 5.68900 31.40200
C  -0.39600 8.70100 32.40800
C  0.08500 8.59400 33.88200
H  -0.59000 7.46100 34.76800
N  -0.26800 6.02100 26.66300
C  -0.38000 5.11700 27.66900
C  -0.75100 3.84000 27.09800
C  -0.73400 3.94300 25.66500
C  -0.41700 5.38300 25.42300
C  -1.15300 2.74200 27.99200
C  -1.05200 2.93400 24.61700
O  -0.97400 3.21400 23.41900
C  -1.49000 1.53200 24.92800
N  0.33600 8.28300 24.69000
C  -0.17100 7.30700 23.82800
C  -0.34100 7.85600 22.36500
C  -0.13000 9.37000 22.65100
C  0.43900 9.43300 24.09300
C  0.68900 7.30400 21.43600
C  -1.40400 10.18500 22.37600
C  -1.52500 10.66100 20.90100
N  1.03800 9.82000 27.00700
C  1.19600 10.83400 26.03100
C  1.68800 12.02200 26.68700
C  1.84800 11.72600 28.08800
C  1.31300 10.41700 28.21200
C  1.90700 13.46300 26.02800
C  2.12600 12.23200 29.38800
O  2.56500 13.34900 29.70600
C  1.67100 11.17600 30.41700
C  2.75900 10.89400 31.37900
O  3.75200 10.27800 31.15500
O  2.43700 11.40700 32.57900
C  3.25100 11.13700 33.70800
H  -0.49200 4.54800 29.65000
H  -0.72500 5.51000 23.22000
H  0.77500 11.46300 23.99200
H  1.68900 8.34100 31.84500
H  -0.24500 6.11000 31.75100
H  1.51400 4.84200 32.00900
H  2.63100 6.17900 31.96400
H  2.24500 5.31800 30.46300
H  -1.30100 8.10800 32.27500
H  -0.66200 9.72600 32.15100
H  0.01600 9.61600 34.25600
H  1.15600 8.45800 34.03000
H  -2.19500 2.93300 28.25200
H  -0.52900 2.71500 28.88600
H  -1.24700 1.72000 27.62700
H  -1.70600 1.03100 23.98400
H  -2.41800 1.65100 25.48700
H  -0.69100 1.11100 25.53900
H  -1.31300 7.72600 21.88900
H  0.71600 9.65700 22.02600
H  0.94700 8.09700 20.73400
H  0.31000 6.51000 20.79200
H  1.56300 7.04800 22.03500
H  -1.43400 10.98900 23.11200
H  -2.27100 9.53300 22.48800
H  -2.37800 10.12500 20.48400
H  -0.59200 10.52200 20.35500
H  -1.81900 11.70700 20.81900
H  1.01100 14.06700 25.88500
H  2.33100 13.34400 25.03000
H  2.59300 14.06200 26.62600
H  0.82400 11.46700 31.03700
H  3.93400 10.29700 33.57700
H  2.54600 10.80000 34.46800
H  3.79000 12.05200 33.95600
Mg 53.43100 24.58700 45.00200
C  50.76000 26.91700 44.22300
C  51.35400 22.05900 43.73600
C  56.01800 22.56500 44.60100
C  55.43800 27.24100 45.75800
N  51.37200 24.56000 44.16500
C  50.41900 25.57700 43.96300
C  49.10900 25.06900 43.30900
C  49.21000 23.61300 43.67500
C  50.76900 23.38400 43.85700
C  48.43500 23.16800 44.90700
C  49.01200 25.39600 41.79200
C  47.59200 25.13800 41.22100
H  47.39800 24.95200 39.73300
N  53.66700 22.53600 44.51800
C  52.70000 21.68400 44.02600
C  53.26500 20.35300 43.84200
C  54.58500 20.45300 44.24200
C  54.80400 21.87900 44.44900
C  52.38700 19.18500 43.35800
C  55.55100 19.26500 44.29100
O  55.17800 18.10900 44.09700
C  57.04400 19.35400 44.56400
N  55.48900 24.86400 45.21100
C  56.34400 23.85300 45.00400
C  57.77900 24.33200 45.32000
C  57.55100 25.80800 45.82200
C  56.06100 26.02500 45.44400
C  58.65700 23.48400 46.24600
C  58.57500 26.86900 45.23900
C  59.27300 27.80800 46.27400
N  53.24900 26.70300 45.07100
C  54.11700 27.60300 45.48200
C  53.35700 28.82800 45.71900
C  52.07600 28.61300 45.14100
C  52.04100 27.32500 44.75900
C  53.74500 30.16500 46.27000
C  50.76600 29.22500 44.86900
O  50.38900 30.36700 45.22300
C  49.91900 28.19500 44.10300
C  49.79200 28.69800 42.74700
O  50.73600 28.91200 42.01500
O  48.45800 28.77600 42.40300
C  48.19300 29.30400 41.05500
H  50.70700 21.21200 43.49700
H  56.92800 21.97900 44.45700
H  56.16200 27.94600 46.17200
H  48.23200 25.49800 43.79400
H  48.94500 22.94500 42.85600
H  48.02100 22.20800 44.60000
H  47.61300 23.87800 44.99900
H  49.03000 23.09200 45.81800
H  49.70700 24.73300 41.27600
H  49.17400 26.44600 41.55000
H  47.06100 26.05400 41.47900
H  47.14600 24.26500 41.69900
H  51.64700 19.46000 42.60600
H  51.65500 18.89700 44.11300
H  53.01700 18.40700 42.92800
H  57.42400 18.34300 44.71200
H  57.05600 19.92600 45.49200
H  57.49100 19.89000 43.72700
H  58.35800 24.31600 44.39600
H  57.68800 25.85400 46.90300
H  59.63200 23.44100 45.76100
H  58.28900 22.47000 46.40000
H  58.82200 24.00700 47.18800
H  58.07500 27.42900 44.44800
H  59.35000 26.24100 44.80000
H  60.33200 27.67700 46.05500
H  58.91500 27.72000 47.30000
H  58.91700 28.78100 45.93400
H  53.29000 30.21700 47.25900
H  53.45800 30.93800 45.55700
H  54.81500 30.27100 46.44900
H  48.91700 28.02700 44.49900
H  48.01400 30.36700 41.21100
H  47.21800 28.99700 40.67600
H  48.97800 29.15400 40.31400

