158

Mg -1.71700 34.83100 26.81300
C  -3.21600 32.93500 29.38500
C  -0.67600 37.08300 29.13200
C  -0.57000 36.69500 24.25900
C  -3.25000 32.65800 24.46400
N  -1.91800 34.99200 28.98700
C  -2.52300 34.07100 29.83300
C  -2.37000 34.52100 31.34900
C  -1.67300 35.88700 31.16700
C  -1.42900 36.00400 29.65400
C  -2.45900 37.04600 31.75000
C  -1.41900 33.51300 32.07000
C  -1.90200 32.88200 33.37300
H  -0.85800 32.79500 34.48900
N  -0.66500 36.61600 26.66500
C  -0.29500 37.39100 27.77100
C  0.44800 38.51900 27.32800
C  0.46500 38.41200 25.87900
C  -0.28800 37.22600 25.49600
C  0.99400 39.59500 28.18000
C  1.13300 39.45400 24.87200
O  1.19000 39.18300 23.64800
C  1.92300 40.61100 25.38000
N  -1.94000 34.78300 24.60400
C  -1.31100 35.63900 23.80100
C  -1.53400 35.24000 22.34900
C  -2.33200 33.88000 22.41600
C  -2.52500 33.75200 23.94700
C  -2.31200 36.38300 21.53200
C  -1.81100 32.54600 21.73600
C  -0.50800 32.08600 22.29400
N  -3.03300 33.21300 26.81400
C  -3.58800 32.44500 25.81600
C  -4.38600 31.37500 26.40600
C  -4.27900 31.52700 27.78600
C  -3.42400 32.58200 28.06100
C  -5.18900 30.32600 25.60000
C  -4.68900 30.92500 29.11400
O  -5.38200 29.99400 29.37300
C  -3.87200 31.81400 30.18800
C  -4.96500 32.23900 31.12900
O  -5.52700 33.35300 31.08000
O  -5.10800 31.31700 32.17300
C  -6.08700 31.59400 33.20000
H  -0.50600 37.88400 29.85400
H  -0.05200 37.13400 23.40300
H  -3.73500 31.97400 23.76500
H  -3.39600 34.57600 31.71100
H  -0.65200 35.96500 31.54200
H  -3.31900 36.60400 32.25300
H  -2.88400 37.58300 30.90200
H  -1.80700 37.60500 32.42000
H  -0.42000 33.89900 32.27300
H  -1.25100 32.69200 31.37300
H  -2.05200 31.82300 33.16600
H  -2.83500 33.30200 33.75200
H  2.06000 39.65500 27.95900
H  0.88400 39.34500 29.23500
H  0.53700 40.54900 27.91900
H  1.14300 41.27200 25.75800
H  2.48000 40.96100 24.51100
H  2.61000 40.28600 26.16100
H  -0.56500 34.90600 21.97900
H  -3.31700 34.14600 22.03300
H  -2.73900 37.01800 22.30800
H  -3.07100 35.87000 20.94100
H  -1.55600 36.93300 20.97200
H  -1.67000 32.65300 20.66100
H  -2.57700 31.78700 21.89700
H  0.26200 32.08000 21.52200
H  -0.54100 31.06300 22.66900
H  -0.15800 32.73600 23.09600
H  -6.04300 30.70500 25.04000
H  -5.55300 29.51200 26.22700
H  -4.47500 29.87400 24.91100
H  -3.13300 31.23700 30.74400
H  -5.76200 32.43400 33.81500
H  -6.13600 30.73600 33.87100
H  -7.05300 31.90700 32.80300
Mg -5.54400 25.47000 26.28400
C  -4.00500 26.73200 29.14000
C  -7.44000 23.42900 28.45700
C  -6.66100 23.90000 23.65100
C  -3.55600 27.50400 24.32300
N  -5.62700 25.12200 28.49900
C  -4.97800 25.84500 29.43000
C  -5.61900 25.71400 30.79100
C  -6.45900 24.33900 30.66800
C  -6.58100 24.27200 29.09800
C  -5.77200 23.09400 31.35600
C  -6.45700 27.05900 31.28500
C  -6.15400 27.43700 32.72400
H  -5.88100 26.23600 33.61300
N  -7.06600 23.98100 26.06300
C  -7.64600 23.27700 27.09000
C  -8.52300 22.25500 26.47200
C  -8.24600 22.35600 25.02000
C  -7.24900 23.42500 24.87900
C  -9.41400 21.30400 27.26300
C  -8.70200 21.42600 23.88700
O  -8.32700 21.55200 22.69600
C  -9.69100 20.32200 24.23100
N  -5.35000 25.84300 24.25800
C  -5.86000 24.98800 23.27500
C  -5.55600 25.48500 21.84700
C  -4.48700 26.65500 22.12100
C  -4.46000 26.70500 23.71600
C  -4.99700 24.52200 20.83800
C  -4.92500 28.09200 21.55500
C  -5.68100 28.16500 20.23100
N  -3.90100 26.62700 26.60800
C  -3.30500 27.49000 25.68200
C  -2.36300 28.34300 26.45400
C  -2.60000 28.04700 27.72900
C  -3.51100 26.98300 27.85500
C  -1.52700 29.50600 25.88000
C  -2.30000 28.56600 29.05900
O  -1.52000 29.40500 29.42600
C  -3.15400 27.74300 30.05400
C  -2.24900 26.94100 30.93000
O  -1.81200 25.82100 30.75000
O  -1.96300 27.63700 32.06800
C  -1.42900 26.86300 33.20100
H  -7.96600 22.80500 29.18300
H  -6.99900 23.35800 22.76600
H  -3.08700 28.22900 23.65400
H  -4.79100 25.51600 31.47200
H  -7.47800 24.36200 31.05400
H  -5.14000 23.34600 32.20700
H  -5.24600 22.51300 30.59900
H  -6.55100 22.44200 31.75000
H  -7.53800 26.95300 31.19000
H  -6.24000 27.86800 30.58700
H  -7.02700 27.93700 33.14300
H  -5.35800 28.18200 32.71800
H  -9.36100 21.59700 28.31200
H  -9.04700 20.31500 26.98800
H  -10.43400 21.30700 26.87900
H  -9.80700 19.74000 23.31600
H  -10.59400 20.65600 24.74200
H  -9.12100 19.65500 24.87800
H  -6.49800 25.90200 21.49000
H  -3.42900 26.45800 21.94700
H  -3.97300 24.66100 20.49100
H  -5.76400 24.44700 20.06800
H  -5.06800 23.56100 21.34700
H  -3.91800 28.48800 21.42100
H  -5.44600 28.69600 22.29800
H  -6.41800 28.94000 20.01900
H  -6.05900 27.23100 19.81600
H  -4.83500 28.33200 19.56400
H  -2.04900 29.81800 24.97500
H  -0.54400 29.15800 25.56500
H  -1.51700 30.29200 26.63500
H  -3.78200 28.42100 30.63200
H  -0.35800 27.00900 33.34700
H  -1.50300 25.77600 33.17300
H  -1.99100 27.19500 34.07400

