158

Mg 35.85800 1.77000 29.08600
C  33.75400 2.87800 31.41300
C  38.48600 2.20500 31.27300
C  38.12400 0.85900 26.63800
C  33.44300 2.04100 26.61700
N  36.07900 2.54600 31.13300
C  35.01000 2.70200 31.97600
C  35.43400 2.81500 33.37700
C  37.02100 2.78100 33.33900
C  37.24600 2.32000 31.85400
C  37.77600 4.06100 33.78900
C  34.81000 1.71200 34.27600
C  34.28600 2.17900 35.69400
H  35.07300 3.12700 36.63100
N  37.94100 1.51200 28.98200
C  38.80200 1.83100 30.00000
C  40.18700 1.70300 29.50600
C  40.08100 1.10000 28.20700
C  38.65100 1.11000 27.86700
C  41.42800 2.13400 30.20500
C  41.26000 0.45400 27.42100
O  41.02300 -0.09700 26.36200
C  42.70400 0.40000 27.88100
N  35.67900 1.23100 26.92900
C  36.81100 0.96600 26.15600
C  36.42100 0.86500 24.62900
C  34.85500 0.98500 24.77400
C  34.57900 1.44400 26.16500
C  37.06100 2.04300 23.88700
C  34.21800 -0.41600 24.50400
C  33.80700 -1.34600 25.77300
N  33.94200 2.30300 29.00400
C  33.12400 2.45700 27.96200
C  31.81800 2.91300 28.41300
C  32.04200 3.10400 29.80500
C  33.36000 2.70100 30.06200
C  30.60500 3.32700 27.62400
C  31.54100 3.63100 30.99600
O  30.43100 4.10700 31.16300
C  32.54500 3.44600 32.07700
C  32.72900 4.71000 32.80200
O  33.59600 5.50800 32.61200
O  31.73800 4.80500 33.79400
C  31.87900 5.97800 34.69600
H  39.29300 2.34800 31.99400
H  38.67500 0.46600 25.78100
H  32.72300 2.17200 25.80600
H  35.14600 3.81500 33.70100
H  37.45000 1.97000 33.92600
H  37.20300 4.62700 34.52400
H  37.96300 4.68700 32.91700
H  38.77100 3.88400 34.19800
H  35.56400 0.93900 34.42300
H  33.96100 1.25600 33.76700
H  34.02100 1.22100 36.14100
H  33.31500 2.60300 35.43600
H  41.87700 1.38300 30.85500
H  41.17500 2.93100 30.90300
H  42.17300 2.66600 29.61300
H  43.13700 1.39800 27.81900
H  43.29500 -0.22500 27.21100
H  42.75000 0.02100 28.90200
H  36.87600 0.00400 24.13800
H  34.45000 1.67300 24.03200
H  36.31800 2.83300 23.76900
H  37.16700 1.66100 22.87200
H  37.97400 2.44600 24.32500
H  34.91700 -0.96400 23.87200
H  33.38600 -0.18600 23.83800
H  34.21100 -2.32700 25.52600
H  32.72600 -1.36700 25.91500
H  34.23100 -0.98300 26.71000
H  30.53900 4.37100 27.93000
H  29.77600 2.72800 27.99900
H  30.74900 3.11400 26.56500
H  32.09700 2.69100 32.72300
H  32.43800 5.58200 35.54400
H  30.90500 6.38100 34.97400
H  32.51200 6.74200 34.24500
Mg 30.25200 58.27000 41.13000
C  27.50000 56.29800 40.05700
C  32.34800 55.53700 40.19400
C  32.80900 60.29200 41.10100
C  28.03000 60.87300 41.43100
N  30.01800 56.20100 40.12000
C  28.74500 55.63900 39.88000
C  28.95400 54.27100 39.21700
C  30.40900 53.89500 39.77200
C  30.98400 55.30300 40.00500
C  30.51800 53.02000 41.07100
C  28.94100 54.45700 37.61600
C  27.94600 53.56900 36.88800
H  26.95100 54.26600 35.96400
N  32.33600 57.97800 40.83600
C  32.95000 56.84100 40.38800
C  34.42900 57.02600 40.36200
C  34.63300 58.39600 40.60700
C  33.23200 58.98200 40.82300
C  35.42500 55.83300 40.09500
C  35.93000 59.13500 40.65600
O  36.97700 58.39300 40.61700
C  36.12100 60.60300 40.73500
N  30.37900 60.28500 41.12300
C  31.57300 60.88300 41.35600
C  31.39600 62.38100 41.59100
C  29.94200 62.50500 41.87900
C  29.40100 61.14800 41.37900
C  32.35300 63.10500 42.61300
C  29.22400 63.77600 41.29300
C  28.18200 64.39600 42.19400
N  28.14300 58.55400 40.92300
C  27.40200 59.67300 41.14000
C  25.99400 59.41300 40.88700
C  25.97500 58.04600 40.65500
C  27.31800 57.62900 40.48700
C  24.85900 60.35800 40.90500
C  25.13700 56.89800 40.36200
O  23.88000 56.85100 40.40300
C  26.06800 55.70500 39.83100
C  25.87400 54.54300 40.71200
O  26.49300 54.26800 41.77400
O  24.89200 53.76500 40.14900
C  24.63600 52.49100 40.85800
H  32.88900 54.60100 40.03800
H  33.62000 60.97800 41.35300
H  27.42300 61.77900 41.49000
H  28.17300 53.59700 39.57000
H  30.98700 53.36800 39.01300
H  30.86400 53.57600 41.94200
H  31.25500 52.24500 40.86000
H  29.54400 52.60600 41.33300
H  29.90500 54.11600 37.23900
H  28.72500 55.47300 37.28400
H  27.36100 53.03400 37.63600
H  28.48600 52.79100 36.34900
H  35.84100 55.97300 39.09700
H  35.08500 54.81500 39.90500
H  36.16800 55.66000 40.87400
H  35.74900 60.84100 41.73200
H  35.58300 60.92600 39.84400
H  37.15800 60.92100 40.63100
H  31.60200 62.83300 40.62100
H  29.72900 62.41500 42.94400
H  33.19100 63.70600 42.25700
H  32.79100 62.31100 43.21700
H  31.70600 63.63400 43.31300
H  28.85900 63.54000 40.29300
H  30.02500 64.49900 41.13900
H  28.68800 65.20300 42.72500
H  27.95900 63.75400 43.04600
H  27.20900 64.68600 41.79900
H  25.31800 61.30300 40.61300
H  24.43200 60.46200 41.90300
H  24.15400 60.01200 40.15000
H  25.74200 55.44200 38.82500
H  24.33200 52.74200 41.87400
H  25.55400 51.91800 40.98000
H  23.85500 52.07500 40.22200

