158

Mg 17.33200 -0.67000 28.12600
C  15.96400 1.34300 30.69400
C  19.25400 -2.19100 30.34200
C  18.65400 -2.27700 25.53500
C  15.41300 1.33600 25.82400
N  17.54800 -0.41700 30.21000
C  16.80600 0.35200 31.09500
C  17.13500 -0.04900 32.50300
C  18.23500 -1.10800 32.43600
C  18.36500 -1.24100 30.92200
C  19.58500 -0.75100 33.06600
C  15.85300 -0.56600 33.25800
C  15.85900 -0.44000 34.78000
H  16.94800 0.25000 35.51400
N  18.68200 -2.00200 27.94400
C  19.43400 -2.51900 29.00000
C  20.32300 -3.50300 28.49000
C  20.24600 -3.50500 27.11800
C  19.12400 -2.58100 26.77800
C  21.39400 -4.19400 29.38900
C  21.03700 -4.25700 26.13300
O  20.75300 -4.28700 24.99100
C  22.15300 -5.07700 26.56800
N  17.10200 -0.44300 26.06000
C  17.77600 -1.31400 25.18800
C  17.31500 -1.11200 23.70500
C  16.08000 -0.11600 23.86500
C  16.27600 0.34700 25.31800
C  18.48600 -0.60400 22.85800
C  14.69400 -0.71100 23.45200
C  14.09400 -1.72100 24.41900
N  15.94100 0.96500 28.19300
C  15.31800 1.71900 27.21500
C  14.42500 2.68000 27.85400
C  14.67700 2.56300 29.16800
C  15.69900 1.59600 29.35300
C  13.38600 3.59500 27.09800
C  14.38900 3.19400 30.42100
O  13.67200 4.16000 30.72200
C  15.17100 2.32200 31.44700
C  15.96800 3.21500 32.33100
O  17.10900 3.63300 32.10100
O  15.20300 3.39300 33.48200
C  15.85300 4.07900 34.61800
H  19.91700 -2.76800 30.99000
H  19.18100 -2.74000 24.69900
H  14.76700 1.84200 25.10400
H  17.65200 0.82900 32.89000
H  17.98500 -2.01900 32.98000
H  20.41200 -0.82400 32.35900
H  19.76400 -1.59400 33.73400
H  19.61900 0.17500 33.63800
H  15.62900 -1.60800 33.03100
H  14.91400 -0.10500 32.95300
H  15.59800 -1.42800 35.15900
H  14.92200 0.11100 34.86200
H  22.36400 -3.79200 29.09700
H  21.53600 -5.27300 29.32100
H  21.35200 -4.00400 30.46100
H  21.84800 -5.88600 27.23200
H  22.86100 -4.47700 27.14000
H  22.74700 -5.44000 25.72900
H  16.99700 -2.02100 23.19500
H  16.25100 0.73700 23.20900
H  18.36100 0.47700 22.79700
H  18.31600 -1.04800 21.87700
H  19.51500 -0.84100 23.12900
H  14.83400 -1.26100 22.52200
H  14.10500 0.15200 23.14000
H  14.58400 -1.80900 25.38900
H  13.87800 -2.71100 24.01700
H  13.08500 -1.38900 24.66400
H  13.82900 4.57200 26.90500
H  12.47300 3.70300 27.68400
H  13.11600 3.12800 26.15100
H  14.41200 1.78100 32.01100
H  15.01300 4.24600 35.29200
H  16.27100 5.00700 34.22700
H  16.66200 3.53400 35.10400
Mg -5.45700 25.60100 26.01800
C  -4.37800 27.32700 28.96700
C  -7.46400 23.78400 27.98100
C  -6.34300 23.95200 23.26400
C  -3.20000 27.55500 24.17400
N  -5.64100 25.44700 28.25500
C  -5.28600 26.32200 29.26500
C  -5.87900 25.98700 30.59000
C  -6.74200 24.70500 30.25100
C  -6.63900 24.60200 28.71600
C  -6.29600 23.37000 30.96300
C  -6.77500 27.10500 31.16600
C  -6.93600 27.18900 32.74100
H  -6.37300 26.00400 33.64700
N  -6.77900 24.11200 25.59600
C  -7.57200 23.55900 26.60400
C  -8.36800 22.44800 25.92600
C  -8.08000 22.48200 24.48700
C  -7.03700 23.57800 24.40600
C  -9.42400 21.73000 26.65900
C  -8.66600 21.72300 23.33800
O  -8.38600 21.89500 22.14500
C  -9.78200 20.75800 23.65900
N  -4.77500 25.59900 24.00000
C  -5.29100 24.78500 23.05300
C  -4.55800 24.93900 21.70300
C  -3.70300 26.27100 21.94500
C  -3.96500 26.52600 23.43800
C  -3.83600 23.64600 21.31200
C  -3.88100 27.38900 20.92700
C  -5.21500 28.24100 21.04500
N  -4.00700 27.04200 26.39000
C  -3.26300 27.83000 25.55400
C  -2.51700 28.80600 26.33000
C  -2.90100 28.58600 27.69900
C  -3.82200 27.58800 27.65100
C  -1.68800 29.82100 25.68000
C  -2.71500 29.06300 29.08100
O  -1.98400 29.96800 29.44900
C  -3.68400 28.25300 30.00400
C  -2.81800 27.59900 31.02600
O  -1.92400 26.76500 30.86700
O  -3.10800 28.13200 32.24900
C  -2.39000 27.61300 33.42100
H  -8.16100 23.20900 28.59400
H  -6.64400 23.29100 22.44800
H  -2.50800 28.10500 23.53200
H  -5.01600 25.85600 31.24200
H  -7.82200 24.81800 30.34700
H  -6.00700 23.59100 31.99100
H  -5.41300 22.98400 30.45400
H  -7.12800 22.66700 30.91100
H  -7.80300 26.94900 30.84100
H  -6.45900 28.10100 30.85500
H  -7.93800 27.52100 33.01200
H  -6.25900 27.93500 33.15700
H  -10.37200 22.13300 26.30300
H  -9.37100 21.88400 27.73600
H  -9.17400 20.68900 26.45500
H  -9.52800 19.94900 24.34400
H  -9.99900 20.31900 22.68500
H  -10.62400 21.40100 23.91300
H  -5.28200 25.24500 20.94700
H  -2.64700 26.01200 21.87500
H  -4.07200 22.98700 22.14800
H  -2.77900 23.91100 21.27100
H  -4.19400 23.36600 20.32100
H  -3.59500 27.15700 19.90100
H  -3.16300 28.12100 21.29700
H  -5.83500 27.89100 21.87100
H  -5.75900 28.19400 20.10100
H  -4.99300 29.26900 21.33000
H  -2.28900 30.64800 25.30300
H  -1.13400 29.40200 24.84000
H  -1.05100 30.34100 26.39500
H  -4.33400 28.97000 30.50600
H  -1.95200 26.62900 33.25600
H  -3.15700 27.61200 34.19600
H  -1.59300 28.29200 33.72500

