158

Mg 49.28600 44.79400 42.01000
C  45.84900 45.36600 41.19900
C  48.76600 41.68600 40.69800
C  52.54600 44.45300 41.94400
C  49.59900 48.31500 42.27400
N  47.43100 43.66500 41.16800
C  46.16000 44.05800 40.91400
C  45.31700 43.05000 40.15100
C  46.20200 41.81100 40.27100
C  47.59200 42.42200 40.69300
C  45.78800 40.79500 41.35000
C  45.12900 43.69700 38.75300
C  43.75200 43.68200 38.07600
H  43.52100 42.63100 37.00300
N  50.50300 43.18900 41.63700
C  50.11600 42.00800 41.04900
C  51.26000 41.16900 40.94000
C  52.42700 41.93500 41.35900
C  51.86500 43.23800 41.73200
C  51.13000 39.73900 40.34700
C  53.83300 41.39300 41.58100
O  54.08600 40.24600 41.26200
C  54.98000 42.16300 42.14400
N  50.85900 46.18100 42.04300
C  52.10700 45.75900 42.06800
C  53.15000 46.94500 41.91900
C  52.22600 48.15500 42.21800
C  50.79100 47.52200 42.19600
C  54.33400 46.78700 42.87800
C  52.56100 49.42900 41.40800
C  52.29300 50.75000 42.16900
N  48.04800 46.55200 41.99900
C  48.26600 47.89200 42.21500
C  47.08100 48.61100 42.34200
C  46.12000 47.69800 41.91600
C  46.74600 46.41600 41.70700
C  46.87900 50.04700 42.76400
C  44.62800 47.53100 41.59200
O  43.71800 48.36800 41.50000
C  44.47700 45.99300 41.18300
C  43.63400 45.42500 42.19400
O  44.00500 44.70700 43.13400
O  42.32900 45.69900 41.90400
C  41.36200 45.13900 42.76900
H  48.68600 40.64100 40.39200
H  53.60000 44.35700 41.67500
H  49.70200 49.40300 42.26400
H  44.36500 42.97900 40.67500
H  46.19400 41.35700 39.28000
H  44.79300 41.14000 41.63200
H  46.44600 40.84100 42.21700
H  45.70500 39.80300 40.90600
H  45.84400 43.15500 38.13500
H  45.40500 44.74800 38.67200
H  43.52500 44.70500 37.77500
H  43.09000 43.45300 38.91100
H  50.71800 39.05500 41.08800
H  51.99600 39.17100 40.00700
H  50.35200 39.76300 39.58400
H  54.53100 42.76800 42.93200
H  55.32600 42.77600 41.31200
H  55.75100 41.52400 42.57500
H  53.52800 46.90300 40.89800
H  52.37400 48.51800 43.23500
H  55.29300 46.45800 42.47800
H  54.01700 46.14000 43.69600
H  54.57700 47.73200 43.36400
H  51.98500 49.39800 40.48300
H  53.64500 49.53300 41.35100
H  51.92100 50.52000 43.16800
H  51.51800 51.25200 41.58900
H  53.18000 51.38100 42.22200
H  47.72400 50.33200 43.39200
H  45.94000 50.12000 43.31400
H  46.88400 50.53400 41.78900
H  44.10400 45.84200 40.17100
H  41.72900 44.20700 43.19700
H  40.49900 44.89400 42.15000
H  41.02700 45.81400 43.55600
Mg 46.98800 34.02800 27.05700
C  44.77400 32.90000 29.57600
C  47.49900 36.81300 28.93300
C  48.50500 35.41500 24.31600
C  46.10700 31.26500 25.10400
N  46.25400 34.69400 28.95900
C  45.56600 33.98400 29.88800
C  45.63900 34.63200 31.28700
C  46.26400 36.10000 30.96100
C  46.62800 35.87800 29.53000
C  45.45900 37.38200 31.28100
C  46.61300 33.77500 32.13800
C  47.05000 34.26300 33.50400
H  46.08400 35.19300 34.20300
N  47.91800 35.86500 26.67600
C  48.09600 36.84600 27.62100
C  48.88500 37.94500 27.07100
C  49.13600 37.51400 25.67200
C  48.48200 36.24900 25.49600
C  49.32700 39.23400 27.84500
C  49.77400 38.33200 24.63400
O  49.84100 37.94200 23.48900
C  50.36000 39.75600 24.92300
N  47.06000 33.53400 24.96300
C  47.82800 34.13900 24.06600
C  48.03700 33.38400 22.73500
C  47.39500 32.02300 23.03000
C  46.82400 32.21800 24.50300
C  47.58700 34.10700 21.47500
C  48.27800 30.78700 22.77500
C  49.56900 30.48600 23.59800
N  45.65900 32.41900 27.17900
C  45.50300 31.32300 26.39000
C  44.64200 30.38500 27.03100
C  44.24100 31.00700 28.20400
C  44.92900 32.17500 28.31400
C  44.17100 28.99600 26.50200
C  43.38300 30.93100 29.37100
O  42.63700 29.97300 29.44000
C  43.66900 32.12400 30.28700
C  44.09400 31.49000 31.52700
O  44.77700 30.45900 31.64500
O  43.54300 32.12700 32.63700
C  43.74500 31.38300 33.93100
H  47.73400 37.67600 29.56000
H  49.03900 35.70200 23.40800
H  46.01200 30.38600 24.46400
H  44.60700 34.71500 31.63000
H  47.12100 36.19200 31.62800
H  44.45500 37.11100 31.60900
H  45.39500 37.96300 30.36100
H  45.86800 38.06600 32.02400
H  47.48800 33.80000 31.48900
H  46.21800 32.76900 32.28200
H  48.00800 34.70800 33.23400
H  47.38600 33.49800 34.20300
H  50.37500 38.99600 28.02800
H  48.94500 39.15800 28.86300
H  49.15400 40.24400 27.47300
H  49.45700 40.27200 25.24800
H  50.81700 40.17300 24.02500
H  51.12200 39.65700 25.69600
H  49.11400 33.52700 22.81400
H  46.42500 32.05000 22.53300
H  48.48400 34.62600 21.13900
H  46.84300 34.87400 21.69000
H  47.32000 33.36000 20.72700
H  48.53400 31.09700 21.76100
H  47.65800 29.90900 22.59600
H  50.28600 31.24200 23.27700
H  49.98600 29.49300 23.43300
H  49.19300 30.54100 24.61900
H  44.62500 28.18400 27.07000
H  44.49700 29.09000 25.46600
H  43.11900 28.73800 26.38400
H  42.74200 32.68800 30.39100
H  44.40900 31.90500 34.61900
H  43.84900 30.29900 33.96100
H  42.71900 31.52500 34.27100

