158

Mg 48.74200 44.80900 43.89100
C  45.21900 45.33700 42.94300
C  48.54100 41.72100 42.27300
C  52.02900 44.83600 43.73100
C  48.71700 48.33800 44.53000
N  47.01200 43.61800 42.91900
C  45.75300 44.01200 42.64600
C  44.98200 42.84900 41.89400
C  46.00200 41.67400 41.90600
C  47.29000 42.39600 42.39100
C  45.62200 40.41300 42.76000
C  44.49000 43.24300 40.43900
C  45.58000 43.60500 39.42900
H  45.74400 42.71400 38.13800
N  50.03500 43.33300 43.42700
C  49.82400 42.10000 42.79300
C  51.06100 41.35500 42.74800
C  52.07300 42.27500 43.14600
C  51.42300 43.55700 43.46700
C  51.06100 39.99200 42.24600
C  53.63500 41.95100 43.26500
O  54.11500 40.81200 43.13700
C  54.73900 43.02000 43.59700
N  50.22300 46.43700 43.92000
C  51.51000 46.10500 43.95900
C  52.36600 47.37900 44.21900
C  51.36300 48.47500 44.56400
C  49.97200 47.77600 44.25100
C  53.52700 47.15800 45.25900
C  51.46800 49.79300 43.62700
C  52.17700 51.01500 44.38700
N  47.22900 46.49000 44.10000
C  47.45400 47.85300 44.29300
C  46.21800 48.59100 44.14900
C  45.33300 47.60400 43.66100
C  45.99200 46.39000 43.54600
C  46.01600 50.07900 44.38600
C  43.95700 47.39700 43.18800
O  42.99000 48.13100 43.07200
C  43.86300 45.93100 42.64900
C  42.61400 45.26500 43.21500
O  41.63200 45.04600 42.50100
O  42.73100 44.94200 44.51300
C  41.45400 44.33700 45.06000
H  48.43800 40.77500 41.73800
H  53.11100 44.94600 43.63400
H  48.90000 49.30700 44.99800
H  44.09700 42.58200 42.47100
H  46.10800 41.22500 40.91800
H  46.47700 40.12800 43.37400
H  45.52200 39.53100 42.12800
H  44.66500 40.53900 43.26700
H  43.88500 44.12300 40.65600
H  43.79800 42.50600 40.03300
H  46.57500 43.55200 39.87200
H  45.33100 44.63600 39.17500
H  51.78300 39.99200 41.42900
H  50.15600 39.54000 41.84200
H  51.51100 39.25400 42.91100
H  55.73400 42.57900 43.53100
H  54.55200 43.51100 44.55200
H  54.79800 43.79700 42.83500
H  52.89400 47.53800 43.27900
H  51.42300 48.67300 45.63400
H  53.37500 46.32900 45.95000
H  53.92400 47.97400 45.86400
H  54.37000 46.82400 44.65300
H  50.47500 50.20600 43.45000
H  51.88700 49.46000 42.67800
H  53.07100 51.09700 43.76900
H  52.53800 50.77200 45.38600
H  51.55200 51.90800 44.38800
H  46.65000 50.65000 43.70900
H  46.13400 50.45200 45.40400
H  44.95600 50.27100 44.22200
H  43.71900 45.94000 41.56800
H  41.34600 43.29300 44.76600
H  40.51100 44.83400 44.82900
H  41.45800 44.41100 46.14700
Mg -6.03100 25.57800 24.59100
C  -4.31800 26.44800 27.41400
C  -7.74000 23.13900 26.59100
C  -7.23800 24.00900 21.73700
C  -4.01500 27.49900 22.60700
N  -6.14100 24.89700 26.72700
C  -5.27600 25.46700 27.68100
C  -5.71900 25.09300 29.06200
C  -6.61100 23.82500 28.87500
C  -6.88400 23.95400 27.33000
C  -5.91600 22.45800 29.27200
C  -6.53200 26.28000 29.73900
C  -6.27600 26.55600 31.25000
H  -5.66900 25.45700 32.14200
N  -7.41600 23.86400 24.22300
C  -8.03200 23.06100 25.21000
C  -8.82100 22.06400 24.53100
C  -8.71500 22.28100 23.10200
C  -7.71900 23.35600 22.94100
C  -9.75300 21.08900 25.22600
C  -9.46400 21.64600 21.93400
O  -9.19200 21.86800 20.74700
C  -10.61300 20.60900 22.16800
N  -5.73200 25.69600 22.46600
C  -6.34200 25.05000 21.51800
C  -6.08100 25.66500 20.10700
C  -5.16700 26.85600 20.42700
C  -4.95500 26.71800 21.93800
C  -5.47900 24.63300 19.06700
C  -5.73900 28.34100 20.08200
C  -6.36200 28.47400 18.64400
N  -4.44000 26.79500 24.88900
C  -3.74800 27.54400 24.03200
C  -2.77100 28.30500 24.80100
C  -3.01600 27.98600 26.09400
C  -3.94900 26.95800 26.11800
C  -1.85900 29.38800 24.29400
C  -2.65300 28.28500 27.50900
O  -1.92200 29.13200 28.01200
C  -3.60800 27.32800 28.35300
C  -2.67700 26.57600 29.28400
O  -2.15500 25.48100 29.06500
O  -2.48500 27.36300 30.39900
C  -1.63400 26.91400 31.49700
H  -8.29600 22.42700 27.20400
H  -7.61100 23.69600 20.76000
H  -3.48400 28.15300 21.91200
H  -4.85000 24.79000 29.64600
H  -7.56800 23.90200 29.39100
H  -5.74600 21.75600 28.45500
H  -6.48100 21.95700 30.05800
H  -4.94800 22.74200 29.68600
H  -7.61800 26.18400 29.72600
H  -6.41600 27.16000 29.10600
H  -7.20600 26.88500 31.71400
H  -5.57700 27.38900 31.31600
H  -9.45700 21.07900 26.27500
H  -9.67700 20.08000 24.81900
H  -10.78800 21.42900 25.20700
H  -11.30800 20.59400 21.32900
H  -11.17300 21.01000 23.01300
H  -10.15800 19.62300 22.25700
H  -7.03300 26.09000 19.78800
H  -4.32800 26.83800 19.73200
H  -4.98600 23.77800 19.53000
H  -4.74200 25.17400 18.47400
H  -6.31800 24.35900 18.42700
H  -4.96400 29.10100 20.17600
H  -6.48400 28.58400 20.83900
H  -6.06700 29.38700 18.12700
H  -7.44400 28.58000 18.71600
H  -6.04200 27.64600 18.01200
H  -2.39100 30.33700 24.35800
H  -1.52200 29.20700 23.27300
H  -0.99600 29.26900 24.94900
H  -4.30500 27.88000 28.98300
H  -1.16600 25.94200 31.34500
H  -2.36400 26.78800 32.29700
H  -0.88600 27.69500 31.63400

