158

Mg 0.45900 7.91900 24.81100
C  1.32800 9.60200 27.88800
C  0.73900 4.98200 26.53600
C  0.08300 6.38500 21.95200
C  0.79300 11.12400 23.13300
N  0.90200 7.41200 26.96900
C  1.13500 8.26100 28.07700
C  1.24600 7.42000 29.34500
C  1.15300 5.92900 28.87000
C  0.89400 6.08500 27.35600
C  2.38000 4.94700 29.09000
C  0.23200 7.92400 30.37700
C  0.71000 7.76900 31.78900
H  1.89700 6.77600 32.17500
N  0.40400 5.96000 24.33500
C  0.46500 4.89800 25.19400
C  0.33000 3.66600 24.48700
C  0.17200 4.05400 23.10400
C  0.11800 5.49800 23.13200
C  0.43800 2.28400 25.00800
C  0.12500 3.25700 21.80100
O  -0.14100 3.79700 20.73800
C  0.35500 1.79500 21.80200
N  0.65900 8.73800 22.83500
C  0.30600 7.77500 21.83100
C  0.16500 8.52200 20.47800
C  0.37900 10.02700 20.86600
C  0.62000 10.03300 22.37000
C  1.05900 8.00500 19.37700
C  -0.62200 11.01700 20.41200
C  -1.90500 11.19100 21.27300
N  0.92200 9.94800 25.38200
C  0.99300 11.08900 24.54600
C  1.21400 12.19900 25.42700
C  1.43800 11.68400 26.72700
C  1.21000 10.29700 26.63300
C  1.19500 13.67500 25.06500
C  1.69000 12.04400 28.05800
O  1.88100 13.15300 28.61000
C  1.56000 10.72400 28.92400
C  2.74100 10.65100 29.83000
O  3.87300 10.39100 29.46900
O  2.37800 11.09300 31.11300
C  3.32800 11.42200 32.14800
H  0.88800 4.06700 27.11400
H  -0.00300 5.94300 20.95800
H  0.91500 12.08700 22.63300
H  2.23800 7.64400 29.73700
H  0.34500 5.43400 29.40900
H  2.86700 4.60700 28.17600
H  1.97000 4.09400 29.63100
H  3.08800 5.49800 29.70900
H  -0.61200 7.24300 30.26900
H  0.02600 8.98900 30.27500
H  -0.15000 7.37100 32.32700
H  0.93300 8.72700 32.25600
H  -0.44600 1.65500 24.90400
H  0.68400 2.30600 26.07000
H  1.29900 1.78900 24.55800
H  0.01300 1.24000 22.67500
H  1.43000 1.62600 21.73400
H  -0.12500 1.32100 20.94600
H  -0.85500 8.44900 20.10200
H  1.31200 10.29700 20.37100
H  1.59200 8.84000 18.92200
H  0.40400 7.60000 18.60600
H  1.76000 7.26000 19.75300
H  -0.92600 10.85200 19.37800
H  -0.24600 12.03900 20.39000
H  -2.88100 11.30000 20.79900
H  -1.74800 12.10900 21.84000
H  -1.92400 10.47300 22.09300
H  2.04900 13.87300 24.41700
H  1.22100 14.44800 25.83300
H  0.43000 13.84000 24.30700
H  0.64200 10.89300 29.48800
H  3.31800 12.51000 32.21700
H  4.33300 11.13800 31.83600
H  3.07900 10.80200 33.00900
Mg 35.71500 48.97000 25.43000
C  35.90700 46.89200 28.30600
C  34.38000 51.39400 27.30400
C  34.91400 50.55700 22.59200
C  36.91900 46.11000 23.51900
N  35.33200 49.12500 27.58000
C  35.48800 48.22900 28.50400
C  35.15100 48.79000 29.93800
C  34.45900 50.15700 29.57600
C  34.80600 50.27200 28.07600
C  32.98400 50.21900 29.95900
C  36.52600 48.82300 30.62400
C  36.49300 48.33900 32.08300
H  35.14900 48.29000 32.88900
N  34.89100 50.73200 25.04000
C  34.49300 51.66300 25.95200
C  34.14500 52.95300 25.32700
C  34.25300 52.67200 23.96500
C  34.68000 51.24400 23.82600
C  33.98900 54.24400 26.11400
C  34.06400 53.65300 22.74600
O  34.21900 53.34800 21.58400
C  33.75600 55.07700 23.02100
N  35.87200 48.38500 23.35800
C  35.50700 49.25600 22.38400
C  35.84100 48.71300 20.99100
C  36.66600 47.40800 21.26200
C  36.49400 47.33100 22.84300
C  34.52900 48.45700 20.17200
C  38.16400 47.48300 20.76900
C  39.22800 47.87300 21.83100
N  36.26100 46.91800 25.73300
C  36.67600 45.94900 24.90400
C  36.87800 44.70800 25.66700
C  36.65300 45.06400 27.02700
C  36.27300 46.42500 26.98600
C  37.43300 43.41100 25.22200
C  36.63000 44.55600 28.31500
O  36.96400 43.41100 28.75800
C  36.13500 45.69200 29.25900
C  34.84300 45.27600 29.84000
O  33.73400 45.41000 29.32900
O  35.03500 44.67900 31.09300
C  33.82000 44.22900 31.79600
H  33.86200 52.12200 27.93300
H  34.90100 51.08100 21.63400
H  37.18300 45.13600 23.10200
H  34.51200 48.15000 30.54600
H  34.93400 50.96700 30.12900
H  32.41300 50.42300 29.05300
H  32.79600 50.84300 30.83300
H  32.61100 49.23400 30.24000
H  36.71700 49.88100 30.80700
H  37.37500 48.47300 30.03700
H  37.10100 49.04500 32.64800
H  36.87300 47.31800 32.10400
H  33.70600 54.07400 27.15200
H  33.23700 54.89900 25.67400
H  35.01000 54.62100 26.05100
H  32.87200 55.27600 23.62700
H  33.54000 55.55500 22.06500
H  34.59200 55.60100 23.48400
H  36.55800 49.31700 20.43400
H  36.28600 46.48200 20.83100
H  34.28300 49.40900 19.70200
H  33.69200 48.20200 20.82100
H  34.57900 47.64200 19.44900
H  38.32000 48.16400 19.93300
H  38.37400 46.48700 20.37900
H  39.78000 48.61100 21.24900
H  39.81400 46.96200 21.95000
H  39.08100 48.31900 22.81500
H  38.28900 43.57700 24.56800
H  36.55700 43.01400 24.70900
H  37.70600 42.71700 26.01700
H  36.86600 45.85000 30.05200
H  33.47400 43.42000 31.15300
H  33.05200 44.98900 31.93900
H  34.13000 43.80500 32.75100

