158

Mg 24.41400 -5.42700 45.85000
C  26.79800 -3.02800 44.47700
C  22.16700 -4.01000 43.63100
C  22.62800 -8.15800 46.31700
C  27.23800 -6.85500 47.51200
N  24.48700 -3.72900 44.28200
C  25.55400 -2.95000 43.90000
C  25.20400 -2.07500 42.71800
C  23.65300 -2.04600 42.64200
C  23.39600 -3.28300 43.64700
C  23.10000 -0.76300 43.07800
C  25.76800 -2.77300 41.43800
C  26.65500 -1.86000 40.45200
H  26.00700 -1.56600 39.08900
N  22.53000 -5.96200 45.21100
C  21.81100 -5.30400 44.23400
C  20.55700 -6.01500 44.11700
C  20.69200 -7.16900 44.93600
C  21.97000 -7.13000 45.56600
C  19.47500 -5.62800 43.18400
C  19.52500 -8.15100 45.14200
O  18.55800 -8.14200 44.38900
C  19.42600 -9.14100 46.37200
N  24.86400 -7.17300 46.86700
C  23.91800 -8.12100 47.01300
C  24.46300 -9.31400 47.83800
C  25.87300 -8.84300 48.31900
C  26.01800 -7.60300 47.50200
C  23.53200 -9.76700 48.99800
C  26.96800 -9.89000 47.98800
C  28.05100 -10.17000 49.13000
N  26.64800 -4.94900 46.17200
C  27.51500 -5.62300 46.89200
C  28.74000 -4.86400 46.76500
C  28.48900 -3.85400 45.85300
C  27.22900 -3.98300 45.47000
C  29.93300 -5.39400 47.53100
C  29.13100 -2.74600 45.24300
O  30.29700 -2.35400 45.27300
C  28.01500 -2.11800 44.26900
C  27.87700 -0.66900 44.70800
O  28.46000 0.27800 44.26600
O  26.94300 -0.58200 45.78500
C  26.95600 0.71500 46.46000
H  21.40400 -3.61300 42.95800
H  22.15400 -9.13800 46.40400
H  28.06900 -7.42000 47.94000
H  25.55600 -1.05500 42.87500
H  23.30500 -2.30400 41.64200
H  22.19900 -0.85700 43.68400
H  22.69900 -0.22500 42.21900
H  23.77300 -0.11200 43.63600
H  25.06800 -3.35200 40.83600
H  26.54600 -3.43200 41.82300
H  27.57700 -2.40500 40.24800
H  26.87200 -0.91700 40.95400
H  19.52700 -6.29600 42.32400
H  19.62600 -4.59500 42.87000
H  18.49300 -5.64900 43.65600
H  20.01100 -8.86000 47.24800
H  19.69600 -10.17900 46.18100
H  18.35100 -9.20000 46.54200
H  24.50300 -10.15400 47.14400
H  25.80500 -8.67600 49.39400
H  22.56900 -9.26500 48.90600
H  23.79500 -9.57000 50.03800
H  23.24500 -10.81700 48.94200
H  27.54300 -9.38400 47.21200
H  26.65600 -10.85100 47.58000
H  28.15800 -11.23900 49.31400
H  27.78700 -9.60200 50.02200
H  28.93900 -9.62100 48.81600
H  30.29900 -6.29900 47.04700
H  29.68300 -5.59400 48.57300
H  30.73000 -4.68200 47.31500
H  28.25200 -2.10700 43.20500
H  26.02400 0.89000 46.99700
H  27.09000 1.51200 45.72900
H  27.80200 0.81900 47.14000
Mg 48.43300 46.15800 42.67400
C  45.36400 44.87200 41.85000
C  49.80800 43.00400 41.72900
C  51.60200 47.28300 43.00300
C  47.14100 49.25400 43.04700
N  47.68600 44.21000 41.57500
C  46.32400 43.94700 41.51700
C  46.02400 42.53600 40.96700
C  47.46200 41.90700 41.38200
C  48.47300 43.09100 41.45100
C  47.47600 41.04800 42.70600
C  45.46700 42.48200 39.55200
C  44.42400 41.31100 39.22400
H  44.56000 40.64600 37.86500
N  50.43700 45.30400 42.41600
C  50.72700 44.02800 41.94100
C  52.12100 43.86000 41.83300
C  52.71600 45.12800 42.28000
C  51.58500 45.94900 42.54500
C  52.74900 42.54300 41.37000
C  54.23300 45.48000 42.24600
O  55.04100 44.55500 42.12700
C  54.78900 46.79700 42.47700
N  49.27300 48.05500 42.69100
C  50.60400 48.24500 43.00200
C  50.91800 49.72000 43.22100
C  49.52900 50.32100 42.89600
C  48.54700 49.12400 42.83800
C  51.57900 50.00100 44.64300
C  49.49300 51.14800 41.56500
C  49.68900 52.60900 41.79400
N  46.64600 46.87100 42.67500
C  46.19400 48.20500 42.87100
C  44.75100 48.25000 42.88800
C  44.40100 46.87800 42.57100
C  45.62100 46.19300 42.31100
C  43.92800 49.40500 43.35800
C  43.26800 45.99100 42.36600
O  42.02400 46.09500 42.41500
C  43.81900 44.61400 41.82700
C  43.39900 43.48100 42.71100
O  42.41700 42.77500 42.45800
O  44.14400 43.40500 43.80700
C  43.58600 42.46100 44.80000
H  50.21600 42.01400 41.51500
H  52.57600 47.71900 43.23100
H  46.72300 50.25900 43.13600
H  45.20700 42.10600 41.54600
H  47.87600 41.32100 40.56100
H  47.62800 41.62000 43.62100
H  48.26200 40.29400 42.75500
H  46.52300 40.51800 42.72400
H  46.20900 42.35900 38.76400
H  45.06000 43.47900 39.38000
H  43.40800 41.66200 39.40800
H  44.53100 40.54700 39.99400
H  52.45600 42.38000 40.33300
H  52.46100 41.65500 41.93300
H  53.83300 42.65600 41.37300
H  54.28700 47.59200 41.92500
H  55.84000 46.71900 42.20200
H  54.68400 46.96400 43.54900
H  51.56700 49.99000 42.38800
H  49.29500 50.86500 43.81100
H  52.28600 49.18400 44.78600
H  50.76300 49.91900 45.36100
H  52.07100 50.97200 44.58500
H  48.57800 50.94700 41.00800
H  50.35100 50.87400 40.95000
H  49.39500 52.80700 42.82500
H  49.05000 53.01800 41.01100
H  50.71100 52.96300 41.66600
H  44.44500 50.35500 43.48900
H  43.43600 49.19800 44.30800
H  43.16200 49.38800 42.58200
H  43.56700 44.42000 40.78400
H  43.55700 41.38300 44.64400
H  42.59100 42.74400 45.14400
H  44.30800 42.66200 45.59200

