158

Mg 40.67600 8.69200 29.30700
C  42.38300 9.88700 32.06800
C  38.63200 6.93500 31.44300
C  38.97800 7.38200 26.59600
C  43.01600 10.12900 27.14900
N  40.54700 8.40300 31.55200
C  41.27800 9.07600 32.44200
C  40.70800 9.01200 33.87900
C  39.63500 7.88800 33.67800
C  39.53400 7.73700 32.12400
C  39.79600 6.67300 34.56200
C  40.36800 10.31500 34.62200
C  39.25600 10.29600 35.66300
H  39.46500 11.22600 36.82000
N  39.11900 7.32700 29.02800
C  38.41300 6.69700 30.07300
C  37.41100 5.83400 29.49600
C  37.48100 5.94400 28.08900
C  38.62300 6.84000 27.80700
C  36.52500 4.94700 30.28900
C  36.58200 5.33100 27.05100
O  36.75100 5.55100 25.87300
C  35.45300 4.47900 27.33700
N  40.99900 8.61300 27.16100
C  40.05500 8.20600 26.24200
C  40.35000 8.66900 24.87900
C  41.65900 9.55100 25.07100
C  41.89700 9.51800 26.63400
C  40.51000 7.54600 23.77800
C  41.56200 10.90400 24.36400
C  40.39100 11.82000 24.82100
N  42.34900 9.72500 29.52500
C  43.21000 10.25900 28.57200
C  44.29900 10.97900 29.28900
C  43.91300 10.91000 30.64700
C  42.75300 10.10300 30.73200
C  45.32500 11.73000 28.49500
C  44.29500 11.38400 31.93400
O  45.18600 12.13400 32.28300
C  43.28400 10.77600 32.92000
C  44.08200 10.10700 34.10700
O  44.66400 9.00400 34.09000
O  44.12700 11.02600 35.20400
C  44.55900 10.41700 36.54300
H  37.93100 6.49400 32.15600
H  38.39900 7.01000 25.74900
H  43.60400 10.73300 26.45400
H  41.62900 8.69500 34.36700
H  38.62200 8.23400 33.88500
H  40.58200 6.81800 35.30300
H  40.06900 5.77400 34.01000
H  38.84000 6.58700 35.08000
H  40.02700 11.08000 33.92400
H  41.25000 10.74800 35.09400
H  39.10700 9.30800 36.09800
H  38.40800 10.64900 35.07600
H  35.53800 5.40700 30.26900
H  36.83300 4.92900 31.33400
H  36.39400 3.93400 29.90800
H  34.71800 4.87800 28.03600
H  35.73500 3.48400 27.68100
H  34.98400 4.20300 26.39200
H  39.49500 9.20700 24.47100
H  42.50900 9.02600 24.63700
H  41.23800 7.80900 23.01000
H  39.64000 7.31000 23.16500
H  40.94800 6.62500 24.16300
H  41.53400 10.70200 23.29300
H  42.49200 11.43900 24.56100
H  39.69800 11.35000 25.51900
H  39.91700 12.07700 23.87400
H  40.80700 12.71100 25.29200
H  44.87600 12.21500 27.62800
H  46.15600 11.06000 28.27500
H  45.62500 12.44900 29.25800
H  42.63600 11.54500 33.33900
H  44.44400 9.33600 36.62400
H  43.88400 10.74400 37.33400
H  45.54400 10.74200 36.87900
Mg 48.14300 35.13600 27.83500
C  46.29600 33.61900 30.52700
C  48.41100 37.85000 29.84000
C  48.97400 36.87600 25.15400
C  47.38600 32.26900 25.87800
N  47.42200 35.63900 29.98200
C  46.95000 34.78000 30.90600
C  47.18000 35.30400 32.26000
C  47.30500 36.86400 31.99700
C  47.80900 36.81100 30.53200
C  46.02200 37.76700 32.08600
C  48.43100 34.73700 33.10700
C  48.15200 34.50200 34.58700
H  47.20300 35.49600 35.31600
N  48.66800 37.08100 27.51600
C  48.83600 38.00600 28.47700
C  49.50800 39.18700 27.96300
C  49.66200 38.93600 26.56600
C  49.12600 37.59100 26.36400
C  49.65800 40.50100 28.72200
C  50.18700 39.84500 25.37300
O  50.17000 39.52900 24.22800
C  50.71400 41.23200 25.75700
N  48.24700 34.61700 25.78700
C  48.56000 35.54800 24.95400
C  48.62000 34.90900 23.49800
C  48.22400 33.41800 23.75100
C  47.97800 33.39700 25.26100
C  47.65500 35.65200 22.47400
C  49.47500 32.45100 23.49100
C  49.32900 31.63100 22.23800
N  47.15600 33.22200 28.15700
C  46.85700 32.21800 27.22000
C  46.02900 31.23700 27.83900
C  45.71600 31.76600 29.11300
C  46.45400 32.99400 29.26800
C  45.59700 29.91600 27.22500
C  44.88500 31.55300 30.28600
O  43.91700 30.83400 30.50100
C  45.21100 32.74600 31.25000
C  45.47800 32.35000 32.61900
O  46.45200 31.63900 32.95400
O  44.61400 32.87800 33.52400
C  44.66000 32.46200 34.95800
H  48.63600 38.69900 30.48900
H  49.32300 37.27900 24.20200
H  47.20800 31.49800 25.12500
H  46.26200 35.17600 32.83400
H  48.05200 37.36100 32.61600
H  45.37300 37.56000 32.93600
H  45.52800 37.54700 31.14000
H  46.23600 38.83400 32.02600
H  49.17600 35.52500 32.99700
H  48.93200 33.86500 32.68600
H  49.09000 34.33800 35.11800
H  47.69900 33.51400 34.50700
H  50.55600 41.05100 28.44300
H  49.83300 40.18800 29.75100
H  48.72300 41.04500 28.58500
H  50.88000 41.73400 24.80400
H  51.67600 41.10100 26.25400
H  50.03700 41.81900 26.37800
H  49.63900 35.06500 23.14200
H  47.32700 32.99300 23.30200
H  48.15900 35.98700 21.56700
H  47.13900 36.49500 22.93500
H  46.95400 34.90300 22.10500
H  49.65400 31.71600 24.27600
H  50.33300 33.10900 23.35200
H  48.47600 31.95600 21.64300
H  49.02600 30.63900 22.57300
H  50.17400 31.66700 21.55100
H  46.35500 29.13300 27.21600
H  45.18700 30.22500 26.26300
H  44.74100 29.58000 27.81200
H  44.21500 33.18600 31.21800
H  43.77100 32.00400 35.39100
H  44.73900 33.31900 35.62700
H  45.60300 31.96700 35.19100

