158

Mg 2.08900 -1.27900 44.96800
C  5.41100 -0.39700 44.06100
C  1.04100 0.98500 42.45000
C  -0.93000 -2.51300 45.41900
C  3.47800 -4.10400 46.62200
N  3.17900 0.08500 43.36500
C  4.55900 0.35900 43.28100
C  4.87200 1.54600 42.38900
C  3.39100 2.03100 42.00500
C  2.44800 0.95000 42.59700
C  3.00900 3.42500 42.55800
C  5.73100 1.07500 41.13800
C  6.95100 2.01000 40.86200
H  7.06400 2.55100 39.44600
N  0.27500 -0.71100 44.22700
C  0.03900 0.19400 43.19700
C  -1.36100 0.26900 43.04400
C  -1.97700 -0.65800 43.95800
C  -0.93000 -1.34900 44.63700
C  -2.07300 1.16500 42.10100
C  -3.49500 -0.73600 44.31400
O  -4.38400 -0.16000 43.66300
C  -3.97000 -1.51700 45.48900
N  1.35700 -3.07300 45.90300
C  0.05100 -3.25300 46.05200
C  -0.27500 -4.59000 46.81000
C  1.18000 -5.20300 47.02400
C  2.07400 -4.09100 46.50100
C  -1.02600 -4.27600 48.11400
C  1.34500 -6.58200 46.31500
C  1.43900 -7.83500 47.26200
N  3.98800 -2.03800 45.31800
C  4.34900 -3.13400 46.08600
C  5.83500 -3.19300 46.13200
C  6.29900 -2.06500 45.42000
C  5.13600 -1.44000 44.90400
C  6.60000 -4.26400 46.86400
C  7.43000 -1.28000 45.09000
O  8.55100 -1.30700 45.44600
C  6.88900 -0.14900 44.27000
C  7.17300 1.12100 45.01900
O  6.56300 1.63700 45.96800
O  8.31900 1.66200 44.50800
C  8.74400 2.97000 44.99800
H  0.70100 1.80600 41.81600
H  -1.86400 -3.01700 45.67500
H  3.85700 -5.10200 46.85200
H  5.36600 2.36700 42.90900
H  3.27800 1.90000 40.92900
H  3.80300 3.78400 43.21200
H  2.01900 3.41800 43.01400
H  2.94100 4.18400 41.77900
H  5.23300 1.13800 40.17000
H  6.02100 0.02500 41.18000
H  7.83300 1.42500 41.12400
H  7.02500 2.85600 41.54500
H  -2.68700 0.55400 41.43900
H  -1.42500 1.71300 41.41700
H  -2.67700 1.92200 42.60100
H  -3.37900 -1.46300 46.40300
H  -4.16500 -2.53200 45.14300
H  -4.95900 -1.16800 45.78700
H  -1.05500 -5.11000 46.25300
H  1.30000 -5.33600 48.09900
H  -1.58700 -5.18000 48.34900
H  -1.63700 -3.37800 48.02200
H  -0.20700 -4.14700 48.82100
H  2.32000 -6.69500 45.84000
H  0.56800 -6.68600 45.55700
H  1.63300 -7.56500 48.30000
H  2.25400 -8.49300 46.96200
H  0.46800 -8.33000 47.24000
H  6.63600 -5.14600 46.22400
H  6.21300 -4.55400 47.84100
H  7.60000 -3.85000 46.99400
H  7.35000 0.00600 43.29400
H  8.00100 3.72600 44.74400
H  9.69600 3.27200 44.56200
H  8.81900 3.07100 46.08000
Mg 46.38300 25.37400 28.89900
C  47.20200 27.68200 31.34500
C  45.02900 23.31900 31.33400
C  46.06500 22.96200 26.55100
C  47.65200 27.47400 26.33500
N  46.14200 25.53700 31.00700
C  46.36800 26.64600 31.78100
C  45.99700 26.37800 33.26700
C  45.48100 24.89000 33.18100
C  45.59200 24.50900 31.74100
C  46.31100 23.85600 34.04600
C  44.93200 27.38400 33.88400
C  45.41300 28.12400 35.15500
H  45.75600 27.33800 36.42000
N  45.79100 23.36600 29.00400
C  45.20100 22.69300 30.07900
C  44.80600 21.37000 29.67200
C  45.13500 21.27200 28.31200
C  45.75300 22.53800 27.90500
C  44.15600 20.35100 30.63800
C  44.89700 20.06400 27.41200
O  45.16800 20.05200 26.25500
C  44.22900 18.86600 28.01900
N  46.71000 25.27400 26.75200
C  46.47300 24.15600 26.00300
C  46.47900 24.37900 24.48300
C  47.11700 25.80200 24.46700
C  47.16500 26.21700 25.93000
C  47.44800 23.41200 23.65100
C  46.51500 26.88100 23.54600
C  47.47200 27.45600 22.55600
N  47.22900 27.22500 28.83100
C  47.70600 27.93800 27.70700
C  48.41700 29.13700 28.28400
C  48.23300 29.08900 29.66700
C  47.48000 27.95700 29.97700
C  49.33700 29.99700 27.48000
C  48.47500 29.80800 31.01100
O  49.04200 30.82300 31.32100
C  47.87700 28.79200 32.11500
C  49.00500 28.44500 33.00200
O  50.11500 27.97100 32.66600
O  48.71300 28.78700 34.27800
C  49.62100 28.18600 35.32600
H  44.64200 22.70600 32.15000
H  46.01200 22.17700 25.79300
H  48.11000 28.02600 25.51100
H  46.94100 26.53300 33.79000
H  44.48300 24.78900 33.60700
H  45.68400 23.46300 34.84600
H  47.12800 24.44400 34.46400
H  46.68700 22.99900 33.48600
H  44.00600 26.85700 34.11200
H  44.72900 28.06300 33.05500
H  44.61400 28.81900 35.41600
H  46.26000 28.76800 34.92000
H  43.10100 20.28300 30.37400
H  44.20400 20.54100 31.71000
H  44.59700 19.35500 30.60000
H  43.23900 19.20200 28.32900
H  44.87600 18.45800 28.79500
H  44.20200 18.03700 27.31200
H  45.42700 24.35000 24.19900
H  48.16200 25.63600 24.20400
H  48.25200 23.06100 24.29800
H  47.88100 23.87100 22.76300
H  46.83300 22.60700 23.25100
H  46.03200 27.59600 24.21300
H  45.63500 26.49600 23.03100
H  47.56500 28.48600 22.90100
H  47.02800 27.43300 21.56100
H  48.43600 26.94700 22.54600
H  50.15000 29.33900 27.17400
H  49.81900 30.68700 28.17300
H  48.94300 30.48500 26.58900
H  47.10500 29.28400 32.70600
H  49.18300 27.21800 35.56800
H  49.65500 28.87200 36.17200
H  50.64000 27.97700 35.00100

