158

Mg -1.95100 34.27800 26.27500
C  -4.09800 33.04600 28.91000
C  -0.61600 36.45300 28.36300
C  -0.36200 35.35400 23.57300
C  -4.06400 32.26500 24.14600
N  -2.29400 34.66900 28.41100
C  -3.13000 34.03100 29.32800
C  -2.77700 34.51100 30.69400
C  -1.71900 35.71000 30.49800
C  -1.52500 35.64400 28.98400
C  -2.12400 37.03300 31.05200
C  -2.22600 33.41900 31.71700
C  -3.07000 33.36300 32.90300
H  -3.06000 32.04900 33.77800
N  -0.73900 35.83900 25.97700
C  -0.21700 36.64500 26.94900
C  0.78600 37.44600 26.39400
C  0.85600 37.12700 24.97900
C  -0.15100 36.08300 24.76800
C  1.57200 38.50100 27.22700
C  1.77200 37.63700 23.85600
O  1.77900 37.33300 22.64700
C  2.83900 38.62300 24.28900
N  -2.28900 33.93000 24.18100
C  -1.37800 34.51300 23.30300
C  -1.38600 33.79500 21.94500
C  -2.53300 32.72700 22.09100
C  -2.94100 32.94000 23.59800
C  -1.48700 34.73400 20.70500
C  -2.02000 31.33600 21.75400
C  -2.96300 30.47000 20.99500
N  -3.62800 32.85100 26.46500
C  -4.34900 32.14600 25.48500
C  -5.43200 31.30700 26.15800
C  -5.33100 31.62200 27.50600
C  -4.27000 32.53000 27.62700
C  -6.34500 30.32900 25.51300
C  -5.83900 31.23100 28.81300
O  -6.71100 30.34100 29.08800
C  -5.09000 32.18700 29.77700
C  -6.18300 33.02600 30.37900
O  -6.90300 33.85600 29.86000
O  -6.25000 32.77800 31.77200
C  -7.31200 33.47500 32.58000
H  -0.05300 36.98200 29.13400
H  0.36200 35.62900 22.80400
H  -4.69800 31.53900 23.63400
H  -3.69300 34.95900 31.07900
H  -0.74800 35.59100 30.97900
H  -2.51000 37.70000 30.28200
H  -1.35000 37.49900 31.66200
H  -3.05200 36.97900 31.62100
H  -1.21600 33.74300 31.97000
H  -2.16800 32.47900 31.16700
H  -4.08600 33.61800 32.60200
H  -2.85500 34.13900 33.63800
H  1.44100 38.55900 28.30800
H  1.43000 39.50200 26.81900
H  2.62900 38.30900 27.04200
H  3.54700 38.08200 24.91700
H  2.40400 39.40400 24.91200
H  3.37800 39.07300 23.45600
H  -0.37300 33.39400 21.92300
H  -3.35000 32.97900 21.41400
H  -1.58500 35.77100 21.02700
H  -2.27000 34.61800 19.95600
H  -0.70800 34.68600 19.94300
H  -1.57500 30.97300 22.68100
H  -1.17600 31.52600 21.09100
H  -3.80600 31.03400 20.59700
H  -3.27300 29.60200 21.57600
H  -2.39900 30.02100 20.17700
H  -5.83200 29.39600 25.28000
H  -6.74800 30.82100 24.62800
H  -7.13800 30.03600 26.20200
H  -4.47600 31.64000 30.49200
H  -8.11000 32.73700 32.65500
H  -7.72300 34.41800 32.22000
H  -6.89000 33.67300 33.56500
Mg -13.31300 15.96800 40.56200
C  -10.52900 13.67600 40.48000
C  -11.19300 18.32500 39.19100
C  -16.01100 18.04200 40.03100
C  -15.33800 13.37400 41.40800
N  -11.11500 15.88000 39.77600
C  -10.20400 14.88800 39.91100
C  -8.77800 15.38300 39.61900
C  -8.98600 16.92700 39.56900
C  -10.57400 17.07900 39.45900
C  -8.50300 17.69200 40.86500
C  -8.20700 14.66100 38.34900
C  -6.77800 15.19800 38.09600
H  -6.43700 15.97300 36.82900
N  -13.53600 17.91200 39.85800
C  -12.54000 18.73000 39.35900
C  -13.14300 20.01200 39.00600
C  -14.51000 19.98100 39.34600
C  -14.72600 18.61600 39.74100
C  -12.32600 21.12900 38.37100
C  -15.44300 21.17300 39.24100
O  -15.00900 22.26300 38.93000
C  -16.88400 21.11500 39.71100
N  -15.34700 15.65700 40.56500
C  -16.27100 16.72300 40.35700
C  -17.69600 16.18900 40.64300
C  -17.44500 14.75200 41.03900
C  -15.95700 14.56600 41.03600
C  -18.63600 17.07700 41.60900
C  -18.29100 13.79200 40.18700
C  -19.62200 13.19600 40.75800
N  -13.09900 13.90500 40.88400
C  -13.95300 12.99400 41.34400
C  -13.40800 11.73200 41.57700
C  -12.01500 12.00800 41.33400
C  -11.88100 13.30500 40.86600
C  -14.00300 10.39100 41.96100
C  -10.72000 11.45800 41.43300
O  -10.40400 10.31800 41.89600
C  -9.70900 12.45000 40.82200
C  -8.74200 12.61700 41.87200
O  -8.99200 12.80200 43.09300
O  -7.52100 12.73900 41.31700
C  -6.43400 13.12700 42.21700
H  -10.51200 19.11800 38.87700
H  -16.85600 18.68600 39.77900
H  -16.12400 12.71900 41.79100
H  -8.25300 15.02500 40.50500
H  -8.50400 17.45200 38.74400
H  -7.70300 17.04000 41.21700
H  -9.21400 17.81600 41.68200
H  -8.09700 18.67400 40.62100
H  -8.81300 14.86500 37.46700
H  -8.26800 13.57500 38.41700
H  -6.08300 14.36300 38.00700
H  -6.42200 15.69400 39.00000
H  -11.31400 20.74700 38.24000
H  -12.20200 21.92000 39.11100
H  -12.80900 21.47500 37.45700
H  -16.88200 20.66600 40.70400
H  -17.51300 20.48400 39.08100
H  -17.32100 22.10300 39.85300
H  -18.28800 16.33300 39.73900
H  -17.77900 14.59700 42.06500
H  -18.14400 17.97400 41.98500
H  -19.03000 16.57500 42.49300
H  -19.46000 17.43700 40.99400
H  -17.50300 13.12400 39.84100
H  -18.49500 14.25500 39.22200
H  -19.52500 12.21400 41.22300
H  -20.23900 13.02800 39.87600
H  -20.11100 13.76400 41.54900
H  -15.08000 10.54800 41.89000
H  -13.72400 10.12800 42.98200
H  -13.73100 9.68500 41.17700
H  -9.18500 12.10900 39.92900
H  -6.51500 14.20100 42.38300
H  -5.48500 12.82000 41.77800
H  -6.50100 12.74500 43.23600

