158

Mg 44.83900 4.30200 46.35400
C  43.06200 7.25700 46.27000
C  41.90000 2.55100 45.72600
C  46.69500 1.53000 45.76900
C  47.86600 6.15300 46.52900
N  42.78500 4.84900 45.84900
C  42.24700 6.17000 45.83600
C  40.73100 6.13500 45.74200
C  40.32300 4.61800 45.76000
C  41.71300 3.98200 45.78900
C  39.31100 4.17500 46.89800
C  40.19900 6.80300 44.39800
C  40.93400 6.60800 43.06600
H  40.08700 6.46900 41.78300
N  44.34800 2.31700 45.79000
C  43.09700 1.76700 45.71900
C  43.19100 0.36200 45.54700
C  44.55600 0.02800 45.62600
C  45.29700 1.32800 45.72200
C  41.96100 -0.53200 45.35300
C  45.12000 -1.38700 45.65200
O  44.32100 -2.29100 45.65800
C  46.52900 -1.80800 45.84500
N  46.91600 3.89300 46.00500
C  47.46600 2.66400 45.88200
C  49.00700 2.62100 46.10000
C  49.25400 4.06600 46.52800
C  47.91800 4.76800 46.25600
C  49.60900 1.59200 47.08300
C  50.49600 4.71700 45.87400
C  51.60300 4.97500 46.90700
N  45.41700 6.36800 46.62000
C  46.65500 6.94400 46.63800
C  46.42900 8.38000 46.70900
C  45.01100 8.55000 46.69500
C  44.46200 7.28100 46.51500
C  47.52600 9.35800 46.70900
C  43.99200 9.51800 46.76800
O  44.01200 10.72900 47.00500
C  42.61600 8.73600 46.49100
C  41.74000 8.91200 47.67300
O  41.65000 8.09800 48.56900
O  40.82100 9.94200 47.52600
C  39.68900 9.98600 48.45400
H  40.97300 1.98400 45.62300
H  47.38400 0.68300 45.79000
H  48.82700 6.63200 46.72900
H  40.31800 6.73900 46.55000
H  39.83600 4.42700 44.80300
H  39.54600 3.25800 47.43700
H  38.40400 3.97100 46.32900
H  39.20800 5.01800 47.58100
H  40.26700 7.87200 44.60200
H  39.13300 6.60000 44.29800
H  41.55000 5.72600 43.24400
H  41.59400 7.47300 43.00800
H  42.10800 -1.08100 44.42300
H  40.95400 -0.12200 45.26800
H  42.05000 -1.40200 46.00200
H  47.17600 -1.49100 45.02600
H  46.59100 -2.89200 45.75600
H  46.77400 -1.31600 46.78600
H  49.53100 2.53800 45.14900
H  49.26800 3.99600 47.61600
H  50.13700 0.83200 46.50700
H  48.82600 1.13900 47.69100
H  50.38200 2.01200 47.72800
H  50.34600 5.66100 45.35100
H  50.93300 4.05100 45.13000
H  52.58700 4.79000 46.47500
H  51.41900 4.47000 47.85600
H  51.50600 6.02500 47.18100
H  48.30700 9.27600 47.46600
H  47.17600 10.36400 46.94100
H  47.99800 9.38400 45.72700
H  42.02500 9.22700 45.71800
H  40.01900 10.05200 49.49000
H  39.17700 9.02400 48.42200
H  38.96700 10.75900 48.19200
Mg -5.03600 25.97400 25.95000
C  -3.99000 27.26500 28.91200
C  -6.87800 23.54900 27.69500
C  -5.80500 24.42100 23.11000
C  -2.94900 28.03000 24.27800
N  -5.28500 25.36400 28.04800
C  -4.87100 26.17400 29.10900
C  -5.46600 25.61300 30.43700
C  -6.09200 24.20600 30.06100
C  -6.11000 24.37500 28.47700
C  -5.33000 22.89100 30.45900
C  -6.38500 26.52500 31.19400
C  -6.38500 26.51400 32.80200
H  -5.64900 25.39400 33.53000
N  -6.32700 24.35900 25.48900
C  -6.97800 23.49700 26.30800
C  -7.87800 22.72300 25.54700
C  -7.47000 22.80700 24.17500
C  -6.55400 23.95000 24.21700
C  -8.77100 21.66700 26.14100
C  -7.87900 21.96700 22.91500
O  -7.20900 22.04400 21.91300
C  -9.01100 20.97100 23.00300
N  -4.55300 26.29300 23.98400
C  -4.90600 25.43600 23.00500
C  -4.24700 25.73700 21.61400
C  -3.51000 27.06900 21.96800
C  -3.74500 27.23000 23.48500
C  -3.33700 24.53900 21.10900
C  -3.94900 28.29300 21.12800
C  -3.12500 28.69500 19.91900
N  -3.61200 27.27600 26.46900
C  -2.86400 28.11800 25.71500
C  -2.09300 29.05800 26.46400
C  -2.54300 28.72500 27.76700
C  -3.47300 27.68700 27.70400
C  -1.21500 30.15600 25.97300
C  -2.52900 29.16500 29.14100
O  -2.04100 30.19000 29.62500
C  -3.42100 28.20900 29.95200
C  -2.54400 27.46700 30.89700
O  -1.80600 26.52800 30.57600
O  -2.70800 27.93200 32.16800
C  -1.84500 27.36500 33.21100
H  -7.38900 22.76500 28.25700
H  -5.82000 23.94100 22.12900
H  -2.41400 28.76500 23.67300
H  -4.66300 25.45600 31.15800
H  -7.12000 24.12000 30.41400
H  -5.30600 22.18300 29.63100
H  -5.91000 22.36300 31.21600
H  -4.27600 23.02300 30.70300
H  -7.44300 26.32900 31.02000
H  -6.20900 27.56300 30.91400
H  -7.43000 26.54500 33.11400
H  -5.97000 27.48900 33.05700
H  -8.23500 20.72100 26.06100
H  -9.63300 21.59900 25.47800
H  -9.06000 21.90800 27.16400
H  -9.19800 20.31900 22.14900
H  -9.95500 21.49400 23.16100
H  -8.68200 20.29400 23.79000
H  -5.10600 25.85000 20.95300
H  -2.44700 26.84900 21.87300
H  -3.66500 23.63500 21.62100
H  -2.27500 24.58300 21.34900
H  -3.61100 24.43400 20.05900
H  -3.97400 29.14300 21.81000
H  -5.02700 28.22000 20.98800
H  -3.92200 29.00700 19.24400
H  -2.51000 27.88600 19.52600
H  -2.48900 29.55400 20.13300
H  -1.91300 30.78200 25.41700
H  -0.39000 29.82000 25.34500
H  -0.88600 30.78900 26.79700
H  -4.22100 28.64500 30.55100
H  -0.80500 27.68200 33.14600
H  -1.98700 26.28600 33.15200
H  -2.17600 27.75400 34.17400

