158

Mg 47.33300 15.81900 27.33300
C  45.56100 16.07600 30.35700
C  49.94500 17.68500 28.90000
C  49.10200 15.89400 24.50400
C  44.68000 14.33400 25.80600
N  47.80100 16.52500 29.56400
C  46.84700 16.56200 30.56100
C  47.49200 17.11400 31.82600
C  48.79000 17.83200 31.23200
C  48.88600 17.31500 29.79000
C  48.84100 19.42500 31.30500
C  47.69700 16.10400 33.01300
C  47.24400 16.54200 34.42600
H  47.23300 18.04600 34.85700
N  49.31600 16.71500 26.77300
C  50.13900 17.40500 27.54800
C  51.37300 17.59700 26.85700
C  51.15100 17.17600 25.50900
C  49.81400 16.60600 25.48500
C  52.53600 18.28700 27.51300
C  52.08900 17.21800 24.31400
O  51.77900 16.72900 23.21800
C  53.40900 17.96500 24.41500
N  46.97800 15.03700 25.45700
C  47.93300 15.20600 24.45300
C  47.33700 14.49100 23.16300
C  45.90500 13.89900 23.54500
C  45.84100 14.38100 25.03500
C  47.16900 15.32600 21.85500
C  45.84200 12.34400 23.54800
C  45.34000 11.71000 22.23600
N  45.50200 15.30300 27.89100
C  44.50500 14.73300 27.14800
C  43.27900 14.68800 27.96000
C  43.67000 15.05500 29.25600
C  45.02100 15.53100 29.15400
C  41.88800 14.24400 27.48600
C  43.25500 15.29600 30.56700
O  42.16200 14.99300 31.04700
C  44.48300 15.80500 31.35200
C  44.10500 16.93200 32.22400
O  44.16600 18.11100 31.92000
O  43.54700 16.46500 33.38300
C  43.36400 17.50100 34.42100
H  50.63900 18.39500 29.35500
H  49.66100 15.86500 23.56600
H  43.78100 13.97600 25.30100
H  46.94200 17.95600 32.24700
H  49.66800 17.60000 31.83500
H  47.97000 19.80700 31.83800
H  48.91600 19.80800 30.28700
H  49.76400 19.79900 31.74700
H  48.74000 15.78800 33.00700
H  47.10400 15.26100 32.66000
H  47.84100 15.98000 35.14400
H  46.25500 16.17900 34.70700
H  52.77600 17.55200 28.28200
H  52.27900 19.27500 27.89500
H  53.43500 18.59200 26.97800
H  53.31300 18.98200 24.79500
H  53.80600 18.04900 23.40400
H  54.14400 17.36200 24.95000
H  47.95000 13.64800 22.84600
H  45.06400 14.39700 23.06200
H  47.87300 16.15800 21.89400
H  46.23200 15.88200 21.85400
H  47.40300 14.77400 20.94400
H  45.22900 11.99300 24.37800
H  46.83900 11.94100 23.72500
H  44.40600 11.18400 22.43400
H  46.07900 11.04300 21.79100
H  45.06900 12.47300 21.50600
H  41.06600 14.50800 28.15100
H  42.03400 13.16400 27.44400
H  41.66100 14.66500 26.50700
H  44.76100 14.96900 31.99400
H  44.20200 17.25800 35.07300
H  42.40900 17.41900 34.94000
H  43.42500 18.56700 34.20100
Mg -4.91100 25.63500 25.82400
C  -3.59800 26.94600 28.82600
C  -6.64300 23.35000 27.70500
C  -5.66200 23.95100 22.98100
C  -2.75800 27.67500 24.06900
N  -5.00300 25.18400 27.99300
C  -4.43700 25.88900 29.04300
C  -5.06900 25.48400 30.38000
C  -5.86000 24.14900 29.95600
C  -5.80900 24.20500 28.41300
C  -5.38300 22.80100 30.45800
C  -5.91100 26.58800 31.01100
C  -5.66100 26.81100 32.50700
H  -5.18200 25.59200 33.40600
N  -6.17600 24.02300 25.37100
C  -6.83200 23.20600 26.28600
C  -7.82800 22.39600 25.61700
C  -7.59400 22.63300 24.20800
C  -6.39000 23.49100 24.07800
C  -8.76700 21.42800 26.35700
C  -8.30100 21.94600 23.01100
O  -8.03600 22.27600 21.85900
C  -9.32700 20.92600 23.23900
N  -4.46100 25.91000 23.74500
C  -4.84500 25.01400 22.73800
C  -4.13000 25.37900 21.44800
C  -3.36600 26.75600 21.71800
C  -3.55600 26.77900 23.27000
C  -3.21300 24.27000 20.94300
C  -4.10900 27.88700 21.00600
C  -3.19400 29.12200 20.63200
N  -3.47700 27.02800 26.26500
C  -2.66700 27.79200 25.43100
C  -1.75300 28.63800 26.30300
C  -2.14800 28.34700 27.61600
C  -3.13100 27.33000 27.55300
C  -0.73400 29.65000 25.95500
C  -1.86600 28.67700 28.94900
O  -1.08800 29.49800 29.42100
C  -2.86300 27.83700 29.82400
C  -2.15100 27.22700 30.90600
O  -1.75400 26.06100 30.85600
O  -2.07200 28.02700 31.95800
C  -1.36700 27.46600 33.09600
H  -7.29400 22.78700 28.37800
H  -5.90700 23.34900 22.10300
H  -2.08800 28.35000 23.53200
H  -4.24500 25.09300 30.97800
H  -6.90800 24.28300 30.22600
H  -4.50800 22.92300 31.09700
H  -4.99800 22.22000 29.62100
H  -6.12500 22.23800 31.02400
H  -6.95300 26.27500 31.08100
H  -5.87500 27.55100 30.50100
H  -6.61100 27.07600 32.97200
H  -4.94900 27.61400 32.69600
H  -8.56100 20.38400 26.11900
H  -9.76100 21.77200 26.07300
H  -8.70500 21.52900 27.44100
H  -8.92400 20.06800 23.77600
H  -9.63000 20.38800 22.34100
H  -10.19800 21.40200 23.68900
H  -4.98900 25.46600 20.78300
H  -2.31000 26.74500 21.44600
H  -2.17600 24.52000 20.72100
H  -3.62600 23.75600 20.07500
H  -3.06100 23.46600 21.66200
H  -4.84300 28.24300 21.72800
H  -4.59700 27.56600 20.08500
H  -3.52400 29.93100 21.28400
H  -3.46600 29.39200 19.61200
H  -2.14100 28.89000 20.79300
H  -0.52900 29.67500 24.88400
H  0.20200 29.54800 26.50400
H  -1.15300 30.59600 26.29800
H  -3.65000 28.52600 30.13100
H  -1.97600 27.86600 33.90600
H  -0.36100 27.87800 33.17800
H  -1.20800 26.39200 33.19500

