158

Mg 7.89800 3.27300 27.39100
C  9.42400 1.83800 30.35000
C  6.07900 5.33500 29.51600
C  6.57600 4.49200 24.71600
C  9.58500 0.70800 25.64700
N  7.83900 3.61000 29.67900
C  8.63100 2.95900 30.66900
C  8.42800 3.64400 32.04300
C  7.23200 4.69400 31.74500
C  6.98500 4.54500 30.22300
C  5.89200 4.56700 32.54300
C  9.68400 4.24800 32.79600
C  9.86700 3.79200 34.28100
H  10.52900 4.77500 35.28100
N  6.48900 4.67900 27.14900
C  5.84300 5.43100 28.10400
C  5.00200 6.43100 27.44200
C  5.23900 6.28600 26.03000
C  6.14400 5.15400 25.90200
C  4.17700 7.45300 28.15600
C  4.77200 7.09000 24.80900
O  5.12100 6.84200 23.67600
C  3.74100 8.12800 25.03900
N  8.03500 2.63200 25.45600
C  7.39800 3.41800 24.49600
C  7.67000 2.87300 23.06400
C  8.57200 1.66800 23.42800
C  8.69400 1.61100 24.89600
C  6.35300 2.59000 22.19400
C  9.90300 1.64100 22.63700
C  10.06700 0.29700 21.91600
N  9.16900 1.63800 27.87000
C  9.84500 0.77800 26.99200
C  10.64800 -0.16000 27.72900
C  10.61000 0.32000 29.06400
C  9.67200 1.34600 29.06700
C  11.52200 -1.27100 27.14400
C  11.07700 0.02100 30.38000
O  11.79000 -0.86600 30.86400
C  10.47100 1.19300 31.25500
C  9.88600 0.61100 32.45900
O  8.71000 0.28100 32.46500
O  10.71900 0.64300 33.55900
C  10.04800 0.17200 34.77100
H  5.65700 6.10900 30.16000
H  6.20100 4.79500 23.73600
H  10.08300 -0.05800 25.05000
H  8.16400 2.77000 32.63900
H  7.64200 5.68500 31.94100
H  5.08800 4.17900 31.91800
H  5.61800 5.50100 33.03200
H  6.11200 3.76000 33.24200
H  9.66500 5.33800 32.81700
H  10.61500 3.99600 32.28800
H  10.59400 2.98300 34.35100
H  8.90900 3.52200 34.72500
H  4.54200 8.45000 27.91200
H  4.07200 7.29000 29.22900
H  3.15000 7.48900 27.79500
H  4.06500 9.05700 25.50800
H  2.93600 7.58800 25.53900
H  3.35200 8.39300 24.05600
H  8.24700 3.65200 22.56500
H  7.95800 0.80000 23.18800
H  5.48400 2.81000 22.81300
H  6.24400 1.54500 21.90400
H  6.18800 3.36800 21.44900
H  10.77000 1.86000 23.25900
H  9.76100 2.45300 21.92400
H  9.08200 -0.01900 21.57300
H  10.48800 -0.53900 22.47500
H  10.58300 0.48200 20.97400
H  11.66700 -2.08000 27.85900
H  12.47900 -0.95100 26.73200
H  10.96600 -1.81700 26.38100
H  11.27900 1.86900 31.53400
H  9.43400 0.86400 35.34900
H  10.83100 -0.17500 35.44500
H  9.45000 -0.70100 34.51100
Mg -11.43000 38.80400 41.35000
C  -9.51000 35.91100 40.41600
C  -9.21700 40.67100 39.59600
C  -13.57800 41.30700 41.44700
C  -13.92100 36.43500 42.47500
N  -9.62200 38.24300 40.01300
C  -8.96600 37.07300 39.91500
C  -7.69500 37.26400 39.11800
C  -7.64200 38.79200 38.88300
C  -8.87300 39.32700 39.61300
C  -6.30900 39.57500 39.19000
C  -7.62500 36.38200 37.80900
C  -6.26700 35.74900 37.44500
H  -5.70300 36.01500 35.98700
N  -11.35800 40.78800 40.71800
C  -10.34500 41.32700 39.99100
C  -10.64700 42.78200 39.71200
C  -11.90400 42.98400 40.32600
C  -12.33900 41.70800 40.97300
C  -9.70100 43.64700 38.87300
C  -12.60800 44.33200 40.19300
O  -12.14700 45.31200 39.63700
C  -13.91600 44.58300 40.91100
N  -13.52300 38.80900 41.66400
C  -14.15400 39.98200 41.66200
C  -15.57000 39.73000 42.12300
C  -15.75300 38.21300 42.34100
C  -14.28300 37.77200 42.20700
C  -16.00400 40.63600 43.23500
C  -16.70500 37.45700 41.35500
C  -17.85100 36.58400 42.06000
N  -11.71100 36.57000 41.48500
C  -12.65200 35.78900 42.11800
C  -12.18300 34.39800 42.26900
C  -10.92300 34.39900 41.58300
C  -10.74500 35.72700 41.12800
C  -12.86700 33.34900 43.08300
C  -9.77200 33.64600 41.18500
O  -9.52800 32.47200 41.41700
C  -8.83100 34.57900 40.19800
C  -7.39100 34.45600 40.71100
O  -6.56200 33.62500 40.33500
O  -7.20900 35.29000 41.75500
C  -5.91000 35.36900 42.34000
H  -8.45100 41.22700 39.05100
H  -14.25600 42.16200 41.42800
H  -14.69300 35.88500 43.01600
H  -6.86300 37.18400 39.81600
H  -7.76500 39.08600 37.84000
H  -6.12600 40.13700 38.27400
H  -5.42400 38.93900 39.20800
H  -6.52900 40.18400 40.06700
H  -7.71500 37.15600 37.04600
H  -8.42100 35.64200 37.72400
H  -6.35400 34.66400 37.51000
H  -5.40400 35.77800 38.11000
H  -10.22000 44.12300 38.04100
H  -8.88900 43.06500 38.43800
H  -9.31900 44.40700 39.55500
H  -14.07800 45.65900 40.98500
H  -13.80800 44.13800 41.90000
H  -14.82900 44.17200 40.48100
H  -16.06500 40.06500 41.21200
H  -16.05900 37.89200 43.33700
H  -16.90100 40.17200 43.64400
H  -16.14300 41.61400 42.77400
H  -15.31900 40.73400 44.07700
H  -16.11100 36.77600 40.74500
H  -17.15400 38.09500 40.59400
H  -17.88000 35.65500 41.49100
H  -18.79800 37.12300 42.09900
H  -17.52100 36.21000 43.02900
H  -12.07500 32.67300 43.40800
H  -13.57300 32.71700 42.54500
H  -13.36400 33.77100 43.95600
H  -8.88600 34.25100 39.15900
H  -5.17000 35.76700 41.64500
H  -5.66300 34.35200 42.64400
H  -5.90800 36.00900 43.22200

