158

Mg 29.94900 57.50700 39.75400
C  27.10900 55.61400 38.90900
C  31.93200 54.74300 39.04300
C  32.59700 59.63600 39.53000
C  27.78000 60.45800 39.93000
N  29.57300 55.52100 39.06000
C  28.31300 54.92900 38.90900
C  28.41700 53.47100 38.58000
C  29.91900 53.09800 38.91300
C  30.54100 54.52300 39.01400
C  30.22500 52.22400 40.15600
C  27.98100 53.10900 37.18400
C  28.59800 53.97600 36.03400
H  27.69600 54.74000 35.02600
N  31.95700 57.23200 39.34200
C  32.58500 55.97700 39.10400
C  33.97400 56.24500 39.02000
C  34.19400 57.64100 39.11400
C  32.83900 58.25700 39.40200
C  34.98600 55.05500 38.86100
C  35.58300 58.23900 39.04800
O  36.52700 57.49400 38.90400
C  35.79800 59.71200 39.18000
N  30.16700 59.74800 39.72100
C  31.34500 60.35200 39.75200
C  31.25600 61.80600 40.11200
C  29.68900 62.05800 40.19400
C  29.12400 60.66800 39.95500
C  32.04800 62.23300 41.37400
C  29.11000 63.26200 39.35800
C  29.76500 64.64500 39.67000
N  27.89900 57.93400 39.70300
C  27.19200 59.15800 39.86000
C  25.78800 58.80900 39.83100
C  25.70500 57.42200 39.40800
C  27.02200 56.99200 39.33200
C  24.61000 59.82600 39.92800
C  24.76900 56.41100 38.95000
O  23.51300 56.36100 38.90500
C  25.65300 55.06200 38.75800
C  25.20900 54.08000 39.82700
O  25.54500 54.11500 40.98700
O  24.25700 53.28700 39.27300
C  23.59400 52.40000 40.16700
H  32.47300 53.82400 38.80900
H  33.42100 60.35100 39.47000
H  27.11400 61.32200 39.99100
H  27.78800 52.91800 39.27900
H  30.36600 52.54700 38.08600
H  31.11300 51.63200 39.93300
H  29.39300 51.57200 40.42400
H  30.43300 52.88100 41.00000
H  26.89300 53.05800 37.14700
H  28.32200 52.08400 37.03600
H  29.28400 53.36800 35.44300
H  29.18900 54.82900 36.36700
H  34.64500 54.34400 38.10900
H  35.11900 54.51500 39.79900
H  35.92800 55.34500 38.39600
H  35.14200 60.24900 38.49500
H  36.78800 59.95200 38.79300
H  35.72600 60.00000 40.22900
H  31.55800 62.41300 39.25900
H  29.40500 62.37500 41.19700
H  32.54600 61.36300 41.80100
H  31.38600 62.62200 42.14800
H  32.79700 62.99700 41.16600
H  28.09000 63.45900 39.68900
H  29.28500 63.06000 38.30100
H  30.79100 64.43700 39.97400
H  29.36700 65.20600 40.51600
H  29.77600 65.25300 38.76500
H  25.07100 60.70600 40.37700
H  23.79800 59.44300 40.54500
H  24.20700 60.10400 38.95400
H  25.40000 54.71900 37.75400
H  24.25600 51.88800 40.86600
H  22.99200 51.67900 39.61500
H  22.94500 53.04400 40.76100
Mg -11.89800 17.56500 40.54900
C  -8.80800 15.62000 40.59900
C  -10.03000 20.16800 39.78700
C  -14.76200 19.09300 40.19400
C  -13.67200 14.47000 40.85000
N  -9.71200 17.75300 40.14800
C  -8.63000 16.97200 40.24600
C  -7.27400 17.76500 40.06600
C  -7.74300 19.25400 40.14000
C  -9.29600 19.04200 40.06800
C  -7.32900 20.13700 41.34000
C  -6.51000 17.44100 38.73700
C  -5.01100 17.36500 38.76500
H  -4.31800 17.17600 37.45500
N  -12.33800 19.47500 40.06700
C  -11.44600 20.44400 39.64800
C  -12.15100 21.67200 39.42100
C  -13.52300 21.34800 39.57000
C  -13.60100 19.92700 40.00500
C  -11.52100 23.04200 38.95600
C  -14.58100 22.32900 39.48000
O  -14.37900 23.54100 39.23800
C  -16.07600 21.94200 39.64900
N  -13.99500 16.83600 40.49300
C  -14.94600 17.73200 40.41900
C  -16.35700 17.06000 40.50000
C  -16.00900 15.53500 40.97700
C  -14.45300 15.58500 40.80500
C  -17.35000 17.75000 41.45800
C  -16.69500 14.50400 40.01800
C  -16.67800 13.06100 40.52100
N  -11.37800 15.49600 40.70500
C  -12.26800 14.43200 40.82900
C  -11.45700 13.18900 40.86900
C  -10.11100 13.67500 40.84300
C  -10.11300 15.05400 40.73100
C  -11.96700 11.78900 40.70500
C  -8.71500 13.22600 40.84400
O  -8.38700 12.07000 40.84200
C  -7.79900 14.48400 40.56800
C  -6.73500 14.59300 41.62400
O  -6.93700 15.28000 42.62600
O  -5.51100 14.01800 41.25800
C  -4.41700 14.23300 42.21300
H  -9.46200 21.09900 39.84200
H  -15.75900 19.53900 40.21300
H  -14.08200 13.49500 41.12000
H  -6.66100 17.40200 40.89100
H  -7.53300 19.85800 39.25700
H  -8.11300 20.10200 42.09700
H  -7.09700 21.18200 41.13300
H  -6.46300 19.55600 41.65700
H  -6.68400 18.18100 37.95600
H  -6.85700 16.53500 38.24000
H  -4.70800 16.55300 39.42700
H  -4.61000 18.27500 39.21000
H  -10.47500 22.91100 38.67900
H  -11.67700 23.76000 39.76100
H  -12.03100 23.34600 38.04100
H  -16.47900 21.26700 38.89400
H  -16.71400 22.82600 39.63700
H  -16.12900 21.45100 40.62100
H  -16.85600 16.96200 39.53600
H  -16.23300 15.38900 42.03400
H  -17.96500 17.05900 42.03500
H  -18.11500 18.25400 40.86800
H  -16.83800 18.54200 42.00400
H  -16.00500 14.65200 39.18800
H  -17.70200 14.87500 39.82700
H  -15.78200 12.62100 40.08200
H  -17.60700 12.57300 40.22600
H  -16.55500 13.00800 41.60200
H  -12.09300 11.43300 41.72800
H  -11.32400 11.13200 40.11900
H  -13.01500 11.82600 40.40900
H  -7.40700 14.46100 39.55000
H  -4.47000 15.10500 42.86500
H  -3.56200 14.26300 41.53800
H  -4.32700 13.29200 42.75600

