158

Mg 36.31600 49.74200 24.92000
C  36.65100 48.05500 28.01800
C  35.00200 52.30200 26.75000
C  35.56700 51.18000 22.02400
C  37.32600 46.87300 23.34300
N  35.78700 50.11900 27.13900
C  36.14000 49.32700 28.19900
C  35.83900 49.96200 29.55200
C  35.02700 51.22900 29.11000
C  35.25700 51.24800 27.58100
C  33.56200 51.18500 29.46800
C  37.04300 50.27600 30.49800
C  36.83800 50.03200 32.00800
H  35.43800 50.24400 32.58300
N  35.57800 51.52500 24.42900
C  35.07200 52.43600 25.34000
C  34.74400 53.64600 24.65600
C  34.94300 53.37800 23.21900
C  35.33300 51.96700 23.17900
C  33.99100 54.85000 25.28500
C  34.60700 54.23500 22.02800
O  34.68100 53.89400 20.84300
C  34.34900 55.71800 22.19500
N  36.29700 49.11700 22.97300
C  35.98900 49.91500 21.91800
C  36.21200 49.22800 20.52700
C  37.10800 47.97700 21.00000
C  36.99200 48.02100 22.54700
C  34.87800 48.89600 19.90400
C  38.49900 48.03600 20.33000
C  39.81500 48.01800 21.21900
N  36.94400 47.82800 25.50700
C  37.30600 46.76100 24.73500
C  37.68500 45.60700 25.52600
C  37.43600 46.08200 26.83900
C  36.92300 47.44300 26.78000
C  38.15100 44.35300 25.08900
C  37.31000 45.66100 28.22400
O  37.64700 44.59100 28.69200
C  36.89300 46.94000 28.93900
C  35.73300 46.56800 29.85400
O  34.55800 46.43100 29.54400
O  36.24900 46.18500 31.08300
C  35.23900 45.45700 31.97100
H  34.55900 53.17100 27.24200
H  35.35300 51.71500 21.09600
H  37.62700 45.91200 22.92100
H  35.20800 49.25200 30.08800
H  35.46600 52.16900 29.44400
H  33.16100 50.22800 29.80000
H  32.94100 51.61300 28.68000
H  33.35900 51.82600 30.32600
H  37.32900 51.31900 30.36000
H  37.83200 49.62500 30.12300
H  37.51600 50.75100 32.46700
H  37.22800 49.04900 32.27100
H  34.43200 55.80100 24.98500
H  33.94200 54.92600 26.37100
H  32.95900 54.68300 24.97900
H  34.33000 56.17500 21.20500
H  35.05500 56.29900 22.78900
H  33.37100 55.77800 22.67200
H  36.75300 49.92900 19.89100
H  36.55800 47.07100 20.74400
H  34.86500 49.21800 18.86300
H  34.08900 49.46300 20.39800
H  34.63700 47.83600 19.82500
H  38.47800 48.84300 19.59700
H  38.52700 47.09800 19.77500
H  40.37900 47.18600 20.79800
H  39.59400 47.91700 22.28200
H  40.37200 48.94700 21.10300
H  37.31200 43.74200 24.75500
H  38.64500 43.75100 25.85200
H  38.84500 44.63000 24.29600
H  37.69000 47.31300 29.58200
H  34.78700 44.59900 31.47200
H  34.48000 46.15000 32.33500
H  35.77100 45.18100 32.88100
Mg 10.65700 47.09100 25.95100
C  8.42400 47.49200 28.57500
C  13.03400 48.55200 27.92700
C  12.79600 46.71800 23.43800
C  7.95200 46.18700 23.85700
N  10.66400 47.95100 28.02400
C  9.73500 47.84200 29.01800
C  10.32600 48.28900 30.34200
C  11.60600 49.06000 29.87200
C  11.79100 48.47100 28.50800
C  11.32900 50.54400 29.76000
C  10.54400 47.18100 31.32700
C  9.98300 47.58500 32.68600
H  9.95500 46.55700 33.81200
N  12.59700 47.51100 25.75500
C  13.44400 48.04500 26.67300
C  14.82100 47.92800 26.24300
C  14.77800 47.53700 24.93300
C  13.33000 47.23200 24.66100
C  15.94500 48.35600 27.16800
C  15.90900 47.42400 23.83700
O  15.70200 46.89000 22.76900
C  17.19400 48.00500 24.15400
N  10.32500 46.67500 23.88800
C  11.42100 46.49400 23.06200
C  10.95100 46.08200 21.68700
C  9.40900 45.75400 21.82500
C  9.22100 46.27400 23.26900
C  11.41900 46.99800 20.50800
C  9.05300 44.32700 21.40800
C  9.43100 43.12800 22.31400
N  8.58800 46.99200 26.06900
C  7.63600 46.56500 25.13400
C  6.34500 46.53400 25.75600
C  6.57500 46.82000 27.15900
C  7.98900 47.18100 27.25900
C  5.01200 46.06500 25.09400
C  5.99600 46.89600 28.46400
O  4.87900 46.72600 28.85100
C  7.16300 47.22500 29.47700
C  7.29100 46.08400 30.41300
O  8.04400 45.15600 30.21500
O  6.50400 46.20000 31.53900
C  6.53300 45.09100 32.49900
H  13.80800 49.04900 28.51700
H  13.43500 46.57500 22.56400
H  7.14300 45.91100 23.17800
H  9.66100 49.01900 30.80400
H  12.40400 48.96200 30.60800
H  10.26800 50.79000 29.74400
H  11.76500 50.91200 28.83100
H  11.74200 51.06800 30.62200
H  11.62900 47.10800 31.39500
H  9.98900 46.26300 31.13700
H  8.96300 47.94500 32.55200
H  10.57600 48.44700 32.99300
H  16.76200 47.65200 27.32800
H  15.56300 48.66300 28.14200
H  16.32200 49.24900 26.67000
H  17.77200 47.24800 24.68400
H  17.09900 48.89500 24.77600
H  17.65500 48.30100 23.21100
H  11.43900 45.13400 21.46100
H  8.88100 46.38400 21.10800
H  11.59100 47.99800 20.90700
H  10.57800 47.11300 19.82500
H  12.28000 46.68500 19.91800
H  9.44200 44.10500 20.41500
H  7.96500 44.37300 21.35800
H  9.51900 43.39500 23.36700
H  10.39900 42.78300 21.94900
H  8.68300 42.33900 22.23700
H  5.17000 45.44300 24.21300
H  4.50200 46.98700 24.81700
H  4.37500 45.48700 25.76300
H  7.06600 48.22100 29.90900
H  5.65200 44.48300 32.29400
H  6.51700 45.43600 33.53300
H  7.36300 44.39600 32.37800

