158

Mg 40.98400 9.10600 29.43700
C  43.06500 10.08700 32.04800
C  38.71700 7.83600 31.69600
C  39.14000 7.92200 26.83400
C  43.63400 9.52400 27.26800
N  40.95300 8.77700 31.57800
C  41.84600 9.40300 32.49300
C  41.24000 9.33500 33.95600
C  39.97800 8.48700 33.78300
C  39.88100 8.34700 32.24600
C  39.85500 7.22100 34.64600
C  40.91000 10.79000 34.58700
C  40.21200 10.79600 35.98800
H  40.90400 11.56400 37.05200
N  39.07200 8.18200 29.38100
C  38.26200 7.74000 30.38900
C  37.08300 7.27100 29.86400
C  37.12100 7.44100 28.51000
C  38.55100 7.82700 28.15800
C  36.01100 6.77400 30.76900
C  36.08000 7.23400 27.42000
O  36.19500 7.22900 26.20800
C  34.62300 6.96000 27.94900
N  41.42200 8.60000 27.35800
C  40.44900 8.20500 26.44100
C  40.90200 8.36900 24.98600
C  42.34200 8.90000 25.16800
C  42.52900 9.06200 26.71700
C  40.82400 7.16600 23.99900
C  42.62900 10.17600 24.32500
C  42.03400 11.49800 24.92600
N  42.97200 9.71300 29.56500
C  43.94000 9.95000 28.61500
C  45.04800 10.64300 29.21700
C  44.71300 10.74200 30.54300
C  43.48200 10.05600 30.75000
C  46.19700 11.25900 28.50000
C  45.16800 11.27500 31.79600
O  46.17800 11.84900 32.07800
C  44.09400 10.83500 32.88500
C  44.65900 9.89300 33.85300
O  45.22500 8.84400 33.56500
O  44.59300 10.42400 35.09600
C  44.83700 9.50800 36.21800
H  38.06200 7.43000 32.47000
H  38.53900 7.48700 26.03300
H  44.32900 9.81000 26.47600
H  41.96700 8.90300 34.64400
H  39.10000 9.09700 33.99600
H  40.81900 6.97000 35.08900
H  39.63400 6.31600 34.07900
H  39.05600 7.38100 35.37000
H  40.23200 11.32900 33.92600
H  41.81300 11.40100 34.55700
H  40.12400 9.72800 36.18500
H  39.20200 11.16600 35.81000
H  36.25500 6.79900 31.83100
H  35.71100 5.74200 30.58500
H  35.07400 7.31300 30.62800
H  33.94200 7.07900 27.10700
H  34.34200 7.70000 28.69900
H  34.44700 5.95600 28.33700
H  40.36400 9.26100 24.66500
H  43.13100 8.22400 24.83700
H  41.76800 6.93000 23.50800
H  40.15800 7.40000 23.16800
H  40.48100 6.28100 24.53500
H  42.15000 10.05000 23.35400
H  43.68800 10.31300 24.10700
H  42.78300 12.08100 25.46100
H  41.30500 11.19400 25.67600
H  41.51800 11.94500 24.07600
H  46.56500 12.13000 29.04400
H  45.81400 11.48400 27.50500
H  47.08600 10.63200 28.42900
H  43.78900 11.75000 33.39300
H  45.20500 8.50800 35.99100
H  43.88600 9.40500 36.74100
H  45.53000 9.93500 36.94300
Mg -1.87900 34.18500 27.31400
C  -3.58300 32.14900 29.75200
C  -0.62600 36.03100 30.08600
C  -0.61800 36.45600 25.24000
C  -3.55100 32.58300 24.81600
N  -2.12200 34.08300 29.62800
C  -2.88400 33.24900 30.36800
C  -2.86400 33.51100 31.83200
C  -2.03200 34.86600 31.84800
C  -1.52400 35.04700 30.48300
C  -2.95100 36.10800 32.32900
C  -2.16900 32.33300 32.55700
C  -2.95700 31.70700 33.79400
H  -2.23500 31.77400 35.15400
N  -0.67300 35.89300 27.64800
C  -0.17200 36.39500 28.83900
C  0.77800 37.46100 28.49900
C  0.72700 37.69800 27.09500
C  -0.23700 36.70500 26.60000
C  1.61700 38.18000 29.45400
C  1.32700 38.72700 26.25200
O  1.12200 38.91300 25.06400
C  2.35400 39.61700 26.87700
N  -2.06500 34.46500 25.31900
C  -1.51900 35.55300 24.71300
C  -1.93500 35.57900 23.22900
C  -2.53800 34.19200 23.07600
C  -2.77200 33.74400 24.48200
C  -2.97600 36.76400 22.91200
C  -1.70400 33.20000 22.15400
C  -0.94300 32.08400 22.88800
N  -3.23000 32.67600 27.22000
C  -3.75700 32.10000 26.07800
C  -4.71400 31.10300 26.50900
C  -4.59500 31.07800 27.88500
C  -3.68800 32.03400 28.26500
C  -5.59100 30.25400 25.60300
C  -5.09600 30.38500 29.05800
O  -5.88000 29.44200 29.13900
C  -4.48100 31.03900 30.30400
C  -5.67500 31.53000 31.08900
O  -6.54100 32.28400 30.74200
O  -5.62900 30.90300 32.30900
C  -6.79700 30.82000 33.20500
H  -0.17500 36.70900 30.81400
H  -0.27000 37.21000 24.53000
H  -4.07900 32.25200 23.91900
H  -3.88500 33.76600 32.11600
H  -1.23700 34.78700 32.59000
H  -2.45400 36.50300 33.21500
H  -3.97600 35.76400 32.46900
H  -2.92800 36.88600 31.56600
H  -1.17800 32.70400 32.81700
H  -2.03400 31.58100 31.77900
H  -3.28500 30.69000 33.57800
H  -3.90600 32.22600 33.92900
H  1.53900 37.71300 30.43600
H  1.18100 39.17900 29.44200
H  2.61100 38.04000 29.02800
H  1.95100 40.19800 27.70700
H  2.73500 40.33800 26.15400
H  3.20100 39.06700 27.28500
H  -1.08100 35.77000 22.57900
H  -3.54200 34.31900 22.67300
H  -3.90400 36.47800 22.41800
H  -2.48100 37.60800 22.43000
H  -3.33700 37.06000 23.89700
H  -0.96900 33.69600 21.52000
H  -2.36000 32.76800 21.39800
H  -0.43600 32.53000 23.74400
H  -0.17200 31.70400 22.21900
H  -1.65200 31.30500 23.17000
H  -6.49500 30.00900 26.16100
H  -5.11300 29.33800 25.25500
H  -5.90800 30.89600 24.78200
H  -3.85500 30.32100 30.83400
H  -6.92500 29.79000 33.53900
H  -7.72300 31.04900 32.67800
H  -6.61300 31.42200 34.09500

