158

Mg -2.02100 34.81800 27.12000
C  -3.81100 33.48800 29.83900
C  -0.27500 36.84100 29.18300
C  -1.35300 36.83500 24.51200
C  -3.92200 32.72900 24.95600
N  -1.96500 34.98300 29.25900
C  -2.84800 34.44100 30.22100
C  -2.49100 34.97600 31.63200
C  -1.33600 35.98300 31.40300
C  -1.13100 35.91800 29.86800
C  -1.62400 37.46200 31.91900
C  -2.23400 33.93900 32.69000
C  -2.99500 34.16400 33.96300
H  -2.34100 33.83400 35.30600
N  -0.72400 36.43600 26.77400
C  -0.04000 37.05600 27.77000
C  0.69200 38.19300 27.25200
C  0.32600 38.23200 25.88300
C  -0.62000 37.13600 25.64200
C  1.55800 39.12300 28.06400
C  0.83000 39.18100 24.77400
O  0.57200 39.02700 23.61800
C  1.68400 40.31600 25.11700
N  -2.58200 34.77500 25.07900
C  -2.07600 35.68100 24.18400
C  -2.55100 35.34200 22.70100
C  -2.82700 33.79800 22.86800
C  -3.12400 33.74600 24.39100
C  -3.88500 36.17800 22.37400
C  -1.71300 32.90800 22.43900
C  -1.50500 32.36800 20.96700
N  -3.58200 33.39300 27.33500
C  -4.21300 32.66100 26.33300
C  -5.11400 31.70600 26.95000
C  -5.03400 31.96900 28.38700
C  -4.08800 33.03000 28.53300
C  -5.86100 30.57700 26.17800
C  -5.49500 31.62300 29.67400
O  -6.32400 30.81100 30.09000
C  -4.79500 32.62000 30.61300
C  -5.79500 33.43500 31.34500
O  -6.17100 34.53500 31.04700
O  -6.22300 32.75900 32.44400
C  -7.20800 33.39800 33.28000
H  0.22800 37.54900 29.84600
H  -1.07000 37.41200 23.62800
H  -4.39300 32.03800 24.25400
H  -3.39400 35.55100 31.83700
H  -0.43500 35.64900 31.91800
H  -1.80500 38.20300 31.14000
H  -0.81500 37.94300 32.46700
H  -2.53000 37.40200 32.52200
H  -1.19700 33.69600 32.92400
H  -2.59000 32.99800 32.27200
H  -3.87400 33.52600 33.86500
H  -3.37800 35.17600 34.09200
H  1.13700 40.10900 27.86600
H  2.58700 39.24100 27.72400
H  1.40700 39.01700 29.13900
H  2.52700 40.05800 25.75800
H  1.01800 41.08100 25.51600
H  2.11200 40.66500 24.17700
H  -1.82700 35.57200 21.92000
H  -3.66500 33.47500 22.25000
H  -3.67000 36.79500 21.50100
H  -4.14600 36.94900 23.09900
H  -4.77300 35.56300 22.22700
H  -1.86800 32.00800 23.03300
H  -0.73300 33.31300 22.69300
H  -1.89800 31.35200 20.92400
H  -0.44500 32.35700 20.71300
H  -2.01400 32.98400 20.22600
H  -6.86900 30.54100 26.59000
H  -5.44200 29.57800 26.30400
H  -5.82200 30.77100 25.10600
H  -4.19100 32.05500 31.32200
H  -8.19900 33.25300 32.84800
H  -7.09700 34.48200 33.25800
H  -7.23600 32.96600 34.28100
Mg -10.37100 17.17900 41.02900
C  -6.95600 16.76400 41.08000
C  -9.76400 20.58600 40.23600
C  -13.69700 17.56400 40.27700
C  -10.72400 13.76900 41.24700
N  -8.55300 18.54900 40.62200
C  -7.27000 18.09300 40.79400
C  -6.25000 19.24200 40.40400
C  -7.22000 20.49500 40.61700
C  -8.60400 19.88800 40.50400
C  -7.13700 21.12600 42.07600
C  -5.81100 19.11700 38.84400
C  -4.32500 18.85500 38.46700
H  -4.03000 17.66200 37.66700
N  -11.51900 18.87400 40.40700
C  -11.10300 20.18700 40.15200
C  -12.21200 20.99400 39.77100
C  -13.36300 20.16700 39.71800
C  -12.86700 18.77300 40.15800
C  -12.13100 22.51300 39.72100
C  -14.74300 20.58300 39.16500
O  -15.03300 21.71600 38.78800
C  -15.90200 19.63300 39.10500
N  -11.97900 15.86000 40.71600
C  -13.23600 16.31300 40.59900
C  -14.23700 15.15100 40.66300
C  -13.29300 13.88900 40.59700
C  -11.88800 14.51900 40.82200
C  -15.24300 15.21600 41.89000
C  -13.39300 12.91900 39.35500
C  -14.07500 11.58800 39.52800
N  -9.16600 15.52900 41.28500
C  -9.44100 14.20600 41.40500
C  -8.19700 13.48300 41.69300
C  -7.18900 14.42100 41.53400
C  -7.83500 15.66100 41.27100
C  -8.05000 12.01200 41.86800
C  -5.75900 14.72400 41.58400
O  -4.81200 13.93700 41.85600
C  -5.54900 16.31000 41.36800
C  -5.08300 16.85600 42.63200
O  -3.89800 17.13000 42.87000
O  -6.15000 17.03500 43.49600
C  -5.71500 17.37800 44.87900
H  -9.51100 21.57700 39.85300
H  -14.71100 17.62600 39.87700
H  -10.94400 12.70700 41.37800
H  -5.44700 19.13300 41.13300
H  -7.09600 21.31900 39.91400
H  -8.09800 21.35200 42.53700
H  -6.64400 22.09300 41.97300
H  -6.52300 20.48400 42.70700
H  -6.03100 20.10800 38.44800
H  -6.41800 18.31000 38.43100
H  -3.88800 18.60500 39.43300
H  -3.89900 19.78100 38.07900
H  -11.96900 22.90600 38.71700
H  -11.22100 22.83700 40.22700
H  -13.02700 23.01700 40.08300
H  -16.80500 20.19700 38.87300
H  -16.06400 19.22600 40.10300
H  -15.66500 18.92800 38.30800
H  -14.82200 15.15000 39.74300
H  -13.57500 13.27600 41.45300
H  -16.08000 15.82400 41.54500
H  -14.79800 15.76300 42.72100
H  -15.54300 14.18600 42.08500
H  -12.38600 12.63900 39.04700
H  -13.90700 13.55900 38.63700
H  -14.99600 11.75700 38.96900
H  -14.26500 11.39500 40.58300
H  -13.56600 10.75900 39.03600
H  -7.25700 11.79200 42.58200
H  -7.75000 11.63300 40.89100
H  -9.02900 11.60400 42.12000
H  -4.87000 16.53100 40.54400
H  -6.50400 17.07900 45.56900
H  -5.64600 18.46600 44.89100
H  -4.89900 16.76200 45.25500

