158

Mg 24.39500 -4.98900 46.42700
C  26.64700 -2.57100 44.99700
C  21.93600 -3.76200 44.45300
C  22.67700 -7.65200 47.24400
C  27.21600 -6.17700 48.41500
N  24.37800 -3.32600 44.91200
C  25.31400 -2.46300 44.50200
C  24.78900 -1.61400 43.38500
C  23.27800 -1.79400 43.53300
C  23.19300 -3.08600 44.39100
C  22.41400 -0.54200 44.07900
C  25.36400 -2.03900 42.04100
C  26.26000 -1.12100 41.23400
H  26.19400 -1.29900 39.71800
N  22.49200 -5.60200 45.85000
C  21.55100 -4.99600 45.09000
C  20.37500 -5.69700 45.03300
C  20.52400 -6.79900 45.92300
C  21.91100 -6.73300 46.34700
C  19.20400 -5.13700 44.29800
C  19.41300 -7.75500 46.20100
O  18.42800 -7.80600 45.52600
C  19.61300 -8.77900 47.23900
N  24.96800 -6.76900 47.63700
C  23.97800 -7.65600 47.80500
C  24.39700 -8.71400 48.71900
C  25.84300 -8.26800 49.26300
C  26.07900 -7.00100 48.41600
C  23.41400 -9.33300 49.79000
C  27.02600 -9.33400 49.20800
C  27.68600 -9.69800 50.58500
N  26.50300 -4.50600 46.62400
C  27.48100 -5.06800 47.51200
C  28.72000 -4.33600 47.30900
C  28.44900 -3.36700 46.37500
C  27.10100 -3.50900 45.92500
C  29.98700 -4.60200 47.90100
C  28.93900 -2.17600 45.66400
O  30.09400 -1.68200 45.64200
C  27.87400 -1.75000 44.64300
C  27.59500 -0.28900 44.76200
O  26.76100 0.28600 45.43900
O  28.46400 0.42200 44.04700
C  28.34300 1.86100 43.91800
H  21.23900 -3.26000 43.77900
H  22.19000 -8.60300 47.47100
H  28.01300 -6.38400 49.13100
H  25.01900 -0.58400 43.65700
H  22.81500 -2.07200 42.58600
H  21.89400 -0.80200 45.00100
H  21.69100 -0.25300 43.31600
H  22.90800 0.41000 44.27100
H  24.54200 -2.30200 41.37500
H  25.96500 -2.92200 42.25700
H  27.30800 -1.14400 41.53100
H  25.90900 -0.11300 41.45700
H  18.60400 -5.90300 43.80600
H  19.53000 -4.55400 43.43700
H  18.51200 -4.57200 44.92300
H  18.71000 -9.21100 47.66900
H  20.11900 -8.23600 48.03700
H  20.28000 -9.47800 46.73400
H  24.63100 -9.51400 48.01700
H  25.87800 -7.94400 50.30400
H  23.29500 -10.38100 49.51300
H  22.44600 -8.86300 49.96300
H  23.88200 -9.58100 50.74200
H  27.77700 -8.95500 48.51400
H  26.75400 -10.25200 48.68700
H  27.92400 -10.75900 50.65900
H  26.92500 -9.46600 51.33000
H  28.62900 -9.16900 50.72600
H  30.39300 -3.72800 48.41100
H  30.79000 -4.58700 47.16400
H  30.07100 -5.52000 48.48300
H  28.31600 -1.75900 43.64600
H  28.96900 2.19500 43.09100
H  28.70300 2.43200 44.77400
H  27.28800 2.10400 43.79300
Mg 17.17400 -1.52000 27.77600
C  15.89300 0.28300 30.48800
C  19.32000 -2.96400 30.03400
C  18.46700 -3.17200 25.20800
C  15.10200 0.23000 25.46600
N  17.41300 -1.39400 30.02500
C  16.91600 -0.55200 30.89100
C  17.42100 -0.71500 32.33000
C  18.75500 -1.56200 32.12800
C  18.46800 -1.95800 30.63200
C  20.03600 -0.78200 32.52700
C  16.42100 -1.44100 33.17400
C  16.50100 -1.17400 34.73800
H  17.72500 -0.53000 35.33900
N  18.74400 -2.86900 27.63200
C  19.38600 -3.40700 28.65100
C  20.24700 -4.48900 28.06500
C  19.96400 -4.62300 26.69500
C  19.05400 -3.53400 26.46100
C  21.13000 -5.39900 28.96400
C  20.59500 -5.52500 25.63100
O  20.38700 -5.42300 24.45700
C  21.43100 -6.76900 26.02700
N  16.75400 -1.55400 25.58400
C  17.62200 -2.12600 24.77800
C  17.30100 -1.89600 23.30600
C  16.18400 -0.79700 23.34700
C  15.98800 -0.68300 24.91600
C  18.50700 -1.70000 22.42300
C  14.91100 -1.00400 22.49700
C  15.05200 -0.86300 21.00300
N  15.77000 -0.11000 27.85400
C  14.92900 0.52400 26.88300
C  13.96000 1.34200 27.63700
C  14.28200 1.26000 28.99700
C  15.46400 0.37500 29.12600
C  12.86100 2.06000 26.97000
C  13.91900 1.63300 30.32300
O  13.05600 2.41100 30.70000
C  14.92100 1.03400 31.34300
C  15.52400 2.20100 32.12600
O  16.31000 3.01500 31.65800
O  15.13000 2.10700 33.46600
C  15.90800 3.01500 34.25900
H  20.07900 -3.42500 30.67000
H  18.83400 -3.75800 24.36300
H  14.38700 0.70500 24.79200
H  17.47600 0.26200 32.81000
H  18.74700 -2.45000 32.76000
H  19.90200 0.19000 33.00100
H  20.60500 -0.66400 31.60400
H  20.63000 -1.55500 33.01400
H  16.54500 -2.51100 33.00500
H  15.37200 -1.17400 33.04600
H  16.46500 -2.15200 35.21600
H  15.53500 -0.74900 35.01100
H  20.72500 -6.40900 29.01900
H  21.10500 -5.16100 30.02700
H  22.12400 -5.51900 28.53300
H  22.39700 -6.45100 26.41900
H  21.43800 -7.58500 25.30500
H  20.92800 -7.28700 26.84400
H  16.93900 -2.86600 22.96300
H  16.68800 0.08500 22.95200
H  19.43100 -1.90700 22.96300
H  18.60300 -0.66500 22.09400
H  18.51200 -2.36800 21.56200
H  14.24900 -0.18300 22.77100
H  14.30500 -1.88700 22.69600
H  16.02700 -0.55400 20.62600
H  14.35100 -0.06400 20.76500
H  14.74300 -1.80400 20.54600
H  12.99100 2.37000 25.93400
H  12.54100 2.94800 27.51500
H  12.06600 1.31400 26.99600
H  14.39900 0.47700 32.12000
H  16.96200 3.10400 33.99500
H  15.85800 2.72000 35.30700
H  15.42000 3.98900 34.23100

