158

Mg 47.71500 25.16900 28.31800
C  48.89300 27.14800 30.98500
C  46.85100 22.70100 30.57900
C  47.42500 23.04900 25.74000
C  49.07500 27.46700 26.07800
N  47.78100 25.05400 30.52700
C  48.33600 25.92000 31.43000
C  48.16300 25.39900 32.88700
C  47.42700 24.03800 32.68900
C  47.33400 23.92800 31.16600
C  48.12200 22.85000 33.40400
C  47.50400 26.33900 33.93400
C  46.47200 25.96700 34.94500
H  46.57000 26.55300 36.39500
N  47.13300 23.22100 28.18600
C  46.77100 22.35200 29.20500
C  46.24400 21.12300 28.69300
C  46.51400 21.15000 27.29800
C  46.98900 22.53700 26.99800
C  45.67000 20.06800 29.55400
C  46.31000 20.10500 26.23700
O  46.66700 20.26800 25.08700
C  45.82800 18.75800 26.72700
N  48.38000 25.18600 26.19000
C  47.91700 24.24300 25.30500
C  48.09500 24.60200 23.82600
C  48.42100 26.10200 23.96200
C  48.62100 26.29500 25.48900
C  49.24300 23.70800 23.27400
C  47.31800 27.04000 23.37300
C  46.04100 27.00800 24.13000
N  48.71100 26.96800 28.40100
C  49.15700 27.83800 27.38700
C  49.66100 28.98100 28.03000
C  49.45400 28.81300 29.34200
C  49.05700 27.47800 29.59600
C  50.22500 30.18900 27.49700
C  49.59500 29.52200 30.64000
O  49.96800 30.66900 30.89100
C  49.28000 28.40500 31.72100
C  50.53000 28.14700 32.46700
O  51.51200 27.61700 32.03600
O  50.37600 28.55700 33.74200
C  51.42400 28.16200 34.74200
H  46.36500 22.04800 31.30800
H  47.26500 22.37700 24.89400
H  49.31600 28.20700 25.31200
H  49.15800 25.18900 33.27800
H  46.43200 24.12400 33.12600
H  48.33000 23.17300 34.42400
H  48.98700 22.48000 32.85400
H  47.40000 22.03400 33.43800
H  47.21500 27.20600 33.34100
H  48.35400 26.55200 34.58300
H  46.44000 24.88500 35.08000
H  45.46000 26.23800 34.64500
H  44.59300 20.05600 29.38900
H  45.90200 20.17600 30.61400
H  46.09400 19.12500 29.20800
H  46.47300 18.10300 27.31400
H  45.50500 18.18000 25.86100
H  44.85600 18.94900 27.18000
H  47.13900 24.46800 23.31900
H  49.37600 26.36400 23.50700
H  49.73100 24.16100 22.41100
H  48.79700 22.76000 22.97300
H  50.02900 23.54400 24.01100
H  47.07200 26.89200 22.32100
H  47.82300 27.98300 23.58300
H  46.08400 26.45700 25.07000
H  45.33400 26.39800 23.56600
H  45.65900 28.01000 24.32400
H  51.10600 30.35900 28.11600
H  49.48500 30.98000 27.61600
H  50.60100 30.01900 26.48800
H  48.49600 28.66600 32.43100
H  52.32300 27.99200 34.15000
H  51.10600 27.21800 35.18600
H  51.58000 29.03400 35.37800
Mg 6.03300 52.81100 40.79400
C  6.14000 49.32500 40.26600
C  9.15700 53.09100 39.53100
C  5.50500 56.24900 40.57700
C  2.63500 52.46400 41.86600
N  7.37900 51.35700 39.92800
C  7.30500 49.95600 39.81000
C  8.63300 49.28200 39.27100
C  9.59500 50.53400 39.36000
C  8.70200 51.73300 39.59300
C  10.69100 50.45300 40.39900
C  8.52800 48.78000 37.77500
C  7.87100 49.51900 36.62900
H  6.69400 48.80300 35.87000
N  7.16100 54.49500 40.09500
C  8.48900 54.33000 39.76600
C  9.01500 55.67200 39.56100
C  7.93200 56.55600 39.67100
C  6.73800 55.79000 40.06000
C  10.49700 55.99800 39.39200
C  8.10100 58.07900 39.41300
O  9.28200 58.48700 39.22900
C  6.92400 59.03200 39.32300
N  4.30700 54.17100 41.11600
C  4.45900 55.51200 41.05200
C  3.17100 56.18300 41.65100
C  2.26000 54.99800 41.94800
C  3.04700 53.79700 41.60500
C  3.34900 56.99000 42.99000
C  0.86000 55.09900 41.22100
C  -0.30500 55.45200 42.21200
N  4.69600 51.22500 41.08000
C  3.37600 51.22200 41.55300
C  2.93200 49.80700 41.70100
C  4.05800 49.05100 41.30400
C  5.06800 49.92800 40.89600
C  1.61500 49.27600 42.11700
C  4.44000 47.71300 41.07300
O  3.82100 46.68700 41.24500
C  5.83800 47.81100 40.44900
C  5.83700 47.04400 39.11800
O  5.20900 47.40200 38.13900
O  6.56100 45.81300 39.26700
C  6.28900 44.88800 38.11300
H  10.21200 53.14900 39.25900
H  5.48200 57.34000 40.60500
H  1.66700 52.29900 42.34400
H  8.92100 48.46800 39.93500
H  10.11000 50.70000 38.41400
H  10.85100 51.38700 40.93800
H  11.59600 50.25800 39.82500
H  10.60200 49.56800 41.02900
H  8.03300 47.81600 37.88600
H  9.59100 48.71100 37.54600
H  8.67400 49.84100 35.96600
H  7.53100 50.47600 37.02500
H  10.65000 56.57300 38.47900
H  10.95400 55.01100 39.32600
H  10.99400 56.41800 40.26700
H  7.19700 59.86800 38.68000
H  6.49500 59.20600 40.30900
H  6.28500 58.40600 38.69800
H  2.76200 56.81700 40.86400
H  2.12000 54.93000 43.02700
H  4.18800 56.58300 43.55500
H  2.48700 57.01500 43.65600
H  3.61000 58.01600 42.72900
H  0.55700 54.18500 40.71100
H  0.94600 55.91400 40.50200
H  -0.67400 54.43400 42.33800
H  -1.06700 56.10600 41.78800
H  0.05300 55.83100 43.16900
H  0.92300 50.09600 42.30900
H  1.63000 48.84100 43.11600
H  1.06600 48.59500 41.46700
H  6.53400 47.33200 41.13800
H  6.59700 45.41600 37.21000
H  5.21800 44.71800 38.00700
H  6.88500 44.02300 38.40300

