158

Mg 26.25800 0.25500 29.57500
C  28.30100 -0.01000 32.32600
C  23.60700 0.78000 31.67200
C  24.15400 -0.07000 26.95500
C  28.92100 -1.06400 27.65400
N  26.02400 0.47000 31.74000
C  26.96700 0.32400 32.70700
C  26.44200 0.48600 34.12000
C  24.89900 0.71300 33.85800
C  24.83500 0.64900 32.31300
C  23.87600 -0.11400 34.60900
C  26.98800 1.57200 35.06500
C  27.31600 1.19200 36.58500
H  27.10800 2.23500 37.62500
N  24.20800 0.48100 29.30500
C  23.31800 0.75800 30.30000
C  21.95600 0.73400 29.68600
C  22.09200 0.50800 28.26100
C  23.52800 0.26300 28.12500
C  20.74500 1.18700 30.43600
C  21.04500 0.60800 27.19300
O  21.31100 0.32100 26.05800
C  19.61700 1.01200 27.60300
N  26.47100 -0.60400 27.60700
C  25.47900 -0.43400 26.69700
C  25.99100 -0.82500 25.26200
C  27.50300 -1.11800 25.44900
C  27.64200 -0.94400 26.99400
C  25.19400 -2.09200 24.67600
C  28.39400 -0.08100 24.77300
C  28.99300 -0.53600 23.47200
N  28.25000 -0.41200 29.89800
C  29.20500 -0.88600 29.01500
C  30.49000 -1.02400 29.75700
C  30.16000 -0.68500 31.08000
C  28.80800 -0.37000 31.10000
C  31.79100 -1.52000 29.20700
C  30.67100 -0.51300 32.41900
O  31.77500 -0.64500 32.88600
C  29.46400 -0.08200 33.30200
C  29.37100 -1.25600 34.22600
O  28.82700 -2.29900 34.00400
O  30.03400 -0.93600 35.39400
C  30.02400 -1.97400 36.47300
H  22.79500 1.01800 32.36200
H  23.37800 -0.05600 26.18700
H  29.74900 -1.36300 27.00700
H  26.58200 -0.44100 34.67500
H  24.61800 1.72500 34.15100
H  23.92800 0.18300 35.65700
H  24.22500 -1.14400 34.52800
H  22.84800 0.00900 34.26900
H  26.33500 2.44300 35.02200
H  27.86400 2.08600 34.67000
H  28.39800 1.07100 36.61900
H  26.94000 0.21400 36.88600
H  20.48000 2.12700 29.95300
H  20.77500 1.45300 31.49300
H  19.90700 0.48900 30.42500
H  19.23100 0.11300 28.08400
H  18.98800 1.17200 26.72700
H  19.64400 1.94100 28.17100
H  25.81000 0.08800 24.69500
H  27.65200 -2.17400 25.22700
H  25.17500 -2.11100 23.58600
H  24.16400 -2.22600 25.00600
H  25.81800 -2.97500 24.81100
H  29.12700 0.38600 25.43000
H  27.76100 0.74600 24.45200
H  30.05500 -0.29400 23.50200
H  28.52500 0.08200 22.70500
H  28.93200 -1.55800 23.10100
H  31.89700 -2.59200 29.04500
H  32.52400 -1.15600 29.92700
H  31.99600 -0.98100 28.28100
H  29.71200 0.76100 33.94700
H  31.07400 -2.06100 36.74800
H  29.56800 -2.90400 36.13200
H  29.57700 -1.62700 37.40500
Mg 6.62400 53.53300 41.71400
C  6.02200 50.11500 41.33800
C  9.87900 52.98700 40.94500
C  6.90200 56.81200 41.30300
C  3.17100 53.91100 42.51100
N  7.84100 51.70500 41.29700
C  7.39900 50.45600 41.07000
C  8.54600 49.43700 40.70800
C  9.85200 50.33000 41.07600
C  9.19100 51.79000 41.05900
C  10.61000 50.05100 42.43300
C  8.63300 48.85000 39.26200
C  8.32400 49.89700 38.19500
H  7.28000 49.52000 37.09800
N  8.19600 54.75200 41.28400
C  9.42700 54.29300 40.86900
C  10.19900 55.43300 40.45000
C  9.34500 56.59800 40.54700
C  8.08000 56.06800 41.03200
C  11.66600 55.42700 39.96900
C  9.76100 58.03400 40.17100
O  10.84100 58.30300 39.58100
C  8.98900 59.11700 40.67000
N  5.25400 55.14000 41.97200
C  5.63300 56.43000 41.73800
C  4.43000 57.28900 41.78400
C  3.28700 56.44200 42.46700
C  3.88400 55.05100 42.29900
C  4.50300 58.71100 42.41200
C  1.79000 56.61800 41.97900
C  0.75800 56.64600 43.11300
N  4.95100 52.34000 41.95700
C  3.66300 52.62600 42.38500
C  2.85900 51.42200 42.42800
C  3.74900 50.42800 42.08700
C  5.02600 51.02400 41.74700
C  1.37100 51.20600 42.79000
C  3.84000 49.02000 41.80900
O  3.02400 48.08600 41.86100
C  5.40200 48.78800 41.43200
C  5.39100 47.97300 40.22000
O  4.81500 48.26000 39.19100
O  5.92300 46.74800 40.46800
C  6.24600 45.85400 39.34800
H  10.91300 53.03200 40.59700
H  6.90800 57.82900 40.90500
H  2.11200 53.92600 42.77700
H  8.34500 48.70700 41.49200
H  10.66900 50.40400 40.35800
H  10.47800 48.99600 42.67200
H  10.37600 50.67900 43.29200
H  11.65700 50.30800 42.26800
H  7.96600 47.99300 39.16700
H  9.61100 48.37500 39.18100
H  9.23000 50.20700 37.67400
H  8.06200 50.81700 38.71700
H  12.19000 54.50000 40.20200
H  12.23200 56.23000 40.44100
H  11.72100 55.63000 38.90000
H  8.52600 59.74000 39.90600
H  9.62800 59.90600 41.06600
H  8.49500 58.91000 41.62000
H  4.24400 57.44100 40.72000
H  3.29400 56.59200 43.54700
H  5.37900 58.88800 43.03700
H  3.68200 58.99000 43.07200
H  4.47500 59.48300 41.64300
H  1.47600 55.89400 41.22700
H  1.67100 57.58500 41.49100
H  0.09500 57.50900 43.06000
H  1.28800 56.73300 44.06200
H  0.13000 55.75500 43.14300
H  0.93400 52.13400 43.15900
H  1.32100 50.54900 43.65900
H  0.82600 50.68000 42.00700
H  5.92800 48.25200 42.22200
H  7.28500 45.83700 39.02000
H  5.56600 45.88700 38.49700
H  6.01300 44.84500 39.68700

