158

Mg -1.52500 18.40200 26.82100
C  -1.87200 16.10300 29.61900
C  -1.94600 20.97300 29.10800
C  -1.19600 20.50800 24.29600
C  -0.92400 15.70100 24.81500
N  -1.90000 18.52400 29.22300
C  -2.02900 17.43900 30.09200
C  -2.25500 18.02200 31.45200
C  -2.58600 19.48400 31.16200
C  -2.08600 19.70900 29.75700
C  -4.09500 19.86100 31.32800
C  -1.13900 17.88900 32.61500
C  -1.76500 17.57100 33.95600
H  -0.94800 17.70300 35.19500
N  -1.45100 20.48200 26.69500
C  -1.65400 21.36600 27.79900
C  -1.73500 22.69700 27.27300
C  -1.41100 22.56200 25.87200
C  -1.31100 21.14700 25.57500
C  -2.12400 23.80000 28.27200
C  -1.12300 23.72400 24.84600
O  -0.70300 23.54800 23.70000
C  -1.27100 25.07800 25.38000
N  -1.09400 18.14700 24.78300
C  -1.04000 19.16900 23.91200
C  -0.73400 18.68300 22.54300
C  -0.53600 17.13600 22.68000
C  -0.89400 16.93500 24.19200
C  -1.82600 19.09200 21.57200
C  0.87000 16.66800 22.23400
C  2.05100 17.16400 23.07800
N  -1.56100 16.37500 27.04900
C  -1.24500 15.41300 26.12800
C  -1.42900 14.16100 26.73300
C  -1.62700 14.32200 28.06100
C  -1.68200 15.69900 28.24900
C  -1.33400 12.88500 25.96400
C  -1.83500 13.73100 29.35100
O  -1.91400 12.51300 29.62100
C  -2.11100 14.87100 30.35500
C  -1.17600 14.46800 31.46000
O  0.01800 14.68600 31.61300
O  -2.00800 13.84200 32.35700
C  -1.36900 13.48600 33.59500
H  -2.04800 21.81000 29.80200
H  -1.08800 21.21000 23.46700
H  -0.80900 14.92000 24.06100
H  -3.12400 17.43900 31.75600
H  -2.12000 20.21500 31.82400
H  -4.67800 18.94100 31.37400
H  -4.53300 20.49400 30.55600
H  -4.26700 20.48400 32.20500
H  -0.62900 18.84000 32.76800
H  -0.40700 17.11000 32.40200
H  -2.06900 16.52400 33.94000
H  -2.64600 18.17700 34.16900
H  -3.08900 23.58400 28.72900
H  -2.23400 24.76400 27.77600
H  -1.34400 23.95500 29.01800
H  -0.56300 25.31600 26.17400
H  -2.27600 25.25000 25.76600
H  -1.24700 25.77800 24.54500
H  0.24800 19.09800 22.31800
H  -1.37100 16.79200 22.07000
H  -2.01400 18.32900 20.81800
H  -1.56400 19.98200 20.99900
H  -2.79700 19.17500 22.06000
H  0.82500 17.23000 21.30100
H  0.94100 15.60000 22.03100
H  1.86900 17.61100 24.05600
H  2.60000 17.84700 22.43000
H  2.67900 16.31900 23.35800
H  -0.56600 13.00000 25.19900
H  -2.33400 12.82900 25.53400
H  -1.14800 12.12400 26.72300
H  -3.16700 14.80100 30.61400
H  -0.32100 13.18900 33.64100
H  -1.96300 12.70900 34.07600
H  -1.46000 14.26800 34.34900
Mg -2.36000 35.31700 26.19600
C  -4.08900 33.72700 28.83000
C  -1.12200 37.48400 28.43000
C  -0.95200 36.78300 23.66800
C  -4.06400 33.05200 24.03000
N  -2.69900 35.67200 28.38700
C  -3.29500 34.84100 29.24700
C  -2.99900 35.24400 30.67500
C  -2.15400 36.58100 30.51100
C  -1.97000 36.62600 29.03700
C  -2.63200 37.90700 31.12400
C  -2.39700 34.16900 31.61500
C  -2.10300 34.61200 33.03900
H  -2.52100 33.87700 34.30100
N  -1.11700 36.93800 26.03000
C  -0.63000 37.67300 27.09500
C  0.24900 38.80400 26.52100
C  0.24100 38.57700 25.09500
C  -0.65100 37.37600 24.83000
C  0.90300 39.83000 27.37500
C  1.03700 39.37700 23.95100
O  1.07800 38.98000 22.77800
C  2.02900 40.31700 24.41000
N  -2.50900 34.96400 24.13800
C  -1.70700 35.67800 23.27000
C  -1.87700 35.27500 21.76000
C  -2.78500 34.04000 21.97300
C  -3.24200 34.03400 23.43100
C  -2.42500 36.27700 20.73000
C  -1.94600 32.75400 21.60100
C  -1.08200 32.14200 22.72600
N  -3.79600 33.73100 26.35200
C  -4.31100 32.87500 25.35900
C  -5.19800 31.92600 25.99600
C  -5.07500 32.18800 27.38600
C  -4.27000 33.27900 27.52200
C  -5.97400 30.83400 25.31000
C  -5.58300 31.78500 28.67800
O  -6.33000 30.86400 29.00500
C  -4.91700 32.78700 29.64800
C  -6.02200 33.40400 30.45000
O  -6.96900 33.93200 30.00600
O  -5.86100 33.07400 31.76300
C  -7.00200 33.27300 32.65600
H  -0.57700 38.05900 29.18100
H  -0.45600 37.15200 22.76800
H  -4.50400 32.26900 23.41000
H  -3.96600 35.56100 31.06400
H  -1.14500 36.46800 30.90800
H  -1.81200 38.27500 31.74100
H  -3.54300 37.66300 31.67100
H  -2.70700 38.61900 30.30300
H  -1.47800 33.78000 31.17700
H  -3.11600 33.35200 31.66900
H  -2.29900 35.68200 33.09300
H  -1.02700 34.49200 33.16500
H  0.47500 40.82300 27.23900
H  1.96000 39.92200 27.12400
H  0.78900 39.58100 28.43000
H  2.62100 40.84800 23.66500
H  2.74400 39.70000 24.95400
H  1.62500 41.01800 25.14000
H  -0.90000 34.99900 21.36300
H  -3.61500 33.94500 21.27400
H  -3.07300 36.93800 21.30600
H  -2.86700 35.66100 19.94700
H  -1.57000 36.80800 20.31200
H  -1.16800 33.00200 20.87900
H  -2.58800 31.93900 21.26600
H  -1.51900 31.21300 23.09400
H  -1.05200 32.75400 23.62700
H  -0.09700 31.94000 22.30500
H  -5.64300 30.72000 24.27800
H  -7.04300 31.04000 25.35900
H  -5.80100 29.93700 25.90600
H  -4.41100 32.21300 30.42500
H  -6.51200 33.91800 33.38500
H  -7.38700 32.35000 33.09000
H  -7.78500 33.92400 32.26800

