158

Mg 49.84700 35.71900 26.12600
C  47.88700 34.41500 28.78400
C  49.88700 38.71100 27.96400
C  51.21300 37.17000 23.53300
C  48.79300 33.03900 24.15600
N  49.26800 36.39900 28.24400
C  48.63800 35.60200 29.15200
C  48.52700 36.34500 30.51800
C  48.81300 37.82200 30.14600
C  49.31100 37.63600 28.71100
C  47.55800 38.72300 30.24900
C  49.48400 35.66900 31.45500
C  49.11800 35.45900 33.01400
H  47.89400 36.27700 33.55100
N  50.54200 37.67900 25.84500
C  50.47700 38.75300 26.70300
C  51.11300 39.87600 26.09100
C  51.69300 39.45500 24.83700
C  51.18800 38.04500 24.69900
C  51.16500 41.26400 26.87300
C  52.56200 40.21700 23.92500
O  53.01700 39.81700 22.85900
C  53.02400 41.55900 24.31400
N  49.88200 35.21000 24.13000
C  50.57600 35.93700 23.23500
C  50.65900 35.24500 21.84000
C  50.00500 33.84300 22.13200
C  49.47200 34.05100 23.55200
C  50.03100 36.07800 20.77200
C  51.07400 32.65500 22.07100
C  50.92700 31.60000 21.04800
N  48.70000 34.04600 26.37400
C  48.38200 33.01400 25.53400
C  47.52400 32.02600 26.17100
C  47.31500 32.52500 27.46200
C  48.03700 33.75600 27.57100
C  46.84800 30.83900 25.54100
C  46.56800 32.28700 28.63000
O  45.94200 31.30400 28.93700
C  46.82400 33.58200 29.49800
C  47.37400 33.07600 30.70800
O  48.33300 32.39400 30.88800
O  46.32300 33.25900 31.65800
C  46.30600 32.50900 32.84100
H  49.88800 39.65200 28.51900
H  51.84900 37.71100 22.82900
H  48.45500 32.25500 23.47400
H  47.56400 36.22000 31.01300
H  49.51100 38.34100 30.80300
H  47.16500 38.99400 29.26900
H  47.76200 39.62400 30.82700
H  46.71800 38.21100 30.71700
H  50.39200 36.27200 31.48000
H  49.68800 34.71900 30.96200
H  49.91900 35.77400 33.68200
H  48.94800 34.40100 33.21200
H  52.15600 41.70600 26.97600
H  50.90200 41.09400 27.91700
H  50.49400 41.92100 26.32000
H  52.23100 42.27700 24.52500
H  53.49100 41.96400 23.41600
H  53.83100 41.67800 25.03600
H  51.67700 35.07500 21.49000
H  49.22000 33.64900 21.40100
H  50.18500 37.14300 20.94300
H  48.95200 36.01100 20.91300
H  50.32300 35.72000 19.78500
H  51.11800 32.19500 23.05700
H  52.07900 33.07200 22.01500
H  51.29000 30.62500 21.37300
H  51.70100 31.85400 20.32400
H  49.88100 31.56400 20.74100
H  45.75800 30.80400 25.52800
H  47.19400 29.92900 26.03200
H  47.05700 30.87000 24.47200
H  45.98000 34.23500 29.71800
H  45.77600 31.57200 32.66900
H  45.78000 33.00100 33.65900
H  47.29200 32.18300 33.17300
Mg 16.87200 52.70400 26.46900
C  18.88500 51.25000 28.83600
C  14.48000 53.33400 28.96200
C  14.98400 54.09400 24.10500
C  19.36000 52.05200 24.00900
N  16.69800 52.34300 28.67900
C  17.70500 51.83000 29.42200
C  17.33500 51.84700 30.95300
C  15.84200 52.33300 30.92400
C  15.67700 52.80500 29.44200
C  14.80200 51.21100 31.24600
C  18.32000 52.82800 31.70200
C  18.74300 52.38200 33.18000
H  17.67100 51.76600 34.10800
N  14.94700 53.58800 26.53100
C  14.12800 53.71000 27.61900
C  12.88800 54.21300 27.17000
C  12.95200 54.36200 25.77500
C  14.36200 53.96900 25.39100
C  11.70700 54.38900 28.08300
C  11.85600 54.64600 24.76800
O  12.09900 54.74000 23.57200
C  10.53400 54.96000 25.22500
N  17.13200 52.94300 24.30000
C  16.24300 53.75900 23.64000
C  16.72400 53.90700 22.13000
C  18.11900 53.20500 22.16200
C  18.23600 52.81300 23.60100
C  15.79100 53.12900 21.15300
C  19.31900 54.08200 21.65000
C  19.67600 55.37800 22.45500
N  18.73500 51.72000 26.38800
C  19.59900 51.50300 25.33900
C  20.67000 50.64100 25.79100
C  20.41000 50.48600 27.14200
C  19.23200 51.22700 27.48400
C  21.78100 50.17300 24.97400
C  20.90200 49.91200 28.44600
O  21.99900 49.27300 28.55600
C  19.97900 50.46200 29.59200
C  19.54100 49.31500 30.33500
O  18.60900 48.60900 29.98400
O  20.07100 49.32900 31.58000
C  19.63500 48.36300 32.68200
H  13.73500 53.53900 29.73400
H  14.38400 54.58700 23.33800
H  20.14700 52.03200 23.25200
H  17.34700 50.84600 31.38400
H  15.73800 53.20000 31.57700
H  15.13800 50.40800 31.90200
H  14.52900 50.70800 30.31900
H  13.93800 51.82800 31.49000
H  17.92200 53.83800 31.60400
H  19.27400 52.71300 31.18700
H  19.01800 53.35700 33.58200
H  19.68100 51.82600 33.17300
H  11.04400 53.59500 27.73900
H  11.14800 55.31600 27.95000
H  11.84600 54.22900 29.15200
H  10.65800 55.83300 25.86500
H  10.11000 54.18100 25.85900
H  9.87800 55.20600 24.39000
H  16.76900 54.97600 21.92400
H  18.16100 52.28900 21.57300
H  16.42100 52.86500 20.30300
H  14.93300 53.67800 20.76400
H  15.49500 52.18700 21.61500
H  19.07500 54.51700 20.68000
H  20.19900 53.44500 21.56300
H  20.28700 54.97400 23.26300
H  18.72600 55.66800 22.90300
H  20.11900 56.14200 21.81500
H  21.35200 49.41300 24.32100
H  22.41900 49.68600 25.71200
H  22.21800 50.97500 24.38000
H  20.68900 51.07400 30.14800
H  20.50100 47.75600 32.94700
H  18.83400 47.79700 32.20600
H  19.20700 49.00100 33.45600

