158

Mg -1.72300 17.74700 26.55900
C  -2.32000 15.53100 29.23400
C  -2.38600 20.37800 28.70300
C  -1.91500 19.71800 23.78200
C  -1.80800 14.93400 24.42800
N  -2.47900 17.93900 28.74700
C  -2.34200 16.89600 29.66100
C  -2.51500 17.40500 31.11800
C  -2.73500 18.96600 30.90800
C  -2.49000 19.15700 29.38000
C  -3.95000 19.62600 31.61000
C  -1.30800 16.98200 32.10600
C  -1.01400 17.76100 33.36000
H  -0.48700 17.06100 34.54500
N  -2.00200 19.77900 26.31200
C  -2.15200 20.68500 27.36900
C  -2.05800 22.04900 26.75700
C  -1.87000 21.87200 25.37900
C  -1.97300 20.38700 25.08500
C  -1.87400 23.37700 27.56100
C  -1.50100 22.88900 24.26000
O  -1.39000 22.56900 23.06000
C  -1.21800 24.28700 24.51200
N  -1.73900 17.37800 24.38700
C  -1.83300 18.39100 23.42800
C  -1.98000 17.80400 22.01400
C  -1.80800 16.22400 22.27300
C  -1.87200 16.20600 23.76900
C  -3.23400 18.30000 21.21000
C  -0.56600 15.54700 21.61500
C  0.74300 16.23800 21.80100
N  -1.98100 15.66000 26.80100
C  -1.93100 14.66200 25.85300
C  -2.11700 13.37700 26.49300
C  -2.22400 13.69700 27.86200
C  -2.16300 15.08300 27.96100
C  -2.28600 12.13000 25.79500
C  -2.37700 13.08700 29.05600
O  -2.39900 11.93300 29.40600
C  -2.45200 14.28600 30.04500
C  -1.23400 14.08300 30.85800
O  -0.12400 14.39300 30.47600
O  -1.58300 13.36300 31.93400
C  -0.38100 12.84300 32.75500
H  -2.59600 21.23900 29.34200
H  -2.03000 20.49200 23.02000
H  -1.85700 14.14000 23.68000
H  -3.37000 16.81000 31.43700
H  -1.77400 19.41100 31.16400
H  -4.54300 20.31100 31.00500
H  -3.66400 20.28400 32.43000
H  -4.66300 18.91200 32.02300
H  -0.42800 16.94900 31.46300
H  -1.48100 15.96200 32.45000
H  -1.79000 18.47600 33.62900
H  -0.12500 18.32800 33.08500
H  -0.84500 23.72900 27.63700
H  -2.45400 23.33100 28.48300
H  -2.36500 24.20900 27.05700
H  -2.15400 24.61600 24.96400
H  -1.01000 24.97100 23.69000
H  -0.44400 24.40100 25.27200
H  -1.08400 18.16200 21.50600
H  -2.69500 15.72700 21.87900
H  -3.95600 17.48700 21.12000
H  -3.00100 18.51300 20.16700
H  -3.54900 19.23100 21.68100
H  -0.74800 15.38300 20.55300
H  -0.51800 14.52000 21.97600
H  1.30400 16.50800 20.90600
H  1.26800 15.48500 22.38800
H  0.68000 17.02100 22.55600
H  -3.25600 12.09300 25.30000
H  -2.26600 11.27900 26.47600
H  -1.37400 12.00800 25.21000
H  -3.31500 14.13600 30.69400
H  -0.29200 11.76600 32.90000
H  -0.61500 13.22500 33.74800
H  0.57000 13.30500 32.48800
Mg -4.81500 25.34200 26.03300
C  -3.62900 26.72000 28.87800
C  -6.53300 22.99700 27.90200
C  -5.47900 23.64300 23.18600
C  -2.90000 27.57500 24.14600
N  -4.98600 24.90100 28.13800
C  -4.48300 25.64800 29.16500
C  -5.12800 25.39800 30.46500
C  -5.90300 24.05000 30.17900
C  -5.75500 23.86000 28.68000
C  -5.28200 22.92200 31.02000
C  -6.08300 26.51000 30.93300
C  -6.06100 26.66400 32.47000
H  -5.33200 25.70000 33.44600
N  -5.96600 23.63700 25.61100
C  -6.65100 22.82800 26.49900
C  -7.35300 21.74700 25.74600
C  -6.96700 21.89700 24.35400
C  -6.04100 23.09800 24.39900
C  -8.33100 20.83500 26.54200
C  -7.42600 21.03700 23.16000
O  -6.99700 21.19000 22.04000
C  -8.18100 19.79500 23.47000
N  -4.26700 25.58400 23.98500
C  -4.70400 24.78200 22.95000
C  -4.33100 25.28300 21.48200
C  -3.54000 26.64200 21.85800
C  -3.59500 26.66400 23.38600
C  -3.46700 24.26600 20.72500
C  -3.95300 27.93400 21.07400
C  -3.06100 28.54200 20.03000
N  -3.36900 26.70200 26.39400
C  -2.74000 27.59000 25.55300
C  -1.97600 28.58100 26.30100
C  -2.18000 28.19600 27.66400
C  -3.13700 27.08700 27.62700
C  -1.19300 29.83900 25.80400
C  -1.82700 28.52700 29.08300
O  -1.03400 29.27900 29.56700
C  -2.82000 27.56700 29.87600
C  -1.92800 26.82900 30.75700
O  -1.19500 25.92500 30.37500
O  -1.88900 27.38000 32.09000
C  -1.08900 26.58500 32.95600
H  -6.97300 22.18600 28.48700
H  -5.73800 23.05400 22.30300
H  -2.26600 28.38100 23.77000
H  -4.27400 25.39600 31.14300
H  -6.93900 24.23700 30.46100
H  -4.68600 22.23100 30.42400
H  -6.08000 22.24800 31.33000
H  -4.69000 23.20900 31.89000
H  -7.07400 26.43200 30.48400
H  -5.66700 27.45400 30.58100
H  -7.07500 26.77800 32.85400
H  -5.59700 27.64500 32.56800
H  -7.65100 20.06400 26.90500
H  -9.16500 20.35700 26.02900
H  -8.68700 21.40900 27.39700
H  -9.18000 19.97200 23.86900
H  -7.65900 19.12700 24.15500
H  -8.35300 19.28200 22.52400
H  -5.22900 25.41200 20.87800
H  -2.47500 26.43300 21.75600
H  -3.79600 23.89200 19.75500
H  -3.53200 23.28800 21.20300
H  -2.48700 24.72300 20.59100
H  -4.28100 28.75400 21.71200
H  -4.91400 27.73900 20.59900
H  -3.78800 28.74900 19.24600
H  -2.16900 28.01900 19.68500
H  -2.77600 29.51700 20.42500
H  -0.11100 29.70700 25.78400
H  -1.42600 30.66800 26.47200
H  -1.53400 30.10100 24.80200
H  -3.51800 28.14600 30.48100
H  -1.25800 25.51000 32.88400
H  -1.04000 26.96700 33.97500
H  -0.09900 26.65800 32.50700

