158

Mg 8.70000 2.61900 27.76100
C  10.21200 1.34000 30.64700
C  6.81700 4.61500 29.80600
C  7.09500 3.64800 25.02100
C  10.31400 0.11900 25.81300
N  8.66500 2.97800 29.97600
C  9.40900 2.40900 30.99500
C  9.19400 3.00200 32.34200
C  8.13200 4.10100 32.00600
C  7.84600 3.96200 30.51100
C  6.82000 4.17100 32.83700
C  10.53300 3.56800 32.90200
C  10.37000 4.45000 34.19300
H  11.26500 4.20500 35.38000
N  7.13000 3.92900 27.46500
C  6.56000 4.69300 28.46600
C  5.58700 5.54300 27.86300
C  5.64600 5.31400 26.41400
C  6.68400 4.26400 26.22100
C  4.82600 6.61600 28.59200
C  4.80500 5.93700 25.37200
O  4.94400 5.58900 24.17700
C  3.61900 6.89900 25.74100
N  8.75700 2.02700 25.66700
C  7.94600 2.54300 24.74500
C  8.26500 1.98700 23.35600
C  9.29800 0.92700 23.59800
C  9.49600 0.98800 25.09000
C  6.93200 1.59000 22.63900
C  10.64900 1.10500 22.77800
C  11.23200 -0.19700 22.12600
N  9.90100 1.04100 28.07900
C  10.49300 0.11900 27.24100
C  11.37000 -0.77100 28.02400
C  11.25400 -0.36500 29.36000
C  10.33000 0.73900 29.33200
C  12.33600 -1.81700 27.44100
C  11.69800 -0.63300 30.63400
O  12.54700 -1.37200 31.06900
C  11.03200 0.51000 31.56300
C  10.32400 -0.19300 32.75400
O  9.27700 -0.78800 32.75300
O  10.95900 0.20000 33.91500
C  10.32400 -0.21400 35.18300
H  6.35700 5.30300 30.51800
H  6.61000 4.05700 24.13200
H  10.88400 -0.55500 25.17000
H  8.58000 2.35800 32.97000
H  8.67000 5.04000 32.13700
H  6.12000 3.59800 32.22900
H  6.43800 5.18400 32.96400
H  7.00600 3.67200 33.78800
H  10.98100 4.18400 32.12200
H  11.18600 2.72100 33.11400
H  9.33300 4.48900 34.52600
H  10.59800 5.50800 34.06400
H  5.03300 7.61700 28.21300
H  4.88700 6.54700 29.67800
H  3.75500 6.57200 28.39800
H  2.82800 6.35900 26.26000
H  3.31100 7.33700 24.79200
H  3.85500 7.85000 26.21900
H  8.67600 2.73900 22.68200
H  8.84400 -0.05300 23.45700
H  6.47500 2.34200 21.99700
H  6.22000 1.58600 23.46400
H  6.92800 0.61000 22.16300
H  11.35300 1.62100 23.43100
H  10.47800 1.79500 21.95100
H  11.24700 -0.00200 21.05300
H  10.62100 -1.02300 22.49100
H  12.29100 -0.23200 22.38000
H  11.71500 -2.47100 26.82900
H  12.82200 -2.40600 28.21900
H  13.13700 -1.36000 26.86000
H  11.89200 0.99600 32.02400
H  9.28000 0.10100 35.17000
H  10.81700 0.41300 35.92600
H  10.44100 -1.28400 35.35700
Mg 0.27900 43.28900 26.55600
C  2.76100 42.85300 28.89000
C  -1.94000 41.99100 28.73400
C  -1.97700 43.34600 24.08400
C  2.88900 43.62100 24.07700
N  0.38800 42.58300 28.61600
C  1.50100 42.70900 29.37700
C  1.12900 42.45600 30.87900
C  -0.35900 42.01600 30.80100
C  -0.67700 42.11000 29.26300
C  -0.69000 40.53300 31.17500
C  1.28400 43.74300 31.74300
C  0.57400 43.82400 33.15100
H  0.12500 42.49900 33.77000
N  -1.70800 42.73600 26.43900
C  -2.50200 42.28000 27.44600
C  -3.80000 42.16300 26.95700
C  -3.86100 42.58600 25.64800
C  -2.46600 42.93300 25.35300
C  -4.92200 41.66400 27.96000
C  -5.03100 42.60300 24.74100
O  -4.91600 42.86800 23.53000
C  -6.43400 42.38300 25.18500
N  0.39200 43.61500 24.36000
C  -0.66300 43.56000 23.60000
C  -0.33000 43.68700 22.12400
C  1.22100 43.93100 22.15100
C  1.53700 43.73600 23.62900
C  -0.78800 42.48200 21.29800
C  1.78300 45.26900 21.66300
C  1.49300 46.55200 22.57700
N  2.38600 43.30700 26.44300
C  3.23600 43.44800 25.39800
C  4.60100 43.25500 25.93900
C  4.44000 42.96100 27.29500
C  3.09500 43.04200 27.55800
C  5.91500 43.19600 25.17600
C  5.15100 42.76600 28.56700
O  6.36100 42.72200 28.84700
C  4.08400 42.70900 29.64100
C  4.13300 41.41700 30.42900
O  3.84800 40.29500 29.97200
O  4.71000 41.65400 31.66000
C  4.55300 40.43800 32.50600
H  -2.70300 41.58500 29.40200
H  -2.67800 43.45000 23.25300
H  3.65200 43.56300 23.29900
H  1.72100 41.57900 31.14000
H  -1.00500 42.71200 31.33700
H  -1.60900 40.53200 31.76100
H  0.14200 40.17700 31.78300
H  -0.72700 39.84800 30.32800
H  0.99200 44.63100 31.18100
H  2.36300 43.86900 31.83400
H  -0.27900 44.48000 32.98100
H  1.24900 44.30700 33.85700
H  -5.88900 42.09400 27.69700
H  -4.77100 42.11600 28.94000
H  -4.99500 40.58500 28.10100
H  -6.50300 41.33800 25.48400
H  -7.11800 42.67300 24.38700
H  -6.69500 43.04700 26.00900
H  -0.73900 44.61400 21.72200
H  1.75900 43.07700 21.73900
H  -1.49500 41.78800 21.75400
H  -0.01200 41.72000 21.23200
H  -1.17400 42.87300 20.35600
H  1.33200 45.40000 20.67900
H  2.86900 45.25700 21.56500
H  1.04400 47.26200 21.88200
H  2.46700 46.90600 22.91300
H  0.93500 46.31400 23.48300
H  6.72200 42.67200 25.68700
H  6.27000 44.22700 25.16300
H  5.82100 42.90300 24.13000
H  4.26800 43.53600 30.32700
H  3.51000 40.39800 32.82100
H  5.20600 40.45700 33.37900
H  4.87400 39.46600 32.13100

