158

Mg 48.42400 34.26800 26.89400
C  46.73600 32.87400 29.66600
C  48.45100 37.22200 28.74800
C  49.65900 35.65900 24.34200
C  47.62600 31.38500 25.10700
N  47.63200 35.06000 28.95300
C  47.12100 34.20000 29.92900
C  46.95100 34.97000 31.24800
C  47.12000 36.48500 30.79200
C  47.85600 36.23900 29.49700
C  45.75500 37.23100 30.74000
C  48.05000 34.56900 32.26900
C  47.54900 34.38800 33.75000
H  46.53100 35.34400 34.33400
N  49.08700 36.10700 26.63600
C  49.10800 37.16300 27.50700
C  49.96400 38.14300 26.88500
C  50.20900 37.82100 25.54500
C  49.66500 36.47200 25.47300
C  50.33800 39.48300 27.58100
C  50.92300 38.55900 24.39200
O  50.76900 38.32500 23.19100
C  51.64100 39.86600 24.82900
N  48.38400 33.73100 24.92800
C  49.11200 34.44400 24.07400
C  49.40400 33.73900 22.81700
C  48.87600 32.26500 23.03100
C  48.23200 32.43900 24.39500
C  48.93200 34.44800 21.53000
C  49.92900 31.06400 23.10800
C  50.62900 30.63400 21.74700
N  47.45100 32.43100 27.25300
C  47.12100 31.35900 26.40000
C  46.44300 30.33400 27.16000
C  46.25500 30.92400 28.43200
C  46.92300 32.17400 28.41400
C  45.95600 29.02000 26.71900
C  45.81700 30.60000 29.78000
O  45.40900 29.55800 30.31900
C  45.97800 31.90100 30.55900
C  46.45700 31.50700 31.94600
O  47.49700 31.10800 32.30100
O  45.27100 31.48700 32.71600
C  45.35900 31.04700 34.10200
H  48.46900 38.20400 29.22700
H  50.32100 35.97800 23.53500
H  47.53600 30.44300 24.56300
H  46.01600 34.64400 31.70400
H  47.75900 36.93400 31.55300
H  45.40400 37.44300 29.73000
H  45.73900 38.13000 31.35700
H  45.04200 36.59000 31.25800
H  48.73600 35.40200 32.42800
H  48.62200 33.68400 31.98800
H  48.40800 34.38700 34.42200
H  47.22000 33.34900 33.73200
H  49.76000 40.27900 27.11200
H  51.38000 39.60900 27.28900
H  50.09700 39.36000 28.63700
H  50.92400 40.65900 25.04200
H  52.18500 40.16900 23.93400
H  52.41500 39.70200 25.57900
H  50.48200 33.59400 22.74500
H  48.08300 31.90200 22.37700
H  47.95000 33.99700 21.38500
H  49.64600 34.38900 20.70900
H  48.71600 35.50300 21.69600
H  49.41900 30.13900 23.37800
H  50.67000 31.36100 23.84900
H  50.77200 29.56400 21.59300
H  51.60500 31.11500 21.80600
H  50.09900 31.00400 20.86900
H  46.28000 28.68500 25.73300
H  44.87000 29.03300 26.81700
H  46.38000 28.39800 27.50700
H  44.97200 32.31700 30.61300
H  46.25600 30.46000 34.30100
H  44.51700 30.38400 34.30100
H  45.24000 31.80600 34.87500
Mg 35.50900 48.36200 25.36200
C  35.84000 46.32600 28.18200
C  34.44700 51.05000 27.47700
C  34.53900 49.97900 22.78500
C  36.02000 45.44400 23.51100
N  35.25700 48.64300 27.59100
C  35.37300 47.66700 28.48700
C  35.02100 48.14000 29.93200
C  34.52400 49.60000 29.68200
C  34.80200 49.78100 28.16300
C  33.01800 49.81600 29.92700
C  36.16400 48.12400 30.98200
C  35.78400 47.78300 32.39300
H  35.52100 48.84700 33.44700
N  34.61500 50.31100 25.17800
C  34.28900 51.29100 26.07000
C  33.92500 52.51600 25.41600
C  33.94100 52.26400 24.03900
C  34.39900 50.85200 23.89100
C  33.47400 53.76500 26.15200
C  33.69800 53.21500 22.77700
O  33.94500 52.85500 21.61600
C  33.21200 54.60200 22.97700
N  35.26600 47.73700 23.43500
C  34.98100 48.63100 22.54500
C  34.80600 47.95000 21.10600
C  35.49200 46.62700 21.33400
C  35.63500 46.59000 22.85900
C  33.28900 47.91200 20.76700
C  36.86100 46.48500 20.51800
C  38.16700 47.21300 21.01600
N  36.09000 46.33100 25.70600
C  36.28100 45.25300 24.86100
C  36.63000 44.11100 25.55700
C  36.42300 44.44900 26.85600
C  36.13300 45.85000 26.88700
C  36.82800 42.73500 24.89000
C  36.48800 43.95500 28.26600
O  36.77600 42.86700 28.73700
C  36.13300 45.16100 29.13000
C  34.96700 44.80000 29.95200
O  33.84000 44.70800 29.57400
O  35.36900 44.57900 31.26400
C  34.27400 44.27900 32.13400
H  34.20900 51.85600 28.17400
H  34.34600 50.49500 21.84200
H  36.10200 44.59800 22.82700
H  34.29300 47.38200 30.22100
H  35.11400 50.34400 30.21700
H  32.77100 50.70600 30.50500
H  32.65700 48.89200 30.37900
H  32.55800 49.95300 28.94900
H  36.55500 49.14200 30.97800
H  36.99500 47.48500 30.68400
H  36.56800 47.15200 32.81100
H  34.82400 47.26700 32.41500
H  34.08900 54.61900 25.86900
H  33.59900 53.55400 27.21400
H  32.41300 54.00600 26.21500
H  33.04900 54.96400 21.96200
H  33.98500 55.15200 23.51400
H  32.27600 54.47300 23.52100
H  35.33700 48.57800 20.39000
H  34.92000 45.75700 21.01100
H  32.96900 46.96100 20.34100
H  33.02500 48.67600 20.03600
H  32.71800 48.07000 21.68100
H  36.56400 46.77100 19.50900
H  37.12000 45.42600 20.54000
H  38.86000 46.40900 21.26500
H  37.89900 47.89100 21.82600
H  38.57200 47.82300 20.20800
H  35.97800 42.08100 25.08300
H  37.65400 42.19900 25.35700
H  36.92100 42.89700 23.81600
H  37.00200 45.29500 29.77500
H  33.78900 43.31600 31.97600
H  33.58700 45.12500 32.09400
H  34.83100 44.37400 33.06600

