158

Mg 55.31500 24.81800 44.49600
C  52.62800 26.69200 43.53000
C  54.04700 22.06900 42.93500
C  58.41700 23.44000 44.53100
C  56.84800 27.91700 45.64900
N  53.60300 24.50300 43.25500
C  52.59800 25.36100 43.03700
C  51.44200 24.73000 42.28700
C  51.75000 23.22200 42.45400
C  53.18700 23.22100 42.97300
C  50.68700 22.43600 43.33500
C  51.41600 25.10900 40.74200
C  49.98500 25.40700 40.21500
H  49.47100 24.54400 39.09100
N  56.14900 22.96700 43.97700
C  55.39200 21.91600 43.39400
C  56.25900 20.78700 43.32300
C  57.56600 21.13700 43.86000
C  57.39100 22.56600 44.22300
C  55.69600 19.44100 42.74000
C  58.74100 20.19100 44.00000
O  58.66100 19.00900 43.56400
C  60.06700 20.66200 44.61300
N  57.39000 25.59100 45.07100
C  58.45500 24.83100 44.80400
C  59.75900 25.54500 45.25400
C  59.24600 27.09000 45.24300
C  57.73200 26.85100 45.38000
C  60.44300 24.94700 46.48900
C  59.63500 27.87200 43.89800
C  60.40100 29.17400 44.09300
N  54.80500 26.87700 44.72500
C  55.44100 27.97200 45.28100
C  54.48100 29.07300 45.38300
C  53.34400 28.59700 44.75300
C  53.63400 27.26500 44.23000
C  54.70900 30.41600 46.08800
C  51.97700 28.91800 44.41700
O  51.35300 29.92200 44.68300
C  51.48100 27.77500 43.61500
C  51.03400 28.33300 42.32600
O  51.79900 28.90700 41.50300
O  49.68100 28.21700 42.13800
C  49.07200 28.89100 41.00700
H  53.54300 21.20000 42.50800
H  59.41800 23.00800 44.48000
H  57.34100 28.78400 46.09300
H  50.53900 24.99900 42.83400
H  51.69600 22.74400 41.47700
H  50.25500 21.62300 42.75100
H  49.93300 23.05400 43.82100
H  51.36200 22.06000 44.10400
H  51.89300 24.31800 40.16400
H  52.08300 25.96300 40.62900
H  49.90500 26.44400 39.88900
H  49.20000 25.25300 40.95600
H  54.66300 19.50800 42.39800
H  55.80000 18.80900 43.62300
H  56.28100 19.05300 41.90600
H  60.51400 21.44100 43.99500
H  60.74400 19.80800 44.59400
H  59.94300 21.00000 45.64200
H  60.57100 25.47200 44.53100
H  59.58100 27.56100 46.16800
H  61.34100 24.47600 46.09000
H  59.86900 24.10200 46.86900
H  60.89500 25.62200 47.21600
H  58.73000 28.18000 43.37400
H  60.18800 27.22900 43.21300
H  59.75100 30.01300 44.33900
H  60.88300 29.53600 43.18600
H  61.17200 29.00500 44.84500
H  53.72300 30.67900 46.47100
H  55.01700 31.07500 45.27600
H  55.59700 30.19400 46.68000
H  50.61800 27.38100 44.15200
H  49.78600 28.95000 40.18600
H  48.75500 29.91300 41.21700
H  48.25200 28.35500 40.53000
Mg 47.62500 15.40800 28.56800
C  45.54000 15.62900 31.29900
C  50.03200 17.26500 30.49100
C  49.67400 15.51300 26.03700
C  44.96000 14.29200 26.66400
N  47.68000 16.35800 30.58600
C  46.76300 16.22900 31.60500
C  47.31200 16.64300 32.97700
C  48.63300 17.36000 32.60500
C  48.83500 16.93000 31.10700
C  48.62600 18.91500 32.89700
C  47.44200 15.42200 33.92400
C  47.24500 15.67800 35.44600
H  46.78400 17.07000 35.89100
N  49.63400 16.10300 28.25700
C  50.41000 16.82500 29.17400
C  51.64900 17.09700 28.58000
C  51.67000 16.51700 27.28000
C  50.30000 15.99500 27.16800
C  52.77100 17.85900 29.30500
C  52.79100 16.31400 26.22000
O  52.64500 15.88600 25.11900
C  54.13900 16.83900 26.49700
N  47.37100 14.87100 26.62600
C  48.41300 14.94100 25.76800
C  47.90000 14.66500 24.38300
C  46.53200 14.04300 24.56800
C  46.22500 14.44500 26.01000
C  47.93500 15.87000 23.41700
C  46.47600 12.47100 24.42000
C  47.43300 11.60300 25.24500
N  45.63900 14.97400 28.83700
C  44.68100 14.46400 28.03600
C  43.47800 14.22800 28.74700
C  43.71000 14.64500 30.09400
C  45.05000 15.09000 30.09600
C  42.27200 13.62400 28.14000
C  43.22800 14.70900 31.44000
O  42.18500 14.29700 31.92200
C  44.40700 15.29800 32.29300
C  43.87400 16.48800 33.02700
O  44.04900 17.66500 32.71800
O  43.14100 16.08300 34.10500
C  42.27300 16.97000 34.84100
H  50.74300 17.88600 31.03900
H  50.30100 15.64300 25.15200
H  44.21200 13.74500 26.08600
H  46.55100 17.33800 33.33300
H  49.45900 16.99800 33.21600
H  49.43000 19.30400 33.52200
H  47.71700 19.28400 33.37100
H  48.75300 19.43000 31.94500
H  48.40900 14.94800 33.75300
H  46.65600 14.72800 33.62600
H  48.07700 15.43300 36.10600
H  46.54300 14.91700 35.78600
H  53.57400 18.25700 28.68400
H  52.99000 17.28700 30.20600
H  52.25400 18.76000 29.63700
H  54.25800 17.89700 26.26600
H  54.82900 16.37200 25.79400
H  54.42600 16.64800 27.53100
H  48.55200 13.92100 23.92700
H  45.76800 14.54200 23.97100
H  48.17000 16.72400 24.05200
H  46.95900 16.00100 22.95000
H  48.70100 15.76100 22.65000
H  46.61900 12.19100 23.37600
H  45.46200 12.12000 24.61000
H  48.05600 11.05700 24.53700
H  46.89300 10.86600 25.84100
H  48.03200 12.18300 25.94700
H  42.21900 13.74400 27.05800
H  41.43700 13.92900 28.77000
H  42.38900 12.54000 28.14400
H  44.71700 14.59700 33.06800
H  42.41900 17.99400 34.49500
H  42.58200 17.01900 35.88500
H  41.21100 16.74200 34.75500

