158

Mg 45.28300 4.05300 47.18500
C  43.41100 6.96800 46.26300
C  42.24900 2.30700 46.41300
C  46.94100 1.34400 47.87800
C  48.15400 6.03000 47.17700
N  43.06500 4.61500 46.47700
C  42.63800 5.79900 46.02600
C  41.19300 5.75400 45.50200
C  40.74700 4.28100 45.76200
C  42.08900 3.69100 46.28900
C  39.63900 4.22000 46.80700
C  41.14900 6.14500 44.00600
C  40.22300 7.24300 43.61500
H  40.38500 7.61500 42.09400
N  44.66500 2.11100 47.15400
C  43.40300 1.57500 46.79200
C  43.56700 0.15700 46.82700
C  44.82900 -0.20400 47.38700
C  45.53700 1.09300 47.56300
C  42.48400 -0.72500 46.40600
C  45.33300 -1.60400 47.62100
O  44.49400 -2.49000 47.53900
C  46.74700 -1.90600 48.05400
N  47.34800 3.71100 47.36800
C  47.76300 2.51800 47.83100
C  49.25600 2.65900 48.19300
C  49.62000 4.11800 47.92900
C  48.28900 4.65500 47.45400
C  49.65900 2.16700 49.57700
C  50.78600 4.36200 47.00700
C  50.67300 3.84700 45.49400
N  45.76600 6.07800 46.88100
C  46.91100 6.70300 46.96700
C  46.77400 8.13000 46.71700
C  45.38200 8.30600 46.49300
C  44.81200 7.05400 46.56600
C  47.94400 9.09200 46.60400
C  44.31100 9.25500 46.16700
O  44.28600 10.45900 46.01800
C  43.03800 8.42600 45.97600
C  41.99900 8.94100 47.02700
O  41.52100 8.29200 47.98100
O  41.49900 10.17500 46.61700
C  40.35000 10.58400 47.53200
H  41.29600 1.85200 46.13200
H  47.53000 0.45400 48.10900
H  49.01700 6.67700 47.34500
H  40.57100 6.43700 46.08000
H  40.39900 3.74800 44.87700
H  38.70700 4.17000 46.24500
H  39.59700 5.07200 47.48600
H  39.78500 3.30000 47.37300
H  40.86900 5.21600 43.51000
H  42.11300 6.40800 43.57000
H  40.45100 8.18700 44.11000
H  39.15500 7.02400 43.59100
H  42.96100 -1.26300 45.58700
H  41.56700 -0.26000 46.04300
H  42.19400 -1.33000 47.26500
H  46.82900 -2.99100 48.11600
H  47.12100 -1.49700 48.99300
H  47.42400 -1.66100 47.23600
H  49.67500 2.00000 47.43300
H  49.86600 4.68500 48.82700
H  50.44500 2.83200 49.93500
H  50.05900 1.15400 49.53100
H  48.77000 2.26800 50.20000
H  51.70800 3.96400 47.43100
H  51.02100 5.42600 47.02500
H  51.34000 3.07700 45.10600
H  50.76900 4.73900 44.87400
H  49.67900 3.44300 45.30400
H  48.56700 8.79200 45.76100
H  48.53300 9.28300 47.50100
H  47.57900 10.07300 46.30200
H  42.59900 8.56100 44.98800
H  39.91700 9.80600 48.16200
H  39.59000 10.92800 46.83000
H  40.61100 11.42000 48.18000
Mg 46.55800 25.26900 27.51100
C  47.49600 27.52300 29.90700
C  46.18400 22.87200 29.99000
C  45.94100 22.90200 25.20200
C  47.36000 27.53900 25.10900
N  47.01300 25.14200 29.65600
C  47.09900 26.27100 30.51000
C  47.03900 25.99600 31.99300
C  46.62200 24.42800 31.97500
C  46.70200 24.06900 30.45400
C  47.47100 23.45300 32.80200
C  46.07600 26.96900 32.82400
C  45.59300 26.50800 34.19500
H  45.91800 27.46400 35.44200
N  45.94400 23.19400 27.58800
C  45.84500 22.41700 28.68200
C  45.52900 21.02100 28.32400
C  45.40400 21.03500 26.96700
C  45.74500 22.43000 26.51100
C  45.40300 19.83700 29.34600
C  45.06800 19.91200 26.06400
O  44.81100 19.98100 24.86200
C  44.97000 18.57800 26.61300
N  46.61300 25.22500 25.42700
C  46.36800 24.12600 24.71700
C  46.39900 24.39800 23.15800
C  46.57600 25.94800 23.21800
C  46.89500 26.28200 24.71400
C  47.53700 23.68900 22.42000
C  45.35600 26.81100 22.74900
C  45.75100 28.04000 21.84900
N  47.32400 27.14000 27.42200
C  47.65200 27.95200 26.38400
C  48.19500 29.15100 26.81400
C  48.16000 29.10300 28.22500
C  47.62800 27.88300 28.53800
C  48.69000 30.15600 25.86500
C  48.42500 29.79700 29.47900
O  48.91100 30.95000 29.64900
C  47.88000 28.88500 30.56100
C  48.89700 28.61200 31.67300
O  49.79300 27.71600 31.71700
O  48.55000 29.49800 32.66700
C  49.23700 29.45400 33.96100
H  46.07300 22.11400 30.76800
H  45.73400 22.15700 24.43100
H  47.70000 28.18500 24.29700
H  47.98000 26.02100 32.54300
H  45.58000 24.24800 32.24000
H  48.03800 22.80100 32.13700
H  46.96200 22.69600 33.39800
H  48.08600 23.95500 33.54900
H  45.19300 27.17800 32.21900
H  46.62500 27.88600 33.03700
H  45.95800 25.51200 34.44200
H  44.50800 26.39800 34.19300
H  44.36300 19.52300 29.26900
H  45.61800 20.24900 30.33200
H  46.14900 19.05700 29.19400
H  44.20400 18.57100 27.38900
H  45.96400 18.52700 27.05800
H  44.65500 17.81800 25.89900
H  45.42200 24.18900 22.72100
H  47.52300 26.26200 22.78000
H  48.36300 24.28700 22.80800
H  47.45600 23.68800 21.33300
H  47.58900 22.65500 22.76100
H  44.90300 27.32300 23.59800
H  44.52600 26.23900 22.33500
H  46.77700 28.00000 21.48300
H  45.64400 28.94300 22.45100
H  45.16000 28.17200 20.94300
H  49.61400 29.72600 25.47900
H  48.86500 31.11200 26.35900
H  48.02100 30.32600 25.02200
H  46.93300 29.25600 30.95300
H  48.64400 28.71100 34.49300
H  49.22700 30.44700 34.41100
H  50.26200 29.08800 34.02700

