158

Mg 23.14600 -7.70500 45.87600
C  25.67200 -5.37200 44.74800
C  21.10100 -6.20500 43.54100
C  20.94900 -10.21500 46.41600
C  25.67000 -9.67000 47.35100
N  23.43900 -6.07200 44.25900
C  24.46900 -5.15900 44.07600
C  24.06900 -4.05400 43.05000
C  22.58100 -4.29300 42.84700
C  22.33900 -5.59700 43.55200
C  21.74900 -3.06600 43.31900
C  24.92300 -4.12400 41.66200
C  25.76000 -2.85400 41.31600
H  26.38000 -2.80300 39.94200
N  21.19800 -8.13400 45.15400
C  20.56200 -7.36000 44.24500
C  19.30000 -7.98800 44.00900
C  19.26300 -9.10700 44.82900
C  20.46300 -9.18500 45.60900
C  18.29100 -7.38800 43.04800
C  18.12700 -10.04100 44.90700
O  17.16200 -9.83500 44.13200
C  17.97000 -11.04600 46.04300
N  23.24200 -9.57500 47.05700
C  22.19400 -10.43700 47.01400
C  22.61300 -11.81000 47.59000
C  24.06800 -11.54200 48.09300
C  24.36900 -10.24300 47.43200
C  21.63700 -12.51000 48.54700
C  25.10000 -12.68800 47.87400
C  25.16600 -13.63900 48.98000
N  25.16800 -7.58800 46.12800
C  26.06900 -8.46200 46.70000
C  27.38200 -7.88900 46.65400
C  27.29300 -6.69800 45.93500
C  25.94400 -6.55500 45.56700
C  28.66500 -8.58200 47.14700
C  28.01400 -5.56500 45.57600
O  29.17400 -5.26500 45.81100
C  27.02100 -4.58900 44.74600
C  26.95300 -3.28200 45.42300
O  26.77000 -3.15700 46.58000
O  27.25300 -2.25300 44.52800
C  27.48000 -0.89300 45.10300
H  20.49300 -5.69100 42.79500
H  20.37400 -11.14200 46.46500
H  26.46100 -10.21600 47.87100
H  24.20800 -3.04700 43.44500
H  22.44000 -4.38500 41.77100
H  22.33800 -2.29400 43.81600
H  21.04600 -3.40500 44.08000
H  21.22200 -2.65600 42.45800
H  24.35600 -4.42400 40.78100
H  25.69300 -4.89200 41.74000
H  26.50300 -2.71200 42.10000
H  24.98800 -2.08700 41.38200
H  18.02200 -8.14500 42.31100
H  18.64100 -6.54200 42.45700
H  17.41100 -7.07000 43.60600
H  18.17000 -10.61700 47.02500
H  18.44500 -11.97000 45.71300
H  16.90600 -11.25300 46.15800
H  22.77100 -12.43000 46.70800
H  24.15400 -11.33600 49.16000
H  21.68700 -13.58400 48.36700
H  20.65400 -12.08000 48.35400
H  21.94700 -12.42700 49.58800
H  26.07300 -12.24200 47.67100
H  24.88000 -13.26900 46.97900
H  24.13900 -13.88200 49.25200
H  25.73500 -13.31500 49.85200
H  25.64300 -14.56800 48.66700
H  28.61900 -9.04700 48.13200
H  29.47400 -7.85300 47.11500
H  28.98900 -9.32100 46.41500
H  27.56100 -4.46200 43.80700
H  26.62000 -0.46600 45.62000
H  27.45900 -0.21400 44.25100
H  28.44700 -0.77200 45.59200
Mg -0.18500 44.04000 25.93700
C  2.04200 43.83400 28.72400
C  -2.57200 42.72800 27.96200
C  -2.18000 44.24600 23.30000
C  2.52800 45.04200 23.97700
N  -0.23100 43.41600 28.15400
C  0.76100 43.46900 29.13300
C  0.34000 42.85600 30.49700
C  -1.17700 42.47200 30.17600
C  -1.36700 42.83500 28.71100
C  -1.68600 41.00400 30.62300
C  0.41800 43.79300 31.66600
C  0.95200 43.20700 33.00100
H  0.23500 41.93700 33.34200
N  -2.11700 43.54600 25.67700
C  -2.96900 43.08300 26.64900
C  -4.28000 42.96600 26.00500
C  -4.14300 43.24700 24.63300
C  -2.75500 43.73800 24.50500
C  -5.49000 42.38700 26.78000
C  -5.18600 43.04800 23.51000
O  -4.92900 43.32700 22.33400
C  -6.55200 42.43600 23.79500
N  0.04800 44.85200 24.04100
C  -0.90400 44.71700 23.07900
C  -0.43700 45.14800 21.71000
C  1.09000 45.50000 21.95800
C  1.24600 45.06100 23.39500
C  -0.57300 44.03900 20.63500
C  1.34200 47.04500 21.84600
C  0.95900 47.79400 20.57000
N  1.87900 44.30600 26.16700
C  2.85500 44.71100 25.28900
C  4.11800 44.63400 25.91000
C  3.87800 44.36400 27.21900
C  2.45600 44.21500 27.36900
C  5.38400 44.93500 25.29400
C  4.51300 44.08000 28.46800
O  5.69300 43.99700 28.76600
C  3.32600 43.85900 29.55400
C  3.64500 42.42900 29.93600
O  3.56900 41.41800 29.25500
O  3.95700 42.32600 31.24800
C  3.96500 40.93300 31.86200
H  -3.31300 42.23500 28.59600
H  -2.74500 44.46200 22.39100
H  3.38600 45.10500 23.30400
H  0.86800 41.92000 30.68100
H  -1.89200 43.14000 30.65600
H  -2.06900 40.53200 29.71900
H  -2.59700 41.11700 31.21000
H  -0.96300 40.33600 31.09200
H  -0.51600 44.30200 31.90600
H  1.06000 44.60500 31.32500
H  0.75400 43.87100 33.84300
H  2.03900 43.12100 33.01300
H  -5.54700 41.32600 26.53900
H  -6.41100 42.84600 26.42100
H  -5.53000 42.56900 27.85400
H  -7.07000 42.45700 22.83600
H  -6.99300 43.22900 24.40000
H  -6.56000 41.48800 24.33200
H  -1.02800 46.01400 21.41200
H  1.86500 45.07900 21.31700
H  0.29400 43.84700 20.00200
H  -1.45500 44.27500 20.04000
H  -0.72200 43.11100 21.18700
H  2.42900 47.09700 21.90800
H  0.86300 47.59000 22.66000
H  0.25500 48.59100 20.80500
H  0.46700 47.13400 19.85600
H  1.92300 48.23900 20.32200
H  6.04000 45.43900 26.00300
H  5.39600 45.54200 24.38900
H  5.84200 43.98600 25.01400
H  3.40200 44.55200 30.39200
H  4.41900 40.19000 31.20700
H  2.96700 40.53900 32.05000
H  4.75100 40.73900 32.59200

