158

Mg 44.33700 4.74100 46.40500
C  42.31300 7.73300 46.02300
C  41.38700 3.00000 45.73200
C  46.27000 2.22100 45.99400
C  47.15200 6.90200 46.59500
N  42.07500 5.36400 45.95800
C  41.53200 6.57400 45.89600
C  40.01200 6.45700 45.69900
C  39.70700 4.90400 45.78500
C  41.13000 4.39100 45.81400
C  38.86600 4.39400 47.04200
C  39.54500 7.25300 44.48400
C  40.48400 7.07900 43.23800
H  39.79700 7.14400 41.78600
N  43.87300 2.87100 45.97000
C  42.62000 2.36800 45.72400
C  42.82700 0.94700 45.38400
C  44.18900 0.58700 45.47000
C  44.88600 1.87600 45.87600
C  41.75000 -0.00500 44.91400
C  44.83600 -0.79000 45.07400
O  44.15800 -1.73200 44.78600
C  46.24500 -1.01600 44.85600
N  46.41300 4.56500 46.40800
C  47.01300 3.38000 46.09200
C  48.56000 3.44400 46.19100
C  48.79400 4.98300 46.38400
C  47.37900 5.56000 46.45500
C  49.19700 2.60000 47.33100
C  49.73400 5.59800 45.32400
C  51.21500 5.46200 45.72400
N  44.72200 6.83400 46.36100
C  45.90000 7.54900 46.53900
C  45.66100 8.96600 46.59400
C  44.23800 9.05600 46.52600
C  43.71000 7.70300 46.30700
C  46.70200 10.16700 46.60000
C  43.17900 9.97700 46.49300
O  43.15900 11.19800 46.54100
C  41.90400 9.20700 46.08300
C  40.83000 9.49000 47.03900
O  40.65700 8.85800 48.09200
O  39.88700 10.32200 46.54000
C  38.58200 10.49200 47.18300
H  40.50600 2.38500 45.53700
H  46.98000 1.39300 45.92900
H  47.94400 7.63500 46.76200
H  39.55800 6.91500 46.57700
H  39.43900 4.52000 44.80100
H  39.58200 3.84700 47.65400
H  38.06800 3.76500 46.64700
H  38.39800 5.21100 47.59100
H  39.34300 8.25800 44.85500
H  38.55700 6.83700 44.28800
H  40.91700 6.08200 43.31700
H  41.21900 7.88400 43.25100
H  40.76400 0.38000 45.17500
H  41.88000 -0.87000 45.56400
H  41.84500 -0.24200 43.85400
H  46.68000 -0.99800 45.85500
H  46.66200 -0.19800 44.26900
H  46.43300 -1.94100 44.31100
H  48.88100 3.23400 45.17100
H  49.26300 5.04500 47.36600
H  48.51100 1.98100 47.90800
H  49.68800 3.12400 48.15100
H  49.88900 1.89200 46.87500
H  49.47100 6.65500 45.31100
H  49.57000 5.25800 44.30100
H  51.37800 4.96000 46.67800
H  51.57400 6.49100 45.71200
H  51.74000 4.83800 45.00100
H  46.41800 10.87900 47.37500
H  46.62100 10.50000 45.56500
H  47.68800 9.83300 46.92100
H  41.60300 9.57500 45.10200
H  37.96000 9.61300 47.35500
H  38.01100 11.15300 46.53100
H  38.69900 10.99300 48.14300
Mg 47.78700 25.80100 29.18200
C  48.67000 28.06300 31.77400
C  46.53000 23.69700 31.37200
C  47.37100 23.50400 26.63000
C  49.24300 27.89700 26.89500
N  47.70700 25.81800 31.35500
C  47.95500 26.94900 32.24900
C  47.35300 26.69500 33.65000
C  46.85600 25.20300 33.51300
C  46.95900 24.88900 31.96000
C  47.84400 24.23000 34.24600
C  46.13800 27.70300 33.85500
C  46.41300 28.71300 34.93500
H  45.51400 28.82100 36.20400
N  46.94300 23.87700 29.02500
C  46.49500 23.21700 30.05400
C  45.88100 21.99600 29.61200
C  46.31000 21.81000 28.28000
C  46.84500 23.10200 27.86900
C  45.19400 20.98700 30.50600
C  46.23000 20.62100 27.29300
O  46.70000 20.68800 26.14800
C  45.62000 19.27600 27.65600
N  48.30400 25.65800 27.03700
C  48.01300 24.67500 26.23400
C  48.39600 25.02400 24.75100
C  48.95300 26.41100 24.92900
C  48.85600 26.67000 26.38300
C  49.33100 24.06500 23.98600
C  48.19200 27.61200 24.25000
C  48.95600 28.79800 23.62200
N  48.73300 27.61300 29.26000
C  49.35700 28.33300 28.20600
C  49.99600 29.53000 28.70100
C  49.67900 29.48200 30.08400
C  49.01000 28.26700 30.36800
C  50.69600 30.69300 27.96700
C  49.70500 30.20800 31.31700
O  50.15800 31.32500 31.53400
C  49.01300 29.36500 32.42100
C  50.02800 29.17800 33.54000
O  51.00600 28.47900 33.54500
O  49.69400 30.00600 34.59700
C  50.31600 29.75600 35.89700
H  46.14500 23.02700 32.14300
H  47.19200 22.89900 25.73800
H  49.71500 28.62800 26.23600
H  48.13900 26.76400 34.40100
H  45.83400 25.14200 33.88700
H  47.41100 23.88500 35.18500
H  48.80000 24.70800 34.46000
H  48.14100 23.33500 33.69900
H  45.18700 27.25700 34.14700
H  45.91400 28.24100 32.93400
H  46.42800 29.71700 34.51000
H  47.43000 28.57600 35.30300
H  45.95800 20.22400 30.65200
H  44.38400 20.52100 29.94400
H  44.89000 21.33400 31.49300
H  45.65900 19.07200 28.72600
H  46.19200 18.50200 27.14500
H  44.55200 19.32300 27.44100
H  47.44600 25.22700 24.25800
H  50.01000 26.55900 24.70900
H  49.76600 23.43100 24.75800
H  50.09300 24.55400 23.37900
H  48.81100 23.52200 23.19700
H  47.52000 28.07000 24.97500
H  47.55100 27.23000 23.45600
H  48.50000 29.74700 23.90400
H  48.90300 28.82800 22.53400
H  50.00100 28.80300 23.93300
H  51.14300 31.33700 28.72500
H  49.94700 31.25000 27.40400
H  51.44200 30.37000 27.24100
H  48.20400 29.92000 32.89600
H  49.50600 29.47100 36.56900
H  50.77600 30.62600 36.36300
H  50.97200 28.88700 35.94100

