158

Mg 1.93800 -0.97500 43.87800
C  5.34400 -0.10600 43.03400
C  0.86600 1.41600 41.92900
C  -1.13600 -2.57200 44.00700
C  3.39300 -4.04000 45.17600
N  3.05300 0.43900 42.56200
C  4.38500 0.70500 42.41100
C  4.57500 1.92900 41.56700
C  3.17800 2.49400 41.37900
C  2.29300 1.39400 42.06900
C  2.87600 3.99600 41.70400
C  5.28300 1.60200 40.23000
C  6.69000 2.23500 39.96900
H  6.81200 2.96900 38.62400
N  0.08200 -0.48700 43.19900
C  -0.14000 0.55800 42.41800
C  -1.54500 0.68800 42.35900
C  -2.15500 -0.48200 42.89200
C  -1.06100 -1.24600 43.39300
C  -2.13400 1.83500 41.68800
C  -3.64900 -0.74700 42.98900
O  -4.37500 0.11900 42.53500
C  -4.26000 -1.92000 43.67100
N  1.26700 -3.09900 44.48100
C  -0.04800 -3.42100 44.53700
C  -0.22900 -4.86700 45.18200
C  1.25300 -5.14500 45.77500
C  2.01000 -4.04300 45.08100
C  -1.37200 -4.93000 46.27300
C  1.85100 -6.60500 45.62600
C  2.31700 -7.34800 46.86400
N  3.97700 -1.82200 44.24400
C  4.32200 -3.07900 44.79200
C  5.79600 -3.02900 45.07700
C  6.28500 -1.87800 44.34600
C  5.10700 -1.20700 43.84300
C  6.56700 -4.11500 45.72300
C  7.43100 -1.12700 43.88500
O  8.66200 -1.28400 44.11500
C  6.87600 0.08100 43.06900
C  7.45000 1.28500 43.73400
O  7.01900 1.85800 44.78600
O  8.47200 1.85900 42.96600
C  8.84100 3.24300 43.16000
H  0.54900 2.28500 41.34800
H  -2.11600 -3.01400 44.19400
H  3.68100 -4.89400 45.79300
H  5.05800 2.75500 42.08700
H  2.79500 2.37300 40.36600
H  2.18400 4.21600 42.51700
H  2.50900 4.43600 40.77600
H  3.74900 4.54900 42.04900
H  4.62900 1.96500 39.43700
H  5.34500 0.51400 40.22300
H  7.36500 1.38000 40.00100
H  6.85900 2.91900 40.80100
H  -1.41000 2.65000 41.67200
H  -2.91900 2.26500 42.31000
H  -2.31800 1.71300 40.62100
H  -3.66800 -1.99300 44.58300
H  -4.07200 -2.75800 43.00000
H  -5.33300 -1.74200 43.74400
H  -0.55600 -5.67400 44.52700
H  1.38100 -4.80500 46.80200
H  -0.93800 -5.32800 47.19000
H  -2.08900 -5.69400 45.97500
H  -1.86900 -3.96200 46.34100
H  2.60800 -6.63900 44.84300
H  1.06900 -7.24000 45.20800
H  2.45200 -6.61700 47.66100
H  3.25000 -7.87200 46.65600
H  1.64700 -8.08600 47.30600
H  6.22100 -4.18200 46.75500
H  7.63700 -3.93900 45.61300
H  6.37000 -5.00900 45.13300
H  7.32700 0.00200 42.08000
H  7.99200 3.79700 42.76000
H  9.73700 3.40800 42.56200
H  9.18000 3.51200 44.16000
Mg 47.32400 15.87000 28.06200
C  45.27900 15.26400 30.95100
C  49.34500 17.66600 29.95100
C  48.92300 16.92200 25.26600
C  44.72900 14.62100 26.09900
N  47.27100 16.46600 30.18800
C  46.46600 16.06000 31.15400
C  46.81900 16.65900 32.51400
C  48.13100 17.42400 32.27000
C  48.21400 17.25000 30.68200
C  48.27700 18.84400 32.77000
C  47.09600 15.49100 33.58700
C  47.68100 15.99900 34.91400
H  47.08400 17.34000 35.49600
N  49.07700 16.86600 27.69200
C  49.73300 17.54200 28.62900
C  50.96100 17.99300 28.10700
C  50.96400 17.66800 26.74300
C  49.60300 17.11900 26.47200
C  52.02000 18.55400 29.00800
C  52.09600 17.77300 25.76400
O  51.86400 17.81100 24.54400
C  53.49800 18.00000 26.35100
N  47.07800 15.54200 25.87900
C  47.74600 16.22800 24.96200
C  46.97300 16.32200 23.59200
C  45.72500 15.43000 23.95600
C  45.82500 15.18600 25.43800
C  46.51600 17.83000 23.22400
C  45.60900 14.12600 23.02200
C  44.51500 14.05600 21.93600
N  45.42400 14.97500 28.41500
C  44.48300 14.57300 27.49000
C  43.32600 14.06600 28.12200
C  43.55500 14.25000 29.49100
C  44.83600 14.85600 29.63800
C  42.03600 13.57700 27.47400
C  43.03600 14.09200 30.79800
O  41.91300 13.72200 31.18200
C  44.14200 14.72100 31.83900
C  43.41500 15.73100 32.58600
O  42.94300 16.81100 32.08800
O  43.24800 15.28100 33.84500
C  42.21300 15.95700 34.64800
H  50.01500 18.27500 30.56100
H  49.40300 17.29400 24.35800
H  43.79000 14.55000 25.54700
H  46.03200 17.34200 32.83300
H  48.95700 16.82000 32.64500
H  48.04100 19.54400 31.96900
H  49.31200 18.93300 33.10100
H  47.63200 19.12800 33.60200
H  47.89000 14.87300 33.16700
H  46.14900 14.95300 33.60400
H  48.76000 16.14900 34.88000
H  47.43400 15.25600 35.67200
H  52.36100 19.43800 28.46900
H  52.78300 17.79400 29.17900
H  51.70100 19.00800 29.94600
H  54.15900 18.07600 25.48700
H  53.81800 17.20400 27.02400
H  53.42900 18.92600 26.92200
H  47.57500 15.95000 22.76300
H  44.76300 15.89700 23.74100
H  45.44300 17.96600 23.35600
H  46.73000 18.04100 22.17600
H  47.00900 18.52600 23.90300
H  45.58600 13.24300 23.66100
H  46.55300 14.18600 22.47900
H  43.72500 14.80600 21.95900
H  43.85100 13.20700 22.09700
H  45.05700 13.89800 21.00300
H  41.96800 12.53000 27.17900
H  41.95200 14.27600 26.64100
H  41.14300 13.71400 28.08400
H  44.41400 13.94400 32.55300
H  42.85100 16.67600 35.16200
H  41.96600 15.05400 35.20700
H  41.39500 16.31100 34.02100

