158

Mg 46.77000 24.87100 27.84700
C  47.65300 27.42400 30.31800
C  46.46700 22.62700 30.40100
C  46.22800 22.63300 25.56400
C  47.66900 27.32800 25.44100
N  47.04400 25.05800 30.05800
C  47.27900 26.20500 30.85700
C  47.21500 25.84500 32.36300
C  46.91100 24.27400 32.42700
C  46.83300 23.94000 30.83800
C  47.88900 23.40600 33.25400
C  46.34200 26.86200 33.07300
C  45.66800 26.46100 34.38700
H  45.96200 27.43900 35.54700
N  46.30500 22.92100 27.95800
C  46.20600 22.14500 29.08800
C  45.87000 20.75900 28.70800
C  45.77500 20.78900 27.27100
C  46.11500 22.14800 26.84900
C  45.91500 19.64900 29.63800
C  45.41400 19.65800 26.29200
O  45.32000 19.79700 25.08400
C  45.07800 18.29700 26.75200
N  46.98800 25.00200 25.79500
C  46.56900 23.90400 25.07500
C  46.73700 24.06500 23.57100
C  47.20500 25.59200 23.58200
C  47.21100 26.07600 25.00500
C  47.74900 23.17600 22.81900
C  46.15200 26.49600 22.77900
C  46.67600 27.17100 21.50300
N  47.47400 26.97800 27.79100
C  47.77800 27.79000 26.74700
C  48.27200 29.12800 27.22600
C  48.14600 29.06800 28.61900
C  47.66600 27.71500 28.95000
C  48.87600 30.17700 26.35900
C  48.49900 29.71600 29.82700
O  49.14300 30.76700 29.92700
C  48.01300 28.75400 30.99800
C  49.09700 28.75600 32.02300
O  50.00300 27.97200 32.12900
O  48.68000 29.64500 33.00500
C  49.57700 29.76100 34.14900
H  46.33800 21.83900 31.14600
H  46.09500 21.87900 24.78600
H  47.84000 27.96700 24.57200
H  48.28300 25.94700 32.55500
H  45.93700 24.16300 32.90500
H  48.56700 24.07600 33.78300
H  48.40800 22.71300 32.59100
H  47.32800 22.81400 33.97700
H  45.47100 27.12200 32.47200
H  46.95500 27.74000 33.27400
H  45.92600 25.44100 34.67000
H  44.58900 26.56200 34.27700
H  44.95100 19.15600 29.51800
H  45.91200 19.84300 30.71100
H  46.64000 18.90100 29.31700
H  44.26100 18.29400 27.47500
H  45.99800 18.05400 27.28300
H  44.90600 17.64400 25.89700
H  45.76000 23.82100 23.15600
H  48.16600 25.66900 23.07400
H  48.55800 23.69400 22.30500
H  47.29000 22.46000 22.13700
H  48.38300 22.63200 23.52000
H  45.78300 27.33300 23.37200
H  45.33000 25.84300 22.48200
H  46.81200 28.22200 21.75700
H  46.00800 26.90100 20.68500
H  47.61800 26.70300 21.21800
H  48.51900 30.25200 25.33100
H  49.96300 30.10300 26.33500
H  48.68700 31.17400 26.75700
H  47.10900 29.19800 31.41500
H  50.57300 29.38600 33.91100
H  49.22600 29.18200 35.00300
H  49.70000 30.82900 34.32500
Mg 4.83600 54.68400 40.34300
C  4.34600 51.19100 40.58600
C  8.18200 54.01600 39.53600
C  5.14700 57.81200 39.36100
C  1.36500 55.15100 40.92100
N  6.10500 52.74800 39.85900
C  5.68800 51.45500 40.12100
C  6.85000 50.44500 39.89400
C  8.06500 51.38300 39.98600
C  7.46400 52.82200 39.74900
C  8.72500 51.33000 41.35500
C  6.67300 49.55600 38.57000
C  6.02000 50.24700 37.40100
H  6.92600 51.11000 36.51700
N  6.43000 55.80300 39.59200
C  7.76100 55.38200 39.41800
C  8.64900 56.47900 39.04900
C  7.71700 57.66500 39.04100
C  6.34400 57.10000 39.24500
C  10.14500 56.39800 38.70400
C  8.14900 59.06300 38.83900
O  9.34500 59.31300 38.82300
C  7.23900 60.14200 38.83200
N  3.46200 56.21000 40.12000
C  3.86700 57.43900 39.74600
C  2.78600 58.51300 39.97200
C  1.52800 57.67100 40.45600
C  2.17900 56.22400 40.47200
C  3.15300 59.67400 40.95800
C  0.32400 57.76900 39.50600
C  -1.12000 58.05400 40.02300
N  3.15200 53.45600 40.58400
C  1.83800 53.81000 40.90500
C  1.10800 52.67600 41.40400
C  2.07700 51.66000 41.33000
C  3.25000 52.18200 40.71200
C  -0.33600 52.50000 41.86700
C  2.40500 50.24400 41.64700
O  1.81800 49.35900 42.21000
C  3.77900 49.88300 41.06900
C  3.70300 48.81800 40.02600
O  3.33700 49.00700 38.92900
O  4.15500 47.61100 40.53800
C  4.09500 46.51600 39.55900
H  9.27000 53.95100 39.47000
H  5.11000 58.86200 39.06500
H  0.34000 55.34500 41.24400
H  6.83700 49.72300 40.71000
H  8.77200 51.15300 39.18900
H  9.81000 51.37900 41.25900
H  8.52100 50.37300 41.83500
H  8.40900 52.16600 41.97800
H  6.17400 48.62400 38.83400
H  7.70100 49.30700 38.30400
H  5.29200 50.91400 37.86300
H  5.56800 49.43300 36.83400
H  10.31100 55.54100 38.05200
H  10.74900 56.19500 39.58900
H  10.52500 57.23400 38.11700
H  7.78300 61.07000 38.65100
H  6.70100 60.15300 39.77900
H  6.60900 60.04000 37.94800
H  2.77100 59.02600 39.01100
H  1.25400 57.91100 41.48400
H  2.57300 59.72600 41.87900
H  3.00700 60.60500 40.41100
H  4.17400 59.46700 41.28000
H  0.20700 56.95100 38.79500
H  0.62800 58.70900 39.04500
H  -1.00300 59.09200 40.33400
H  -1.42400 57.43100 40.86400
H  -1.93000 58.02400 39.29400
H  -0.73500 51.49900 41.70900
H  -1.02200 53.19600 41.38500
H  -0.33600 52.89400 42.88400
H  4.31600 49.45300 41.91500
H  3.01700 46.35600 39.52100
H  4.54700 45.63200 40.01100
H  4.41300 46.68900 38.53100

