158

Mg 35.55800 0.51600 29.02200
C  33.41400 1.77800 31.57900
C  38.13100 0.80300 31.30900
C  37.58500 -0.15000 26.51600
C  32.83500 0.98800 26.80100
N  35.76400 1.24200 31.23600
C  34.76600 1.53600 32.09500
C  35.21000 1.65800 33.55400
C  36.79000 1.48200 33.45000
C  36.91300 1.18300 31.91300
C  37.50500 2.81900 33.71800
C  34.51400 0.57900 34.50000
C  34.56000 0.76600 36.06400
H  35.23200 2.07200 36.54200
N  37.59900 0.36700 28.90000
C  38.46800 0.50600 29.92100
C  39.85200 0.09800 29.43200
C  39.70500 -0.20900 27.98000
C  38.26200 0.04600 27.74900
C  40.98800 -0.00600 30.43200
C  40.63100 -0.68300 26.89200
O  40.28900 -1.08200 25.79900
C  42.01500 -0.90200 27.28900
N  35.17700 0.37900 26.93900
C  36.23500 0.11700 26.15000
C  35.82100 0.12800 24.63300
C  34.26600 0.48300 24.78500
C  34.04600 0.60900 26.29400
C  36.70700 1.18600 23.79700
C  33.33600 -0.57900 24.05700
C  33.05400 -1.89200 24.76500
N  33.51400 1.09200 29.14000
C  32.50600 1.22100 28.14000
C  31.20400 1.62200 28.69800
C  31.53200 1.88800 30.07400
C  32.93300 1.59300 30.24000
C  30.01700 1.81800 27.84300
C  31.01200 2.36900 31.32400
O  29.92000 2.71100 31.62900
C  32.16600 2.23600 32.36600
C  32.33500 3.45000 33.25500
O  33.03600 4.34200 32.90100
O  31.62100 3.27400 34.44800
C  31.73400 4.40300 35.40500
H  38.98600 0.80000 31.98800
H  38.13400 -0.45600 25.62300
H  32.10800 1.22500 26.02200
H  34.98200 2.66100 33.91500
H  37.01100 0.68500 34.15900
H  36.82900 3.67300 33.66300
H  38.31000 2.98400 33.00100
H  38.10000 2.94100 34.62400
H  35.14200 -0.24100 34.15400
H  33.46400 0.41400 34.25900
H  34.97600 -0.07500 36.62000
H  33.51300 0.86600 36.35200
H  41.94800 -0.29300 30.00400
H  40.70600 -0.77800 31.14700
H  41.06600 1.00600 30.82900
H  42.54800 -0.10100 27.80100
H  42.64500 -1.33800 26.51400
H  41.85000 -1.74400 27.96200
H  35.93700 -0.90300 24.29900
H  33.92900 1.45700 24.43000
H  37.07800 0.70500 22.89200
H  37.54900 1.52400 24.40200
H  36.05700 2.03800 23.60100
H  33.64300 -0.76200 23.02700
H  32.43700 0.03600 24.08800
H  32.03300 -1.92500 25.14600
H  33.67500 -2.02600 25.65000
H  33.31600 -2.65900 24.03600
H  30.14300 1.81500 26.76000
H  29.53200 2.74400 28.15200
H  29.23800 1.09100 28.07200
H  31.87000 1.48800 33.10200
H  31.23300 5.24000 34.91900
H  32.75300 4.78900 35.45000
H  31.16900 4.15900 36.30400
Mg 25.46800 51.18600 27.06100
C  23.34200 52.23000 29.73500
C  27.79900 50.46500 29.44100
C  27.63600 50.90300 24.58000
C  23.11800 52.41700 24.82100
N  25.66900 51.57800 29.32400
C  24.62900 51.75900 30.18500
C  24.96200 51.44600 31.65900
C  26.53800 51.18600 31.54300
C  26.76100 51.15800 30.03900
C  27.46900 52.13700 32.36700
C  24.06400 50.30800 32.22200
C  23.49700 50.58400 33.64000
H  24.40600 51.27200 34.69800
N  27.32400 50.46700 26.96600
C  28.11300 50.25100 28.04700
C  29.39300 49.69500 27.59400
C  29.38500 49.76200 26.20400
C  28.05900 50.37600 25.84400
C  30.50500 49.20500 28.57700
C  30.60600 49.54500 25.23000
O  30.51700 49.72900 24.03500
C  31.89800 48.88100 25.68800
N  25.39700 51.76600 24.88300
C  26.49700 51.59200 24.14100
C  26.23000 52.13100 22.71000
C  24.63900 52.10300 22.72300
C  24.39200 52.05800 24.26200
C  26.87600 53.41600 22.29400
C  23.85100 51.00300 21.89900
C  22.78400 51.37000 20.94500
N  23.67300 52.25300 27.23400
C  22.80000 52.60900 26.21300
C  21.53400 53.01200 26.79800
C  21.74100 52.88700 28.17200
C  23.03000 52.40300 28.38900
C  20.37700 53.30600 26.01100
C  20.98200 52.89800 29.41500
O  19.85900 53.16500 29.57500
C  22.06300 52.54800 30.51500
C  22.25700 53.67800 31.42400
O  23.06200 54.61400 31.23000
O  21.50900 53.60200 32.57600
C  21.93900 54.64600 33.59700
H  28.47800 50.11500 30.22100
H  28.33400 50.64100 23.78300
H  22.36000 52.74100 24.10400
H  24.78700 52.30100 32.31100
H  26.73700 50.14700 31.80200
H  28.26600 52.51300 31.72600
H  27.96700 51.67200 33.21700
H  26.91100 53.05000 32.57600
H  24.63500 49.38300 32.13900
H  23.23300 50.02800 31.57500
H  23.18900 49.60100 33.99500
H  22.70600 51.33100 33.57100
H  30.97000 48.25600 28.30900
H  30.38800 49.32000 29.65500
H  31.26200 49.94900 28.33200
H  31.66000 47.92100 26.14500
H  32.33600 49.54600 26.43200
H  32.59700 48.71200 24.86900
H  26.54200 51.32100 22.05100
H  24.38800 53.11500 22.40600
H  27.47300 53.18900 21.41100
H  27.44800 53.72700 23.16800
H  26.19300 54.10400 21.79600
H  23.38900 50.31500 22.60700
H  24.50900 50.36500 21.30800
H  23.08200 50.95900 19.98000
H  22.82100 52.45100 20.80400
H  21.73900 51.18600 21.19100
H  19.58000 52.57400 26.14000
H  20.64100 53.20000 24.95900
H  20.10200 54.34400 26.19800
H  21.60500 51.68000 30.99000
H  21.93000 55.68300 33.26300
H  22.93000 54.38800 33.97200
H  21.29300 54.51300 34.46500

