158

Mg 53.65700 24.19900 44.59800
C  51.17900 26.48500 43.87300
C  51.62300 21.61900 43.68200
C  56.41800 22.25700 44.14800
C  55.80000 26.96100 45.08100
N  51.71600 24.07100 43.71000
C  50.81900 25.12700 43.62100
C  49.41000 24.71800 43.15800
C  49.59300 23.19800 43.57100
C  51.08200 22.96900 43.67900
C  48.86100 22.74100 44.86700
C  49.20600 25.08000 41.70000
C  48.23600 24.21200 40.90600
H  48.00700 24.62800 39.44000
N  53.97800 22.21600 43.99600
C  52.98600 21.32400 43.69600
C  53.57600 19.99200 43.60400
C  54.93600 20.17300 43.75700
C  55.12900 21.61000 43.89700
C  52.75100 18.73200 43.39700
C  56.04300 19.05000 43.76800
O  55.74800 17.87400 43.58600
C  57.55800 19.21000 43.98800
N  55.82600 24.60800 44.58500
C  56.70100 23.55900 44.55300
C  58.20500 24.06700 44.87000
C  57.97900 25.58300 45.08900
C  56.44000 25.75300 44.85800
C  58.70800 23.45300 46.17900
C  58.96400 26.44400 44.22900
C  58.82900 26.32100 42.70900
N  53.58300 26.34500 44.69400
C  54.46800 27.29100 44.98900
C  53.80400 28.57700 45.05900
C  52.45500 28.31000 44.64300
C  52.40100 26.95200 44.34900
C  54.46300 29.80400 45.64300
C  51.10300 28.93000 44.58500
O  50.64800 30.04100 44.82500
C  50.27100 27.80000 43.87800
C  50.14500 28.37600 42.46700
O  51.07200 28.62800 41.73300
O  48.82600 28.69500 42.17200
C  48.51900 29.02900 40.74200
H  50.93600 20.77000 43.66000
H  57.28200 21.60200 44.27300
H  56.45800 27.80900 45.28000
H  48.65600 25.28100 43.70800
H  49.28000 22.49600 42.79800
H  48.00900 22.11100 44.61300
H  48.43100 23.62300 45.34100
H  49.56000 22.26500 45.55600
H  50.15800 25.11200 41.17000
H  48.69600 26.04400 41.69900
H  47.29200 24.06000 41.43000
H  48.74400 23.25200 40.81400
H  51.88800 18.94100 42.76400
H  52.42500 18.43900 44.39500
H  53.20200 17.82700 42.99100
H  58.08100 18.25400 43.99400
H  57.69000 19.60900 44.99400
H  58.01600 19.92200 43.30200
H  58.89700 23.99200 44.03100
H  58.12500 25.95000 46.10600
H  57.99700 22.73100 46.58300
H  58.79900 24.21100 46.95600
H  59.72100 23.12600 45.94700
H  59.99300 26.15500 44.44400
H  58.85700 27.46600 44.59400
H  58.49000 27.25000 42.25000
H  58.13600 25.58000 42.31200
H  59.87200 26.21500 42.41100
H  55.53400 29.70700 45.82300
H  53.87500 30.14400 46.49600
H  54.30200 30.64500 44.96900
H  49.25400 27.73400 44.26500
H  49.36400 29.11600 40.05900
H  47.97100 29.95500 40.56700
H  47.86400 28.22500 40.40600
Mg 47.60000 16.48200 28.75500
C  45.73700 16.25600 31.67500
C  49.91700 18.50600 30.58300
C  49.11600 17.16100 25.87200
C  45.01300 14.96300 27.04200
N  47.71800 17.28900 30.82500
C  46.90200 16.97500 31.87300
C  47.31600 17.53800 33.25000
C  48.58900 18.42300 32.79800
C  48.76200 18.06900 31.31100
C  48.39100 19.95000 33.04900
C  47.78000 16.32700 34.20000
C  47.19900 16.36900 35.57500
H  46.94300 17.77800 36.22300
N  49.28200 17.67400 28.31100
C  50.12100 18.41500 29.19500
C  51.23000 18.93400 28.45000
C  51.00400 18.46600 27.07500
C  49.80200 17.66500 26.99600
C  52.41000 19.65600 29.06300
C  51.95000 18.62300 25.80700
O  51.75500 18.14700 24.73600
C  53.18900 19.61500 25.90900
N  47.06100 16.14800 26.82400
C  47.88500 16.49800 25.79600
C  47.36000 16.16100 24.40000
C  46.22400 15.18700 24.78000
C  46.06300 15.45900 26.27300
C  46.81100 17.30600 23.54900
C  46.55800 13.70600 24.50600
C  45.72000 13.04900 23.41600
N  45.72200 15.72800 29.23800
C  44.80700 15.07000 28.44600
C  43.64600 14.64000 29.24400
C  43.97300 15.10200 30.51800
C  45.25400 15.69600 30.46200
C  42.50900 13.90500 28.83500
C  43.47100 15.14300 31.92600
O  42.50400 14.55300 32.43900
C  44.67400 15.95000 32.67600
C  44.04900 17.09500 33.28200
O  43.96000 18.24200 32.84600
O  43.51000 16.72600 34.49300
C  42.74600 17.77400 35.10100
H  50.67700 19.07800 31.12000
H  49.53400 17.32600 24.87600
H  44.24200 14.40400 26.50800
H  46.55800 18.23700 33.60300
H  49.52900 18.07200 33.22500
H  48.62200 20.40500 32.08500
H  49.13900 20.35100 33.73300
H  47.36700 20.23500 33.29100
H  48.82700 16.31800 34.50300
H  47.65000 15.39900 33.64300
H  47.85500 15.75600 36.19300
H  46.25000 15.85300 35.43200
H  53.32100 19.09200 28.86100
H  52.34900 19.74900 30.14700
H  52.54400 20.64300 28.61900
H  52.85500 20.63200 26.11400
H  53.54900 19.52800 24.88400
H  54.01800 19.19500 26.47800
H  48.15400 15.70300 23.81000
H  45.29400 15.40500 24.25600
H  45.75000 17.13700 23.36500
H  47.35100 17.37400 22.60500
H  46.82500 18.19400 24.18100
H  46.41300 13.11400 25.40900
H  47.56800 13.40300 24.23000
H  46.41100 12.35900 22.93100
H  45.29000 13.72500 22.67800
H  44.90500 12.40200 23.74000
H  41.64500 14.56500 28.91800
H  42.21000 13.09400 29.49800
H  42.67800 13.63700 27.79200
H  44.94300 15.16200 33.37900
H  43.38900 18.61800 35.35000
H  42.26200 17.52300 36.04500
H  41.94100 18.16200 34.47700

