158

Mg 35.94000 2.69500 30.64100
C  33.21600 3.40500 33.01600
C  38.17300 2.76900 33.36900
C  38.38600 1.94300 28.57000
C  33.59700 2.92000 28.15000
N  35.66700 3.08900 32.90200
C  34.49100 3.31800 33.61400
C  34.84800 3.32500 35.13100
C  36.42500 3.52400 35.13500
C  36.83900 3.13100 33.67800
C  36.91600 4.97700 35.50600
C  34.36100 2.03000 35.84900
C  33.87000 2.15200 37.32600
H  34.30500 3.41300 38.06000
N  37.99200 2.24200 30.95200
C  38.66800 2.23100 32.16000
C  40.04700 1.78400 31.83600
C  40.12700 1.62900 30.46900
C  38.79600 1.98300 29.95600
C  41.12400 1.69600 32.86800
C  41.27100 1.22200 29.61500
O  41.19100 1.04600 28.40500
C  42.56000 0.82700 30.31300
N  36.03600 2.59400 28.62600
C  37.18000 2.25400 27.93600
C  36.92000 2.35400 26.44500
C  35.34500 2.58200 26.33200
C  34.98000 2.72300 27.81700
C  37.83700 3.45200 25.83700
C  34.54200 1.33400 25.82500
C  33.49800 1.78500 24.84400
N  33.76500 3.17400 30.55200
C  33.00700 3.18800 29.43000
C  31.69300 3.46800 29.78000
C  31.62500 3.56000 31.18300
C  33.01100 3.40000 31.60700
C  30.53000 3.50800 28.83000
C  30.83300 3.75400 32.38200
O  29.66000 3.91100 32.51200
C  31.85800 3.69100 33.64800
C  31.86600 4.96300 34.39200
O  32.58900 5.94400 34.22100
O  30.96200 4.84000 35.41800
C  30.98600 5.98700 36.37000
H  38.79400 2.79900 34.26700
H  39.17200 1.79600 27.82600
H  32.87500 2.94300 27.33100
H  34.30700 4.14300 35.60700
H  36.88500 2.91000 35.90900
H  37.41900 4.93600 36.47200
H  36.04200 5.62800 35.51100
H  37.62700 5.22800 34.72000
H  35.15300 1.30600 35.66100
H  33.54100 1.69000 35.21600
H  34.08900 1.20900 37.82700
H  32.78000 2.15400 37.31300
H  41.69000 0.76500 32.83100
H  40.69200 1.67900 33.86800
H  41.88000 2.48100 32.86800
H  42.24400 -0.12100 30.75000
H  42.93000 1.61000 30.97300
H  43.26200 0.61400 29.50700
H  37.18400 1.36600 26.06700
H  35.06700 3.48900 25.79400
H  37.20400 4.13700 25.27400
H  38.64100 3.02500 25.23600
H  38.24000 4.09200 26.62100
H  34.05200 0.77100 26.61900
H  35.15100 0.63200 25.25600
H  33.79800 1.41100 23.86500
H  33.20700 2.82600 24.98800
H  32.58300 1.25300 25.10500
H  30.40900 2.54200 28.34100
H  30.61000 4.37600 28.17500
H  29.59500 3.65000 29.37100
H  31.58800 2.97600 34.42500
H  29.97000 6.37700 36.43300
H  31.60200 6.86700 36.18800
H  31.32600 5.64200 37.34600
Mg 46.75500 24.65100 27.99700
C  48.11000 27.04100 30.42200
C  45.99900 22.63800 30.80100
C  45.81700 22.44200 25.88300
C  47.84600 26.88100 25.55400
N  46.88300 24.97200 30.37000
C  47.49000 25.99000 31.07400
C  47.29000 25.73700 32.61000
C  46.69200 24.32300 32.67400
C  46.44600 23.92800 31.18700
C  47.50900 23.19100 33.44900
C  46.46500 26.88700 33.23800
C  45.78900 26.65200 34.68200
H  46.25700 27.58200 35.86500
N  46.12300 22.70300 28.27700
C  45.82900 22.08200 29.44500
C  45.29000 20.73700 29.12600
C  45.24500 20.66700 27.75100
C  45.65100 21.97100 27.22800
C  45.08900 19.75600 30.19700
C  44.85500 19.51100 26.92500
O  44.80100 19.56200 25.70000
C  44.38900 18.28000 27.52100
N  47.05800 24.57900 25.99500
C  46.40900 23.59200 25.29800
C  46.61500 23.71400 23.80300
C  47.02300 25.29600 23.76500
C  47.31600 25.64100 25.21700
C  47.63600 22.70400 23.22800
C  45.87000 26.07400 23.07500
C  46.06100 27.56800 22.74000
N  47.71700 26.58600 27.89000
C  48.18300 27.28400 26.82400
C  48.89000 28.46800 27.28000
C  48.96800 28.39000 28.66900
C  48.23900 27.22900 29.04600
C  49.62400 29.45200 26.37200
C  49.37000 29.09600 29.87000
O  50.09200 30.11100 30.03900
C  48.71100 28.24600 31.06900
C  49.88000 27.95100 31.92100
O  50.79600 27.16900 31.73400
O  49.70800 28.71900 33.02900
C  50.47000 28.48300 34.30800
H  45.85100 22.06600 31.72000
H  45.56000 21.69400 25.13000
H  48.25000 27.53300 24.77700
H  48.24600 25.86300 33.11800
H  45.79100 24.21200 33.27700
H  46.91200 22.87300 34.30400
H  48.51700 23.56300 33.63700
H  47.75400 22.34800 32.80400
H  45.68500 27.21500 32.55000
H  47.05600 27.75400 33.53600
H  45.92600 25.60400 34.94800
H  44.77800 26.89400 34.35700
H  44.07200 19.39700 30.35600
H  45.36100 20.11100 31.19100
H  45.77800 18.91800 30.09400
H  44.96600 17.88900 28.36000
H  44.21200 17.49300 26.78800
H  43.48300 18.68700 27.97000
H  45.64400 23.64600 23.31300
H  47.91300 25.35100 23.13800
H  48.27300 22.22500 23.97200
H  48.10900 23.25000 22.41100
H  46.93600 21.93800 22.89500
H  45.03700 26.09900 23.77800
H  45.58000 25.57000 22.15300
H  47.14500 27.64900 22.65700
H  45.73200 28.20500 23.56100
H  45.54200 27.83900 21.82000
H  49.82400 29.06600 25.37200
H  50.58700 29.68700 26.82500
H  49.17100 30.44200 26.43400
H  48.01000 28.85200 31.64200
H  50.08400 27.59500 34.80900
H  50.22600 29.30000 34.98700
H  51.52700 28.56500 34.05600

