158

Mg 46.72900 25.48500 28.36300
C  47.36700 27.62400 31.06200
C  46.25900 22.89300 30.65900
C  46.16200 23.26300 25.89000
C  47.65300 27.91200 26.06500
N  46.85900 25.32800 30.60000
C  47.00400 26.38100 31.52800
C  46.89500 25.89100 32.96000
C  46.67400 24.32200 32.74200
C  46.66800 24.13300 31.26200
C  47.62700 23.30800 33.54400
C  45.77900 26.67100 33.88100
C  46.25000 26.71100 35.33400
H  45.40800 27.60100 36.30300
N  46.18100 23.45900 28.33500
C  46.08800 22.53700 29.38100
C  45.70900 21.21500 28.86900
C  45.60700 21.37100 27.45700
C  45.98300 22.78200 27.13600
C  45.66000 19.99700 29.70500
C  45.21300 20.27600 26.40300
O  45.18900 20.36800 25.20300
C  44.94700 18.96000 26.87000
N  47.03500 25.57100 26.28300
C  46.58000 24.50100 25.50800
C  46.77000 24.90000 24.02200
C  47.08100 26.42800 24.02900
C  47.27300 26.68800 25.53800
C  47.83800 24.03800 23.20200
C  45.85900 27.35500 23.54700
C  46.20200 28.55500 22.58400
N  47.43000 27.32000 28.45800
C  47.79400 28.21700 27.40300
C  48.23700 29.48800 28.04000
C  48.12300 29.26300 29.47900
C  47.68000 27.92500 29.64800
C  49.06300 30.44700 27.34900
C  48.42200 29.80500 30.72000
O  49.09600 30.79400 30.98600
C  47.78900 28.91400 31.72500
C  48.85900 28.72800 32.77800
O  49.93100 28.26400 32.66100
O  48.31600 29.18900 33.97400
C  49.06300 29.40000 35.15800
H  46.07700 22.12900 31.41800
H  45.98400 22.47400 25.15700
H  47.77600 28.66700 25.28500
H  47.85800 25.90400 33.47100
H  45.65500 24.16300 33.09400
H  48.29300 23.80000 34.25300
H  48.14000 22.70000 32.79900
H  46.99900 22.65800 34.15300
H  44.82300 26.14800 33.90900
H  45.53600 27.62600 33.41500
H  47.23600 27.17200 35.27400
H  46.25200 25.67000 35.65700
H  44.60500 19.74500 29.81000
H  46.11800 20.03200 30.69400
H  46.02800 19.01100 29.42100
H  44.12200 19.07400 27.57300
H  45.79200 18.51900 27.39900
H  44.60300 18.28500 26.08500
H  45.85200 24.74300 23.45500
H  47.98700 26.73600 23.50800
H  48.04800 23.05800 23.62900
H  48.70600 24.67000 23.01500
H  47.36600 23.87900 22.23300
H  45.29200 27.63000 24.43600
H  45.20500 26.71300 22.95600
H  47.26900 28.75900 22.49200
H  45.62800 29.44600 22.84000
H  45.87600 28.48700 21.54600
H  50.08400 30.07600 27.26000
H  48.98600 31.42200 27.83200
H  48.69900 30.56500 26.32800
H  46.90700 29.41800 32.12000
H  48.92500 30.38200 35.61100
H  50.11200 29.10600 35.13100
H  48.54100 28.76900 35.87800
Mg 6.13400 53.30900 41.99000
C  6.07500 49.86600 41.24900
C  9.39300 53.45400 40.72500
C  6.11400 56.66800 42.35600
C  2.65100 53.12500 42.73000
N  7.42900 51.87000 40.87000
C  7.23400 50.49500 40.81500
C  8.47400 49.78300 40.14400
C  9.52600 50.96200 40.04600
C  8.77700 52.22100 40.64600
C  10.91500 50.91200 40.77700
C  8.38200 49.04600 38.84500
C  7.47900 49.70600 37.70200
H  6.79500 48.86800 36.59700
N  7.55600 54.88500 41.63800
C  8.83000 54.72100 41.14300
C  9.42100 56.03300 40.98500
C  8.58000 57.00000 41.54700
C  7.37400 56.25300 41.94800
C  10.79800 56.20000 40.39300
C  8.99300 58.45000 41.76500
O  10.10200 58.86000 41.40100
C  8.16300 59.36300 42.55100
N  4.58200 54.62700 42.43700
C  4.86700 55.99600 42.61300
C  3.59800 56.76800 42.91700
C  2.49800 55.70000 43.00300
C  3.27700 54.34400 42.76000
C  3.72400 57.60000 44.16500
C  1.24200 55.97200 42.15600
C  1.26500 55.39900 40.70500
N  4.64300 51.83700 42.10200
C  3.26600 51.84700 42.50400
C  2.81700 50.52600 42.58700
C  3.86400 49.66500 42.22300
C  4.95900 50.57100 41.89400
C  1.44200 50.12600 42.84800
C  4.24800 48.28000 41.96900
O  3.64200 47.21400 42.09500
C  5.65400 48.38300 41.19900
C  5.43300 47.82500 39.84800
O  4.84500 48.38500 38.95400
O  5.99800 46.56800 39.77700
C  5.60600 45.57500 38.75700
H  10.39900 53.49700 40.30200
H  5.98800 57.73500 42.54700
H  1.64200 53.10500 43.14600
H  8.83900 49.08100 40.89400
H  9.71600 51.06500 38.97800
H  11.73000 51.14400 40.09200
H  11.17900 49.92400 41.15500
H  11.04900 51.69200 41.52600
H  7.99600 48.04500 39.03700
H  9.36700 49.02400 38.37900
H  8.11100 50.51600 37.33800
H  6.63800 50.18300 38.20500
H  10.69500 57.00000 39.66000
H  11.23900 55.28700 39.99300
H  11.52100 56.60200 41.10300
H  8.69100 60.28500 42.79600
H  7.82400 58.77600 43.40400
H  7.26100 59.58400 41.98000
H  3.40700 57.53800 42.17000
H  2.06400 55.50300 43.98200
H  3.27000 57.02300 44.97100
H  3.22600 58.54900 43.96900
H  4.78800 57.82700 44.24000
H  1.20600 57.05900 42.08500
H  0.37000 55.66200 42.73000
H  0.27500 54.96200 40.57300
H  2.02700 54.64400 40.50900
H  1.34000 56.26400 40.04600
H  1.35700 49.97100 43.92300
H  1.32600 49.21000 42.26800
H  0.66200 50.84500 42.59700
H  6.45000 47.78100 41.63800
H  6.04300 44.59900 38.96700
H  5.68600 45.87500 37.71200
H  4.53900 45.41700 38.91600

