158

Mg -0.98100 7.61800 26.17100
C  -0.30300 9.68400 28.94000
C  -0.53700 4.86300 28.13300
C  -1.36200 5.84800 23.41600
C  -0.46800 10.47500 24.11300
N  -0.58700 7.38100 28.31300
C  -0.50000 8.35300 29.25900
C  -0.43900 7.72200 30.62400
C  -0.28300 6.16000 30.33800
C  -0.48500 6.11000 28.80900
C  1.02400 5.56400 30.84700
C  -1.59600 8.10600 31.53600
C  -1.34700 8.72800 32.96200
H  -0.00900 8.34200 33.76500
N  -1.16300 5.60100 25.90100
C  -1.02300 4.64000 26.77900
C  -1.17200 3.34900 26.13500
C  -1.40400 3.57400 24.70900
C  -1.46100 5.12500 24.63600
C  -1.13200 2.14800 26.99800
C  -1.53100 2.61300 23.57100
O  -1.72400 2.93700 22.43000
C  -1.34000 1.15300 23.85200
N  -0.93600 8.10600 24.01200
C  -1.10900 7.14900 23.19000
C  -1.07600 7.66400 21.68000
C  -0.93600 9.20100 21.87600
C  -0.65500 9.29700 23.39000
C  -0.05700 7.03300 20.76700
C  -2.07400 10.14700 21.47900
C  -3.28800 10.35100 22.39600
N  -0.66600 9.71600 26.41200
C  -0.43300 10.75700 25.49500
C  -0.04200 11.94000 26.19900
C  -0.12000 11.58800 27.48200
C  -0.35500 10.21300 27.66800
C  0.34200 13.25300 25.59600
C  0.15200 12.11800 28.78000
O  0.51300 13.25500 29.11200
C  0.07100 10.92200 29.74900
C  1.38400 10.72400 30.40100
O  2.41300 10.40900 29.87400
O  1.28800 11.20400 31.65800
C  2.44700 11.80900 32.35200
H  -0.55100 3.99700 28.79700
H  -1.49500 5.32800 22.46500
H  -0.23800 11.38400 23.55400
H  0.49500 8.12100 31.02100
H  -1.01300 5.54700 30.86500
H  0.76200 4.95700 31.71400
H  1.65400 6.40000 31.15100
H  1.55800 4.97900 30.09800
H  -2.06500 7.17500 31.85300
H  -2.33200 8.62800 30.92400
H  -2.23000 8.61100 33.59100
H  -1.23500 9.81000 32.89300
H  -1.58100 1.27100 26.53100
H  -1.67500 2.30100 27.93100
H  -0.10600 1.91900 27.28600
H  -1.15000 0.60700 22.92800
H  -2.23300 0.81800 24.38000
H  -0.43200 1.17800 24.45600
H  -2.01800 7.40700 21.19600
H  -0.07700 9.48600 21.26900
H  0.72300 7.77000 20.57900
H  -0.64600 6.67900 19.92100
H  0.22900 6.07800 21.20900
H  -2.44300 9.91000 20.48200
H  -1.56800 11.10700 21.37700
H  -3.00300 11.20000 23.01800
H  -3.59500 9.60900 23.13300
H  -4.11600 10.67900 21.76800
H  0.62500 13.09100 24.55600
H  1.09100 13.67200 26.26900
H  -0.56500 13.85400 25.66100
H  -0.67900 11.15800 30.50400
H  2.62700 11.13800 33.19200
H  2.02200 12.73400 32.74100
H  3.36700 11.93300 31.78100
Mg 17.55500 50.82900 26.63200
C  19.48200 49.27800 29.09100
C  15.21900 51.71800 28.93000
C  15.42500 51.45500 24.09300
C  19.72100 49.30700 24.14500
N  17.31000 50.39400 28.73700
C  18.35800 49.98500 29.57300
C  17.98100 50.18300 31.00000
C  16.45600 50.68800 30.88800
C  16.28900 50.99900 29.41800
C  15.43600 49.64900 31.47200
C  18.94900 51.24500 31.53700
C  18.74500 51.73400 32.95900
H  17.83700 50.89800 33.91200
N  15.74000 51.79000 26.50500
C  14.92500 52.03700 27.56800
C  13.76600 52.68400 27.13600
C  13.80900 52.64800 25.71900
C  15.05000 51.91900 25.37900
C  12.85800 53.36800 28.16700
C  12.88700 53.34100 24.76200
O  13.14400 53.54100 23.57600
C  11.60200 53.95900 25.24900
N  17.50200 50.27600 24.48200
C  16.46700 50.66300 23.70400
C  16.79800 50.46300 22.18000
C  18.25800 50.05300 22.26000
C  18.56200 49.88300 23.70100
C  15.78900 49.46200 21.45300
C  19.25100 51.04700 21.55100
C  20.24900 50.40300 20.51400
N  19.25800 49.54400 26.55200
C  20.02400 49.03300 25.53100
C  21.07700 48.18300 26.11700
C  20.93600 48.29000 27.48800
C  19.87800 49.16400 27.74200
C  22.18000 47.57000 25.20700
C  21.46200 47.77800 28.79100
O  22.41200 47.07600 29.02200
C  20.61200 48.52800 29.87800
C  20.10600 47.62200 30.95800
O  19.33400 46.69700 30.79400
O  20.73700 48.02400 32.16200
C  20.21300 47.30000 33.32400
H  14.61900 52.13400 29.74200
H  14.69500 51.54700 23.28500
H  20.42100 48.99300 23.36800
H  18.03200 49.23400 31.53400
H  16.34800 51.56500 31.52700
H  15.89300 48.83200 32.03100
H  14.97600 49.10200 30.64900
H  14.70400 50.07200 32.16000
H  18.81200 52.15000 30.94600
H  20.01400 51.05100 31.41500
H  18.34700 52.74300 32.85300
H  19.74000 51.82400 33.39500
H  13.31600 54.33500 28.37600
H  12.76800 52.83700 29.11400
H  11.83000 53.35300 27.80500
H  10.89200 53.29100 25.73700
H  11.19000 54.41000 24.34700
H  11.85800 54.77300 25.92800
H  16.73200 51.43400 21.68900
H  18.25300 49.07300 21.78200
H  14.98700 49.27900 22.16700
H  16.36100 48.56100 21.23000
H  15.43000 49.84300 20.49700
H  19.95700 51.55400 22.21000
H  18.73700 51.83300 20.99700
H  20.16400 50.76800 19.49100
H  19.95700 49.35600 20.43400
H  21.29300 50.35300 20.82300
H  23.00000 47.19600 25.81900
H  22.55300 48.34900 24.54200
H  21.70400 46.78700 24.61600
H  21.22500 49.27900 30.37600
H  20.01800 46.23600 33.19200
H  19.43000 47.84600 33.85200
H  21.13100 47.27700 33.91000

