158

Mg 49.20100 46.60900 42.90000
C  46.06100 47.35100 41.69000
C  49.20400 43.67200 41.00700
C  52.69500 46.28800 43.18300
C  49.60800 50.06900 44.01800
N  47.84700 45.66800 41.50400
C  46.60100 46.17100 41.14500
C  45.90600 45.22300 40.12700
C  46.84400 43.93100 40.10100
C  48.02300 44.42400 40.96600
C  46.31700 42.56400 40.56600
C  45.93200 45.90300 38.69300
C  44.54700 46.05500 37.98500
H  44.27100 45.58200 36.56000
N  50.68300 45.12100 42.39600
C  50.42200 43.96100 41.66400
C  51.62600 43.23000 41.57000
C  52.68600 43.87200 42.23200
C  52.05200 45.16400 42.61900
C  51.59500 41.90100 41.03100
C  54.02900 43.34900 42.43500
O  54.42000 42.23400 42.09500
C  55.09100 44.14900 42.90800
N  50.86300 47.96400 43.54300
C  52.22800 47.58800 43.58000
C  53.05000 48.71200 44.08100
C  52.07800 49.82300 44.46400
C  50.75900 49.22900 44.00900
C  53.99800 48.27900 45.27400
C  52.31700 51.27400 43.68700
C  52.34500 52.52200 44.54500
N  47.99600 48.33100 43.03900
C  48.32100 49.66500 43.44100
C  47.11400 50.54400 43.19000
C  46.19500 49.59100 42.66400
C  46.83400 48.36200 42.41800
C  47.10900 52.09600 43.37500
C  44.86900 49.48600 42.17800
O  43.94000 50.30000 42.04900
C  44.80300 48.10400 41.42800
C  43.64300 47.32900 42.00300
O  43.36600 47.24800 43.21000
O  42.95300 46.64800 41.00800
C  41.98300 45.68800 41.47900
H  49.17600 42.80800 40.33900
H  53.78500 46.29000 43.25600
H  49.75500 51.00900 44.55400
H  44.96700 44.97000 40.61800
H  47.25500 43.74600 39.10900
H  46.07600 41.95800 39.69200
H  45.34600 42.70200 41.04200
H  47.06500 42.03400 41.15400
H  46.55500 45.48000 37.90500
H  46.27200 46.91900 38.89100
H  44.19300 47.08500 38.01300
H  43.86100 45.40800 38.53200
H  52.52100 41.47800 40.64000
H  50.96500 41.96500 40.14400
H  51.20300 41.17700 41.74500
H  54.99000 44.18000 43.99300
H  55.04800 45.08000 42.34300
H  56.04600 43.64500 42.75700
H  53.62300 49.03100 43.21100
H  51.95000 49.87900 45.54500
H  53.73000 47.23700 45.44800
H  53.79300 48.88500 46.15600
H  55.06900 48.34600 45.08300
H  51.61900 51.32100 42.85100
H  53.28700 51.22200 43.19300
H  51.38600 52.47800 45.06100
H  52.34200 53.39700 43.89500
H  53.24600 52.43100 45.15100
H  47.44500 52.27600 44.39700
H  46.06200 52.32700 43.17800
H  47.83600 52.65100 42.78200
H  44.69100 48.36500 40.37600
H  42.46200 44.87000 42.01500
H  41.44600 45.26200 40.63200
H  41.34300 46.11700 42.24900
Mg 2.40300 42.16800 24.82000
C  3.35400 42.16600 28.21700
C  -0.67400 41.00100 25.80000
C  1.72200 41.51800 21.63200
C  5.64000 43.18500 23.94300
N  1.36200 41.78300 26.85100
C  1.97400 41.78000 28.11300
C  0.98600 41.59400 29.19900
C  -0.23500 41.03000 28.34200
C  0.14300 41.25800 26.90700
C  -0.85700 39.68400 28.74500
C  0.71500 42.91500 30.08100
C  0.64700 42.80300 31.63700
H  -0.40300 41.86400 32.30400
N  0.75300 41.48100 23.89100
C  -0.41100 40.97900 24.43400
C  -1.28900 40.46500 23.34400
C  -0.62800 40.62100 22.12100
C  0.64300 41.25200 22.49800
C  -2.71500 39.99600 23.62900
C  -1.03900 40.37300 20.74900
O  -0.34100 40.62500 19.76700
C  -2.47900 39.91200 20.49400
N  3.47300 42.37200 23.07500
C  3.02700 42.01600 21.88700
C  3.98900 42.28400 20.72700
C  5.01600 43.15400 21.53200
C  4.69400 42.91900 22.91000
C  4.67200 40.96100 20.28100
C  5.10700 44.64900 21.20200
C  3.83700 45.46700 20.97000
N  4.15600 42.54400 25.75700
C  5.39800 42.99600 25.29600
C  6.22100 43.31800 26.40900
C  5.52000 42.88700 27.61700
C  4.26600 42.43700 27.14300
C  7.60500 43.76500 26.39600
C  5.56300 42.68400 29.10100
O  6.44100 42.80900 29.89300
C  4.19900 42.20300 29.55400
C  4.29900 40.98400 30.27800
O  4.80000 40.01400 29.75400
O  3.66100 41.02400 31.45400
C  3.50300 39.74000 32.12000
H  -1.68700 40.78800 26.14600
H  1.74300 41.19700 20.58900
H  6.55000 43.72200 23.67100
H  1.26100 40.75200 29.83300
H  -0.98100 41.82500 28.37200
H  -1.86200 39.81300 29.14600
H  -0.16500 39.18400 29.42300
H  -0.99500 39.02500 27.88700
H  -0.20600 43.40000 29.76100
H  1.44800 43.70000 29.89300
H  0.76300 43.78700 32.09300
H  1.64000 42.47500 31.94300
H  -3.02300 39.03000 23.22800
H  -3.36300 40.79800 23.27700
H  -2.88300 39.97600 24.70600
H  -2.51500 38.84200 20.69700
H  -2.65900 39.91000 19.41900
H  -3.26100 40.56800 20.87700
H  3.39700 42.77800 19.95700
H  6.04700 42.80300 21.48600
H  5.30700 40.54000 21.06100
H  5.23900 41.28200 19.40700
H  3.98100 40.17300 19.98200
H  5.66200 44.67000 20.26400
H  5.77500 45.14600 21.90600
H  3.01500 44.78000 21.17200
H  3.86800 46.01300 20.02700
H  3.84100 46.14900 21.82000
H  7.91500 44.23900 27.32700
H  7.76800 44.40600 25.53000
H  8.18900 42.84700 26.32900
H  3.84700 42.99700 30.21300
H  4.41200 39.39400 32.61400
H  3.10100 38.94900 31.48700
H  2.75300 39.91100 32.89200

