158

Mg 24.98500 -7.95000 47.51900
C  26.81900 -5.46900 46.04000
C  22.31200 -7.26100 45.09500
C  23.29300 -10.78200 48.33600
C  27.89600 -9.27700 48.85900
N  24.66100 -6.64700 45.52200
C  25.53400 -5.53000 45.41400
C  24.93500 -4.52700 44.36900
C  23.43800 -4.99500 44.20600
C  23.44100 -6.39600 45.03100
C  22.43700 -3.96100 44.71400
C  25.67400 -4.41200 43.04700
C  25.58900 -2.97000 42.39300
H  24.98200 -2.87000 41.03500
N  23.08100 -8.82900 46.94300
C  22.20400 -8.45800 45.88500
C  21.05000 -9.34200 45.90800
C  21.24700 -10.29100 46.91300
C  22.60000 -9.98700 47.49500
C  19.90100 -9.09000 45.03100
C  20.26400 -11.40500 47.29600
O  19.18100 -11.32500 46.80700
C  20.57700 -12.41200 48.38600
N  25.46700 -9.71700 48.66700
C  24.62800 -10.74700 48.71900
C  25.33100 -11.96800 49.48700
C  26.78300 -11.50400 49.78700
C  26.73200 -10.08300 49.13500
C  24.56700 -12.53100 50.77500
C  27.86900 -12.36100 49.13600
C  27.88900 -12.51500 47.53700
N  26.88900 -7.42200 47.71500
C  28.00200 -7.97300 48.25700
C  29.12900 -7.04500 48.19300
C  28.66600 -6.04000 47.40500
C  27.33200 -6.35700 47.03000
C  30.46900 -7.27900 48.87400
C  29.09700 -4.75400 46.81900
O  30.17000 -4.14700 46.90900
C  27.91900 -4.30600 45.80700
C  27.44900 -2.92000 46.09400
O  27.71400 -1.96700 45.36400
O  26.58100 -2.80400 47.18600
C  25.72100 -1.64000 47.44300
H  21.47100 -7.01300 44.44400
H  22.94400 -11.71400 48.78600
H  28.89200 -9.66000 49.09000
H  24.97200 -3.50600 44.75000
H  23.25700 -5.21200 43.15300
H  22.90300 -3.20700 45.34900
H  21.63600 -4.37300 45.32700
H  21.89200 -3.55600 43.86100
H  25.25600 -5.18700 42.40500
H  26.73100 -4.60400 43.23200
H  26.58800 -2.56200 42.23900
H  25.04900 -2.32900 43.08900
H  20.22000 -8.65200 44.08500
H  19.28700 -8.34800 45.54100
H  19.23400 -9.93300 44.85100
H  21.26400 -13.21500 48.11900
H  19.61400 -12.92200 48.39300
H  20.80400 -12.00300 49.37100
H  25.45300 -12.72000 48.70700
H  26.97000 -11.39800 50.85500
H  23.70300 -11.91200 51.01600
H  25.26600 -12.60000 51.60900
H  24.25600 -13.57500 50.71600
H  27.86300 -13.36200 49.56700
H  28.78700 -11.83200 49.39400
H  28.64700 -11.81900 47.17800
H  27.07600 -12.01700 47.00900
H  28.01200 -13.56200 47.25900
H  30.80000 -6.35100 49.34100
H  31.27800 -7.43200 48.15900
H  30.42700 -8.10100 49.58900
H  28.24200 -4.40900 44.77100
H  24.84100 -1.88200 48.03900
H  25.44900 -1.17800 46.49400
H  26.35900 -0.97000 48.01800
Mg 40.73200 7.58700 28.75800
C  42.52100 9.07400 31.47300
C  38.47800 6.26300 31.08800
C  39.09900 6.23400 26.14300
C  43.45100 8.45900 26.63500
N  40.60000 7.60200 31.10700
C  41.36000 8.34300 31.88500
C  40.85200 8.26000 33.35300
C  39.57500 7.28700 33.15700
C  39.45600 7.06500 31.67000
C  39.55900 6.01300 34.03700
C  40.43200 9.62300 34.01800
C  40.12300 9.66500 35.55300
H  40.94300 10.64000 36.40500
N  39.02900 6.36700 28.68800
C  38.30400 5.88200 29.75100
C  37.24200 5.17900 29.17900
C  37.27400 5.27900 27.75700
C  38.51000 5.91000 27.46900
C  36.07200 4.61000 30.02300
C  36.21700 4.86000 26.76900
O  36.45300 4.93600 25.59900
C  34.91900 4.18200 27.18100
N  41.25900 7.16700 26.65500
C  40.37300 6.70000 25.76400
C  40.89000 6.79900 24.37200
C  42.29500 7.50900 24.48700
C  42.39700 7.76000 26.05600
C  41.02300 5.31200 23.81400
C  42.28900 8.88400 23.71100
C  41.12800 9.86000 23.95500
N  42.62000 8.53500 28.94400
C  43.57100 8.85400 28.01700
C  44.62300 9.60600 28.58200
C  44.27200 9.71100 29.98900
C  43.03900 9.06800 30.12100
C  45.81000 10.10900 27.83000
C  44.64500 10.25800 31.18900
O  45.58900 10.97900 31.42400
C  43.52600 9.88700 32.25100
C  44.01900 9.36600 33.52200
O  44.15600 8.18400 33.72600
O  44.29700 10.43500 34.36300
C  44.88800 10.02900 35.66900
H  37.71300 5.83900 31.74200
H  38.51600 6.00200 25.24900
H  44.35200 8.69300 26.06300
H  41.66700 7.83000 33.93600
H  38.69400 7.92700 33.19200
H  40.23500 6.25900 34.85600
H  39.90800 5.12600 33.50800
H  38.53000 5.92300 34.38700
H  39.52100 9.96600 33.52600
H  41.33500 10.22600 33.92300
H  39.92500 8.71300 36.04600
H  39.11600 10.07600 35.47500
H  35.74800 3.59000 29.81600
H  35.11800 5.13700 30.01900
H  36.23600 4.59000 31.10000
H  34.15100 4.21100 26.40800
H  34.41700 4.58600 28.06000
H  35.05300 3.14500 27.48900
H  40.21500 7.46200 23.83000
H  43.09000 6.81500 24.21600
H  42.04800 4.94500 23.75800
H  40.49400 5.26400 22.86300
H  40.53100 4.67900 24.55300
H  42.41100 8.53000 22.68800
H  43.22900 9.38600 23.94000
H  40.83000 10.43200 23.07700
H  41.56900 10.62000 24.60000
H  40.27600 9.43900 24.49000
H  46.54600 9.30700 27.77300
H  46.07800 10.99300 28.40800
H  45.50500 10.47100 26.84800
H  43.08400 10.85600 32.48300
H  45.91700 9.67500 35.60800
H  44.32300 9.19300 36.08200
H  44.90000 10.80100 36.43900

