158

Mg 23.61100 -5.86200 45.95600
C  26.04700 -3.86400 44.51800
C  21.34000 -4.70500 43.70400
C  21.64900 -8.50600 46.65300
C  26.27200 -7.41700 47.83700
N  23.72100 -4.44700 44.34000
C  24.80100 -3.71300 43.91800
C  24.42700 -2.80500 42.73300
C  22.84000 -2.85500 42.66200
C  22.62900 -4.16800 43.59000
C  22.13400 -1.67700 43.27900
C  25.16500 -3.21300 41.40600
C  26.13700 -2.21200 40.78800
H  25.48900 -1.20000 39.79500
N  21.72600 -6.44500 45.31600
C  20.85300 -5.74400 44.51800
C  19.58300 -6.48900 44.42600
C  19.61400 -7.52700 45.39000
C  21.05000 -7.54700 45.82400
C  18.39900 -6.04400 43.57400
C  18.41900 -8.46100 45.77000
O  17.34100 -8.28200 45.23000
C  18.52500 -9.51500 46.81700
N  23.92500 -7.73900 47.10600
C  22.93100 -8.64300 47.24300
C  23.46900 -9.88800 48.01400
C  24.74000 -9.31900 48.66000
C  24.99300 -8.04600 47.82800
C  22.35300 -10.50000 48.94100
C  26.00200 -10.21000 49.03400
C  26.94500 -10.56600 47.79800
N  25.71000 -5.68000 46.20700
C  26.66800 -6.39100 46.95700
C  27.95800 -5.73900 46.80200
C  27.68100 -4.80500 45.78900
C  26.39800 -4.80000 45.49800
C  29.25200 -6.00900 47.45900
C  28.36300 -3.84800 44.95600
O  29.55000 -3.65500 44.83600
C  27.26100 -3.12800 44.16000
C  27.34800 -1.67900 44.55700
O  26.62600 -1.11700 45.35100
O  28.39700 -1.16400 43.86800
C  28.83500 0.18900 44.32300
H  20.49900 -4.31800 43.12500
H  21.06400 -9.40600 46.85400
H  27.07300 -7.88800 48.41200
H  24.86400 -1.84100 42.99300
H  22.41400 -2.99700 41.66900
H  21.35400 -1.93700 43.99500
H  21.78300 -1.05600 42.45400
H  22.83200 -1.01100 43.78800
H  24.39700 -3.36300 40.64800
H  25.50600 -4.24200 41.51900
H  27.06600 -2.66000 40.43700
H  26.44200 -1.52900 41.58200
H  18.59200 -5.33200 42.77200
H  17.68500 -5.56800 44.24700
H  17.95200 -6.94100 43.14600
H  17.51500 -9.67000 47.19500
H  19.05800 -9.19800 47.71400
H  19.07300 -10.40700 46.51400
H  23.74200 -10.68200 47.31900
H  24.43900 -8.87500 49.60900
H  22.05700 -11.51000 48.65800
H  21.62600 -9.69500 49.05100
H  22.77800 -10.64500 49.93400
H  25.55700 -11.13900 49.39100
H  26.55000 -9.69500 49.82300
H  26.85900 -11.65100 47.74700
H  27.95600 -10.33200 48.12900
H  26.79900 -10.10300 46.82200
H  29.94700 -6.42100 46.72700
H  29.15400 -6.62500 48.35200
H  29.59500 -5.00600 47.71500
H  27.44400 -3.18300 43.08700
H  29.92100 0.13600 44.23500
H  28.62500 0.46400 45.35700
H  28.37200 0.87900 43.61800
Mg -11.80700 16.27500 42.33500
C  -8.97700 14.32600 42.19900
C  -9.92800 18.93100 40.89700
C  -14.65100 17.71500 41.51300
C  -13.57700 13.46500 43.70400
N  -9.75700 16.46600 41.46300
C  -8.80800 15.54300 41.57400
C  -7.54100 16.06700 41.05000
C  -7.68800 17.63900 40.87700
C  -9.21300 17.75000 41.11400
C  -6.92600 18.43800 41.88500
C  -7.17000 15.42600 39.72200
C  -5.71600 15.73800 39.21800
H  -5.49800 16.54900 37.93600
N  -12.26600 18.12800 41.43500
C  -11.36200 19.12200 40.99500
C  -12.06300 20.29700 40.50500
C  -13.41100 19.99500 40.79100
C  -13.53800 18.58500 41.25200
C  -11.42300 21.55500 39.92800
C  -14.60700 20.92800 40.66200
O  -14.41700 22.03100 40.33600
C  -16.09100 20.65100 40.98100
N  -13.81800 15.61100 42.43500
C  -14.78700 16.47300 42.17400
C  -16.12600 15.83100 42.25400
C  -15.79300 14.48700 42.98100
C  -14.27900 14.49800 43.11000
C  -17.29400 16.57400 43.01500
C  -16.27200 13.12300 42.39300
C  -16.69600 12.04200 43.42000
N  -11.36400 14.34600 42.97200
C  -12.19300 13.32100 43.54100
C  -11.28500 12.17600 43.85900
C  -9.95600 12.61500 43.42700
C  -10.11600 13.87100 42.78000
C  -11.64200 10.78600 44.33100
C  -8.63300 12.13300 43.28600
O  -8.21000 11.08100 43.67000
C  -7.90800 13.23100 42.47500
C  -6.66800 13.75700 43.15600
O  -6.66200 14.22000 44.26200
O  -5.60900 13.76200 42.30700
C  -4.22700 14.02200 42.88600
H  -9.41700 19.82900 40.54100
H  -15.62800 18.08300 41.19400
H  -14.12200 12.62900 44.14800
H  -6.65800 15.97000 41.68100
H  -7.47200 17.88800 39.83800
H  -6.54600 19.26300 41.28400
H  -6.09100 17.90800 42.34400
H  -7.49600 18.77100 42.75200
H  -7.90100 15.72100 38.97000
H  -7.32200 14.35400 39.84300
H  -5.08900 14.84700 39.17500
H  -5.19800 16.33100 39.97100
H  -11.20200 22.21800 40.76400
H  -12.03300 21.93900 39.11000
H  -10.52600 21.23200 39.40000
H  -16.12600 20.12700 41.93600
H  -16.41300 20.03100 40.14400
H  -16.61600 21.60600 41.00100
H  -16.38900 15.66600 41.21000
H  -16.21400 14.53800 43.98500
H  -16.90800 17.29000 43.74000
H  -17.95800 15.80200 43.40400
H  -17.85900 17.09400 42.24100
H  -15.49600 12.69000 41.76200
H  -17.07000 13.40700 41.70800
H  -16.05600 11.16500 43.32800
H  -17.68100 11.60100 43.26900
H  -16.63000 12.46900 44.42100
H  -10.72600 10.48600 44.83900
H  -11.86000 10.19700 43.44000
H  -12.48400 10.69300 45.01800
H  -7.66600 12.62200 41.60400
H  -3.43400 13.99500 42.13900
H  -4.04800 13.26100 43.64600
H  -4.18600 14.98700 43.39000

