158

Mg -2.16900 17.63300 27.06200
C  -2.39600 15.21700 29.74300
C  -2.72500 20.04400 29.47300
C  -2.46100 19.87400 24.52600
C  -1.99400 14.97800 24.86700
N  -2.76000 17.65500 29.40100
C  -2.63300 16.56600 30.26500
C  -2.71900 16.90200 31.71700
C  -2.73900 18.46900 31.54500
C  -2.79900 18.77800 30.05900
C  -3.82300 19.30800 32.37100
C  -1.59600 16.34600 32.69900
C  -1.18400 17.23800 33.94300
H  -1.01500 16.57200 35.36000
N  -2.38800 19.66300 26.97800
C  -2.54500 20.45700 28.08700
C  -2.49900 21.84500 27.66800
C  -2.39700 21.83600 26.26100
C  -2.44200 20.38100 25.88500
C  -2.40800 23.02900 28.65000
C  -2.36600 23.03500 25.21100
O  -2.22500 22.87400 24.01200
C  -2.06600 24.37600 25.75600
N  -2.22600 17.42400 24.95100
C  -2.26200 18.54300 24.08200
C  -2.12800 18.08600 22.60900
C  -1.74900 16.56200 22.76300
C  -2.00900 16.29400 24.23900
C  -3.44900 18.32900 21.77900
C  -0.30900 16.28500 22.39900
C  0.79000 16.60500 23.40600
N  -2.20900 15.48700 27.18000
C  -2.12200 14.55200 26.16400
C  -2.02900 13.22400 26.72400
C  -2.12200 13.41500 28.10800
C  -2.34400 14.80500 28.34600
C  -1.81800 11.98000 26.00400
C  -2.12000 12.77500 29.34200
O  -1.95100 11.56700 29.61000
C  -2.20400 13.86200 30.45100
C  -0.91800 13.65000 31.16400
O  0.17800 14.02600 30.87000
O  -1.18000 12.98600 32.35800
C  -0.08800 12.71600 33.27400
H  -2.69600 20.82200 30.23900
H  -2.50200 20.54200 23.66300
H  -1.83000 14.12900 24.20000
H  -3.64100 16.50900 32.14500
H  -1.76500 18.82200 31.88300
H  -3.16200 19.99200 32.90300
H  -4.23700 18.63900 33.12500
H  -4.48300 19.79000 31.64800
H  -0.75500 16.15900 32.03100
H  -1.84600 15.35900 33.08900
H  -2.07800 17.86000 33.99700
H  -0.33900 17.89500 33.73700
H  -2.35700 22.64500 29.66800
H  -3.30800 23.64000 28.57300
H  -1.50200 23.56900 28.37400
H  -1.09900 24.47300 26.25000
H  -2.86900 24.68000 26.42700
H  -1.98700 25.02500 24.88300
H  -1.19400 18.50300 22.23300
H  -2.38500 15.99000 22.08800
H  -3.80100 19.31500 22.08200
H  -4.22900 17.57400 21.87400
H  -3.28300 18.41100 20.70500
H  -0.16900 17.00300 21.59100
H  -0.20100 15.29800 21.95000
H  0.41700 16.96400 24.36600
H  1.54400 17.25100 22.95500
H  1.45400 15.77300 23.64000
H  -1.33200 12.30700 25.08500
H  -2.72400 11.41000 25.79800
H  -1.04800 11.46100 26.57600
H  -3.03600 13.60800 31.10700
H  0.72200 12.25900 32.70600
H  -0.56900 12.07400 34.01200
H  0.24000 13.59000 33.83700
Mg 2.40200 -2.00000 44.35300
C  5.79800 -0.91300 44.03500
C  1.44000 0.74900 42.46700
C  -0.61000 -3.21100 44.18800
C  3.66200 -5.04100 45.61100
N  3.49900 -0.24100 43.39800
C  4.83700 -0.01500 43.44700
C  5.22100 1.25500 42.56500
C  3.79200 1.80700 42.31200
C  2.82100 0.75500 42.81300
C  3.36100 3.22800 42.73500
C  6.02700 0.85400 41.24500
C  7.13200 1.88500 40.80700
H  6.56300 3.08700 39.99100
N  0.57700 -1.22500 43.55200
C  0.37900 -0.12300 42.82500
C  -1.01300 0.05100 42.47200
C  -1.66800 -1.09900 43.10700
C  -0.59000 -1.93600 43.65700
C  -1.55800 1.31700 41.79900
C  -3.17200 -1.38900 43.01300
O  -3.90200 -0.62400 42.34500
C  -3.81300 -2.32600 43.86700
N  1.68200 -3.79000 44.85300
C  0.33600 -4.08400 44.73700
C  0.01200 -5.53900 45.10300
C  1.41500 -6.02700 45.63900
C  2.33500 -4.88500 45.33600
C  -1.17300 -5.62800 46.10300
C  1.97600 -7.28200 44.90200
C  2.56800 -8.44900 45.76400
N  4.31800 -2.87200 44.82000
C  4.62900 -4.09500 45.35000
C  6.08200 -4.03100 45.69900
C  6.56900 -2.80300 45.22600
C  5.48600 -2.14000 44.62000
C  6.87300 -5.23400 46.30200
C  7.74400 -1.96600 45.03700
O  8.88600 -2.11300 45.37300
C  7.34400 -0.74200 44.16100
C  7.64600 0.48800 44.92800
O  7.31900 0.72700 46.09100
O  8.37300 1.37500 44.14700
C  8.81200 2.62900 44.74900
H  1.18200 1.62600 41.87000
H  -1.60800 -3.65100 44.23200
H  4.06600 -5.91800 46.11900
H  5.91200 1.89400 43.11400
H  3.61000 1.69600 41.24300
H  4.23300 3.78300 43.08200
H  2.74600 3.28400 43.63200
H  2.92800 3.76100 41.88800
H  5.33300 0.73000 40.41400
H  6.68000 -0.01400 41.33800
H  7.95000 1.29700 40.39100
H  7.54700 2.34000 41.70600
H  -1.74900 1.05100 40.76000
H  -0.94600 2.21200 41.90100
H  -2.51800 1.66400 42.18100
H  -4.87300 -2.14600 43.68600
H  -3.46800 -2.37300 44.90000
H  -3.52400 -3.35000 43.63400
H  -0.21500 -6.08700 44.18800
H  1.46900 -6.20700 46.71200
H  -0.95800 -5.09300 47.02700
H  -1.29100 -6.64200 46.48400
H  -2.09100 -5.32200 45.60100
H  2.62700 -6.79100 44.17800
H  1.16500 -7.75000 44.34500
H  3.64100 -8.57500 45.61700
H  2.19500 -9.46300 45.62000
H  2.38500 -8.35000 46.83400
H  6.79000 -6.12300 45.67700
H  6.57300 -5.26800 47.34900
H  7.92200 -4.93800 46.31100
H  7.83000 -0.67800 43.18800
H  9.62200 2.90300 44.07400
H  9.35700 2.42400 45.67100
H  8.23100 3.51500 45.00600

