158

Mg 9.77700 47.00200 25.42000
C  7.48600 46.87500 27.97200
C  12.28600 47.70200 27.55900
C  11.83200 47.70100 22.70000
C  7.07600 46.75300 23.10500
N  9.81400 47.39500 27.56400
C  8.78000 47.16600 28.45000
C  9.36200 47.35100 29.89700
C  10.80100 47.82100 29.68500
C  10.99900 47.59500 28.16300
C  11.15300 49.22200 30.20900
C  9.13500 46.17400 30.93400
C  10.07800 46.16400 32.16800
H  9.33700 45.74200 33.42300
N  11.84500 47.56100 25.16000
C  12.70600 47.75200 26.16300
C  14.06900 47.86700 25.59300
C  13.95300 47.71600 24.18600
C  12.47000 47.70600 23.95000
C  15.31100 48.02100 26.41400
C  15.01100 47.61300 23.10500
O  14.66800 47.56300 21.91700
C  16.52900 47.41500 23.40700
N  9.50000 47.23700 23.13700
C  10.51900 47.44800 22.31800
C  10.08000 47.35600 20.88500
C  8.55400 46.99000 20.99500
C  8.34300 46.91700 22.53400
C  10.44800 48.58100 19.96000
C  8.02400 45.70600 20.26900
C  6.85400 45.83200 19.28000
N  7.68600 46.78800 25.48800
C  6.69600 46.74500 24.49700
C  5.36800 46.56800 25.06800
C  5.68100 46.63700 26.39800
C  7.07700 46.72100 26.64500
C  4.08900 46.29000 24.32300
C  5.11900 46.51500 27.74500
O  3.96100 46.28700 28.07700
C  6.24500 46.62300 28.73500
C  6.26400 45.43300 29.55400
O  7.10700 44.54900 29.46600
O  5.36300 45.52900 30.57500
C  5.45000 44.50300 31.69000
H  13.14600 47.74400 28.23100
H  12.57400 47.75500 21.90100
H  6.33600 46.42000 22.37500
H  8.80900 48.20700 30.28300
H  11.47600 47.08700 30.12600
H  11.84900 49.16300 31.04700
H  10.32200 49.70300 30.72300
H  11.55200 49.85100 29.41300
H  9.36600 45.31300 30.30700
H  8.12700 46.14100 31.34700
H  10.59800 47.12000 32.22400
H  10.82000 45.37800 32.03000
H  15.14500 47.90800 27.48600
H  15.72300 49.00900 26.20700
H  15.99000 47.20500 26.16600
H  16.42000 46.52300 24.02400
H  16.94800 48.29000 23.90400
H  16.95700 47.20300 22.42700
H  10.53800 46.51400 20.36500
H  7.95500 47.84500 20.67900
H  10.97400 48.22400 19.07500
H  10.99800 49.43500 20.35400
H  9.66000 49.05900 19.37800
H  7.86200 44.93200 21.01900
H  8.85000 45.30000 19.68500
H  6.72700 44.94900 18.65500
H  6.93500 46.72000 18.65200
H  5.93500 45.89600 19.86300
H  4.13400 46.38300 23.23800
H  3.35600 47.02700 24.65100
H  3.68100 45.31800 24.60200
H  6.15700 47.48500 29.39600
H  4.62000 44.53900 32.39600
H  6.44600 44.53000 32.13100
H  5.41400 43.51400 31.23300
Mg -5.15200 23.72700 26.39300
C  -3.50600 25.55100 28.92300
C  -6.46200 21.76100 28.88200
C  -6.99800 22.27000 24.09000
C  -3.75500 25.83500 23.96800
N  -5.00000 23.64400 28.53400
C  -4.32500 24.58000 29.39300
C  -4.69500 24.34400 30.85200
C  -5.43500 22.95400 30.83800
C  -5.59600 22.77000 29.31400
C  -4.71300 21.74400 31.48200
C  -5.70400 25.48000 31.35600
C  -5.78600 25.81200 32.81300
H  -5.30100 24.72000 33.80400
N  -6.43200 22.10600 26.45700
C  -6.93100 21.38100 27.59200
C  -7.88400 20.36600 27.19700
C  -7.97500 20.47000 25.72200
C  -7.12500 21.63900 25.37300
C  -8.49900 19.26800 28.08200
C  -8.89500 19.74400 24.70800
O  -8.90600 19.94600 23.48700
C  -9.89600 18.78200 25.22400
N  -5.22200 23.93100 24.26800
C  -6.10800 23.18900 23.57900
C  -6.02300 23.52500 22.06400
C  -4.89500 24.67600 22.03000
C  -4.51300 24.79200 23.45600
C  -5.86700 22.20600 21.07200
C  -5.40200 25.95600 21.30900
C  -4.72000 26.51900 20.10800
N  -3.71400 25.22200 26.40300
C  -3.30200 26.01800 25.33100
C  -2.44400 27.07300 25.87700
C  -2.51000 26.91700 27.26600
C  -3.28600 25.80800 27.53700
C  -1.70800 28.06100 25.08000
C  -1.94800 27.42300 28.51700
O  -1.17400 28.33800 28.65000
C  -2.68000 26.64800 29.60300
C  -1.74600 26.09200 30.55300
O  -0.72900 25.44100 30.29900
O  -2.15600 26.41700 31.82000
C  -1.41200 25.70900 32.84900
H  -6.95400 21.17400 29.66000
H  -7.63200 21.92100 23.27200
H  -3.35300 26.53900 23.23700
H  -3.81400 24.36900 31.49400
H  -6.40700 23.02500 31.32600
H  -4.46400 21.03700 30.69000
H  -5.29200 21.27300 32.27600
H  -3.86700 22.10800 32.06400
H  -6.69400 25.20000 30.99500
H  -5.43500 26.43800 30.91200
H  -6.84100 25.76000 33.08300
H  -5.37100 26.80200 32.99900
H  -9.57100 19.46400 28.05100
H  -8.10400 19.41100 29.08800
H  -8.39400 18.24500 27.72100
H  -10.48100 19.38000 25.92200
H  -9.32000 17.98200 25.69000
H  -10.44700 18.28100 24.42800
H  -7.03000 23.86500 21.82300
H  -4.08900 24.32200 21.38800
H  -5.20000 21.53800 21.61700
H  -5.47600 22.47500 20.09100
H  -6.84000 21.73400 20.93800
H  -5.56200 26.75900 22.02800
H  -6.44000 25.80900 21.01100
H  -5.20200 26.35100 19.14500
H  -3.71900 26.08800 20.10700
H  -4.54100 27.56300 20.36700
H  -0.74400 27.69500 24.72600
H  -1.58000 28.93400 25.72000
H  -2.30100 28.39200 24.22800
H  -3.31800 27.39400 30.07700
H  -0.33000 25.75900 32.73500
H  -1.66400 24.66100 32.68600
H  -1.62000 26.11000 33.84100

