158

Mg 48.04400 16.31300 28.37500
C  46.48200 15.86500 31.48600
C  50.49600 18.12700 29.87300
C  49.41500 16.86700 25.28400
C  45.23600 14.95500 26.81600
N  48.38000 17.05600 30.45300
C  47.67600 16.59100 31.56200
C  48.38400 17.02700 32.83600
C  49.57300 17.91100 32.28200
C  49.44700 17.76000 30.78600
C  49.55500 19.41300 32.82400
C  48.71100 15.81100 33.80700
C  48.47400 16.06500 35.28400
H  48.22400 17.49900 35.80700
N  49.78900 17.22900 27.71400
C  50.66700 17.97300 28.50100
C  51.78400 18.36400 27.74200
C  51.53700 18.00800 26.40800
C  50.22000 17.33300 26.35900
C  53.01000 19.10900 28.28200
C  52.46200 18.10200 25.15200
O  52.14600 17.70100 24.03000
C  53.81400 18.89800 25.27900
N  47.46400 15.79300 26.35100
C  48.19000 16.25800 25.24900
C  47.51200 15.83700 23.90100
C  46.22000 15.05100 24.42000
C  46.31200 15.20900 25.95800
C  47.14100 17.02400 22.91100
C  46.04600 13.60500 23.95400
C  45.70700 13.41400 22.43200
N  46.22300 15.52800 28.96500
C  45.20200 14.89700 28.26200
C  44.14100 14.53600 29.17900
C  44.61700 14.80900 30.42300
C  45.85400 15.47500 30.26800
C  42.87500 14.00500 28.79000
C  44.33100 14.75600 31.84300
O  43.31500 14.36000 32.41300
C  45.46000 15.44600 32.60800
C  44.79000 16.56300 33.36100
O  44.24900 17.52200 32.81900
O  44.53700 16.14900 34.67200
C  43.71100 17.03100 35.45800
H  51.23600 18.78900 30.32900
H  49.78600 17.21700 24.31900
H  44.26200 14.63300 26.43900
H  47.59600 17.64200 33.27100
H  50.53300 17.51600 32.61400
H  48.67900 19.56200 33.45500
H  49.48100 20.01500 31.91800
H  50.47200 19.73900 33.31300
H  49.72300 15.54000 33.50500
H  48.09200 14.96600 33.50600
H  49.36800 15.68300 35.77500
H  47.60600 15.42900 35.46000
H  53.87800 18.46400 28.41700
H  52.74900 19.56300 29.23800
H  53.13500 20.02700 27.70800
H  54.36400 18.57600 26.16300
H  53.60200 19.96100 25.16700
H  54.42400 18.56600 24.43900
H  48.07600 15.07400 23.36400
H  45.33100 15.59400 24.09900
H  46.08400 17.21600 22.72400
H  47.69200 16.74200 22.01500
H  47.62500 17.95300 23.21200
H  45.28100 13.13800 24.57400
H  46.99200 13.09600 24.14200
H  46.17500 12.49400 22.08200
H  46.00100 14.29300 21.85900
H  44.63200 13.24400 22.36700
H  42.30500 13.88700 29.71200
H  42.98200 13.02800 28.31700
H  42.41200 14.69800 28.08800
H  45.78000 14.73300 33.36800
H  44.34700 17.77100 35.94300
H  43.34400 16.51700 36.34700
H  42.90500 17.52700 34.91900
Mg -9.63200 40.99900 39.58600
C  -9.02100 37.61500 38.54100
C  -6.29400 41.65800 39.07600
C  -10.57500 44.07500 39.49200
C  -13.22200 39.97600 39.36500
N  -7.86000 39.76400 38.90800
C  -7.88100 38.46000 38.50800
C  -6.51900 38.14700 37.91200
C  -5.53700 39.18500 38.64400
C  -6.61100 40.26800 38.90200
C  -4.83400 38.78600 39.96200
C  -6.42300 38.31100 36.31400
C  -5.95800 37.08200 35.54500
H  -6.89500 36.53400 34.47100
N  -8.54500 42.67200 39.42200
C  -7.19200 42.72200 39.24600
C  -6.93700 44.15400 39.09900
C  -8.06700 44.87000 39.24500
C  -9.17000 43.89000 39.37600
C  -5.54400 44.60000 38.91600
C  -8.10000 46.41200 39.27700
O  -7.08500 47.12900 39.17800
C  -9.36500 47.24200 39.52700
N  -11.66200 41.84100 39.61300
C  -11.67900 43.22600 39.66500
C  -13.12300 43.77000 39.75500
C  -13.88600 42.45000 39.45200
C  -12.87200 41.30600 39.52100
C  -13.48200 44.41600 41.09600
C  -14.65300 42.51200 38.07100
C  -16.07700 42.02100 38.10200
N  -10.93000 39.14500 39.33000
C  -12.22900 38.96100 39.23200
C  -12.49100 37.53300 39.05900
C  -11.24300 36.95700 38.70800
C  -10.31000 38.00900 38.90400
C  -13.88600 36.93600 39.38000
C  -10.52200 35.74700 38.33200
O  -10.89300 34.59700 38.20800
C  -9.06400 36.16100 38.22500
C  -8.24300 35.26800 39.15100
O  -8.41100 35.12100 40.35700
O  -7.35300 34.50700 38.43700
C  -6.65700 33.53000 39.22600
H  -5.23700 41.92900 39.02500
H  -10.84500 45.13300 39.51700
H  -14.27100 39.76600 39.14700
H  -6.21000 37.14700 38.21800
H  -4.82500 39.68800 37.99000
H  -5.44600 39.30100 40.70300
H  -3.78700 39.04000 40.12900
H  -5.01600 37.73100 40.16800
H  -5.75600 39.15300 36.12900
H  -7.42800 38.55000 35.96500
H  -5.75100 36.21200 36.16800
H  -5.03900 37.34300 35.02000
H  -5.26400 45.65100 38.99900
H  -5.20300 44.51100 37.88400
H  -4.85100 44.02500 39.52900
H  -9.17200 48.30500 39.67200
H  -9.87300 46.78200 40.37500
H  -9.95000 47.23200 38.60700
H  -13.18500 44.47800 38.92900
H  -14.60400 42.34700 40.26600
H  -12.58000 44.77900 41.58800
H  -13.96800 43.69300 41.75200
H  -14.19000 45.22800 40.92900
H  -14.14500 41.94200 37.29300
H  -14.69100 43.58100 37.86000
H  -16.37500 41.32000 38.88100
H  -16.26000 41.64800 37.09400
H  -16.64700 42.92000 38.33700
H  -13.85000 36.04000 40.00000
H  -14.48500 36.64300 38.51800
H  -14.50700 37.67600 39.88500
H  -8.80700 35.97500 37.18300
H  -6.12300 34.06100 40.01400
H  -5.85100 33.03200 38.68700
H  -7.31100 32.80800 39.71600

