158

Mg 1.94500 -1.85400 44.35900
C  5.37100 -1.26800 44.35000
C  1.46600 1.23800 42.89600
C  -1.23100 -2.81800 43.76100
C  2.67300 -5.06300 45.40800
N  3.29600 -0.22300 43.57000
C  4.65000 -0.25100 43.69300
C  5.17200 1.11900 43.20400
C  3.90900 2.04500 43.05700
C  2.78300 0.98000 43.28600
C  3.78500 3.14700 44.11200
C  5.89400 1.09100 41.86600
C  5.52300 0.11900 40.75500
H  5.46300 0.62700 39.32600
N  0.31800 -0.85200 43.47400
C  0.32500 0.36800 42.90100
C  -1.01300 0.64200 42.49000
C  -1.90000 -0.38300 42.93800
C  -0.92400 -1.42800 43.39500
C  -1.46700 1.96400 41.84800
C  -3.49300 -0.48500 42.77200
O  -4.14100 0.50800 42.37500
C  -4.22600 -1.61900 43.31000
N  0.85400 -3.68400 44.61000
C  -0.49200 -3.81200 44.39300
C  -1.00300 -5.16100 44.80400
C  0.27100 -5.87200 45.20300
C  1.36200 -4.84100 45.06500
C  -2.21700 -5.06200 45.77800
C  0.58600 -7.05700 44.32500
C  -0.54800 -8.06700 44.07900
N  3.62500 -2.98800 44.88000
C  3.78100 -4.24200 45.34200
C  5.17200 -4.51800 45.75100
C  5.85800 -3.37700 45.30400
C  4.87500 -2.51800 44.78600
C  5.61600 -5.92200 46.33500
C  7.16300 -2.75300 45.10800
O  8.31000 -3.15400 45.36100
C  6.87700 -1.36300 44.47600
C  7.42300 -0.28700 45.35000
O  7.03200 0.14400 46.41900
O  8.38700 0.27900 44.53600
C  8.98600 1.51000 45.13800
H  1.24800 2.20000 42.42700
H  -2.21500 -3.24800 43.56500
H  2.89500 -6.08100 45.73500
H  5.80200 1.42400 44.03900
H  3.72900 2.47600 42.07200
H  4.61700 3.05100 44.80900
H  2.83800 3.14100 44.65200
H  3.79100 4.14400 43.67100
H  6.90300 0.88300 42.22000
H  5.87100 2.05700 41.36100
H  4.58700 -0.39100 40.98500
H  6.35100 -0.59000 40.75000
H  -0.54200 2.19500 41.32000
H  -1.58000 2.73100 42.61400
H  -2.38800 1.86600 41.27400
H  -5.28600 -1.37300 43.37200
H  -4.04200 -1.77000 44.37300
H  -4.06200 -2.48400 42.66800
H  -1.51000 -5.59200 43.94000
H  0.21500 -6.30600 46.20100
H  -2.35500 -4.01900 46.06300
H  -1.92300 -5.65800 46.64200
H  -3.09600 -5.38200 45.21900
H  1.44300 -7.53000 44.80400
H  0.92800 -6.73000 43.34400
H  -1.37900 -7.82400 44.74100
H  -0.14500 -9.04600 44.33800
H  -0.97400 -8.10000 43.07600
H  4.85700 -6.34300 46.99500
H  6.59900 -5.80500 46.79000
H  5.66900 -6.64600 45.52100
H  7.15900 -1.28400 43.42600
H  8.25500 2.31600 45.20900
H  9.82000 1.80200 44.50000
H  9.29500 1.30000 46.16200
Mg 9.43100 48.77700 26.06900
C  7.32500 48.68100 28.84800
C  11.81000 50.14600 27.95200
C  11.09300 49.04600 23.32000
C  6.41600 48.10500 24.13600
N  9.35900 49.52800 28.12300
C  8.54200 49.22600 29.13800
C  9.03800 49.67300 30.50700
C  10.36100 50.31800 30.13700
C  10.60600 49.94600 28.63300
C  10.44900 51.84700 30.40200
C  9.22900 48.61800 31.66100
C  8.25500 48.86500 32.78200
H  8.80100 49.65100 33.96800
N  11.27100 49.36500 25.74900
C  12.18600 49.83700 26.62500
C  13.47900 49.76900 25.94800
C  13.27800 49.48200 24.55400
C  11.84700 49.30100 24.50400
C  14.73500 50.00200 26.75000
C  14.23000 49.38700 23.37200
O  13.87500 49.36100 22.17800
C  15.76300 49.56500 23.58400
N  8.81200 48.79100 24.04800
C  9.71300 48.90100 23.05000
C  9.20900 48.60100 21.63500
C  7.71100 48.17400 22.02900
C  7.61500 48.40700 23.50800
C  9.28300 49.73100 20.55800
C  7.29400 46.70000 21.57100
C  7.43100 45.55600 22.52400
N  7.28600 48.45400 26.39500
C  6.20300 48.17500 25.56600
C  5.03900 47.92800 26.29400
C  5.47300 48.06100 27.63800
C  6.81900 48.44000 27.60900
C  3.66200 47.53600 25.71600
C  4.94600 48.14600 28.99200
O  3.81100 47.94300 29.39900
C  6.20400 48.44800 29.86200
C  6.38200 47.15400 30.58500
O  7.07000 46.22500 30.17600
O  5.73800 47.08500 31.83500
C  6.04400 45.83300 32.59200
H  12.60200 50.57100 28.57200
H  11.62600 48.88800 22.38000
H  5.60400 47.71900 23.51600
H  8.32000 50.43900 30.80000
H  11.17400 49.94300 30.75800
H  9.65500 52.12100 31.09700
H  10.27100 52.37700 29.46600
H  11.44100 52.15700 30.72900
H  10.21500 48.55900 32.12200
H  8.99700 47.65300 31.20900
H  7.84600 47.91300 33.12200
H  7.38600 49.30700 32.29600
H  14.54500 49.80800 27.80600
H  15.01000 51.01900 26.47000
H  15.67200 49.48400 26.54300
H  15.86800 48.83700 24.38800
H  16.02200 50.58700 23.86300
H  16.33700 49.30900 22.69400
H  9.63500 47.71200 21.17000
H  6.98400 48.82800 21.55000
H  9.65300 50.68200 20.94100
H  8.27700 49.93500 20.19300
H  9.94500 49.41300 19.75200
H  7.63800 46.44000 20.56900
H  6.23100 46.79500 21.35300
H  8.18000 45.67500 23.30600
H  7.57900 44.66100 21.91900
H  6.45200 45.30800 22.93500
H  3.68900 47.19800 24.68000
H  3.04300 48.43300 25.69400
H  3.18400 46.85700 26.42200
H  6.00500 49.15600 30.66600
H  5.41500 45.06900 32.13600
H  5.69600 45.95300 33.61800
H  7.08000 45.50600 32.68400

