158

Mg 8.47800 48.04700 25.30900
C  6.47900 48.24400 28.01400
C  11.20600 48.83900 27.37600
C  10.58200 47.84900 22.58400
C  5.81800 47.70200 23.19300
N  8.83800 48.36400 27.52400
C  7.81200 48.35100 28.43300
C  8.38000 48.72600 29.81700
C  9.71900 49.41900 29.42900
C  10.00100 48.85900 28.06300
C  9.68500 50.98300 29.38700
C  8.61700 47.40500 30.66000
C  8.51000 47.54500 32.15300
H  7.80700 46.50600 33.00600
N  10.50700 48.32200 25.01500
C  11.48700 48.50000 25.99300
C  12.79800 48.46200 25.42300
C  12.67000 48.04400 24.11300
C  11.23100 48.06000 23.85400
C  14.04700 48.97500 26.13900
C  13.71500 47.72900 23.07100
O  13.50600 47.43700 21.90800
C  15.16900 47.77800 23.39500
N  8.23400 47.94200 23.09200
C  9.21900 47.76500 22.21900
C  8.72500 47.46600 20.82900
C  7.21100 47.25800 21.02600
C  7.08200 47.56800 22.52700
C  9.02800 48.60200 19.83700
C  6.59800 45.84300 20.69300
C  5.41600 45.76200 19.69900
N  6.59700 47.93000 25.52400
C  5.55600 47.90500 24.59100
C  4.29300 47.92800 25.19600
C  4.65000 47.94500 26.60100
C  6.04100 48.07800 26.69100
C  2.95000 47.89100 24.61700
C  4.06100 48.03600 27.88900
O  2.82200 48.03900 28.10700
C  5.19600 48.24300 28.92200
C  5.05300 47.10200 29.87200
O  5.65600 46.08000 29.76400
O  4.22600 47.40000 30.94000
C  4.00200 46.38800 32.02300
H  11.98000 49.11300 28.09500
H  11.27600 47.72300 21.75000
H  4.91600 47.57900 22.59000
H  7.62400 49.39400 30.22900
H  10.56900 49.03100 29.99100
H  8.70600 51.41300 29.60200
H  9.87600 51.21700 28.34000
H  10.52500 51.45900 29.89300
H  9.60600 47.01600 30.41700
H  7.83800 46.71400 30.33900
H  8.13600 48.51300 32.48600
H  9.52800 47.50400 32.54000
H  13.96100 49.13000 27.21400
H  14.44800 49.93300 25.80800
H  14.83200 48.22500 26.04800
H  15.52100 46.90700 23.94700
H  15.38800 48.70700 23.92200
H  15.68100 47.81800 22.43400
H  9.22700 46.51300 20.66000
H  6.54700 47.96100 20.52300
H  8.83800 49.59200 20.25000
H  8.34700 48.54200 18.98800
H  10.04700 48.51900 19.45600
H  6.35000 45.25700 21.57800
H  7.40800 45.32800 20.17700
H  5.50100 44.82700 19.14600
H  5.37700 46.60700 19.01200
H  4.49800 45.87900 20.27500
H  2.73200 48.95100 24.48500
H  2.22000 47.38700 25.25100
H  3.01300 47.35400 23.67100
H  4.94100 49.20200 29.37500
H  2.94800 46.24600 32.26200
H  4.57100 46.75400 32.87900
H  4.35400 45.45100 31.59100
Mg -0.39500 44.07800 24.99500
C  1.72000 43.23200 27.76700
C  -3.00900 42.86800 26.91200
C  -2.35500 44.06400 22.19100
C  2.45600 44.67400 23.10600
N  -0.54900 43.03800 27.14700
C  0.36700 43.02600 28.13900
C  -0.15000 42.41800 29.45200
C  -1.69800 42.14200 29.05200
C  -1.79100 42.77600 27.55400
C  -2.17000 40.67800 29.08000
C  -0.06700 43.44000 30.65200
C  0.09400 42.98100 32.06400
H  -0.54400 41.65100 32.47700
N  -2.46800 43.85800 24.59900
C  -3.32600 43.37000 25.57300
C  -4.69000 43.45400 25.03700
C  -4.53400 43.69600 23.57700
C  -3.08100 43.82400 23.40700
C  -5.88300 43.12100 25.82400
C  -5.62200 43.81700 22.46200
O  -5.30400 44.01800 21.30900
C  -7.04500 43.84400 22.94800
N  -0.00200 44.49800 23.00600
C  -0.96600 44.39300 22.01300
C  -0.32500 44.47300 20.61400
C  1.08200 45.02600 20.93000
C  1.19900 44.73500 22.39800
C  -0.33800 43.18500 19.87200
C  1.33600 46.51400 20.68200
C  0.63800 47.52900 21.65400
N  1.66100 44.04500 25.34900
C  2.67300 44.36600 24.45700
C  3.87400 44.24700 25.14700
C  3.55800 43.85000 26.41600
C  2.20500 43.65300 26.54300
C  5.17800 44.51000 24.74200
C  4.12000 43.55200 27.72700
O  5.29100 43.46600 28.05300
C  2.94600 43.17900 28.63100
C  3.19400 41.88600 29.24100
O  3.29700 40.87600 28.57700
O  3.52100 41.90400 30.59700
C  3.94600 40.68900 31.22100
H  -3.85900 42.48800 27.48300
H  -2.87600 44.10900 21.23200
H  3.30900 44.88200 22.45700
H  0.33200 41.46400 29.66800
H  -2.27000 42.67300 29.81300
H  -1.29400 40.04400 29.21200
H  -2.74600 40.40900 28.19500
H  -2.75200 40.75100 29.99800
H  -0.92800 44.10900 30.66000
H  0.89200 43.94200 30.52100
H  -0.08100 43.81600 32.74300
H  1.16800 42.83300 32.17500
H  -5.64800 43.17800 26.88700
H  -6.47100 42.24100 25.56100
H  -6.60900 43.93400 25.80100
H  -7.71900 44.01200 22.10800
H  -7.17000 44.61700 23.70600
H  -7.29900 42.90500 23.43900
H  -0.88800 45.22900 20.06600
H  1.96300 44.58800 20.46100
H  0.63800 42.73800 19.68300
H  -0.63500 43.26900 18.82600
H  -0.99600 42.42100 20.28500
H  1.18200 46.88200 19.66800
H  2.37400 46.74800 20.91900
H  0.08500 48.22700 21.02600
H  1.35200 47.99400 22.33400
H  -0.05800 47.04200 22.33800
H  5.54800 45.41400 25.22500
H  5.21500 44.80700 23.69300
H  5.93600 43.73100 24.83000
H  3.05300 43.88700 29.45300
H  4.17300 39.83400 30.58400
H  3.22700 40.39700 31.98700
H  4.87600 40.88900 31.75200

