158

Mg 35.15200 2.96100 29.69000
C  32.48300 3.92300 31.88700
C  37.24400 3.37700 32.32200
C  37.56400 2.12600 27.67500
C  32.85100 3.13000 27.02400
N  34.85600 3.50100 31.90400
C  33.70900 3.79900 32.56300
C  33.87200 3.79600 34.15100
C  35.42400 4.09700 34.10800
C  35.87400 3.59900 32.72700
C  35.81900 5.49900 34.55900
C  33.39400 2.42600 34.78600
C  33.12800 2.50300 36.26800
H  33.96900 3.47100 37.06600
N  37.13200 2.68000 29.98600
C  37.87600 2.93900 31.13800
C  39.26500 2.57100 30.95700
C  39.34200 2.13700 29.59500
C  38.02000 2.33300 28.99200
C  40.21800 2.71800 32.05900
C  40.51800 1.55600 28.87500
O  40.44400 1.28200 27.65200
C  41.83700 1.28900 29.52900
N  35.21400 2.66000 27.59200
C  36.32700 2.24700 26.95700
C  36.24200 2.36000 25.42200
C  34.64900 2.58900 25.20100
C  34.20100 2.79100 26.67000
C  37.12500 3.56100 24.84600
C  34.06000 1.28100 24.59700
C  33.34100 1.40000 23.23300
N  33.08600 3.55600 29.40600
C  32.34400 3.46000 28.25900
C  30.94300 3.63900 28.71400
C  30.98300 3.87500 30.11400
C  32.31800 3.78400 30.46700
C  29.76400 3.68300 27.80900
C  30.15200 4.19300 31.34000
O  28.95700 4.41000 31.41500
C  31.07400 4.15400 32.53300
C  31.06400 5.33500 33.41500
O  31.50400 6.43300 33.23400
O  30.57800 4.86200 34.60200
C  30.60300 5.86900 35.66100
H  37.92800 3.51800 33.16200
H  38.41100 1.81600 27.05900
H  32.13900 2.98400 26.20800
H  33.26900 4.60700 34.55900
H  35.85300 3.37800 34.80600
H  36.46800 5.44500 35.43400
H  34.95100 6.05000 34.92000
H  36.31500 6.11200 33.80600
H  34.20600 1.71700 34.63100
H  32.59800 1.97500 34.19300
H  33.16600 1.57600 36.84100
H  32.13500 2.95200 36.25400
H  40.93100 1.89900 31.96400
H  39.67600 2.63300 33.00000
H  40.75000 3.66800 32.11800
H  41.57900 0.65200 30.37500
H  42.29400 2.24500 29.78200
H  42.45800 0.78100 28.79100
H  36.59800 1.40500 25.03600
H  34.58800 3.45500 24.54200
H  36.58800 4.35600 24.32900
H  37.92500 3.21700 24.19100
H  37.58200 4.05300 25.70500
H  33.29300 0.93100 25.28700
H  34.67500 0.38700 24.70000
H  34.08000 1.01900 22.52700
H  33.20400 2.46500 23.04600
H  32.47500 0.74300 23.14700
H  28.95600 4.25500 28.26500
H  29.40400 2.71900 27.44700
H  30.12800 4.26100 26.96100
H  30.79200 3.30700 33.15800
H  30.30800 5.58300 36.67000
H  30.01600 6.72700 35.33400
H  31.63900 6.20400 35.71400
Mg -5.03900 26.31500 26.55200
C  -3.75200 27.59700 29.51400
C  -7.13000 24.28800 28.57800
C  -6.13900 24.69400 23.79800
C  -2.78000 28.22300 24.69700
N  -5.18700 25.82100 28.78800
C  -4.57500 26.54100 29.77500
C  -5.07500 26.01000 31.20500
C  -5.88600 24.72800 30.89700
C  -6.12700 24.92700 29.30600
C  -5.33000 23.34100 31.32800
C  -5.90700 27.12200 31.99400
C  -5.98000 27.10300 33.54500
H  -5.68300 25.76200 34.19400
N  -6.27600 24.61100 26.24200
C  -7.18400 24.10400 27.16700
C  -8.21300 23.30000 26.47000
C  -7.84700 23.21900 25.09100
C  -6.74000 24.17800 24.96900
C  -9.29200 22.62600 27.27800
C  -8.41300 22.43500 23.93200
O  -7.92700 22.44900 22.80100
C  -9.48100 21.57100 24.14000
N  -4.49600 26.40500 24.59500
C  -5.16300 25.71200 23.61300
C  -4.68300 26.16300 22.21200
C  -3.61200 27.25300 22.49900
C  -3.62100 27.33600 24.01800
C  -4.16000 25.04200 21.30100
C  -3.85800 28.59600 21.67100
C  -2.84100 28.88700 20.53600
N  -3.48000 27.66400 26.96900
C  -2.71200 28.39500 26.11200
C  -1.92800 29.34200 26.84500
C  -2.31500 29.09700 28.17900
C  -3.24700 28.01800 28.19700
C  -0.93500 30.34000 26.27000
C  -2.03900 29.42200 29.57100
O  -1.29800 30.29200 30.05700
C  -3.03800 28.51500 30.44600
C  -2.14600 27.69800 31.27200
O  -1.37100 26.89400 30.75200
O  -2.09500 28.09400 32.53200
C  -0.90300 27.63400 33.23900
H  -7.93700 23.88000 29.19000
H  -6.55000 24.28300 22.87400
H  -2.09900 28.89800 24.17300
H  -4.24000 25.76600 31.86200
H  -6.84200 24.81200 31.41400
H  -5.19800 22.69400 30.46100
H  -6.03300 22.85200 32.00200
H  -4.37600 23.29000 31.85300
H  -6.94700 27.01300 31.68500
H  -5.51800 28.11000 31.75000
H  -7.02800 27.38000 33.65400
H  -5.39000 27.85100 34.07600
H  -8.91100 21.83700 27.92600
H  -10.03600 22.11700 26.66500
H  -9.85200 23.34300 27.87900
H  -10.25500 22.32600 24.27200
H  -9.27800 21.02500 25.06100
H  -9.76000 20.96900 23.27500
H  -5.54800 26.68600 21.80400
H  -2.65400 26.88700 22.13100
H  -4.44800 24.10400 21.77600
H  -3.07400 25.11300 21.23900
H  -4.56300 24.97700 20.29100
H  -3.92300 29.44100 22.35600
H  -4.87200 28.67000 21.27900
H  -3.38400 28.73200 19.60400
H  -1.99100 28.20600 20.58700
H  -2.57400 29.94100 20.46900
H  -1.31000 31.36100 26.34300
H  -0.60600 30.11400 25.25600
H  -0.00800 30.34800 26.84400
H  -3.75900 29.02100 31.08800
H  -1.14600 26.58200 33.38700
H  -0.76100 28.26100 34.11900
H  0.02000 27.67200 32.66100

