158

Mg 0.58700 8.02000 27.22000
C  1.70000 10.14500 29.83900
C  0.74400 5.50400 29.45600
C  -0.09000 6.03300 24.65300
C  0.95700 10.66800 24.96400
N  1.06200 7.90700 29.43800
C  1.34700 8.92600 30.35800
C  1.12400 8.41600 31.82200
C  1.23700 6.87800 31.61000
C  1.04900 6.70800 30.07500
C  2.57400 6.22100 32.14500
C  -0.23800 8.87100 32.35500
C  -0.33400 8.82400 33.91000
H  0.90400 8.36200 34.78300
N  0.39700 5.93700 27.05700
C  0.46800 5.08000 28.10000
C  0.23500 3.73300 27.54600
C  0.00300 3.89600 26.14100
C  0.14300 5.36800 25.87500
C  0.14600 2.43300 28.36500
C  -0.24400 2.84800 25.04500
O  -0.56200 3.18700 23.90700
C  -0.30700 1.35000 25.34300
N  0.62600 8.27300 25.06900
C  0.08600 7.37000 24.30500
C  -0.27500 7.83200 22.90300
C  -0.13300 9.34400 23.01800
C  0.50400 9.48100 24.39900
C  0.49800 7.20800 21.75100
C  -1.42800 10.09900 22.86300
C  -1.32700 11.50000 22.27800
N  1.15400 10.02600 27.31200
C  1.36900 10.97200 26.34300
C  1.63200 12.27900 26.94000
C  1.76800 11.96500 28.30400
C  1.59800 10.53800 28.45100
C  1.96200 13.61000 26.27900
C  2.19400 12.56100 29.53000
O  2.47200 13.76100 29.77300
C  1.95500 11.45500 30.59500
C  2.97100 11.37700 31.65500
O  4.09100 10.93800 31.53100
O  2.41600 11.99700 32.85600
C  3.31600 12.09700 33.98200
H  0.78100 4.68400 30.17700
H  -0.36500 5.44400 23.77600
H  0.97000 11.56000 24.33400
H  1.93900 8.69900 32.48800
H  0.43200 6.53100 32.25800
H  3.24700 5.92500 31.34100
H  2.27200 5.35600 32.73500
H  3.12700 6.91800 32.77500
H  -1.06800 8.29600 31.94400
H  -0.23400 9.91800 32.05000
H  -1.14900 8.11300 34.04700
H  -0.71000 9.78800 34.25400
H  1.03300 1.82200 28.19700
H  -0.72600 1.82600 28.12100
H  0.16700 2.53500 29.45000
H  -0.09300 0.79700 24.42800
H  -1.31100 1.17700 25.73000
H  0.39300 1.09600 26.13800
H  -1.32700 7.59500 22.74800
H  0.54500 9.70000 22.24200
H  -0.14800 6.82500 20.96100
H  1.16500 6.38900 22.02100
H  1.16600 7.97400 21.35700
H  -1.83900 10.16000 23.87100
H  -2.02200 9.45500 22.21400
H  -1.05400 12.16200 23.10000
H  -2.17400 11.77000 21.64800
H  -0.51300 11.49200 21.55400
H  1.23400 13.90100 25.52200
H  2.89200 13.32100 25.79100
H  2.11000 14.38100 27.03600
H  0.95600 11.72300 30.94000
H  4.29100 12.43800 33.63500
H  3.45800 11.10300 34.40700
H  2.74600 12.68700 34.70000
Mg 25.82800 1.03900 28.76600
C  27.73100 0.61700 31.79200
C  22.98100 1.22900 30.84000
C  24.04500 1.09300 26.08100
C  28.65800 0.18000 27.04500
N  25.43800 1.01100 31.14300
C  26.34100 0.93900 32.11600
C  25.72600 1.10100 33.47800
C  24.20500 1.15200 33.16600
C  24.16000 1.15400 31.66200
C  23.31200 -0.00300 33.66400
C  26.38100 2.29500 34.28300
C  27.13300 2.09700 35.67500
H  26.92100 3.12600 36.87400
N  23.78800 1.12700 28.48600
C  22.82300 1.20600 29.44800
C  21.48200 1.19300 28.81000
C  21.78800 1.15500 27.41700
C  23.20800 1.16400 27.28800
C  20.19300 0.93400 29.47600
C  20.85600 1.06500 26.19400
O  21.26100 1.14200 25.02200
C  19.35700 0.95000 26.41100
N  26.29100 0.55300 26.83800
C  25.40300 0.87500 25.86300
C  26.11200 1.01000 24.50400
C  27.52600 0.51800 24.81100
C  27.47800 0.38000 26.31700
C  25.44300 0.21000 23.34400
C  28.68900 1.31000 24.16500
C  29.24200 0.72300 22.83800
N  27.77200 0.47500 29.30000
C  28.82800 0.16200 28.40200
C  30.02200 0.01200 29.16100
C  29.66200 0.14400 30.50100
C  28.25900 0.40700 30.51800
C  31.43200 -0.27600 28.62200
C  30.13200 0.11300 31.85900
O  31.25600 -0.16900 32.23500
C  28.90100 0.35100 32.78400
C  28.58500 -0.80600 33.68200
O  27.79500 -1.68400 33.43700
O  29.28300 -0.57400 34.84600
C  28.74800 -1.41100 35.93700
H  22.12100 1.39900 31.49200
H  23.45400 1.36000 25.20200
H  29.63500 0.08200 26.56600
H  25.86400 0.15400 34.00100
H  23.83700 2.15000 33.40300
H  22.55500 0.50100 34.26500
H  23.89100 -0.73900 34.22300
H  22.77400 -0.58000 32.91200
H  25.66900 3.07300 34.55600
H  27.03300 2.83600 33.59700
H  28.19100 2.29100 35.50000
H  26.91300 1.09300 36.03900
H  19.70800 0.03000 29.10800
H  19.59800 1.84500 29.41200
H  20.36600 0.72700 30.53200
H  18.73600 1.28700 25.58100
H  19.09900 1.59900 27.24700
H  19.06400 -0.09700 26.48800
H  26.07000 2.07100 24.26000
H  27.73700 -0.45500 24.36700
H  25.25500 1.03700 22.66000
H  24.42200 -0.14700 23.48200
H  26.16300 -0.51100 22.95700
H  29.57300 1.38200 24.79900
H  28.27800 2.28200 23.89100
H  29.08700 1.49900 22.08900
H  28.75300 -0.18600 22.48800
H  30.30100 0.52500 23.00500
H  31.55200 0.20200 27.65000
H  31.58800 -1.35300 28.55100
H  32.13500 0.25100 29.26800
H  29.09700 1.26600 33.34200
H  28.91100 -2.44600 35.63300
H  27.69800 -1.22900 36.16500
H  29.42300 -1.40500 36.79300

