158

Mg 35.97400 2.47600 30.62300
C  33.51100 3.83600 32.93400
C  38.16300 2.41400 33.42000
C  38.49200 2.03100 28.57700
C  33.61700 2.78100 28.13800
N  35.85700 3.13000 32.84200
C  34.73600 3.53900 33.56800
C  34.96500 3.64300 35.09500
C  36.53400 3.52000 35.09100
C  36.87400 2.83900 33.74000
C  37.34900 4.78200 35.41800
C  34.11700 2.55700 35.87900
C  33.58300 2.90000 37.27900
H  34.28100 3.93500 38.19600
N  37.96000 2.10800 30.91400
C  38.66500 2.11800 32.12800
C  39.96100 1.45400 31.85500
C  40.10700 1.39000 30.50900
C  38.87000 1.88300 29.90700
C  40.95000 1.07600 33.01100
C  41.27700 0.87800 29.79500
O  41.28200 0.68700 28.59500
C  42.69000 0.55600 30.54100
N  36.06000 2.56000 28.60100
C  37.23600 2.24500 27.99900
C  36.93000 2.14400 26.48800
C  35.38800 2.20900 26.32400
C  34.96300 2.42600 27.85500
C  37.72600 3.31900 25.65800
C  34.75600 0.86200 25.70800
C  33.53500 1.11900 24.76600
N  33.98900 3.27600 30.44900
C  33.15100 3.20800 29.36200
C  31.82900 3.61600 29.74200
C  31.98400 3.98700 31.10600
C  33.30400 3.72400 31.49400
C  30.70200 3.66200 28.76800
C  31.20500 4.51800 32.25500
O  30.04500 4.92600 32.41000
C  32.19800 4.40700 33.50800
C  32.33300 5.79500 34.00000
O  32.78200 6.78700 33.40200
O  31.90300 5.77500 35.27500
C  31.92100 7.08500 35.93000
H  38.78500 2.36300 34.31600
H  39.29200 1.90500 27.84400
H  32.97300 2.78500 27.25700
H  34.61300 4.63300 35.38500
H  36.69700 2.77600 35.87100
H  36.73700 5.67400 35.55300
H  38.01100 5.09100 34.60900
H  37.91800 4.79300 36.34700
H  34.73800 1.67200 36.02000
H  33.30900 2.15300 35.26900
H  33.46900 1.96000 37.81800
H  32.55000 3.23100 37.17600
H  40.46700 1.18000 33.98300
H  41.73300 1.83400 33.00100
H  41.43700 0.10300 32.94300
H  42.71900 -0.40400 31.05500
H  42.94500 1.33400 31.26000
H  43.45900 0.59500 29.76800
H  37.23700 1.14100 26.19200
H  35.07900 3.05900 25.71600
H  37.14200 4.23600 25.58700
H  37.95400 2.90900 24.67400
H  38.63600 3.55600 26.21000
H  34.44200 0.21800 26.53000
H  35.50200 0.39500 25.06500
H  33.76300 1.07900 23.70100
H  33.04800 2.06200 25.01400
H  32.81600 0.36300 25.08100
H  29.93700 4.37300 29.08100
H  30.31300 2.64400 28.74300
H  31.12700 3.98400 27.81800
H  31.65900 3.84600 34.27100
H  32.86700 7.55000 36.20700
H  31.37500 6.81300 36.83400
H  31.43600 7.80900 35.27500
Mg -2.09600 34.74000 27.01600
C  -3.91900 32.60200 29.21300
C  -1.40800 36.81200 29.57100
C  -0.52800 36.76600 24.86700
C  -3.03800 32.67100 24.41300
N  -2.80900 34.81100 29.15900
C  -3.28600 33.73600 29.87300
C  -3.02000 33.93400 31.34400
C  -2.54600 35.44400 31.44800
C  -2.26700 35.76600 29.99400
C  -3.35600 36.47200 32.29900
C  -2.00900 32.90200 31.93600
C  -2.12600 32.61100 33.48100
H  -3.03400 33.52500 34.34700
N  -1.11200 36.59800 27.17300
C  -0.86200 37.30900 28.36400
C  -0.11500 38.47600 28.05500
C  0.07600 38.48200 26.65100
C  -0.60100 37.28000 26.16100
C  0.30800 39.52300 29.11000
C  0.80600 39.46100 25.76400
O  0.76400 39.44600 24.53600
C  1.62400 40.54600 26.41900
N  -1.71500 34.63500 25.03800
C  -0.91700 35.57400 24.37600
C  -0.65200 35.19300 22.88000
C  -1.47700 33.85800 22.78100
C  -2.08800 33.67200 24.18000
C  -0.90500 36.26100 21.75500
C  -0.56700 32.61400 22.33400
C  0.62100 32.17600 23.29900
N  -3.30500 33.12600 26.80600
C  -3.59300 32.40700 25.67600
C  -4.63000 31.38700 25.89300
C  -4.72900 31.37700 27.30800
C  -3.95600 32.47700 27.79600
C  -5.23600 30.48800 24.87300
C  -5.30100 30.71000 28.50800
O  -6.18700 29.87700 28.56600
C  -4.72000 31.43000 29.80400
C  -5.85000 31.93800 30.68100
O  -6.69000 32.74500 30.28000
O  -5.85000 31.26400 31.84800
C  -6.93700 31.60800 32.80700
H  -1.01200 37.38200 30.41400
H  0.16500 37.28100 24.19900
H  -3.33900 32.13100 23.51300
H  -4.00000 33.86800 31.81700
H  -1.60100 35.49300 31.99000
H  -4.24700 36.14300 32.83300
H  -3.70100 37.28500 31.66000
H  -2.65700 36.90200 33.01700
H  -0.96800 33.20300 31.81900
H  -2.09100 32.02500 31.29500
H  -1.18500 32.60200 34.03200
H  -2.57500 31.61900 33.52400
H  1.39500 39.51700 29.19500
H  -0.00400 39.18400 30.09700
H  -0.06600 40.53800 28.98200
H  0.95500 41.30100 26.83200
H  2.27100 41.11400 25.75000
H  2.26300 40.13500 27.20000
H  0.41500 34.97500 22.93200
H  -2.27000 34.00500 22.04800
H  -1.18700 37.22700 22.17500
H  -1.64100 35.98200 21.00200
H  -0.01400 36.38200 21.13800
H  -0.01600 32.94600 21.45400
H  -1.21700 31.79400 22.02700
H  1.62400 32.17100 22.87200
H  0.40300 31.16000 23.62900
H  0.64700 32.76000 24.21900
H  -4.63500 30.15300 24.02800
H  -6.08000 30.95000 24.35900
H  -5.55500 29.62500 25.45700
H  -3.98600 30.85700 30.37100
H  -7.77900 32.15900 32.38900
H  -6.50900 32.27300 33.55800
H  -7.22300 30.68500 33.31200

