158

Mg -2.32000 17.01800 25.71000
C  -2.62700 14.64100 28.27300
C  -3.18500 19.51900 27.84900
C  -2.49700 19.19700 23.13600
C  -2.11200 14.41300 23.35800
N  -3.04000 17.03300 27.81100
C  -2.95800 16.00500 28.74100
C  -3.40300 16.53300 30.19700
C  -3.72300 18.06100 29.97000
C  -3.34800 18.26000 28.41000
C  -5.23800 18.33000 30.18600
C  -2.35400 16.14600 31.26500
C  -2.68700 16.79300 32.63300
H  -2.63000 16.08000 33.91900
N  -2.55900 19.07600 25.53800
C  -2.83400 19.86100 26.52900
C  -2.74700 21.28800 26.03200
C  -2.44300 21.25300 24.65900
C  -2.54500 19.80600 24.40300
C  -2.90300 22.51900 26.94000
C  -2.17900 22.36900 23.67700
O  -1.72900 22.14700 22.58500
C  -2.00600 23.78400 24.06300
N  -2.30100 16.86400 23.62100
C  -2.40700 17.86600 22.79100
C  -2.22300 17.55200 21.28200
C  -1.98600 16.06700 21.43300
C  -2.13900 15.70900 22.90600
C  -3.26900 18.04300 20.28800
C  -0.60000 15.58600 20.86900
C  0.64600 15.65800 21.76100
N  -2.35500 15.00000 25.75700
C  -2.32600 14.07200 24.73500
C  -2.29000 12.71400 25.36600
C  -2.32000 12.94900 26.71000
C  -2.35800 14.28200 26.93500
C  -2.21900 11.41900 24.51600
C  -2.40000 12.23400 27.96200
O  -2.29200 11.01700 28.25700
C  -2.65900 13.33800 29.04900
C  -1.42200 13.20300 29.94800
O  -0.36000 13.80600 29.84300
O  -1.63100 12.37700 30.97200
C  -0.64200 12.10400 31.98300
H  -3.56600 20.36900 28.42000
H  -2.48100 19.92500 22.32200
H  -2.04300 13.56800 22.67000
H  -4.29700 15.98400 30.49400
H  -3.02900 18.52700 30.66900
H  -5.47400 19.34200 29.85600
H  -5.45500 18.30900 31.25400
H  -5.82500 17.64200 29.57800
H  -1.36500 16.46400 30.93600
H  -2.36800 15.08800 31.52700
H  -3.69100 17.21500 32.60700
H  -1.98500 17.62600 32.58400
H  -3.71700 23.09000 26.49300
H  -2.01400 23.13500 26.80600
H  -3.07900 22.31400 27.99600
H  -1.89400 24.33700 23.13000
H  -1.11000 23.91000 24.67000
H  -2.82300 24.23200 24.62900
H  -1.30600 18.10100 21.06800
H  -2.82500 15.54800 20.96800
H  -3.98900 18.68700 20.79300
H  -3.84300 17.21100 19.87900
H  -2.80600 18.68200 19.53600
H  -0.51100 16.28200 20.03500
H  -0.66600 14.57900 20.45700
H  1.28400 16.49400 21.47500
H  1.24900 14.76000 21.62800
H  0.21400 15.87400 22.73900
H  -1.40500 11.49400 23.79500
H  -3.16600 11.28500 23.99400
H  -2.05900 10.67300 25.29400
H  -3.60400 13.13000 29.55300
H  -0.03100 11.23600 31.73500
H  -1.21500 11.91400 32.89100
H  0.04500 12.92700 32.18100
Mg 47.48800 14.94800 28.32400
C  45.16700 14.69500 30.92300
C  49.16000 17.48200 30.14000
C  49.82200 14.89000 25.90800
C  45.63500 12.54500 26.57900
N  47.06500 16.06900 30.30300
C  46.17600 15.64800 31.24000
C  46.44100 16.36100 32.60100
C  47.58300 17.38100 32.14700
C  47.97900 17.01100 30.74800
C  47.12000 18.89400 32.26200
C  46.83600 15.35400 33.76300
C  46.78700 15.98300 35.16900
H  47.71700 15.58100 36.30200
N  49.23500 16.10600 28.03800
C  49.80900 17.08000 28.89500
C  51.04900 17.41300 28.34400
C  51.26800 16.64100 27.13900
C  50.07800 15.79600 26.98000
C  51.90000 18.56400 28.96500
C  52.28800 16.82100 26.08300
O  52.39300 16.16200 25.06600
C  53.43800 17.80700 26.30600
N  47.61200 13.98800 26.41800
C  48.70100 14.12000 25.63200
C  48.75300 13.03200 24.58500
C  47.50700 12.10700 24.90000
C  46.86400 12.88400 26.01600
C  48.78900 13.67500 23.21700
C  47.75000 10.63500 25.37900
C  49.01900 9.99000 24.74900
N  45.70100 13.95900 28.51600
C  45.02300 13.02600 27.71500
C  43.84600 12.60200 28.35500
C  43.92100 13.17100 29.61800
C  45.03300 13.97600 29.65900
C  42.75500 11.75700 27.84900
C  43.22500 13.27900 30.88800
O  42.15400 12.77200 31.19900
C  44.07600 14.13700 31.82300
C  43.26500 15.14900 32.45100
O  42.56800 15.98400 31.88300
O  43.31600 14.96200 33.83800
C  42.68300 16.13100 34.53100
H  49.71000 18.19000 30.76300
H  50.61300 14.68200 25.18400
H  45.11100 11.77400 26.01000
H  45.55800 16.92500 32.90200
H  48.37900 17.14600 32.85400
H  46.99000 19.41300 31.31200
H  48.01300 19.40600 32.62200
H  46.35400 18.91800 33.03700
H  47.83400 14.97900 33.53700
H  46.16900 14.49800 33.86600
H  45.75300 15.82700 35.47400
H  46.68600 17.06500 35.08400
H  51.91800 19.25600 28.12300
H  52.89100 18.19800 29.23600
H  51.44700 19.01900 29.84700
H  54.02000 17.64400 27.21300
H  53.11800 18.83100 26.11400
H  54.12800 17.57000 25.49700
H  49.72100 12.53200 24.60800
H  46.80500 12.03400 24.06900
H  48.72800 14.76000 23.30300
H  47.89900 13.35000 22.67700
H  49.68700 13.42200 22.65400
H  46.87700 9.99400 25.25900
H  48.07900 10.75600 26.41100
H  48.76600 8.95700 24.51000
H  49.78400 9.83500 25.51000
H  49.51200 10.57900 23.97600
H  43.02400 10.86100 27.28900
H  42.13900 12.42500 27.24700
H  42.21800 11.47800 28.75600
H  44.41100 13.31500 32.45600
H  43.05700 16.24500 35.54800
H  41.63800 15.98900 34.80700
H  42.99300 17.07400 34.08100

