158

Mg 43.84600 3.82700 46.20900
C  41.86500 6.93200 46.41200
C  41.02500 1.99100 46.02600
C  45.80300 1.21400 45.61400
C  46.72900 5.94200 46.02500
N  41.71400 4.45000 46.10600
C  41.12200 5.70300 46.20000
C  39.59000 5.53100 46.44700
C  39.37200 3.93100 46.56700
C  40.78400 3.39300 46.21500
C  39.03800 3.39500 47.96900
C  38.72900 6.12700 45.30200
C  38.95200 5.48100 43.90900
H  39.44700 6.46400 42.80200
N  43.47000 1.88300 45.74200
C  42.24200 1.27600 45.75200
C  42.38000 -0.13000 45.45200
C  43.74800 -0.34900 45.26200
C  44.43300 0.94900 45.54800
C  41.18600 -1.15900 45.40400
C  44.39000 -1.67000 44.93400
O  43.84400 -2.75500 44.94000
C  45.81700 -1.78300 44.47100
N  45.95700 3.62300 45.73900
C  46.49700 2.38600 45.76100
C  48.04000 2.42100 45.79000
C  48.37200 3.96000 46.03300
C  46.99700 4.55100 45.85400
C  48.75600 1.40800 46.75400
C  49.62800 4.60400 45.23000
C  50.77700 5.10700 46.12500
N  44.20800 5.95700 46.13500
C  45.45500 6.59000 46.14800
C  45.16900 8.06000 46.30900
C  43.79900 8.19100 46.41300
C  43.23100 6.89200 46.23900
C  46.24100 9.14000 46.23900
C  42.73700 9.11500 46.59400
O  42.79400 10.35100 46.74800
C  41.42700 8.26600 46.62300
C  40.78200 8.32700 47.92100
O  41.14600 7.76000 48.94100
O  39.81200 9.27600 47.87800
C  38.84500 9.18900 48.94800
H  40.11500 1.38900 46.08600
H  46.42500 0.32300 45.51100
H  47.59400 6.60300 46.11400
H  39.15600 5.77600 47.41700
H  38.67500 3.62200 45.78800
H  39.79000 2.69500 48.33300
H  38.15300 2.79400 47.75500
H  38.63300 4.06200 48.73000
H  38.93900 7.18800 45.16500
H  37.67000 6.03600 45.54600
H  38.04300 5.01700 43.52600
H  39.64900 4.65200 44.02900
H  40.86600 -1.43600 44.40000
H  40.37600 -0.61300 45.88800
H  41.50800 -2.00900 46.00600
H  46.50300 -1.69100 45.31300
H  46.04300 -1.04200 43.70500
H  45.87400 -2.76100 43.99300
H  48.51700 2.12500 44.85600
H  48.55600 4.25100 47.06700
H  48.07600 0.98000 47.49000
H  49.71700 1.74400 47.14400
H  49.11200 0.60100 46.11300
H  49.40000 5.53000 44.70200
H  50.15100 3.87500 44.61000
H  51.70900 4.70400 45.72800
H  50.80600 4.75200 47.15500
H  50.61600 6.17300 46.28500
H  45.94400 9.99800 46.84200
H  46.58500 9.41200 45.24100
H  47.19300 8.77000 46.62100
H  40.77900 8.49100 45.77600
H  38.94600 10.10200 49.53600
H  38.71400 8.30900 49.57800
H  37.96500 9.24500 48.30700
Mg 41.95200 41.11500 26.48200
C  41.32400 43.46800 29.12500
C  42.86400 38.82300 28.96400
C  43.41100 39.19200 24.07500
C  41.47000 43.64600 24.25600
N  42.12700 41.17500 28.78600
C  41.77900 42.19800 29.64000
C  41.75500 41.74400 31.10700
C  42.48700 40.38700 30.99900
C  42.42300 40.05700 29.48400
C  43.89500 40.42800 31.62100
C  40.39700 41.76900 31.85600
C  40.57000 41.29300 33.37900
H  40.01200 42.23900 34.46000
N  43.02000 39.27500 26.52600
C  43.12000 38.40900 27.61200
C  43.59800 37.09300 27.04600
C  43.77300 37.16000 25.64000
C  43.39700 38.58400 25.32400
C  43.76600 35.85100 27.82800
C  44.31900 36.10100 24.63600
O  44.57500 36.35900 23.47400
C  44.56500 34.66100 25.12600
N  42.39200 41.39200 24.48300
C  42.93800 40.47100 23.66400
C  42.58700 40.71200 22.17600
C  41.76300 42.05100 22.24200
C  41.88800 42.38400 23.76600
C  43.83200 40.72500 21.22600
C  40.20500 41.75900 21.92600
C  39.39700 40.94900 22.94300
N  41.42000 43.14600 26.58300
C  41.36600 44.07500 25.60300
C  41.08100 45.39800 26.06600
C  40.90400 45.18400 27.52300
C  41.23800 43.81300 27.74300
C  40.79900 46.55300 25.23200
C  40.63200 45.88000 28.77500
O  40.35000 47.04000 29.06500
C  40.78700 44.78000 29.84100
C  41.71800 45.32800 30.79900
O  42.91600 45.62900 30.52700
O  41.15600 45.44900 32.03900
C  42.04600 46.19500 32.93900
H  43.19900 38.07800 29.69000
H  43.72300 38.51500 23.27600
H  41.35800 44.35300 23.43200
H  42.20100 42.54000 31.70400
H  41.86900 39.60800 31.44600
H  44.28700 41.38600 31.96200
H  44.52400 40.00300 30.83800
H  43.90900 39.81500 32.52200
H  39.75300 41.08500 31.30300
H  39.99500 42.78000 31.91200
H  41.58000 41.00400 33.67000
H  39.91800 40.42000 33.43000
H  42.93400 35.18700 27.58900
H  43.52400 35.96800 28.88400
H  44.76900 35.43800 27.71900
H  44.71400 33.92600 24.33400
H  43.72300 34.27800 25.70200
H  45.53200 34.73100 25.62400
H  41.95500 39.88200 21.86000
H  42.23100 42.72600 21.52500
H  44.72800 40.59200 21.83300
H  43.82300 41.63500 20.62700
H  43.75700 39.89300 20.52600
H  40.08900 41.23300 20.97900
H  39.74800 42.73600 21.76900
H  38.89700 41.52800 23.72000
H  39.78600 40.01200 23.34100
H  38.64800 40.46400 22.31700
H  40.01700 46.22700 24.54500
H  41.71500 46.84900 24.72000
H  40.46200 47.35800 25.88300
H  39.80100 44.63500 30.28200
H  41.72000 46.01100 33.96300
H  41.92400 47.27600 32.87500
H  43.09100 45.88400 32.94100

