158

Mg 48.66300 45.82100 43.25500
C  45.36200 46.24800 42.24800
C  48.78000 42.74600 41.81600
C  51.95100 45.89500 43.89200
C  48.60400 49.44200 43.98900
N  47.22400 44.63800 42.19000
C  45.92100 45.01500 41.79700
C  45.32200 43.97200 40.87200
C  46.44000 42.84400 40.85900
C  47.50300 43.37600 41.77600
C  45.88800 41.42400 41.25400
C  45.08900 44.44500 39.35000
C  43.81400 44.00200 38.64200
H  43.98100 43.02500 37.46700
N  50.21000 44.51100 42.83900
C  50.02900 43.24800 42.24300
C  51.27300 42.56100 42.31000
C  52.23200 43.44100 42.91800
C  51.52800 44.73300 43.27200
C  51.40300 41.15500 41.66600
C  53.77000 43.09700 43.01600
O  54.16400 41.99800 42.61800
C  54.72600 44.12200 43.48000
N  50.09400 47.45400 43.85200
C  51.38300 47.12500 44.15400
C  52.13100 48.35300 44.67300
C  51.08600 49.47600 44.57700
C  49.84400 48.74300 44.11600
C  52.85400 48.24100 45.98300
C  51.46300 50.67000 43.55300
C  51.60600 52.02300 44.17000
N  47.25000 47.50000 43.29300
C  47.34400 48.84000 43.67300
C  46.06800 49.47000 43.61800
C  45.28200 48.44100 43.08000
C  46.06500 47.31100 42.75100
C  45.71700 50.74700 44.41000
C  43.82900 48.09400 42.85500
O  42.73800 48.74800 43.03700
C  43.92600 46.76200 42.06900
C  42.77800 45.83600 42.37300
O  42.00500 45.38900 41.54900
O  42.86200 45.28700 43.65700
C  42.24300 43.93000 43.82700
H  48.86300 41.83800 41.21400
H  53.01500 45.84000 44.13400
H  48.52900 50.52800 44.07400
H  44.51700 43.51300 41.44400
H  47.00300 42.90900 39.92800
H  46.48600 41.05900 42.09000
H  45.93800 40.75300 40.39700
H  44.91600 41.33100 41.73800
H  45.79400 44.07400 38.60700
H  45.12600 45.53500 39.34700
H  43.25800 44.91100 38.41100
H  43.22000 43.46800 39.38300
H  50.58100 40.44100 41.62100
H  52.12300 40.65200 42.31200
H  51.81600 41.28900 40.66600
H  54.54900 44.33700 44.53400
H  54.83100 44.93300 42.75800
H  55.60900 43.48700 43.40000
H  52.90400 48.56800 43.93500
H  50.74000 49.89700 45.52100
H  53.92600 48.30900 45.80000
H  52.64900 47.27800 46.45200
H  52.54500 49.03600 46.66100
H  50.81000 50.59800 42.68300
H  52.46500 50.45400 43.18100
H  51.20800 52.00800 45.18500
H  51.03100 52.76000 43.60900
H  52.62600 52.35300 44.36800
H  44.71100 51.10600 44.19600
H  46.37500 51.52800 44.02800
H  45.82300 50.57900 45.48200
H  43.87500 47.21700 41.08100
H  42.38500 43.56300 44.84300
H  42.64800 43.23000 43.09700
H  41.18900 43.81000 43.57500
Mg -11.86400 38.80700 41.90300
C  -9.50900 36.22200 41.26700
C  -9.78900 40.83400 40.25600
C  -14.34100 40.97100 41.91100
C  -14.11000 36.21900 42.78200
N  -10.05200 38.45600 40.54700
C  -9.23600 37.37000 40.55100
C  -8.07400 37.59600 39.56900
C  -8.08400 39.12700 39.34000
C  -9.43000 39.51800 40.02800
C  -6.91100 39.96900 40.02400
C  -8.27300 36.70700 38.28200
C  -6.97800 36.06100 37.77100
H  -6.19900 36.79200 36.73400
N  -11.95100 40.70400 41.27300
C  -10.93200 41.42200 40.75600
C  -11.22200 42.79500 40.68400
C  -12.60900 42.82000 41.02900
C  -13.05700 41.42700 41.45900
C  -10.34900 43.99100 40.22200
C  -13.51000 44.02900 40.96300
O  -13.01500 45.09700 40.64300
C  -14.95500 44.09800 41.38600
N  -13.92100 38.57400 42.20800
C  -14.68100 39.69400 42.24800
C  -16.13800 39.35400 42.55700
C  -16.09100 37.84500 42.78900
C  -14.64200 37.48200 42.58700
C  -16.70300 40.30600 43.67900
C  -17.03600 36.96600 41.89500
C  -17.56800 35.56700 42.50700
N  -11.83700 36.62300 42.07400
C  -12.78400 35.76500 42.53800
C  -12.25900 34.45900 42.73900
C  -10.89900 34.58300 42.29100
C  -10.76600 35.87000 41.77900
C  -13.01500 33.26500 43.52100
C  -9.60200 33.94000 42.20600
O  -9.27300 32.81200 42.46900
C  -8.64700 34.89900 41.36900
C  -7.38800 34.98900 42.11300
O  -6.61400 34.01200 42.14600
O  -7.18400 36.27200 42.59000
C  -6.05200 36.45100 43.50600
H  -9.12600 41.60600 39.85900
H  -15.10000 41.74100 42.06500
H  -14.73400 35.35500 43.01800
H  -7.20900 37.43100 40.21200
H  -8.20000 39.47100 38.31300
H  -7.10900 40.36000 41.02200
H  -6.71500 40.75100 39.29100
H  -5.98200 39.40000 40.02400
H  -8.60900 37.34100 37.46200
H  -8.90500 35.83400 38.44600
H  -7.24300 35.03100 37.53000
H  -6.27600 35.98000 38.60100
H  -10.76000 44.57100 39.39500
H  -9.36100 43.63200 39.93200
H  -10.00900 44.68400 40.99100
H  -15.30200 45.12300 41.25900
H  -15.00900 43.81900 42.43800
H  -15.49400 43.35100 40.80200
H  -16.58300 39.63500 41.60200
H  -16.47500 37.54200 43.76300
H  -17.20800 41.21900 43.36300
H  -15.88800 40.56300 44.35500
H  -17.36800 39.69400 44.28800
H  -16.34800 36.80200 41.06600
H  -17.81300 37.59800 41.46400
H  -18.65000 35.50000 42.39500
H  -17.27600 35.39900 43.54400
H  -17.30100 34.74400 41.84400
H  -12.35100 32.51100 43.94300
H  -13.74500 32.81500 42.84800
H  -13.45600 33.72800 44.40300
H  -8.48600 34.46700 40.38200
H  -5.26600 36.90300 42.90100
H  -5.63000 35.49100 43.80200
H  -6.30800 37.08000 44.35800

