158

Mg 25.81500 0.15000 29.41200
C  27.57800 0.14300 32.34600
C  22.88800 0.43000 31.16400
C  24.17600 0.03600 26.51500
C  28.85300 -0.47800 27.75000
N  25.37100 0.33100 31.46800
C  26.27400 0.43300 32.55700
C  25.57700 0.91700 33.89300
C  24.04300 0.98700 33.41200
C  24.08500 0.48000 31.96500
C  22.94000 0.29400 34.34700
C  26.14100 2.26100 34.43900
C  25.32800 2.81500 35.63800
H  26.03600 2.79300 36.98200
N  23.77100 0.23500 28.94800
C  22.68200 0.33500 29.74200
C  21.45600 0.40200 29.01600
C  21.88100 0.49600 27.68800
C  23.35500 0.21900 27.67200
C  20.07600 0.54800 29.53800
C  21.03800 0.80600 26.44700
O  21.45500 0.87100 25.25900
C  19.60300 1.06200 26.62100
N  26.44200 -0.30200 27.37000
C  25.51400 -0.20300 26.36300
C  26.28600 -0.34700 25.07100
C  27.75300 -0.25400 25.42900
C  27.69600 -0.44500 26.93600
C  25.83600 -1.66700 24.47200
C  28.33500 1.22000 24.95500
C  29.88700 1.28100 24.75700
N  27.74900 -0.32900 29.93300
C  28.85100 -0.54600 29.12600
C  30.03400 -0.75600 29.95200
C  29.57700 -0.48000 31.25300
C  28.22000 -0.13200 31.17000
C  31.36300 -1.16300 29.47600
C  29.91900 -0.33000 32.67100
O  30.93400 -0.60100 33.29600
C  28.66500 0.09200 33.38300
C  28.39700 -0.99300 34.33100
O  27.63300 -1.92400 34.11600
O  29.09700 -0.76800 35.46000
C  28.91200 -1.66700 36.60100
H  21.96400 0.60900 31.71800
H  23.68200 -0.05600 25.54500
H  29.81400 -0.51100 27.23300
H  25.51500 0.16700 34.68100
H  23.81900 2.05100 33.33200
H  22.30300 1.08500 34.74200
H  23.34400 -0.30000 35.16700
H  22.37200 -0.43400 33.76800
H  26.31400 2.91100 33.58100
H  27.13100 2.00300 34.81600
H  24.35900 2.32300 35.72500
H  25.09200 3.86100 35.44200
H  19.37900 -0.22600 29.22000
H  19.59500 1.50900 29.35400
H  20.16800 0.47000 30.62200
H  18.98800 1.13200 25.72500
H  19.55600 2.06300 27.05000
H  19.14400 0.27100 27.21500
H  25.93900 0.55500 24.56600
H  28.39100 -1.05300 25.05100
H  26.60500 -2.41900 24.30000
H  25.26400 -1.47400 23.56400
H  25.09600 -2.13200 25.12300
H  27.98400 2.06700 25.54400
H  27.85500 1.49000 24.01500
H  30.13300 1.32900 23.69700
H  30.39300 0.42400 25.20200
H  30.35700 2.13700 25.24200
H  31.65400 -2.20900 29.57700
H  32.07100 -0.69600 30.16100
H  31.62800 -0.81000 28.48000
H  28.74500 1.07800 33.84000
H  29.16400 -1.13700 37.52000
H  29.62500 -2.49200 36.60400
H  27.90600 -2.07800 36.67800
Mg 46.90200 34.87100 26.90400
C  45.73300 33.49000 29.85400
C  47.29200 37.81300 28.53700
C  47.41600 36.38000 23.87800
C  46.27700 31.80400 25.26900
N  46.66700 35.50900 28.95600
C  46.32700 34.74300 30.00800
C  46.69300 35.43900 31.34900
C  46.87500 36.93900 30.90400
C  46.96400 36.76000 29.33700
C  45.74700 37.97000 31.34400
C  47.97700 34.80700 31.89200
C  48.37800 35.23900 33.35100
H  47.40700 36.11900 34.20000
N  47.26100 36.86200 26.33400
C  47.47300 37.90200 27.13800
C  47.81500 39.09800 26.39400
C  47.82200 38.68900 25.03200
C  47.44900 37.27300 25.01500
C  48.19800 40.33200 27.14200
C  48.21700 39.46200 23.74700
O  48.12400 38.98400 22.63200
C  48.88400 40.79900 23.93300
N  46.98200 34.17100 24.96500
C  47.20700 34.96300 23.89500
C  47.33200 34.07300 22.61100
C  47.10300 32.64100 23.04200
C  46.81100 32.84600 24.51600
C  46.50900 34.52500 21.34500
C  48.21300 31.65300 22.65200
C  49.58600 31.86500 23.35100
N  46.00200 33.04600 27.36700
C  45.84400 31.86400 26.68100
C  45.37300 30.80500 27.52700
C  45.23900 31.37600 28.79500
C  45.67600 32.76200 28.66800
C  45.11100 29.44100 27.07400
C  44.86000 31.18100 30.18300
O  44.50400 30.13100 30.72800
C  44.95000 32.60700 30.87100
C  45.33500 32.51700 32.30200
O  46.14200 31.74800 32.66500
O  44.58800 33.33600 33.06200
C  44.71500 32.96000 34.47400
H  47.41600 38.79200 29.00400
H  47.64100 36.67700 22.85100
H  46.33100 30.82700 24.78500
H  45.90400 35.38800 32.09900
H  47.79700 37.36300 31.30200
H  46.33400 38.83100 31.66400
H  45.24400 37.58300 32.23000
H  45.00000 38.25000 30.60100
H  48.81600 35.10000 31.26100
H  47.85000 33.72500 31.86100
H  49.38200 35.66200 33.31400
H  48.42100 34.31100 33.92100
H  47.33900 40.69400 27.70700
H  48.51300 41.17100 26.52100
H  48.99700 39.92900 27.76400
H  49.35100 41.07300 22.98700
H  49.71400 40.74400 24.63800
H  48.10300 41.55200 24.03800
H  48.38100 34.11500 22.31700
H  46.15100 32.19700 22.75000
H  46.00800 33.65200 20.92700
H  47.11200 35.03600 20.59400
H  45.71500 35.20700 21.64900
H  48.37400 31.70800 21.57500
H  47.91800 30.61000 22.76800
H  50.35000 31.97800 22.58300
H  49.67200 31.02300 24.03800
H  49.42300 32.75000 23.96700
H  45.92100 29.23500 26.37400
H  44.14300 29.49900 26.57600
H  45.21900 28.75400 27.91200
H  43.91400 32.94800 30.85800
H  44.52400 31.89400 34.60000
H  43.89200 33.46800 34.97800
H  45.64600 33.32900 34.90300

