158

Mg 3.29900 -1.69200 43.70300
C  6.48700 -0.16700 43.35100
C  1.96600 1.27800 42.51800
C  0.34200 -3.12200 43.64200
C  4.79000 -4.50300 44.98600
N  4.19400 0.24900 42.82300
C  5.47700 0.70800 42.87900
C  5.57200 2.16000 42.38900
C  4.09400 2.56600 42.26400
C  3.37600 1.25300 42.54300
C  3.61100 3.56300 43.28000
C  6.37500 2.34400 41.07000
C  5.82900 1.62300 39.79600
H  6.58400 2.01000 38.51000
N  1.40500 -1.03500 42.99000
C  1.06900 0.21500 42.52800
C  -0.34300 0.19600 42.13600
C  -0.86100 -0.95900 42.69500
C  0.27800 -1.76500 43.18400
C  -1.06200 1.36000 41.38300
C  -2.41200 -1.25100 42.63200
O  -3.33100 -0.50200 42.18900
C  -2.91000 -2.66400 43.12200
N  2.64600 -3.51400 44.29600
C  1.38100 -3.92500 44.05400
C  1.17900 -5.43400 44.45600
C  2.64800 -5.89700 44.76700
C  3.41600 -4.56500 44.63300
C  0.16000 -5.58300 45.67900
C  3.18300 -7.13700 43.89400
C  2.92800 -8.57700 44.34000
N  5.13700 -2.23400 44.11800
C  5.63800 -3.42500 44.68600
C  7.01200 -3.29000 44.96400
C  7.43200 -2.07800 44.35800
C  6.27100 -1.47000 43.88800
C  7.80800 -4.30300 45.58200
C  8.56900 -1.30400 44.10300
O  9.75700 -1.47600 44.21400
C  7.99700 -0.00300 43.42400
C  8.45100 1.20200 44.26000
O  9.31300 1.95200 43.76900
O  7.88600 1.34900 45.52600
C  8.19300 2.61000 46.15700
H  1.54000 2.24200 42.23200
H  -0.51600 -3.78800 43.52300
H  5.11800 -5.44000 45.44000
H  6.03400 2.78100 43.15600
H  3.77500 2.91400 41.28200
H  4.44500 4.18900 43.59900
H  3.15300 3.02900 44.11200
H  2.87500 4.23300 42.83600
H  7.44000 2.17800 41.23100
H  6.54500 3.40200 40.86700
H  4.78300 1.87800 39.62600
H  5.88400 0.54300 39.93300
H  -2.10000 1.20900 41.08600
H  -0.46000 1.61400 40.51100
H  -1.13300 2.24000 42.02300
H  -2.51500 -2.90100 44.11000
H  -2.76900 -3.44900 42.37900
H  -3.96200 -2.54400 43.37900
H  0.77600 -6.09100 43.68500
H  2.80700 -6.27200 45.77800
H  -0.87600 -5.79000 45.40900
H  0.06500 -4.55700 46.03600
H  0.53900 -6.21100 46.48400
H  4.25100 -6.99100 43.73000
H  2.70700 -7.01500 42.92000
H  2.42600 -9.22700 43.62300
H  2.28500 -8.56100 45.22000
H  3.80400 -9.13400 44.67400
H  7.74900 -4.01000 46.63000
H  8.73700 -4.30700 45.01200
H  7.29300 -5.26400 45.58100
H  8.50000 0.18600 42.47600
H  8.08900 2.53900 47.23900
H  7.57600 3.34900 45.64700
H  9.18200 3.04900 46.02600
Mg -1.13800 33.87300 27.67900
C  -2.58200 32.18800 30.51600
C  0.66200 35.83100 29.89800
C  -0.43500 35.80300 25.11900
C  -3.48000 32.18000 25.58700
N  -0.95100 33.88500 29.98500
C  -1.65000 33.18900 30.98800
C  -1.24100 33.55000 32.43400
C  -0.14700 34.63500 32.09200
C  -0.12500 34.83600 30.56700
C  -0.39400 35.96700 32.88900
C  -0.68300 32.29200 33.12200
C  -1.16100 31.95600 34.50600
H  -0.23200 32.41700 35.67500
N  -0.03200 35.62200 27.53000
C  0.74800 36.26500 28.53900
C  1.51600 37.31400 27.82200
C  1.24200 37.31900 26.42500
C  0.21400 36.24100 26.33100
C  2.49400 38.16400 28.57800
C  1.81100 38.09100 25.26100
O  1.57700 37.95100 24.07400
C  2.93900 39.04300 25.52800
N  -2.07800 34.09400 25.71000
C  -1.48000 34.87900 24.82800
C  -1.73900 34.47300 23.37800
C  -2.61900 33.22900 23.44500
C  -2.75000 33.16900 25.00500
C  -2.29300 35.62200 22.58300
C  -2.09600 31.90900 22.87100
C  -1.15500 30.98200 23.73800
N  -2.62900 32.47600 27.93800
C  -3.50500 31.84900 26.96700
C  -4.36900 30.89700 27.72000
C  -4.02600 31.08100 29.05300
C  -2.96500 31.98400 29.18900
C  -5.49600 30.13500 27.16000
C  -4.38300 30.62100 30.38500
O  -5.15000 29.74400 30.72700
C  -3.43800 31.29000 31.34000
C  -4.26900 31.99700 32.31400
O  -4.48100 33.21900 32.29700
O  -4.66400 31.16800 33.33000
C  -5.43600 31.75300 34.39300
H  1.29700 36.45300 30.53300
H  -0.03000 36.14600 24.16500
H  -4.05100 31.57300 24.88100
H  -2.04800 33.98400 33.02400
H  0.85200 34.31600 32.39000
H  0.50200 36.42100 33.31200
H  -1.05100 35.70100 33.71700
H  -0.87900 36.61400 32.15800
H  0.39900 32.38900 33.21600
H  -0.75500 31.45700 32.42500
H  -1.13900 30.87300 34.63000
H  -2.09100 32.47900 34.73000
H  3.49600 37.93400 28.21500
H  2.49300 37.88100 29.63000
H  2.15600 39.19000 28.72000
H  3.21700 39.52500 24.59100
H  3.78100 38.43900 25.86600
H  2.56400 39.69200 26.32000
H  -0.81600 34.07000 22.96100
H  -3.58500 33.41300 22.97500
H  -1.63900 35.61600 21.71100
H  -2.29000 36.59500 23.07300
H  -3.30400 35.42200 22.22600
H  -1.43500 32.17700 22.04700
H  -2.85100 31.29900 22.37600
H  -0.97800 31.32600 24.75700
H  -0.17200 30.96700 23.26700
H  -1.61200 29.99400 23.79300
H  -6.41500 30.39200 27.68800
H  -5.39900 29.05000 27.16500
H  -5.65400 30.31800 26.09800
H  -2.81100 30.61100 31.91800
H  -6.28100 32.36600 34.08100
H  -4.77700 32.34500 35.02800
H  -5.94900 30.93900 34.90500

