158

Mg 8.78600 47.79600 26.65900
C  6.83300 47.44000 29.55200
C  11.51300 48.00700 28.82000
C  10.74600 47.98400 24.00600
C  5.91700 47.56000 24.74400
N  9.08000 47.81400 28.95600
C  8.14100 47.57600 29.95200
C  8.72100 47.64600 31.34000
C  10.22700 47.97100 31.07400
C  10.27600 47.92000 29.52900
C  10.78900 49.33700 31.74000
C  8.33900 46.48600 32.37400
C  9.40300 45.98800 33.40200
H  8.89200 45.49200 34.69500
N  10.84100 47.98100 26.46400
C  11.77300 48.02200 27.44700
C  13.11900 48.11100 26.86600
C  12.99200 48.17800 25.47000
C  11.49000 48.08400 25.25000
C  14.34500 48.12800 27.86100
C  13.99500 48.25200 24.33400
O  13.66700 48.56700 23.17100
C  15.46700 48.33700 24.77800
N  8.40900 47.86200 24.69900
C  9.36200 47.96400 23.76400
C  8.77600 48.15900 22.38500
C  7.27900 47.85500 22.59500
C  7.18300 47.73900 24.08400
C  9.16900 49.52300 21.55200
C  6.57200 46.72300 21.78400
C  5.70500 47.21000 20.59200
N  6.77700 47.68700 26.98900
C  5.73000 47.54500 26.10600
C  4.53900 47.43000 26.83700
C  4.90100 47.38600 28.19900
C  6.31400 47.54500 28.25100
C  3.09900 47.35600 26.28800
C  4.35500 47.20500 29.58800
O  3.19100 47.04700 29.96000
C  5.62400 47.24600 30.47600
C  5.55300 46.02000 31.30300
O  5.83800 44.89800 30.93600
O  5.14700 46.33500 32.53600
C  4.89000 45.23500 33.47900
H  12.33200 48.09800 29.53700
H  11.31400 48.14900 23.08800
H  4.95400 47.48600 24.23400
H  8.31800 48.54800 31.80200
H  10.96000 47.21200 31.34900
H  11.82700 49.14300 32.01100
H  10.22800 49.65200 32.62000
H  10.55300 50.04800 30.94800
H  8.13000 45.61300 31.75600
H  7.44300 46.81900 32.89800
H  10.16200 46.75100 33.56900
H  9.92300 45.15800 32.92300
H  15.14200 47.43000 27.60400
H  14.13800 47.78700 28.87500
H  14.76600 49.13000 27.77200
H  15.72000 47.38000 25.23500
H  15.49900 49.08400 25.57100
H  16.13000 48.48600 23.92600
H  9.22400 47.32700 21.84100
H  6.72400 48.78400 22.46400
H  9.13500 50.48600 22.06200
H  8.58600 49.56600 20.63200
H  10.21400 49.38700 21.27300
H  6.10200 46.05900 22.50900
H  7.35400 46.15300 21.28200
H  5.93300 48.24600 20.34400
H  4.63700 47.20900 20.81100
H  5.84900 46.53900 19.74500
H  2.54500 46.54700 26.76400
H  3.11700 47.18900 25.21100
H  2.51300 48.22200 26.59500
H  5.52000 47.99000 31.26600
H  3.82100 45.07700 33.62800
H  5.31100 45.29900 34.48200
H  5.49100 44.36400 33.21600
Mg -1.70500 34.44800 26.73200
C  -3.19200 32.58700 29.10400
C  -0.33900 36.44800 29.16600
C  -0.60600 36.61300 24.26000
C  -3.67700 32.89900 24.34700
N  -1.61600 34.38300 28.82400
C  -2.24800 33.45400 29.63400
C  -1.95300 33.65200 31.17000
C  -1.00600 34.91700 31.17600
C  -0.92300 35.28800 29.64200
C  -1.49100 36.13700 32.02100
C  -1.23600 32.36200 31.74800
C  -1.85700 31.73700 32.96600
H  -1.06900 31.88400 34.27600
N  -0.49100 36.23000 26.69700
C  -0.09000 36.87700 27.83700
C  0.67400 38.00600 27.43300
C  0.78900 37.96500 25.96300
C  -0.11500 36.90700 25.54900
C  1.16200 39.05800 28.40800
C  1.58400 38.82100 25.05300
O  1.51700 38.71700 23.81400
C  2.46300 39.86300 25.60200
N  -2.12600 34.76600 24.63700
C  -1.56700 35.70500 23.87400
C  -2.10200 35.56400 22.39200
C  -2.88100 34.25500 22.45300
C  -2.97200 34.01900 23.91500
C  -2.95300 36.81600 21.97300
C  -2.36100 33.05900 21.66200
C  -1.27600 32.09500 22.28600
N  -3.11800 32.94900 26.56900
C  -3.85500 32.41700 25.64900
C  -4.62600 31.30800 26.08500
C  -4.44300 31.36800 27.46600
C  -3.51400 32.37000 27.74200
C  -5.52300 30.45700 25.36300
C  -4.76100 30.80900 28.73200
O  -5.46900 29.81700 28.97100
C  -4.04500 31.68700 29.86300
C  -5.07400 32.29000 30.73100
O  -5.97800 33.08500 30.37100
O  -5.02800 31.73300 32.01600
C  -6.13300 32.13100 32.81000
H  0.25100 36.95800 29.93000
H  -0.34600 37.29000 23.44400
H  -4.23200 32.36800 23.57100
H  -2.90800 33.91400 31.62600
H  -0.01500 34.57900 31.47900
H  -1.74000 36.99700 31.40100
H  -0.60000 36.43800 32.57300
H  -2.23700 35.78900 32.73600
H  -0.20700 32.61100 32.00800
H  -1.24700 31.72100 30.86600
H  -1.91200 30.66100 32.80000
H  -2.79900 32.27200 33.08400
H  0.86400 40.07100 28.13800
H  2.24000 39.21000 28.46200
H  0.84800 38.94100 29.44600
H  3.17900 40.13700 24.82700
H  2.99100 39.51500 26.49000
H  1.69700 40.61200 25.80500
H  -1.18700 35.41800 21.81900
H  -3.91900 34.36800 22.13800
H  -2.34800 37.49900 21.37600
H  -3.21300 37.43100 22.83400
H  -3.81000 36.48000 21.38900
H  -1.90200 33.28800 20.70000
H  -3.20900 32.38700 21.53000
H  -1.58800 31.13700 22.70200
H  -0.66200 32.67300 22.97600
H  -0.52600 31.96300 21.50700
H  -5.79200 29.49200 25.79400
H  -5.20400 30.14100 24.37000
H  -6.46300 30.99000 25.21600
H  -3.40300 30.98700 30.39700
H  -5.94000 32.74800 33.68800
H  -6.37400 31.14600 33.20900
H  -7.06300 32.41400 32.31600

