158

Mg 6.41500 53.62600 41.19500
C  5.74700 50.12200 40.99000
C  9.57800 53.02000 40.17800
C  6.76100 56.95000 40.62900
C  2.98300 54.02800 41.86400
N  7.41300 51.65200 40.25600
C  7.08000 50.37100 40.49500
C  8.25200 49.41000 40.09800
C  9.49800 50.38400 40.25900
C  8.81200 51.78600 40.25800
C  10.42700 50.11400 41.45000
C  8.10300 48.78300 38.71900
C  7.98700 49.74900 37.45000
H  6.78900 49.63900 36.54300
N  7.90400 54.79500 40.23800
C  9.17200 54.35500 39.95900
C  10.03900 55.47400 39.68700
C  9.27500 56.64900 39.88200
C  7.91400 56.18800 40.19400
C  11.51200 55.23900 39.45000
C  9.77300 58.05500 39.80600
O  10.95200 58.35800 39.58300
C  8.87900 59.34900 40.07300
N  5.02300 55.24500 41.03400
C  5.53000 56.52300 41.07400
C  4.38300 57.51500 41.30100
C  3.16600 56.58900 41.52900
C  3.75000 55.18000 41.53400
C  4.72600 58.66000 42.30100
C  2.01500 56.79100 40.53100
C  1.21700 58.11300 40.81600
N  4.71100 52.42600 41.50300
C  3.40700 52.71800 41.84300
C  2.72000 51.54300 42.14800
C  3.61600 50.48900 42.00400
C  4.78600 51.10500 41.38300
C  1.32200 51.49000 42.57500
C  3.75700 49.09300 42.07000
O  3.01700 48.17800 42.40400
C  5.07800 48.80700 41.30500
C  4.72100 48.15000 40.04300
O  4.01600 48.67300 39.13500
O  5.42700 46.96300 39.91000
C  5.20300 46.10300 38.68200
H  10.63200 52.81300 39.98100
H  6.84700 58.03800 40.66500
H  1.93900 54.21600 42.12200
H  8.39900 48.64900 40.86400
H  10.06600 50.35400 39.32900
H  11.46000 49.85800 41.21300
H  10.10100 49.23100 42.00100
H  10.48600 50.96400 42.12900
H  7.17900 48.20600 38.73200
H  8.92900 48.09700 38.52900
H  8.78000 49.63400 36.71100
H  8.00500 50.74400 37.89500
H  11.75400 54.93300 38.43200
H  11.88600 54.40000 40.03600
H  12.10200 56.10800 39.73800
H  8.08400 59.35600 39.32700
H  9.47600 60.24900 39.92300
H  8.43300 59.26500 41.06400
H  4.13000 58.01300 40.36500
H  2.78400 56.63100 42.54900
H  4.06700 58.55000 43.16200
H  4.55400 59.67100 41.93300
H  5.78000 58.68100 42.58000
H  1.35800 55.92200 40.54800
H  2.38200 56.84200 39.50500
H  1.45500 58.86400 40.06300
H  1.54500 58.42700 41.80700
H  0.13700 57.98300 40.74300
H  1.36700 51.31900 43.65100
H  0.97600 50.60300 42.04500
H  0.84900 52.45700 42.40100
H  5.77600 48.12900 41.79700
H  6.20900 46.02000 38.27100
H  4.43800 46.45100 37.98700
H  4.99700 45.12500 39.11600
Mg 16.51500 51.81600 26.36900
C  18.41900 50.11100 28.73000
C  14.40200 52.75000 28.86300
C  14.88600 53.26900 24.09400
C  18.76100 50.46500 23.93800
N  16.50300 51.55100 28.50800
C  17.38300 50.84200 29.23900
C  17.26600 51.13500 30.74300
C  15.78800 51.54800 30.80100
C  15.53800 52.04900 29.33000
C  14.88900 50.27700 31.06700
C  18.20500 52.19800 31.29900
C  18.60700 52.01700 32.74700
H  17.44500 51.53300 33.69000
N  14.86700 52.92500 26.50600
C  14.10700 53.21800 27.58500
C  13.01500 54.06800 27.26500
C  13.23000 54.37400 25.88000
C  14.30500 53.50100 25.38300
C  12.04200 54.68200 28.18900
C  12.48400 55.32500 24.95200
O  12.79400 55.53100 23.74400
C  11.29400 56.12300 25.54900
N  16.68200 51.65600 24.20300
C  15.83600 52.46700 23.55400
C  16.22700 52.55800 22.00300
C  17.55100 51.68900 21.95100
C  17.72000 51.28600 23.43600
C  15.18000 52.15700 20.91600
C  18.79900 52.25800 21.16800
C  19.59400 53.39800 21.81000
N  18.15800 50.49000 26.28300
C  19.00900 50.05800 25.30700
C  20.20000 49.37500 25.82600
C  20.01800 49.37900 27.19800
C  18.74900 50.05100 27.41500
C  21.31800 48.71900 25.07400
C  20.50100 48.89100 28.46500
O  21.49500 48.15200 28.64100
C  19.50700 49.31600 29.52500
C  19.09300 48.18000 30.37700
O  18.15400 47.44000 30.16800
O  19.64100 48.35900 31.61200
C  19.12100 47.61900 32.72200
H  13.52200 52.85600 29.50100
H  14.52300 53.84100 23.23800
H  19.54700 50.14000 23.25400
H  17.38200 50.22600 31.33300
H  15.55800 52.31000 31.54700
H  14.14100 50.15600 30.28400
H  14.49200 50.37000 32.07800
H  15.43400 49.33500 31.11600
H  17.71500 53.16800 31.21900
H  19.14500 52.23100 30.74800
H  19.00700 52.92600 33.19800
H  19.33700 51.21200 32.82800
H  12.02100 54.29800 29.20900
H  10.99200 54.65200 27.89700
H  12.43800 55.68300 28.36300
H  10.36000 55.56200 25.58600
H  11.01000 56.82800 24.76700
H  11.63300 56.72500 26.39200
H  16.53100 53.59700 21.87000
H  17.24100 50.75600 21.47900
H  14.94000 53.02100 20.29600
H  14.32000 51.72600 21.42800
H  15.52400 51.37200 20.24300
H  18.37300 52.65300 20.24600
H  19.47200 51.43400 20.92800
H  19.12500 53.81800 22.70000
H  19.78000 54.11400 21.00900
H  20.54700 52.90900 22.01400
H  21.34400 47.65100 25.28700
H  22.27800 49.18000 25.30500
H  21.06700 48.76200 24.01400
H  19.95500 50.16000 30.04900
H  18.47100 46.79500 32.42700
H  18.63700 48.36500 33.35300
H  19.95700 47.15200 33.24200

