158

Mg 9.08300 3.15000 27.62200
C  9.92800 1.40400 30.59200
C  6.85600 5.03200 29.47500
C  8.01300 4.54500 24.75700
C  10.75400 0.68600 25.78900
N  8.64600 3.34000 29.79600
C  9.12500 2.52200 30.77900
C  8.61100 2.97400 32.13200
C  7.48300 4.06900 31.72900
C  7.67400 4.19000 30.23300
C  6.00600 3.69500 32.19100
C  9.69100 3.54700 33.10200
C  9.08000 4.37100 34.19200
H  9.61400 3.96300 35.57000
N  7.58100 4.56800 27.21500
C  6.79400 5.30900 28.08600
C  5.96700 6.28800 27.33000
C  6.38900 6.14400 25.93800
C  7.35500 5.02400 25.93300
C  4.99100 7.17400 28.00800
C  5.90400 6.91000 24.73100
O  6.18200 6.69100 23.57100
C  4.87400 7.86800 25.02900
N  9.30900 2.69300 25.55800
C  8.82600 3.43600 24.55500
C  9.20700 2.93600 23.11500
C  9.95900 1.62100 23.50900
C  10.03400 1.62200 25.05800
C  8.05600 2.61400 22.15800
C  11.35500 1.57000 22.84000
C  11.58300 0.53300 21.72200
N  10.16800 1.40700 28.03900
C  10.75600 0.49700 27.15300
C  11.30400 -0.53400 27.98800
C  11.13600 -0.11600 29.36500
C  10.35500 0.98200 29.32200
C  11.94400 -1.77400 27.50500
C  11.44100 -0.53100 30.67100
O  12.10200 -1.45000 31.03700
C  10.66100 0.47100 31.57800
C  9.78600 -0.38300 32.39800
O  8.65800 -0.82600 32.10000
O  10.38300 -0.49300 33.68100
C  9.53200 -1.10600 34.73300
H  6.22100 5.70700 30.05200
H  7.75700 5.07100 23.83400
H  11.07300 -0.06100 25.06000
H  8.21700 2.07700 32.61000
H  7.69100 5.04300 32.17200
H  6.10000 2.75900 32.74200
H  5.21600 3.50800 31.46300
H  5.52600 4.39100 32.87800
H  10.51200 3.96600 32.52000
H  10.12100 2.66100 33.56800
H  8.02800 4.13500 34.34700
H  9.33800 5.43000 34.16200
H  5.42200 8.17500 27.99000
H  4.90900 7.09500 29.09200
H  4.02300 7.16200 27.50800
H  3.97500 7.29200 25.25100
H  4.76100 8.44500 24.11100
H  5.29400 8.46100 25.84100
H  9.86500 3.72000 22.74100
H  9.26300 0.80100 23.33200
H  7.12000 2.73300 22.70400
H  8.14700 1.59500 21.78200
H  8.03700 3.28800 21.30100
H  12.10000 1.44100 23.62600
H  11.64500 2.54000 22.43800
H  10.65600 0.42000 21.16100
H  11.92200 -0.43200 22.10000
H  12.37500 0.94800 21.09800
H  12.29500 -2.42900 28.30200
H  12.89700 -1.44100 27.09300
H  11.42400 -2.39300 26.77400
H  11.16500 1.03800 32.36100
H  10.15300 -1.81900 35.27400
H  8.76300 -1.61000 34.14600
H  8.96400 -0.31900 35.22900
Mg 7.01300 53.42800 41.25200
C  6.50400 49.75500 41.11400
C  10.11900 52.81900 40.34700
C  7.01400 56.53500 40.44900
C  3.67100 53.52500 42.40400
N  8.20300 51.35500 40.75700
C  7.82900 50.07000 40.74600
C  9.06600 49.14400 40.59200
C  10.24400 50.18300 40.52100
C  9.53800 51.60600 40.59500
C  11.37900 49.90700 41.57000
C  9.05900 48.08800 39.44500
C  8.78900 48.66600 38.05800
H  7.69700 48.17900 37.11800
N  8.32600 54.50700 40.40000
C  9.59300 54.09400 40.19100
C  10.40800 55.21100 39.85700
C  9.52400 56.30600 39.72600
C  8.22600 55.80700 40.14900
C  11.90800 55.20200 39.71600
C  9.93000 57.73600 39.27100
O  11.09800 57.97000 38.99700
C  8.87000 58.89200 39.18400
N  5.50600 54.82300 41.46400
C  5.78900 56.08000 41.09800
C  4.64200 57.03900 41.58500
C  3.65700 56.13400 42.40700
C  4.27500 54.78100 42.04500
C  5.25900 58.31700 42.28900
C  2.10200 56.18500 42.20300
C  1.36800 57.49000 42.52700
N  5.41400 52.04600 41.67700
C  4.13600 52.24400 42.18400
C  3.44900 50.95500 42.35300
C  4.34100 49.98600 41.93500
C  5.53500 50.71400 41.54700
C  2.14300 50.76100 43.01600
C  4.46500 48.50000 41.79600
O  3.66100 47.58200 42.04600
C  5.88100 48.30600 41.18700
C  5.61900 47.55400 39.95400
O  5.34700 48.08400 38.91000
O  5.52600 46.14600 40.20100
C  4.83200 45.42600 39.13000
H  11.19900 52.66000 40.32900
H  7.06800 57.60000 40.21800
H  2.69100 53.66700 42.86500
H  9.24100 48.58300 41.51000
H  10.72100 50.02100 39.55400
H  12.28200 49.41800 41.20500
H  10.95800 49.27100 42.34800
H  11.55900 50.84200 42.10100
H  8.28800 47.33800 39.62300
H  9.95300 47.46500 39.44400
H  9.76200 48.60600 37.57200
H  8.59500 49.73500 38.14700
H  12.26600 56.22700 39.80800
H  12.08800 54.79600 38.72100
H  12.47900 54.55400 40.38100
H  7.95000 58.56500 38.69800
H  9.07800 59.82400 38.66000
H  8.69200 59.10700 40.23700
H  4.14700 57.33300 40.66000
H  3.78600 56.24300 43.48400
H  5.23500 59.17400 41.61600
H  6.31200 58.20300 42.54700
H  4.63700 58.53900 43.15600
H  1.67100 55.49100 42.92400
H  1.87100 55.86700 41.18600
H  0.89200 57.32900 43.49400
H  0.71800 57.81000 41.71200
H  2.01700 58.33500 42.75900
H  1.39400 50.80400 42.22500
H  1.92900 51.56700 43.71800
H  2.22900 49.80700 43.53500
H  6.56100 47.75000 41.83300
H  4.98000 45.82400 38.12600
H  3.75900 45.39800 39.31900
H  5.32700 44.45900 39.03700

