158

Mg 44.99900 5.30900 48.26000
C  43.00400 8.19100 47.36900
C  42.19200 3.41400 47.56900
C  47.02400 2.68000 47.98400
C  47.86500 7.42900 48.14000
N  42.78700 5.83900 47.50700
C  42.18200 7.04500 47.37000
C  40.63900 6.90300 46.98400
C  40.49200 5.31500 47.11000
C  41.88900 4.78900 47.48400
C  39.38200 4.98500 48.15500
C  40.36500 7.39400 45.56200
C  38.99000 8.00800 45.24600
H  38.21300 7.49400 44.01100
N  44.64800 3.31800 47.95100
C  43.43000 2.72500 47.60500
C  43.68800 1.32700 47.30100
C  45.09900 1.06700 47.35500
C  45.66300 2.41300 47.76300
C  42.53400 0.40400 46.92400
C  45.80200 -0.26900 47.04700
O  45.13300 -1.23400 46.71100
C  47.25300 -0.47600 47.15700
N  47.18300 5.10000 48.17000
C  47.71000 3.90100 48.25300
C  49.20600 3.91400 48.21200
C  49.48200 5.44100 48.20400
C  48.10100 6.08900 48.22600
C  49.84000 3.20000 49.38900
C  50.38900 6.05300 47.10600
C  51.50600 6.99300 47.58600
N  45.38700 7.41100 48.02200
C  46.62700 8.09800 48.06300
C  46.32700 9.50900 47.92300
C  44.95000 9.53300 47.62300
C  44.39700 8.23200 47.65500
C  47.26700 10.66000 48.05800
C  43.85600 10.50100 47.41000
O  43.78600 11.70600 47.32900
C  42.57900 9.58900 47.16900
C  41.51800 9.97200 48.17300
O  41.62900 10.00600 49.40400
O  40.30400 10.23200 47.51300
C  39.08200 10.38300 48.23900
H  41.29800 2.83500 47.33000
H  47.70700 1.83000 47.92000
H  48.67800 8.13200 47.94800
H  40.07600 7.43500 47.75100
H  40.08700 4.86900 46.20200
H  39.79000 4.21800 48.81300
H  38.50800 4.50700 47.71200
H  39.01900 5.81200 48.76500
H  40.49900 6.57000 44.86100
H  41.04800 8.16300 45.19900
H  39.02500 9.09700 45.23400
H  38.35500 7.70500 46.07800
H  42.74800 -0.40800 46.22800
H  41.66400 0.98400 46.61400
H  42.21900 0.07300 47.91300
H  47.69400 0.19300 46.41700
H  47.42700 -1.51300 46.87000
H  47.57600 -0.28100 48.17900
H  49.36000 3.47700 47.22500
H  49.87600 5.67200 49.19300
H  49.68100 2.12700 49.28000
H  49.43500 3.54300 50.34100
H  50.92200 3.32900 49.36300
H  49.84500 6.50100 46.27400
H  50.84700 5.26200 46.51200
H  51.47000 8.02000 47.22300
H  52.47300 6.52400 47.40600
H  51.52200 7.12100 48.66900
H  46.73300 11.49400 48.51300
H  47.58000 10.86800 47.03500
H  48.09800 10.31800 48.67500
H  42.15000 9.73800 46.17900
H  38.23500 10.29600 47.55900
H  39.05900 11.38200 48.67500
H  38.94000 9.72300 49.09500
Mg 35.90600 48.94800 25.31700
C  36.14400 47.23300 28.39600
C  34.42700 51.50200 26.91300
C  34.71200 50.03500 22.38400
C  37.01000 46.07000 23.59500
N  35.51400 49.38100 27.42100
C  35.69300 48.55900 28.52800
C  35.35900 49.25400 29.85900
C  34.75900 50.64100 29.33200
C  34.90900 50.50500 27.76200
C  33.29300 50.91100 29.69100
C  36.65700 49.40700 30.71000
C  36.51000 49.50200 32.26300
H  34.99800 49.48200 32.77700
N  34.98400 50.69300 24.71600
C  34.44200 51.65500 25.53100
C  33.80100 52.72900 24.75700
C  33.80800 52.20700 23.37500
C  34.51500 50.94800 23.42500
C  33.08900 53.86600 25.34800
C  33.13600 52.75200 22.14800
O  32.99000 52.16800 21.10500
C  32.50200 54.11100 22.23100
N  36.00100 48.20400 23.27400
C  35.36500 48.85300 22.31500
C  35.42100 48.06700 20.97900
C  36.24400 46.78800 21.38500
C  36.55500 47.08200 22.81300
C  34.10400 47.91800 20.17100
C  37.43300 46.59800 20.40500
C  38.77800 47.15800 20.81400
N  36.49000 47.01700 25.85500
C  36.89600 45.98000 25.04100
C  37.09200 44.85400 25.85300
C  36.85700 45.23600 27.19700
C  36.45900 46.59700 27.10300
C  37.51900 43.53600 25.39800
C  36.85900 44.83300 28.57500
O  37.07800 43.79600 29.16300
C  36.54400 46.15200 29.41900
C  35.48200 45.76900 30.32900
O  34.30200 45.76000 30.15800
O  35.99100 45.34100 31.57600
C  34.98500 45.21200 32.64000
H  34.04200 52.32500 27.51900
H  34.37700 50.42800 21.42100
H  37.19400 45.19600 22.96700
H  34.67100 48.57800 30.36500
H  35.38000 51.51300 29.53500
H  32.59200 51.17300 28.89800
H  33.24800 51.73700 30.40000
H  32.92700 50.02100 30.20300
H  37.12800 50.34100 30.40600
H  37.31700 48.56700 30.49000
H  36.91200 50.48700 32.49900
H  37.05900 48.64100 32.64500
H  33.73000 54.73800 25.21400
H  32.87700 53.75200 26.41100
H  32.10600 54.04100 24.91000
H  33.21900 54.79800 22.68000
H  31.54300 54.08100 22.74900
H  32.29800 54.44800 21.21500
H  35.99500 48.65000 20.25800
H  35.59000 45.91600 21.36700
H  33.92400 46.92300 19.76500
H  34.16300 48.57700 19.30500
H  33.23800 48.19100 20.77400
H  37.12300 46.97700 19.43100
H  37.56800 45.53200 20.22500
H  39.41900 46.39000 21.24600
H  38.61800 47.96900 21.52500
H  39.27000 47.69600 20.00300
H  38.54700 43.64500 25.05100
H  36.99000 43.03000 24.59200
H  37.62600 42.89400 26.27200
H  37.44200 46.36800 29.99900
H  35.69100 45.20000 33.47000
H  34.43400 44.27400 32.70800
H  34.25700 46.01900 32.56600

