158

Mg 35.45600 1.00300 29.17700
C  33.08000 2.18700 31.64800
C  37.91500 0.94600 31.71900
C  37.65100 -0.07100 26.91700
C  32.99800 1.56800 26.70100
N  35.42900 1.50200 31.40100
C  34.31900 1.94800 32.21400
C  34.68400 1.77900 33.72800
C  36.22800 1.51200 33.63100
C  36.55300 1.35400 32.17000
C  37.14900 2.62600 34.42300
C  33.86300 0.63500 34.40300
C  33.16700 0.87000 35.79300
H  33.66100 2.12800 36.62100
N  37.42400 0.47700 29.28900
C  38.27900 0.52300 30.41900
C  39.62100 0.11000 30.02500
C  39.57500 -0.24400 28.66500
C  38.15500 0.03600 28.24400
C  40.74000 -0.11900 31.03300
C  40.62000 -0.91300 27.75600
O  40.33100 -1.36700 26.60800
C  41.98600 -1.15200 28.33000
N  35.33300 0.92400 27.03900
C  36.34800 0.30700 26.34600
C  35.99300 0.10900 24.85600
C  34.51100 0.55300 24.83400
C  34.30100 1.10700 26.27300
C  37.00100 0.68900 23.90900
C  33.53700 -0.63600 24.49100
C  33.46100 -0.97900 23.00000
N  33.44700 1.80700 29.07200
C  32.62800 1.90200 28.03000
C  31.32800 2.39700 28.48800
C  31.45300 2.53100 29.90100
C  32.76200 2.14000 30.20600
C  30.07500 2.68700 27.66200
C  30.81100 2.89800 31.12300
O  29.68600 3.33000 31.39300
C  31.81900 2.65100 32.31300
C  31.93500 3.95000 33.00900
O  32.90600 4.60700 33.19100
O  30.79600 4.26300 33.74700
C  30.83800 5.48200 34.59100
H  38.71500 1.15800 32.43200
H  38.25400 -0.54900 26.14200
H  32.24900 1.62300 25.90800
H  34.49900 2.77000 34.14500
H  36.43400 0.56500 34.13000
H  36.58500 3.20000 35.15800
H  37.68600 3.28900 33.74500
H  37.94400 2.18200 35.02200
H  34.53300 -0.21300 34.54800
H  33.05600 0.38000 33.71600
H  33.16300 -0.03100 36.40700
H  32.10500 1.09500 35.70000
H  41.54000 0.58400 30.80100
H  41.09400 -1.14800 30.97200
H  40.45600 0.02100 32.07600
H  42.75200 -1.22100 27.55800
H  41.97800 -2.04000 28.96100
H  42.33700 -0.27100 28.86800
H  36.06600 -0.96300 24.67100
H  34.42100 1.36800 24.11600
H  37.53000 1.50700 24.40000
H  36.51500 1.26400 23.12100
H  37.57700 -0.12600 23.47400
H  32.51600 -0.33000 24.71900
H  33.68400 -1.53300 25.09200
H  34.35700 -0.65200 22.47200
H  32.53500 -0.64000 22.53600
H  33.52300 -2.06200 22.89400
H  29.63300 1.83800 27.14100
H  30.46400 3.45200 26.99100
H  29.32200 3.23900 28.22400
H  31.40700 1.89600 32.98200
H  29.92100 5.73200 35.12400
H  31.22300 6.31200 33.99800
H  31.55700 5.39500 35.40600
Mg 16.84800 51.96400 25.53300
C  18.72300 50.72100 28.29300
C  14.48600 52.98400 27.83800
C  15.41800 53.60700 23.09600
C  19.51300 50.91500 23.51800
N  16.66200 51.74600 27.84800
C  17.58100 51.35100 28.74400
C  17.15600 51.67300 30.18500
C  15.70900 52.22200 30.10700
C  15.56100 52.29100 28.48700
C  14.60100 51.22500 30.54500
C  18.15400 52.67500 30.84700
C  18.28300 52.51200 32.42100
H  17.16300 53.30200 33.18500
N  15.24300 53.16000 25.43600
C  14.36500 53.48300 26.48800
C  13.36700 54.35700 26.00700
C  13.66800 54.58600 24.65200
C  14.82300 53.74500 24.31200
C  12.25900 54.81900 26.99900
C  13.06000 55.52400 23.67700
O  13.44400 55.71700 22.52100
C  11.91500 56.42100 24.15600
N  17.36000 52.10600 23.58300
C  16.61500 52.90900 22.70400
C  17.14000 52.83000 21.22400
C  18.43300 51.97700 21.44100
C  18.50400 51.73300 22.96600
C  16.09900 52.31400 20.12500
C  19.70300 52.70600 20.89100
C  20.43900 52.10500 19.68800
N  18.64500 50.72400 25.72400
C  19.65700 50.37600 24.81200
C  20.69500 49.63600 25.45000
C  20.41300 49.86100 26.84000
C  19.13800 50.50500 26.92300
C  21.87000 49.06800 24.81100
C  20.88800 49.50600 28.16600
O  21.91600 48.96800 28.60000
C  19.85600 50.10800 29.11500
C  19.23200 49.03400 29.90100
O  18.45900 48.18100 29.53200
O  19.39000 49.32200 31.28900
C  18.62300 48.42500 32.19200
H  13.75200 53.32500 28.57100
H  15.05600 53.99700 22.14200
H  20.35600 50.78600 22.83600
H  17.21000 50.69000 30.65300
H  15.59900 53.24600 30.46400
H  14.08000 50.80200 29.68600
H  13.89400 51.60900 31.28000
H  15.06700 50.43200 31.12900
H  17.62900 53.60000 30.60800
H  19.10500 52.69700 30.31400
H  19.24100 52.97200 32.66700
H  18.10900 51.50000 32.78600
H  12.12500 54.10100 27.80800
H  11.26600 55.09300 26.64200
H  12.57600 55.67300 27.59700
H  12.30700 57.20000 24.81100
H  11.20100 55.79100 24.68600
H  11.32600 56.87500 23.35900
H  17.30500 53.82800 20.81600
H  18.32200 51.04600 20.88600
H  15.24800 51.85500 20.62800
H  16.50900 51.51000 19.51400
H  15.83200 53.23200 19.60000
H  20.40100 52.71000 21.72900
H  19.57900 53.76800 20.68100
H  19.89300 51.35800 19.11200
H  21.36400 51.61700 19.99500
H  20.76000 52.97800 19.11900
H  21.93200 49.42300 23.78200
H  21.82400 47.98500 24.69300
H  22.78300 49.27800 25.36700
H  20.24500 50.76200 29.89600
H  17.73700 48.08300 31.65900
H  18.31000 48.90400 33.12000
H  19.19300 47.56300 32.53900

