158

Mg 6.83100 54.14000 39.87500
C  6.30500 50.53200 39.61200
C  10.10700 53.49300 39.24700
C  7.10900 57.24600 39.56000
C  3.28600 54.43600 39.95100
N  8.07500 52.21600 39.24200
C  7.66700 50.92900 39.38400
C  8.85900 49.99100 39.23800
C  9.97700 50.94800 39.56000
C  9.38800 52.37600 39.31600
C  10.59400 50.77000 40.97800
C  9.07400 49.27100 37.93300
C  8.78300 50.05300 36.62400
H  7.63500 49.59500 35.66700
N  8.38300 55.24800 39.41200
C  9.70200 54.83300 39.19500
C  10.56000 55.93800 39.15700
C  9.73100 57.15000 39.17300
C  8.36800 56.60100 39.41900
C  12.01900 55.86700 38.66500
C  10.15400 58.65300 38.99000
O  11.37700 58.90100 39.00700
C  9.18500 59.79400 38.91800
N  5.33200 55.58500 39.52700
C  5.78300 56.86500 39.61800
C  4.60300 57.88900 39.67500
C  3.34100 56.97200 39.72800
C  3.99200 55.56400 39.68800
C  4.71700 58.79100 40.93100
C  2.21200 57.22900 38.65900
C  0.96900 57.85200 39.16000
N  5.11600 52.81100 39.78700
C  3.76000 53.09200 39.97000
C  3.00900 51.84500 40.31500
C  4.01700 50.82500 40.20400
C  5.26800 51.48300 39.80800
C  1.59800 51.66700 40.75100
C  4.21200 49.41500 40.33400
O  3.42300 48.53400 40.68300
C  5.75500 49.14900 39.90700
C  5.72300 48.11100 38.86900
O  5.68400 48.31500 37.68500
O  5.68700 46.85700 39.38600
C  5.82900 45.71400 38.53700
H  11.17800 53.27600 39.25200
H  7.09600 58.31500 39.34000
H  2.22400 54.51300 40.19300
H  8.73900 49.25100 40.03000
H  10.80100 50.92800 38.84700
H  10.01300 50.24200 41.73400
H  10.74400 51.77400 41.37400
H  11.55500 50.27300 40.84000
H  8.48600 48.35700 37.84600
H  10.02900 48.74700 37.96900
H  9.70600 50.09800 36.04700
H  8.58600 51.07100 36.96100
H  12.51600 54.95800 39.00500
H  12.61600 56.64100 39.14900
H  12.11100 55.93800 37.58200
H  8.50500 59.78800 39.76900
H  8.60200 59.73800 37.99900
H  9.90700 60.60500 38.81900
H  4.81500 58.48600 38.78800
H  2.93500 56.94300 40.73900
H  4.70600 59.75400 40.42000
H  5.62000 58.51100 41.47300
H  3.80700 58.67500 41.51900
H  1.91700 56.29000 38.19100
H  2.66300 57.85200 37.88600
H  0.21100 57.24800 38.66200
H  0.92500 58.84200 38.70600
H  0.89400 57.82900 40.24700
H  0.98100 51.53300 39.86300
H  1.20400 52.57500 41.20800
H  1.33800 50.78700 41.34000
H  6.27200 48.78600 40.79500
H  6.62500 45.07100 38.91300
H  6.23600 45.77700 37.52800
H  4.84100 45.25300 38.54500
Mg 0.90000 42.91000 26.30300
C  2.77300 43.29300 29.39000
C  -1.78900 41.98800 28.25700
C  -0.72800 42.43600 23.49900
C  3.75600 43.62400 24.53700
N  0.65000 42.59600 28.60400
C  1.48500 42.79400 29.67200
C  0.74400 42.86000 30.97400
C  -0.74200 42.24700 30.59300
C  -0.61100 42.27900 29.02800
C  -0.92300 40.78900 31.18500
C  0.72200 44.19900 31.72100
C  1.05000 44.20000 33.21400
H  0.64300 43.00600 34.05700
N  -1.01900 42.38700 25.92600
C  -2.02100 41.94000 26.86400
C  -3.08200 41.37200 26.17500
C  -2.84500 41.47600 24.75100
C  -1.46600 42.13100 24.63100
C  -4.27300 40.73800 26.90000
C  -3.81700 41.18300 23.58900
O  -3.45000 41.33400 22.42600
C  -5.20200 40.56700 23.73600
N  1.49000 43.00200 24.22600
C  0.59400 42.90500 23.24400
C  1.21500 43.11100 21.85500
C  2.60100 43.65900 22.20100
C  2.63200 43.52200 23.78900
C  1.20900 41.75300 21.03300
C  2.95000 45.06800 21.63400
C  3.92200 45.15100 20.39000
N  2.85900 43.33300 26.79700
C  3.93900 43.57300 25.96800
C  5.14200 43.84300 26.71300
C  4.71200 43.71600 28.07400
C  3.28600 43.44500 28.02300
C  6.50400 44.33400 26.15400
C  5.16700 43.76600 29.43300
O  6.31400 43.98600 29.90100
C  3.92800 43.41600 30.28200
C  4.18800 42.21600 31.04700
O  4.03100 41.04500 30.61700
O  4.65900 42.63900 32.32200
C  4.70500 41.59600 33.33500
H  -2.58600 41.58900 28.88900
H  -1.20500 42.22400 22.54000
H  4.65400 43.90700 23.98400
H  1.23300 42.16900 31.66200
H  -1.49800 42.92100 30.99600
H  -1.67100 40.95500 31.96000
H  0.05700 40.54200 31.59500
H  -1.27700 40.04700 30.47000
H  -0.23700 44.71100 31.64800
H  1.52700 44.82400 31.33400
H  0.40900 44.98800 33.60900
H  2.12400 44.36400 33.29500
H  -5.19200 40.72100 26.31500
H  -4.31600 40.92000 27.97400
H  -3.99000 39.68800 26.82400
H  -5.06500 39.61600 24.25200
H  -5.68800 40.29200 22.79900
H  -5.91500 41.10600 24.35900
H  0.57800 43.85300 21.37400
H  3.43000 43.05700 21.82900
H  0.44800 41.66000 20.25900
H  1.12400 40.85800 21.64900
H  2.22300 41.57400 20.67600
H  3.33200 45.67700 22.45400
H  2.01400 45.53900 21.33400
H  3.42200 45.55600 19.51000
H  4.52900 44.27800 20.14900
H  4.60500 45.99600 20.47000
H  6.33100 44.91200 25.24600
H  7.01400 43.44100 25.79200
H  7.08200 44.73000 26.98900
H  3.69100 44.26000 30.93000
H  5.72400 41.21800 33.25400
H  4.16200 40.68300 33.09200
H  4.46100 41.96900 34.33000

