158

Mg 47.21100 32.96000 25.52400
C  45.69800 31.98700 28.69100
C  47.73400 35.97600 27.02400
C  48.81300 33.74500 22.86300
C  46.46800 29.77700 24.33900
N  46.83400 33.81100 27.72500
C  46.35000 33.21300 28.85700
C  46.50600 34.09800 30.13700
C  46.95400 35.45800 29.42200
C  47.24300 35.10900 27.99400
C  46.01900 36.67700 29.61200
C  47.53100 33.50100 31.12500
C  47.12300 33.33000 32.56600
H  46.41600 34.38900 33.41600
N  48.04100 34.69800 24.99500
C  48.19900 35.85900 25.73500
C  48.94500 36.83100 24.96100
C  49.22100 36.25900 23.68300
C  48.71900 34.82500 23.78800
C  49.40800 38.21400 25.45100
C  49.90700 36.72700 22.48000
O  50.22400 36.06200 21.51200
C  50.44300 38.18700 22.43700
N  47.55300 31.89600 23.83100
C  48.32600 32.41600 22.86500
C  48.62300 31.39400 21.76400
C  47.88300 30.12400 22.20600
C  47.26300 30.58400 23.52900
C  48.06200 31.90300 20.35400
C  48.68500 28.82900 22.26700
C  49.65700 28.76500 21.04100
N  46.19900 31.26500 26.20700
C  45.87600 30.12100 25.57000
C  45.03000 29.23900 26.37000
C  44.96200 30.04000 27.53700
C  45.67500 31.20600 27.46200
C  44.40400 27.88300 25.95600
C  44.35300 29.98200 28.80600
O  43.61700 29.13200 29.23900
C  44.69900 31.31600 29.58300
C  45.07900 30.85300 30.97900
O  46.10300 30.37800 31.36600
O  43.97400 31.01400 31.81600
C  44.25400 30.86700 33.26400
H  47.95400 36.99500 27.34600
H  49.30300 33.92200 21.90300
H  46.37000 28.75300 23.97300
H  45.55600 34.07100 30.67000
H  47.83300 35.90800 29.88300
H  45.49400 36.97100 28.70400
H  46.63100 37.56800 29.74600
H  45.26200 36.61400 30.39400
H  48.41800 34.13400 31.14800
H  47.70700 32.50600 30.71600
H  48.02100 33.01000 33.09500
H  46.49700 32.43900 32.57800
H  50.49000 38.08700 25.46200
H  49.11300 38.38900 26.48600
H  49.13500 39.17300 25.01000
H  50.65300 38.48300 21.40900
H  51.32500 38.33100 23.06100
H  49.69000 38.84200 22.87500
H  49.70400 31.42200 21.62800
H  47.05300 29.88000 21.54300
H  47.92800 32.98500 20.38200
H  47.11700 31.48400 20.00900
H  48.83600 31.94100 19.58700
H  48.09400 27.91800 22.17400
H  49.24400 28.93600 23.19600
H  50.62900 29.11500 21.39000
H  49.36600 29.32500 20.15300
H  49.71700 27.70500 20.79100
H  44.26400 27.83000 24.87600
H  43.47500 27.64200 26.47300
H  45.13900 27.11700 26.20400
H  43.81900 31.93900 29.74100
H  43.52500 30.21100 33.74100
H  44.26000 31.87100 33.68600
H  45.20300 30.38300 33.49600
Mg 8.51100 48.98400 26.00800
C  6.23000 49.26200 28.68000
C  10.91100 50.34500 28.11000
C  10.64100 48.66800 23.55300
C  5.77400 48.42900 23.75800
N  8.50600 49.62700 28.12000
C  7.53400 49.58400 29.07500
C  8.11500 49.79400 30.50700
C  9.51800 50.38500 30.24100
C  9.62400 50.16500 28.69000
C  9.70800 51.81300 30.75100
C  8.09100 48.53700 31.34500
C  7.69500 48.68200 32.85300
H  7.83500 47.46200 33.77100
N  10.51000 49.47700 25.82200
C  11.32000 49.95000 26.83200
C  12.68200 49.93300 26.35600
C  12.66900 49.36600 24.99200
C  11.22200 49.17200 24.74800
C  13.83100 50.57500 27.07000
C  13.85900 49.15700 23.94700
O  13.63500 49.04900 22.73900
C  15.24900 49.22500 24.40300
N  8.22400 48.67300 23.91600
C  9.35700 48.50900 23.17600
C  8.98900 48.04400 21.74500
C  7.44700 47.93000 21.82600
C  7.08100 48.35300 23.24900
C  9.49200 48.89600 20.56500
C  6.88900 46.48200 21.47000
C  5.65300 46.36700 20.49500
N  6.40400 48.82500 26.14700
C  5.42000 48.68600 25.15000
C  4.10200 48.76500 25.77700
C  4.36500 48.98400 27.15200
C  5.80100 49.04000 27.37100
C  2.69300 48.52300 25.23800
C  3.75700 49.13300 28.41400
O  2.61400 49.13000 28.77800
C  4.89900 49.46800 29.43900
C  4.64200 48.74900 30.69100
O  4.87300 47.55500 30.86900
O  4.14700 49.62800 31.66500
C  3.78700 49.14200 33.00100
H  11.68400 50.66300 28.81200
H  11.33600 48.45900 22.73600
H  4.86200 48.26500 23.18000
H  7.53600 50.47900 31.12600
H  10.24800 49.74000 30.73000
H  8.85700 52.04000 31.39300
H  9.74500 52.59900 29.99600
H  10.72000 51.88400 31.15000
H  9.04200 48.01500 31.23800
H  7.50400 47.73100 30.90400
H  6.63000 48.90600 32.80600
H  8.21700 49.59500 33.14000
H  14.14900 51.30400 26.32500
H  14.68100 49.91700 27.24800
H  13.53500 51.01000 28.02500
H  15.94300 48.78500 23.68700
H  15.46500 48.63500 25.29400
H  15.56700 50.24600 24.61500
H  9.35400 47.03400 21.55600
H  6.90000 48.53300 21.10200
H  10.36400 49.49400 20.83200
H  8.79900 49.64400 20.18100
H  9.72100 48.44900 19.59800
H  6.71500 45.77000 22.27800
H  7.57500 45.78800 20.98400
H  6.10900 46.05600 19.55600
H  5.15600 47.32100 20.32300
H  5.02700 45.53100 20.81000
H  2.03400 49.39100 25.24500
H  2.06400 47.86600 25.83800
H  2.76000 48.19300 24.20100
H  4.86600 50.51300 29.74800
H  2.79800 49.57000 33.16600
H  4.39400 49.51200 33.82800
H  3.92000 48.07000 33.14700

