158

Mg 47.75500 44.37600 42.59400
C  44.32000 43.99200 42.73500
C  48.16200 40.91200 42.38700
C  50.86100 44.88200 41.20300
C  47.08800 47.83100 41.81000
N  46.38200 42.63400 42.60300
C  44.98600 42.79300 42.78900
C  44.34400 41.32100 42.92000
C  45.60400 40.37400 42.96900
C  46.77500 41.29500 42.67400
C  45.72200 39.63400 44.30900
C  43.32900 40.85300 41.79000
C  43.71000 41.33200 40.39900
H  43.44000 40.36600 39.24700
N  49.36000 43.06500 41.92700
C  49.32100 41.69900 42.05600
C  50.60600 41.14000 41.71700
C  51.43200 42.28200 41.22900
C  50.55500 43.49100 41.43600
C  50.95900 39.69800 41.64500
C  52.78100 42.11400 40.56200
O  53.33800 41.02500 40.55800
C  53.47200 43.37800 40.07200
N  48.92700 46.16500 41.75200
C  50.18100 46.05800 41.44900
C  50.78500 47.49300 41.28100
C  49.56400 48.40300 41.22400
C  48.47500 47.47400 41.59200
C  51.85400 48.00800 42.29100
C  49.33600 49.08600 39.86900
C  48.89900 50.60500 39.90800
N  46.14700 45.74600 42.57200
C  46.01800 47.06600 42.17700
C  44.64100 47.49400 42.32500
C  43.90600 46.34800 42.57200
C  44.89700 45.31300 42.53800
C  44.07300 48.83600 41.94200
C  42.52800 45.74600 42.75900
O  41.42900 46.31500 42.78200
C  42.82100 44.18800 43.01600
C  42.55500 43.84600 44.42300
O  42.80400 44.49400 45.39200
O  42.04900 42.52100 44.55100
C  42.02600 41.85500 45.80600
H  48.26900 39.83000 42.49400
H  51.90200 45.18300 41.06900
H  46.86000 48.89700 41.74900
H  43.85000 41.32300 43.89200
H  45.58000 39.67700 42.13100
H  44.89600 39.92100 44.96000
H  46.62300 39.87400 44.87300
H  45.77600 38.58000 44.03600
H  42.29200 41.08600 42.03400
H  43.44700 39.77100 41.73700
H  44.77300 41.56800 40.35400
H  43.11200 42.19600 40.10700
H  51.11500 39.43900 40.59800
H  50.12900 39.09600 42.01400
H  51.84300 39.42000 42.21900
H  52.82800 43.91300 39.37300
H  54.29600 43.11100 39.41000
H  53.84600 43.98500 40.89600
H  51.29400 47.42900 40.31900
H  49.63000 49.12900 42.03500
H  51.51500 47.58800 43.23800
H  51.96600 49.09000 42.36800
H  52.88900 47.74700 42.07500
H  48.48200 48.56900 39.43100
H  50.18700 48.86800 39.22300
H  49.46700 51.19500 39.18900
H  49.22700 50.97000 40.88100
H  47.82100 50.69100 39.77200
H  43.16400 49.06100 42.49900
H  43.70900 48.76500 40.91800
H  44.85000 49.56800 42.16800
H  42.21800 43.50000 42.42200
H  41.61900 42.35300 46.68600
H  43.08800 41.67000 45.96600
H  41.61400 40.84800 45.74600
Mg 6.93300 53.92500 40.24600
C  6.49900 50.50300 40.39800
C  10.08200 53.62800 39.13000
C  6.96400 57.27300 39.54800
C  3.29700 54.25100 40.88000
N  8.07800 52.32500 39.67700
C  7.77300 50.96000 39.96200
C  9.01400 50.08200 39.72500
C  10.20500 51.12200 39.77100
C  9.41800 52.43000 39.42000
C  10.99500 51.16400 41.11500
C  9.02800 49.10900 38.53300
C  8.97300 49.78700 37.09300
H  7.59800 49.86000 36.48300
N  8.29600 55.26200 39.40400
C  9.52600 54.90500 38.99000
C  10.12400 56.10100 38.44600
C  9.31700 57.21900 38.65200
C  8.11700 56.60400 39.24100
C  11.51200 55.99300 37.87100
C  9.69900 58.63200 38.41800
O  10.83800 58.92000 38.04600
C  8.72400 59.79200 38.63300
N  5.20100 55.46100 40.01000
C  5.72100 56.78300 39.99200
C  4.53200 57.69400 40.26600
C  3.39300 56.77000 40.58100
C  3.99700 55.42200 40.54200
C  4.79400 58.86700 41.31600
C  2.11800 56.95000 39.67800
C  0.83100 57.51000 40.36100
N  5.17700 52.68300 40.62800
C  3.85800 52.91900 41.04500
C  3.27800 51.65100 41.51600
C  4.29400 50.70000 41.22700
C  5.37900 51.35200 40.68000
C  1.94200 51.49600 41.94400
C  4.62800 49.26100 41.20500
O  3.99300 48.34100 41.62100
C  5.99500 49.11700 40.53000
C  5.74000 48.42200 39.26800
O  5.11000 48.89400 38.36000
O  6.08300 47.12000 39.34800
C  5.98200 46.26400 38.14700
H  11.17300 53.63500 39.17300
H  6.99000 58.36400 39.59100
H  2.22900 54.37500 41.06700
H  9.15800 49.40300 40.56500
H  10.83800 50.74700 38.96700
H  12.06900 51.08400 40.94500
H  10.73600 50.28400 41.70400
H  10.76900 52.02700 41.74200
H  8.19100 48.45000 38.76400
H  9.93300 48.50600 38.60000
H  9.71700 49.19700 36.55800
H  9.29400 50.82100 37.21300
H  11.83500 54.98800 37.59700
H  12.12100 56.37500 38.69000
H  11.61000 56.65600 37.01100
H  7.95500 59.57000 37.89300
H  9.02200 60.80800 38.37100
H  8.48000 59.79700 39.69500
H  4.41300 58.30600 39.37200
H  2.98400 56.92300 41.58000
H  5.73200 58.75200 41.86000
H  3.99100 58.81500 42.05100
H  4.76500 59.85300 40.85200
H  1.95800 56.00900 39.15200
H  2.35000 57.70500 38.92600
H  1.05100 57.97500 41.32200
H  0.08400 56.72200 40.45800
H  0.31700 58.30300 39.81700
H  1.30500 50.94300 41.25400
H  1.43800 52.44300 42.13700
H  2.02900 50.85100 42.81900
H  6.65600 48.56800 41.20100
H  6.72400 45.46600 38.18600
H  6.07400 46.81300 37.21000
H  4.98200 45.83100 38.17600

