158

Mg 23.99900 -5.13900 45.30900
C  25.86200 -2.55600 43.71100
C  21.24800 -4.30000 43.64300
C  22.58500 -8.20800 46.19800
C  27.05300 -6.25500 46.67000
N  23.70100 -3.75400 43.67700
C  24.47300 -2.74000 43.24500
C  23.77400 -1.88200 42.17400
C  22.27600 -2.24000 42.48800
C  22.37200 -3.44600 43.40200
C  21.46200 -1.13500 43.23000
C  24.26300 -2.15600 40.73700
C  24.64600 -1.03200 39.85800
H  24.09200 -1.15900 38.41900
N  22.04900 -6.02800 45.12900
C  21.11100 -5.50300 44.39500
C  19.94900 -6.41300 44.47200
C  20.27600 -7.52900 45.26000
C  21.70800 -7.31200 45.60700
C  18.66600 -6.12900 43.60600
C  19.37300 -8.72500 45.60100
O  18.21600 -8.68000 45.25400
C  19.87000 -9.82800 46.34700
N  24.70500 -6.94600 46.32600
C  23.93800 -8.02900 46.58100
C  24.76000 -9.24500 47.11700
C  26.08500 -8.51800 47.53600
C  25.97300 -7.12400 46.73900
C  24.18700 -10.01900 48.30400
C  27.41300 -9.31400 47.17000
C  28.44200 -9.48400 48.29800
N  26.02700 -4.41500 45.41400
C  27.14400 -5.03100 45.96600
C  28.25500 -4.14300 45.76600
C  27.75400 -3.18000 44.88600
C  26.41900 -3.40100 44.66500
C  29.66800 -4.19400 46.34600
C  28.16700 -2.10500 44.08900
O  29.30100 -1.64900 43.96700
C  26.89200 -1.60800 43.17200
C  26.56700 -0.27600 43.65200
O  26.00300 0.02000 44.69300
O  27.10900 0.61700 42.69600
C  26.85000 2.03700 42.99900
H  20.32500 -3.89300 43.22500
H  22.25800 -9.24000 46.33900
H  27.99300 -6.54400 47.14600
H  23.86700 -0.81000 42.35000
H  21.68800 -2.40600 41.58500
H  22.23000 -0.48700 43.65200
H  20.75300 -1.51900 43.96400
H  20.90100 -0.50800 42.53800
H  23.46100 -2.64100 40.18200
H  25.12100 -2.81700 40.86300
H  25.72800 -0.98700 39.98000
H  24.25600 -0.11000 40.29100
H  18.79700 -6.74400 42.71600
H  18.62000 -5.09000 43.28100
H  17.72500 -6.39600 44.08800
H  20.52800 -10.25900 45.59200
H  18.99500 -10.44300 46.55700
H  20.27800 -9.43700 47.27900
H  24.99400 -9.96100 46.33000
H  26.08000 -8.30700 48.60500
H  24.69300 -9.79300 49.24200
H  24.39200 -11.06300 48.06600
H  23.13800 -9.85200 48.55000
H  27.97700 -8.88400 46.34200
H  27.10200 -10.32600 46.91300
H  28.16000 -10.17000 49.09700
H  28.87700 -8.54400 48.63600
H  29.28200 -10.01500 47.85100
H  30.33200 -3.59400 45.72400
H  29.95300 -5.23400 46.50000
H  29.52900 -3.69100 47.30300
H  27.14600 -1.69200 42.11500
H  27.36000 2.51800 42.16500
H  27.35400 2.25700 43.94100
H  25.77500 2.21500 42.98700
Mg 34.57200 3.72500 29.22100
C  32.27800 4.51500 31.87600
C  37.20000 3.94800 31.50000
C  36.71400 3.23800 26.72100
C  31.92100 3.95200 27.03600
N  34.73100 4.23700 31.41500
C  33.57600 4.41900 32.33400
C  34.14300 4.59800 33.74700
C  35.73000 4.66800 33.46800
C  35.92900 4.27000 32.02300
C  36.51800 5.99000 33.86700
C  33.66100 3.47600 34.64400
C  33.62000 3.75600 36.20800
H  34.31700 4.95500 36.77700
N  36.69100 3.44600 29.14900
C  37.56400 3.59700 30.19200
C  38.92700 3.29300 29.69900
C  38.85400 3.19700 28.23900
C  37.40300 3.24800 27.95900
C  40.15100 3.21800 30.60900
C  39.88600 3.12000 27.18900
O  39.64600 3.04400 26.00200
C  41.33800 3.05900 27.56100
N  34.35000 3.68500 27.24600
C  35.36400 3.45800 26.41900
C  34.83400 3.29000 24.96000
C  33.33100 2.99500 25.14400
C  33.16000 3.58000 26.55600
C  35.10700 4.61500 24.21300
C  32.87100 1.53600 25.06400
C  31.80700 1.29000 24.02200
N  32.56100 4.12800 29.33900
C  31.59100 4.24400 28.37900
C  30.29100 4.52000 28.95900
C  30.49100 4.62100 30.33700
C  31.87100 4.37800 30.49600
C  28.96600 4.72700 28.25700
C  29.85600 4.87900 31.58100
O  28.69900 5.17400 31.88500
C  31.00000 4.68400 32.60900
C  30.97900 5.92300 33.44500
O  31.68000 6.88900 33.25700
O  30.18000 5.76100 34.54600
C  30.39300 6.70200 35.65500
H  38.08300 4.09800 32.12500
H  37.42400 2.87600 25.97400
H  31.00900 4.00600 26.43800
H  33.76500 5.49600 34.23600
H  36.27900 3.87400 33.97500
H  36.99500 6.40900 32.98100
H  37.31600 5.82100 34.59000
H  35.92000 6.76300 34.35100
H  34.23800 2.55800 34.52800
H  32.64400 3.31100 34.28900
H  34.05500 2.87600 36.68200
H  32.57300 3.90100 36.47600
H  40.71700 2.34300 30.29000
H  40.00500 3.02200 31.67200
H  40.66000 4.18200 30.61800
H  41.45400 2.37200 28.39900
H  41.61300 4.06200 27.88800
H  42.05600 2.79100 26.78600
H  35.31600 2.46100 24.44100
H  32.83200 3.56400 24.36000
H  35.38500 4.33300 23.19800
H  35.84900 5.21500 24.74100
H  34.20900 5.21900 24.08600
H  32.56700 1.19100 26.05200
H  33.67600 0.86600 24.76100
H  30.97500 0.66800 24.35200
H  32.32600 0.70300 23.26500
H  31.34300 2.20900 23.66200
H  28.43900 3.85200 28.63900
H  29.04100 4.71700 27.17000
H  28.48400 5.66900 28.51700
H  30.77200 3.89000 33.32000
H  31.14900 7.47900 35.54200
H  30.76600 6.11500 36.49400
H  29.46700 7.11300 36.05800

