158

Mg 46.66400 34.71700 27.81700
C  45.20400 32.74500 30.40700
C  46.66600 37.36200 30.06000
C  47.48000 36.71400 25.29800
C  45.98900 32.18500 25.50300
N  45.99800 34.98600 29.95300
C  45.75200 33.95100 30.85700
C  45.80400 34.50300 32.30700
C  45.94600 36.06000 32.07300
C  46.23400 36.17000 30.60900
C  44.76100 36.90700 32.58000
C  47.09100 33.92600 33.05100
C  47.03400 33.64500 34.55300
H  45.98800 34.57600 35.36700
N  47.21100 36.68000 27.71400
C  47.09900 37.65800 28.74900
C  47.60700 38.97400 28.24700
C  47.87100 38.68100 26.83900
C  47.52000 37.30800 26.54800
C  47.96000 40.13200 29.17000
C  48.42000 39.65400 25.78400
O  48.60200 39.40300 24.59800
C  48.75900 41.07200 26.28800
N  46.63400 34.52100 25.70300
C  47.00800 35.48800 24.86700
C  46.99100 35.00400 23.42800
C  46.75000 33.47400 23.50300
C  46.42900 33.36700 25.02400
C  45.82700 35.73700 22.69200
C  47.89600 32.57800 22.94200
C  49.19100 32.49000 23.85300
N  45.77300 32.83600 27.90200
C  45.62100 31.98600 26.83200
C  45.09400 30.72800 27.35700
C  44.79600 31.03100 28.77900
C  45.24800 32.34300 29.05600
C  44.80400 29.42700 26.67500
C  44.23600 30.50400 30.03300
O  43.71800 29.42900 30.21300
C  44.35000 31.68600 31.08800
C  44.74700 31.30400 32.47800
O  45.78400 30.84700 32.88700
O  43.62400 31.57600 33.28000
C  43.88000 31.44900 34.74300
H  46.64800 38.17100 30.79300
H  47.65800 37.35100 24.42800
H  45.85500 31.33500 24.83000
H  44.78900 34.32800 32.66300
H  46.82500 36.39300 32.62400
H  45.22900 37.78900 33.01800
H  44.08500 36.38700 33.26000
H  44.15700 37.20400 31.72300
H  47.91300 34.64000 32.99100
H  47.28300 32.96700 32.57100
H  48.00400 33.91800 34.96700
H  46.86000 32.61400 34.86200
H  48.91400 40.60400 28.93700
H  47.93300 39.75800 30.19400
H  47.19100 40.90300 29.11800
H  49.55100 41.17100 27.03100
H  47.85000 41.50300 26.70800
H  49.11700 41.69100 25.46600
H  47.88200 35.15800 22.81900
H  45.89200 33.23600 22.87400
H  45.78300 36.80800 22.89200
H  44.85300 35.34100 22.98000
H  46.06900 35.70400 21.63000
H  48.19600 32.95300 21.96300
H  47.41500 31.60500 22.84800
H  50.04700 32.54800 23.18000
H  49.28000 31.46700 24.22000
H  49.13600 33.37100 24.49100
H  43.75400 29.17500 26.81900
H  45.47000 28.68600 27.11900
H  45.03400 29.62400 25.62800
H  43.40200 32.19500 31.26400
H  43.39200 30.55100 35.12400
H  43.37100 32.33200 35.12900
H  44.88800 31.43500 35.15800
Mg -9.44100 18.39600 43.04500
C  -5.93000 18.10600 43.10200
C  -8.99000 21.73300 42.11500
C  -12.75000 18.56100 42.30700
C  -9.75300 14.89600 43.22900
N  -7.68000 19.75000 42.66000
C  -6.29400 19.43500 42.84700
C  -5.40500 20.56900 42.54300
C  -6.40600 21.81100 42.45100
C  -7.73700 21.07100 42.36100
C  -6.39500 22.93500 43.51800
C  -4.57700 20.39000 41.14300
C  -5.33200 19.88800 39.84700
H  -4.74100 20.07400 38.47100
N  -10.68200 19.98600 42.32800
C  -10.33000 21.21800 41.97200
C  -11.48200 21.96400 41.70700
C  -12.57200 21.11300 41.57400
C  -12.03000 19.80200 42.03200
C  -11.47600 23.38900 41.45400
C  -13.98600 21.41300 41.16900
O  -14.25900 22.59400 40.87000
C  -15.07300 20.39000 40.86300
N  -10.99900 16.82800 42.73800
C  -12.26900 17.24300 42.67200
C  -13.22600 16.10000 42.79700
C  -12.32100 14.91900 43.23200
C  -10.91200 15.56800 43.12100
C  -14.46700 16.33900 43.59700
C  -12.51200 13.60100 42.45800
C  -12.91000 12.39000 43.19800
N  -8.23000 16.87100 43.20900
C  -8.43600 15.49900 43.29500
C  -7.10700 14.88100 43.51200
C  -6.18300 15.89900 43.47900
C  -6.86100 17.08300 43.21700
C  -6.88000 13.44000 43.55400
C  -4.75100 16.11700 43.55000
O  -3.81400 15.27900 43.60700
C  -4.56000 17.58200 43.24800
C  -3.83200 18.12700 44.41200
O  -2.66200 18.44900 44.47500
O  -4.70300 18.36600 45.49400
C  -4.14100 19.16200 46.59700
H  -8.94100 22.81200 41.94900
H  -13.80300 18.76400 42.10000
H  -9.79500 13.82500 43.44100
H  -4.74400 20.67100 43.40400
H  -6.24600 22.32200 41.50200
H  -6.38600 23.92200 43.05600
H  -5.68100 22.69000 44.30500
H  -7.27300 22.93500 44.16300
H  -3.85800 19.59000 41.32200
H  -3.82200 21.14700 40.93500
H  -6.34100 20.29200 39.92700
H  -5.46500 18.80600 39.85100
H  -11.81300 23.47100 40.42100
H  -10.63100 24.03100 41.70500
H  -12.16500 23.87900 42.14100
H  -15.43000 19.92200 41.78000
H  -14.70900 19.65600 40.14500
H  -15.85600 20.95300 40.35500
H  -13.55500 15.92500 41.77200
H  -12.46900 14.70500 44.29000
H  -15.40100 16.23700 43.04400
H  -14.41800 17.36800 43.95500
H  -14.50400 15.78600 44.53500
H  -11.50000 13.30400 42.18200
H  -13.24000 13.59500 41.64700
H  -13.70700 11.86700 42.67000
H  -13.25200 12.70500 44.18400
H  -12.16000 11.62800 43.41000
H  -6.37200 13.33600 42.59500
H  -7.77700 12.83300 43.67500
H  -6.27400 13.34300 44.45500
H  -3.91800 17.70500 42.37600
H  -3.40700 18.53900 47.10800
H  -4.95700 19.28800 47.30800
H  -3.70300 20.10000 46.25700

