158

Mg 8.47400 3.29600 27.24400
C  9.97400 1.93200 30.03400
C  6.58100 5.37300 29.21600
C  7.37600 4.85300 24.51800
C  10.03200 0.87700 25.18400
N  8.06400 3.34200 29.46100
C  8.97200 2.90300 30.38400
C  8.69900 3.47600 31.79500
C  7.46800 4.42600 31.48700
C  7.36500 4.42300 29.95900
C  6.12800 3.97800 32.16000
C  9.94000 4.20400 32.47000
C  9.74400 4.79800 33.79300
H  10.74300 4.24200 34.93800
N  7.11700 4.92900 26.92100
C  6.49500 5.68600 27.86400
C  5.68100 6.67700 27.22400
C  6.09500 6.68200 25.81500
C  6.95300 5.46800 25.69400
C  4.78000 7.59600 27.97300
C  5.65700 7.59000 24.59800
O  5.92600 7.33700 23.44100
C  4.70300 8.74700 24.96400
N  8.49400 2.78700 25.14500
C  7.94800 3.62500 24.21100
C  7.92900 2.97600 22.75000
C  8.75000 1.65900 22.97400
C  9.13000 1.76800 24.52400
C  6.44900 2.81000 22.26500
C  10.07400 1.65500 22.26300
C  10.36300 0.42900 21.31700
N  9.67800 1.72600 27.50400
C  10.27000 0.83400 26.59300
C  11.25100 0.00100 27.24200
C  11.23300 0.44800 28.61900
C  10.21100 1.45300 28.68900
C  12.10000 -1.03000 26.56000
C  11.82300 0.30800 29.97200
O  12.67800 -0.50400 30.41300
C  11.00100 1.25000 30.89700
C  10.36000 0.45700 32.03300
O  9.57300 -0.41300 31.86800
O  10.91600 0.77900 33.29500
C  10.49600 0.00200 34.46600
H  6.09100 6.03500 29.93300
H  7.14900 5.34700 23.57100
H  10.60600 0.20500 24.54100
H  8.53400 2.54500 32.33700
H  7.65700 5.45600 31.78800
H  6.42900 3.30500 32.96200
H  5.53100 3.50800 31.37800
H  5.56100 4.86400 32.44500
H  10.42600 4.95000 31.84100
H  10.69600 3.41900 32.50800
H  8.73400 4.66200 34.18200
H  10.02800 5.84400 33.67800
H  5.14300 8.62400 27.99200
H  4.41500 7.23900 28.93600
H  3.87000 7.75800 27.39600
H  3.72300 8.45300 25.34200
H  4.47600 9.30700 24.05700
H  5.23800 9.38300 25.66800
H  8.43400 3.59500 22.00900
H  8.18400 0.74200 22.81300
H  6.47200 1.96700 21.57400
H  5.98900 3.68100 21.79600
H  5.94000 2.50700 23.18000
H  10.89600 1.89400 22.93700
H  10.17600 2.53600 21.62900
H  10.34000 0.64300 20.24800
H  9.65600 -0.35000 21.60300
H  11.32500 -0.01300 21.57800
H  12.90700 -0.72000 25.89600
H  11.45900 -1.74300 26.04200
H  12.56500 -1.68500 27.29800
H  11.78200 1.82200 31.39800
H  9.62900 -0.64400 34.32300
H  10.24800 0.71700 35.25000
H  11.35700 -0.53600 34.86200
Mg 36.22800 48.69600 24.21000
C  36.39400 46.88500 27.35800
C  34.78400 51.31900 25.85900
C  35.42100 49.94400 21.31400
C  37.23800 45.69300 22.71100
N  35.54700 48.98300 26.34900
C  35.82700 48.15400 27.44500
C  35.45500 48.97300 28.81600
C  34.85600 50.32400 28.30300
C  35.01900 50.21700 26.76800
C  33.36700 50.42200 28.67700
C  36.68600 49.25800 29.65100
C  36.69000 48.56700 30.95100
H  35.41800 48.58700 31.85300
N  35.34600 50.47800 23.66100
C  34.79400 51.41300 24.46700
C  34.39900 52.52200 23.65000
C  34.59200 52.17500 22.27500
C  35.17700 50.84900 22.34100
C  33.79900 53.78800 24.25300
C  34.12700 52.92300 21.03100
O  34.31400 52.44100 19.89800
C  33.53100 54.28500 21.06000
N  36.13600 47.86800 22.28300
C  35.89500 48.66600 21.17300
C  36.30600 48.00900 19.78600
C  37.24900 46.83300 20.37100
C  36.78800 46.72800 21.89500
C  35.04200 47.61100 18.98100
C  38.79600 47.17900 20.21000
C  39.39500 48.36300 20.92800
N  36.81700 46.73600 24.83200
C  37.26200 45.67100 24.10700
C  37.73100 44.62500 24.97200
C  37.34700 45.03900 26.27700
C  36.80100 46.29400 26.17500
C  38.34700 43.34400 24.56800
C  37.21900 44.62000 27.71000
O  37.62500 43.64500 28.31000
C  36.64600 45.84500 28.46700
C  35.50400 45.50100 29.35900
O  34.32700 45.45600 29.04300
O  36.05800 45.12000 30.57100
C  35.15900 44.54400 31.53600
H  34.49200 52.20100 26.43300
H  35.26900 50.39200 20.33000
H  37.71800 44.92500 22.10100
H  34.67700 48.49800 29.41400
H  35.21200 51.24600 28.76300
H  32.81200 50.10300 27.79500
H  33.10000 51.43100 28.99400
H  33.05100 49.75700 29.48000
H  36.86600 50.30800 29.88200
H  37.54600 48.81400 29.14800
H  37.55900 49.07500 31.37100
H  37.06100 47.54300 30.90800
H  32.78000 53.94700 23.90100
H  34.47900 54.60300 24.00700
H  33.65900 53.68300 25.32900
H  34.25200 55.08400 21.23500
H  32.64000 54.43200 21.67100
H  33.10100 54.37400 20.06300
H  36.94900 48.77100 19.34500
H  37.05400 45.91900 19.81000
H  34.20400 48.16600 19.40500
H  34.88600 46.54000 19.11200
H  35.24000 47.86900 17.94100
H  39.05300 47.12700 19.15200
H  39.29700 46.33200 20.67800
H  39.97800 48.89500 20.17700
H  40.01300 47.91000 21.70300
H  38.54500 48.90200 21.34700
H  39.07000 43.06200 25.33400
H  38.91300 43.46700 23.64500
H  37.50500 42.65200 24.59100
H  37.52700 46.20200 29.00000
H  35.55100 44.87500 32.49700
H  35.23100 43.45700 31.48700
H  34.15400 44.96500 31.52700

