158

Mg 47.11500 25.59600 28.13300
C  48.10800 27.67100 30.68200
C  46.05000 23.37700 30.37800
C  46.60700 23.38200 25.58100
C  49.13900 27.45400 25.95700
N  46.97300 25.59700 30.29900
C  47.40300 26.60100 31.16700
C  47.08500 26.24700 32.64100
C  46.46900 24.85300 32.54400
C  46.48300 24.55400 30.94800
C  47.21500 23.78300 33.44000
C  46.11000 27.23200 33.29600
C  46.41000 27.83500 34.61900
H  45.41400 27.74100 35.77600
N  46.17300 23.76200 28.00600
C  45.82900 22.96400 29.08200
C  45.30900 21.66400 28.57800
C  45.39300 21.73900 27.11900
C  46.09900 22.99000 26.84400
C  44.73500 20.56000 29.50700
C  44.82100 20.83900 26.11600
O  44.88300 20.96100 24.87400
C  44.06700 19.68700 26.58800
N  47.77600 25.45400 26.06600
C  47.35200 24.52600 25.18700
C  47.93700 24.71300 23.76400
C  48.60000 26.12100 23.91600
C  48.52400 26.37900 25.41500
C  48.86400 23.53400 23.39300
C  47.92800 27.29600 23.13300
C  48.77900 28.02600 22.08300
N  48.29800 27.22200 28.25900
C  49.12300 27.83000 27.31400
C  49.72500 29.06200 27.90100
C  49.37700 28.94700 29.23000
C  48.49800 27.84700 29.40600
C  50.65000 29.97000 27.21000
C  49.64500 29.55000 30.49300
O  50.40100 30.47300 30.75300
C  48.83800 28.73200 31.52400
C  49.80700 28.18200 32.49100
O  50.58800 27.22800 32.33600
O  49.70100 28.82700 33.71300
C  50.32100 28.15900 34.91800
H  45.82600 22.58700 31.09800
H  46.51700 22.61800 24.80600
H  49.64000 28.14100 25.27200
H  48.07000 26.36400 33.09400
H  45.40200 24.82000 32.76200
H  47.60700 24.36800 34.27100
H  48.07300 23.43400 32.86400
H  46.57800 22.99500 33.84200
H  45.10500 26.81300 33.33900
H  45.98200 28.09000 32.63600
H  46.70600 28.88300 34.57400
H  47.30900 27.38800 35.04300
H  43.64600 20.57500 29.49300
H  45.08800 20.64100 30.53500
H  45.00400 19.56600 29.15000
H  44.94800 19.10900 26.86700
H  43.52400 19.18500 25.78800
H  43.37200 19.86800 27.40800
H  47.06500 24.69700 23.11000
H  49.63300 26.12700 23.56800
H  49.15500 23.09500 24.34700
H  49.76700 23.78300 22.83400
H  48.38200 22.76600 22.78800
H  47.52300 28.00300 23.85800
H  47.10100 26.91800 22.53200
H  48.32600 27.90000 21.09900
H  49.80700 27.66400 22.07400
H  48.82600 29.10400 22.24000
H  50.06400 30.45200 26.42700
H  51.47100 29.46600 26.70100
H  51.02900 30.54500 28.05500
H  48.11800 29.41300 31.97700
H  50.67500 27.16000 34.66200
H  49.51400 28.08300 35.64800
H  50.99600 28.80500 35.47800
Mg -2.33400 33.97700 27.27300
C  -3.96200 32.05900 29.57000
C  -0.78300 35.68800 29.72200
C  -0.63700 35.72300 24.84900
C  -4.14300 32.42300 24.66800
N  -2.49700 33.97900 29.28000
C  -3.11100 33.03600 30.05400
C  -3.11800 33.26900 31.56600
C  -2.18500 34.55300 31.59900
C  -1.81900 34.81700 30.13000
C  -2.91500 35.75300 32.16200
C  -2.30900 31.98800 32.24000
C  -2.72600 31.46200 33.60500
H  -1.76600 31.89000 34.72100
N  -0.94400 35.54800 27.32700
C  -0.43200 36.13000 28.45800
C  0.64800 37.05800 28.09800
C  0.70200 37.08600 26.67100
C  -0.29800 36.09200 26.19100
C  1.55200 37.74000 29.12100
C  1.54800 37.94000 25.81500
O  1.43000 37.84600 24.61000
C  2.59400 38.92000 26.32100
N  -2.48500 34.12500 25.03200
C  -1.61300 34.92700 24.32200
C  -1.74100 34.71400 22.77800
C  -2.90100 33.62700 22.73700
C  -3.30100 33.44500 24.21300
C  -1.97600 36.01600 21.97700
C  -2.48400 32.27600 22.11000
C  -3.04000 31.92200 20.64000
N  -3.79500 32.58600 27.11100
C  -4.35700 31.98300 26.03400
C  -5.13300 30.84800 26.50100
C  -5.03800 30.77500 27.85500
C  -4.16100 31.86500 28.16600
C  -5.90400 29.79300 25.73800
C  -5.38400 30.06700 29.06400
O  -6.02100 29.04800 29.24200
C  -4.75100 30.91700 30.25700
C  -5.87600 31.44200 31.05500
O  -6.63000 32.35200 30.76000
O  -5.92900 30.64800 32.19200
C  -6.93000 30.98700 33.20900
H  -0.47300 36.32500 30.55300
H  0.04800 36.05200 24.06500
H  -4.69800 31.83800 23.93200
H  -4.13300 33.34100 31.95600
H  -1.26000 34.46900 32.16900
H  -3.99200 35.59600 32.22400
H  -2.82400 36.56700 31.44300
H  -2.48700 36.01300 33.13100
H  -1.26200 32.27600 32.33200
H  -2.40500 31.11800 31.59000
H  -2.70500 30.37300 33.64700
H  -3.74000 31.82700 33.76300
H  1.12500 37.53600 30.10300
H  1.42600 38.81400 28.98600
H  2.62300 37.57500 29.00300
H  3.02800 39.42600 25.45900
H  3.39000 38.32500 26.76900
H  2.24700 39.75400 26.93200
H  -0.84800 34.21700 22.40000
H  -3.75200 34.07100 22.22000
H  -1.79100 36.94000 22.52600
H  -3.00000 35.88700 21.62500
H  -1.19800 35.91300 21.22100
H  -2.93700 31.46000 22.67400
H  -1.40800 32.12300 22.19300
H  -3.56000 32.84500 20.38500
H  -3.58800 30.98100 20.68900
H  -2.20600 31.77100 19.95400
H  -5.35800 29.62700 24.80900
H  -6.86100 30.24000 25.46900
H  -6.00400 28.86900 26.30800
H  -4.16300 30.22800 30.86300
H  -6.60800 31.54000 34.09100
H  -7.22800 30.05700 33.69100
H  -7.79700 31.43900 32.72700

