158

Mg 16.61600 52.94900 25.90400
C  18.09300 51.50500 28.68700
C  14.22200 54.21300 28.10800
C  14.96000 54.03500 23.19600
C  19.10600 51.80300 23.90600
N  16.01500 52.57300 28.13900
C  16.93200 52.13600 29.05100
C  16.44300 52.38400 30.49000
C  15.02000 53.04600 30.19300
C  15.08500 53.33200 28.71700
C  13.80000 52.04100 30.55800
C  17.50100 53.31300 31.26500
C  17.57400 53.08300 32.84900
H  16.52400 52.16500 33.45100
N  14.80200 53.94900 25.73200
C  13.96100 54.38300 26.72600
C  12.87600 55.12600 26.10100
C  13.10300 55.00100 24.72500
C  14.28800 54.28100 24.51200
C  11.85100 55.96700 26.86000
C  12.20600 55.69100 23.56800
O  12.31900 55.51800 22.35000
C  11.05800 56.54800 23.94700
N  16.91600 52.72200 23.76800
C  16.15100 53.42600 22.89900
C  16.84300 53.70000 21.58700
C  18.17600 52.89000 21.74700
C  18.06100 52.36000 23.19100
C  16.03600 53.59900 20.26000
C  19.51000 53.69600 21.57800
C  20.74200 52.92600 20.94200
N  18.23500 51.76000 26.12800
C  19.20700 51.40800 25.26200
C  20.24900 50.73000 25.94400
C  19.87600 50.70300 27.30100
C  18.64200 51.39100 27.39300
C  21.51600 50.22500 25.31200
C  20.28300 50.24400 28.62500
O  21.18400 49.52600 29.01800
C  19.16900 50.81300 29.50900
C  18.49000 49.68300 30.26500
O  17.64500 48.90700 29.82500
O  19.06700 49.50000 31.47500
C  18.54500 48.40500 32.23400
H  13.57700 54.74600 28.81000
H  14.43700 54.32700 22.28300
H  19.99700 51.66900 23.28900
H  16.40100 51.45000 31.05000
H  14.96100 53.91300 30.85200
H  13.34400 51.69200 29.63200
H  13.05500 52.57000 31.15300
H  14.08800 51.14100 31.10100
H  17.28200 54.36300 31.06800
H  18.51300 53.23500 30.86700
H  17.50600 54.11100 33.20400
H  18.54900 52.71800 33.17100
H  11.88700 56.98500 26.47100
H  12.06000 55.87500 27.92600
H  10.81800 55.70200 26.63800
H  11.49100 57.34400 24.55300
H  10.26700 55.98400 24.44100
H  10.70700 56.97200 23.00600
H  17.01900 54.77400 21.65300
H  18.15700 51.98600 21.13900
H  15.16200 52.99800 20.51200
H  16.65200 53.15300 19.47800
H  15.74300 54.58800 19.90900
H  19.87100 54.17600 22.48800
H  19.39700 54.49500 20.84600
H  21.56100 53.04300 21.65100
H  20.84500 53.38200 19.95700
H  20.67300 51.86800 20.68900
H  21.97900 50.99000 24.68800
H  21.26700 49.45200 24.58600
H  22.15100 49.76300 26.06800
H  19.57700 51.49100 30.25800
H  17.46700 48.54200 32.30900
H  19.06200 48.23800 33.17900
H  18.74100 47.55400 31.58100
Mg -12.65400 38.89800 42.87600
C  -10.87400 35.92100 41.87600
C  -10.32800 40.72300 41.05800
C  -14.49800 41.56900 43.51600
C  -15.33100 36.76200 43.77500
N  -10.67200 38.33800 41.66000
C  -10.19400 37.07500 41.42400
C  -8.95600 37.20800 40.54300
C  -8.73800 38.72700 40.39400
C  -9.97400 39.31500 41.09700
C  -7.40900 39.21500 41.04400
C  -9.07500 36.64000 39.12800
C  -7.75000 36.15500 38.56100
H  -7.00300 36.95700 37.49000
N  -12.42100 40.83900 42.46500
C  -11.40300 41.40000 41.74500
C  -11.60400 42.81600 41.58900
C  -12.77000 43.12500 42.32200
C  -13.30400 41.85600 42.79500
C  -10.60400 43.66300 40.83800
C  -13.27300 44.52700 42.53500
O  -12.73600 45.49500 41.97200
C  -14.43000 44.67000 43.47500
N  -14.65700 39.09500 43.54300
C  -15.12800 40.34000 43.79000
C  -16.57800 40.23100 44.24100
C  -16.99100 38.72400 44.15100
C  -15.53000 38.14200 43.86300
C  -16.82100 40.79500 45.71100
C  -17.95900 38.33900 43.01300
C  -19.38300 38.68500 43.31300
N  -13.02100 36.70600 42.97900
C  -14.15900 36.11400 43.35400
C  -13.87600 34.63900 43.28900
C  -12.61300 34.54200 42.69200
C  -12.14600 35.87200 42.46600
C  -14.67000 33.39100 43.74100
C  -11.61700 33.63300 42.19200
O  -11.61800 32.41400 42.05800
C  -10.42300 34.49600 41.64900
C  -9.14200 34.13500 42.36400
O  -9.00900 34.25200 43.57800
O  -8.21500 33.74300 41.50000
C  -6.89000 33.72300 42.11500
H  -9.69200 41.29000 40.37400
H  -15.04200 42.45500 43.84800
H  -16.23000 36.14900 43.86300
H  -8.07400 36.77600 41.01500
H  -8.65300 39.06800 39.36200
H  -6.94800 38.50600 41.73100
H  -7.64300 40.07900 41.66600
H  -6.61900 39.49600 40.34800
H  -9.08900 37.38300 38.33100
H  -9.86000 35.89100 39.02300
H  -7.87300 35.11600 38.25400
H  -6.99300 36.13500 39.34400
H  -10.71400 44.73000 41.03000
H  -10.65100 43.49300 39.76200
H  -9.59600 43.49800 41.22000
H  -14.19000 44.38100 44.49800
H  -15.35600 44.26000 43.07300
H  -14.42800 45.76000 43.44500
H  -17.08900 40.82000 43.48000
H  -17.26900 38.30000 45.11600
H  -17.61500 41.53900 45.64500
H  -15.91700 41.23100 46.13600
H  -17.26400 40.06000 46.38300
H  -17.86100 37.26200 42.87300
H  -17.64600 38.89800 42.13100
H  -19.93500 37.75500 43.44400
H  -19.82200 39.30200 42.52900
H  -19.53500 39.34500 44.16700
H  -15.12400 32.90400 42.87800
H  -15.46700 33.71000 44.41200
H  -13.95100 32.72700 44.22100
H  -10.28600 34.36700 40.57500
H  -6.78200 32.99900 42.92300
H  -6.75300 34.71500 42.54600
H  -6.18000 33.51200 41.31500

