158

Mg 35.52500 48.05300 25.11500
C  36.07500 46.01100 27.93800
C  33.93100 50.32400 27.01700
C  34.87900 49.66700 22.21200
C  36.90500 45.34800 23.17000
N  35.20600 48.21500 27.32800
C  35.59300 47.29700 28.33000
C  35.15200 47.90400 29.68100
C  34.30300 49.17900 29.35000
C  34.43300 49.22600 27.82600
C  32.84500 49.04900 29.88100
C  36.35500 48.13000 30.65600
C  36.00400 48.12600 32.17400
H  34.57600 47.91900 32.66400
N  34.65900 49.83400 24.71900
C  34.06800 50.62800 25.61400
C  33.72900 51.87300 24.95800
C  33.93900 51.70500 23.54500
C  34.52700 50.33700 23.44300
C  33.26700 53.06400 25.69600
C  33.67800 52.56200 22.38800
O  33.75100 52.13700 21.23200
C  33.24300 53.90800 22.62500
N  35.74300 47.50700 22.97700
C  35.48200 48.45400 22.03000
C  35.98500 47.96900 20.62500
C  36.55700 46.47600 20.92100
C  36.42400 46.39800 22.45500
C  34.87700 48.03200 19.54000
C  38.05700 46.38700 20.46300
C  38.98900 47.48800 21.16700
N  36.29000 46.09500 25.45200
C  36.82400 45.17300 24.54700
C  37.28700 44.03700 25.36200
C  36.93200 44.29800 26.68800
C  36.43700 45.56000 26.66000
C  37.95100 42.75100 24.87500
C  36.84900 43.65600 27.98500
O  37.24000 42.59100 28.36900
C  36.38500 44.82800 28.89400
C  35.23200 44.34500 29.67600
O  34.14400 44.04100 29.23700
O  35.59500 44.41800 31.03600
C  34.43100 43.95100 31.91300
H  33.32900 51.06100 27.55100
H  34.76600 50.24000 21.28900
H  37.49000 44.62900 22.59200
H  34.46300 47.19700 30.14300
H  34.68400 50.14800 29.67000
H  32.65800 49.79200 30.65600
H  32.65000 48.04800 30.26700
H  32.17100 49.27600 29.05500
H  36.89500 48.97600 30.23200
H  37.12600 47.36300 30.58000
H  36.45800 48.99400 32.65200
H  36.43800 47.24100 32.63900
H  32.18500 53.02500 25.57600
H  33.69700 53.98200 25.29300
H  33.43200 53.09300 26.77300
H  34.15000 54.42700 22.93200
H  32.34300 53.90000 23.24000
H  32.86600 54.37000 21.71200
H  36.80000 48.61500 20.29800
H  36.00800 45.69600 20.39400
H  34.08100 48.66100 19.94000
H  34.43600 47.05100 19.35800
H  35.15100 48.50000 18.59500
H  38.00600 46.65500 19.40800
H  38.40200 45.35300 20.45700
H  38.44700 47.96100 21.98600
H  39.35900 48.22300 20.45200
H  39.81900 46.98700 21.66700
H  38.42500 43.03600 23.93500
H  37.11400 42.07400 24.70400
H  38.68500 42.20900 25.47300
H  37.25700 45.17700 29.44700
H  34.55500 42.88600 32.11000
H  33.45000 44.37300 31.69500
H  34.76300 44.49500 32.79800
Mg 0.36400 43.89000 26.16800
C  2.34200 43.91300 29.18500
C  -2.34400 43.46300 28.14800
C  -1.46200 43.24500 23.36300
C  3.29500 43.77300 24.39800
N  0.04700 43.75300 28.44700
C  1.00900 43.79800 29.46000
C  0.25800 43.74800 30.85000
C  -1.22700 43.32400 30.53500
C  -1.15400 43.54200 28.97600
C  -1.69300 41.91400 30.84900
C  0.46200 45.03300 31.72400
C  0.75400 44.90900 33.20000
H  0.39200 43.60800 33.89400
N  -1.64200 43.70000 25.84500
C  -2.60800 43.55600 26.81600
C  -3.91600 43.51400 26.26200
C  -3.65800 43.42000 24.90000
C  -2.21100 43.49300 24.64100
C  -5.22000 43.55900 27.12000
C  -4.71200 43.36400 23.81800
O  -4.37600 43.37100 22.60900
C  -6.12900 43.46000 24.10200
N  0.79200 43.35300 24.19200
C  -0.07600 43.19100 23.16200
C  0.62400 43.18200 21.80100
C  2.15500 43.44700 22.14500
C  2.11800 43.57700 23.69600
C  0.36100 41.79300 21.12800
C  2.81400 44.61600 21.46100
C  2.43600 46.00300 21.95300
N  2.37800 43.85300 26.63100
C  3.48600 43.82800 25.77400
C  4.74100 43.87400 26.49500
C  4.32000 44.01000 27.86900
C  2.87700 43.89300 27.86300
C  6.20400 43.89900 25.86700
C  4.79800 44.23400 29.28100
O  5.95000 44.33700 29.67800
C  3.50800 43.99600 30.14800
C  3.73100 42.79900 31.03200
O  4.04300 41.70600 30.62400
O  3.75000 43.17700 32.32200
C  4.19400 42.25000 33.34100
H  -3.11600 43.24900 28.89000
H  -2.05300 43.07700 22.46100
H  4.28500 43.72600 23.94000
H  0.72500 42.91400 31.37400
H  -1.91200 43.96600 31.08900
H  -2.57500 41.85900 31.48700
H  -0.95200 41.47800 31.51800
H  -1.77600 41.32600 29.93500
H  -0.34800 45.75400 31.61400
H  1.25700 45.60000 31.23900
H  0.18900 45.67800 33.72800
H  1.80100 45.20500 33.26200
H  -5.69900 42.58300 27.19900
H  -5.93600 44.26800 26.70500
H  -5.05700 44.00200 28.10200
H  -6.37800 42.55900 24.66200
H  -6.41700 43.70300 23.07900
H  -6.28600 44.40200 24.62800
H  0.25200 44.03400 21.23100
H  2.72700 42.59700 21.77300
H  1.31500 41.32000 20.89300
H  -0.10800 41.96600 20.15900
H  -0.15000 41.11500 21.81100
H  2.48100 44.52000 20.42700
H  3.89200 44.45900 21.42300
H  2.18200 46.71400 21.16700
H  3.34900 46.53600 22.22100
H  1.67300 46.00700 22.73100
H  6.91200 44.42700 26.50700
H  6.10300 44.26600 24.84600
H  6.50300 42.85300 25.92600
H  3.46800 44.80900 30.87300
H  3.39300 41.52800 33.49700
H  4.32100 42.85700 34.23800
H  5.17100 41.93100 32.97800

