158

Mg 26.25800 0.25500 29.57500
C  28.30100 -0.01000 32.32600
C  23.60700 0.78000 31.67200
C  24.15400 -0.07000 26.95500
C  28.92100 -1.06400 27.65400
N  26.02400 0.47000 31.74000
C  26.96700 0.32400 32.70700
C  26.44200 0.48600 34.12000
C  24.89900 0.71300 33.85800
C  24.83500 0.64900 32.31300
C  23.87600 -0.11400 34.60900
C  26.98800 1.57200 35.06500
C  27.31600 1.19200 36.58500
H  27.10800 2.23500 37.62500
N  24.20800 0.48100 29.30500
C  23.31800 0.75800 30.30000
C  21.95600 0.73400 29.68600
C  22.09200 0.50800 28.26100
C  23.52800 0.26300 28.12500
C  20.74500 1.18700 30.43600
C  21.04500 0.60800 27.19300
O  21.31100 0.32100 26.05800
C  19.61700 1.01200 27.60300
N  26.47100 -0.60400 27.60700
C  25.47900 -0.43400 26.69700
C  25.99100 -0.82500 25.26200
C  27.50300 -1.11800 25.44900
C  27.64200 -0.94400 26.99400
C  25.19400 -2.09200 24.67600
C  28.39400 -0.08100 24.77300
C  28.99300 -0.53600 23.47200
N  28.25000 -0.41200 29.89800
C  29.20500 -0.88600 29.01500
C  30.49000 -1.02400 29.75700
C  30.16000 -0.68500 31.08000
C  28.80800 -0.37000 31.10000
C  31.79100 -1.52000 29.20700
C  30.67100 -0.51300 32.41900
O  31.77500 -0.64500 32.88600
C  29.46400 -0.08200 33.30200
C  29.37100 -1.25600 34.22600
O  28.82700 -2.29900 34.00400
O  30.03400 -0.93600 35.39400
C  30.02400 -1.97400 36.47300
H  22.79500 1.01800 32.36200
H  23.37800 -0.05600 26.18700
H  29.74900 -1.36300 27.00700
H  26.58200 -0.44100 34.67500
H  24.61800 1.72500 34.15100
H  23.92800 0.18300 35.65700
H  24.22500 -1.14400 34.52800
H  22.84800 0.00900 34.26900
H  26.33500 2.44300 35.02200
H  27.86400 2.08600 34.67000
H  28.39800 1.07100 36.61900
H  26.94000 0.21400 36.88600
H  20.48000 2.12700 29.95300
H  20.77500 1.45300 31.49300
H  19.90700 0.48900 30.42500
H  19.23100 0.11300 28.08400
H  18.98800 1.17200 26.72700
H  19.64400 1.94100 28.17100
H  25.81000 0.08800 24.69500
H  27.65200 -2.17400 25.22700
H  25.17500 -2.11100 23.58600
H  24.16400 -2.22600 25.00600
H  25.81800 -2.97500 24.81100
H  29.12700 0.38600 25.43000
H  27.76100 0.74600 24.45200
H  30.05500 -0.29400 23.50200
H  28.52500 0.08200 22.70500
H  28.93200 -1.55800 23.10100
H  31.89700 -2.59200 29.04500
H  32.52400 -1.15600 29.92700
H  31.99600 -0.98100 28.28100
H  29.71200 0.76100 33.94700
H  31.07400 -2.06100 36.74800
H  29.56800 -2.90400 36.13200
H  29.57700 -1.62700 37.40500
Mg 16.85700 52.71500 26.83400
C  18.74300 51.31900 29.14100
C  14.51900 53.79200 29.25500
C  15.08000 54.28400 24.40200
C  18.94400 51.45600 24.33900
N  16.60600 52.55200 29.00200
C  17.55000 51.97700 29.70600
C  17.29600 52.20700 31.24500
C  15.80200 52.59300 31.17700
C  15.60100 53.07300 29.72000
C  14.90900 51.36000 31.52400
C  18.23800 53.27700 31.87800
C  18.60200 52.93100 33.31600
H  17.63900 52.11900 34.14800
N  15.04500 53.80800 26.88400
C  14.28000 54.23900 27.95400
C  13.07300 54.94800 27.42500
C  13.26400 55.14300 26.01300
C  14.51900 54.35600 25.73100
C  12.04000 55.44900 28.31300
C  12.35600 55.86400 24.98500
O  12.51800 55.83400 23.74200
C  11.15400 56.67800 25.47600
N  16.95100 52.74600 24.61300
C  16.18600 53.54500 23.90300
C  16.61300 53.48100 22.42000
C  17.68400 52.48300 22.35400
C  17.86900 52.15600 23.88300
C  15.43300 53.31300 21.37300
C  18.94000 53.02500 21.56300
C  19.91100 53.98500 22.28000
N  18.53500 51.52900 26.68700
C  19.31100 51.14300 25.70300
C  20.45600 50.43300 26.17600
C  20.24900 50.43500 27.55300
C  19.09600 51.09300 27.81400
C  21.49600 49.82600 25.34100
C  20.77800 49.97300 28.78500
O  21.61500 49.07600 29.00600
C  19.85500 50.67000 29.91100
C  19.46800 49.58700 30.81600
O  18.48800 48.81400 30.68700
O  20.24700 49.59400 31.90300
C  20.10400 48.59400 32.92300
H  13.80400 53.91700 30.07000
H  14.68200 54.89500 23.58900
H  19.69000 51.18500 23.58900
H  17.40700 51.26400 31.78000
H  15.44300 53.50100 31.66200
H  15.56000 50.49300 31.63700
H  14.10700 51.20500 30.80200
H  14.38000 51.52400 32.46300
H  17.85100 54.29500 31.83400
H  19.12200 53.26900 31.24100
H  18.60600 53.89400 33.82600
H  19.60700 52.50900 33.28800
H  11.13800 55.07900 27.82500
H  11.99200 56.53700 28.30300
H  11.97900 55.06300 29.33000
H  10.38800 55.94000 25.71500
H  10.60900 57.11800 24.64100
H  11.38400 57.42100 26.24000
H  16.99800 54.49500 22.30900
H  17.37700 51.56400 21.85500
H  15.53700 52.49200 20.66300
H  15.22100 54.22400 20.81500
H  14.53600 53.11400 21.95900
H  18.45900 53.66300 20.82200
H  19.47700 52.20400 21.08800
H  20.86700 53.46700 22.35600
H  19.49600 54.05900 23.28500
H  20.07300 54.93000 21.76200
H  22.29000 49.52100 26.02200
H  21.75500 50.34500 24.41800
H  21.12200 48.87900 24.95100
H  20.49700 51.36100 30.45700
H  19.81000 47.64900 32.46600
H  19.32300 48.84700 33.64000
H  21.10300 48.61200 33.35800

