158

Mg 1.24400 8.82000 25.71700
C  1.70900 10.65400 28.64600
C  1.13200 5.86600 27.49700
C  0.97800 7.09400 22.84600
C  1.52200 11.78100 23.90300
N  1.71900 8.29900 27.89400
C  1.56700 9.20000 28.91800
C  1.36100 8.51300 30.23700
C  1.29500 6.98200 29.83000
C  1.38600 7.00200 28.27900
C  2.30500 6.02100 30.53900
C  0.23800 9.08300 31.14100
C  0.52200 9.10800 32.63700
H  1.65000 8.27700 33.24000
N  1.19200 6.66600 25.22800
C  1.22100 5.63300 26.13500
C  1.06300 4.46000 25.33200
C  1.07100 4.72800 23.94600
C  1.05800 6.15700 23.93000
C  0.78600 3.08600 25.97200
C  1.02400 3.85500 22.72000
O  1.10100 4.28200 21.54000
C  0.75300 2.36300 22.86500
N  1.43300 9.24000 23.70100
C  1.13400 8.40900 22.66000
C  1.06900 9.07100 21.28700
C  1.30300 10.58700 21.64300
C  1.35300 10.56200 23.20000
C  1.97900 8.46200 20.20000
C  0.14600 11.48200 21.12300
C  -1.24300 11.50500 21.84700
N  1.53500 10.81000 26.13400
C  1.57100 11.92800 25.31500
C  1.87200 13.10000 26.11100
C  1.94200 12.63000 27.44600
C  1.73400 11.24700 27.36400
C  2.16300 14.44800 25.57100
C  2.15700 13.03100 28.80800
O  2.35000 14.12600 29.30400
C  1.81400 11.75000 29.61700
C  2.73200 11.60600 30.78200
O  3.82000 11.06400 30.70000
O  2.16000 12.08800 31.94300
C  2.92900 12.01100 33.15200
H  1.00000 4.92900 28.04200
H  0.57000 6.58600 21.97000
H  1.45900 12.69900 23.31500
H  2.28400 8.59100 30.81000
H  0.29100 6.61300 30.04200
H  1.85200 5.31200 31.23200
H  2.96100 6.66100 31.12800
H  2.93300 5.46800 29.84000
H  -0.66000 8.47200 31.05700
H  0.03900 10.07800 30.74200
H  -0.43200 8.86400 33.10400
H  0.64800 10.08400 33.10500
H  0.54000 3.16200 27.03100
H  1.61200 2.37700 25.90500
H  -0.00200 2.49800 25.50100
H  1.37500 1.84900 23.59800
H  0.87900 1.86300 21.90500
H  -0.29100 2.28400 23.17000
H  0.05100 8.90800 20.93100
H  2.35800 10.81400 21.48800
H  2.77100 9.17400 19.96800
H  1.43200 8.30400 19.27100
H  2.39500 7.50100 20.50200
H  0.10900 11.45000 20.03500
H  0.55800 12.48500 21.23800
H  -1.92900 12.01800 21.17300
H  -1.08300 12.20500 22.66700
H  -1.63300 10.57600 22.26300
H  1.25200 14.65000 25.00700
H  3.07600 14.59100 24.99300
H  2.17000 15.19400 26.36700
H  0.88900 12.02600 30.12300
H  2.27300 11.64600 33.94300
H  3.29100 13.02900 33.29300
H  3.73400 11.27800 33.10200
Mg -11.52500 16.05000 41.04300
C  -8.59000 14.11700 41.34000
C  -9.59200 18.70100 39.94400
C  -14.33100 17.71300 40.31600
C  -13.34700 13.19000 41.97300
N  -9.35400 16.34900 40.81400
C  -8.38100 15.38100 40.87400
C  -7.06200 15.96800 40.45600
C  -7.37900 17.42300 40.02400
C  -8.86100 17.50700 40.33500
C  -6.53100 18.55900 40.67100
C  -6.37800 15.02100 39.41400
C  -4.90700 14.54100 39.80400
H  -3.81700 14.71600 38.72300
N  -11.91100 17.98000 40.25800
C  -10.97800 18.95100 39.98700
C  -11.65900 20.16100 39.54400
C  -13.06000 19.83000 39.48600
C  -13.20200 18.49900 40.05300
C  -10.86300 21.50300 39.04600
C  -14.16800 20.73100 38.82500
O  -13.81300 21.84700 38.47000
C  -15.64700 20.36900 38.71100
N  -13.47100 15.51000 41.00500
C  -14.50500 16.43500 40.75600
C  -15.89000 15.78000 40.83700
C  -15.48600 14.33500 41.36300
C  -14.00900 14.33200 41.45700
C  -17.01100 16.43900 41.74900
C  -16.22900 13.12600 40.56400
C  -17.04200 12.32600 41.58400
N  -11.13300 14.02400 41.54800
C  -11.94400 12.99400 41.99400
C  -11.13900 11.88500 42.55300
C  -9.82600 12.30500 42.28000
C  -9.91300 13.56700 41.67400
C  -11.65800 10.58800 43.08600
C  -8.48500 11.89600 42.41800
O  -8.00800 10.90800 42.86000
C  -7.59000 13.15800 41.99300
C  -6.84200 13.63100 43.18100
O  -7.29800 14.42100 44.02100
O  -5.55800 13.14800 43.12200
C  -4.62700 14.01000 43.82300
H  -8.99500 19.54400 39.58800
H  -15.27800 18.23200 40.15500
H  -14.00600 12.36300 42.24400
H  -6.51700 15.99600 41.39900
H  -7.12300 17.44900 38.96500
H  -7.11400 19.26400 41.26400
H  -5.94600 19.00000 39.86400
H  -5.79600 18.05000 41.29500
H  -6.23700 15.53600 38.46400
H  -6.99900 14.14700 39.21400
H  -5.01200 13.48900 40.06800
H  -4.67100 15.12800 40.69300
H  -10.80200 21.42600 37.96000
H  -9.91600 21.54300 39.58300
H  -11.38400 22.41000 39.35200
H  -16.18700 21.00700 38.01200
H  -16.04100 20.42200 39.72600
H  -15.71100 19.37200 38.27500
H  -16.26400 15.69900 39.81700
H  -15.80500 14.35500 42.40500
H  -16.49200 17.06100 42.47800
H  -17.51100 15.56500 42.16500
H  -17.78500 17.03900 41.27100
H  -15.50100 12.47300 40.08400
H  -17.03100 13.48000 39.91700
H  -18.07000 12.63900 41.76800
H  -16.42500 12.40700 42.48000
H  -17.10700 11.30300 41.21300
H  -10.72300 10.06500 43.28800
H  -12.30400 10.05000 42.39300
H  -12.31700 10.62900 43.95400
H  -6.75200 13.06700 41.30200
H  -4.70300 13.85900 44.90000
H  -4.75200 15.06600 43.57900
H  -3.63800 13.63100 43.56800

