158

Mg -1.77400 33.57400 26.97100
C  -3.46800 32.08500 29.57900
C  -0.39400 35.76800 29.40500
C  -0.13000 35.16700 24.45800
C  -3.38900 31.54200 24.70000
N  -1.83300 33.84200 29.33100
C  -2.62600 33.07300 30.12500
C  -2.34400 33.26800 31.57800
C  -1.53600 34.64200 31.59500
C  -1.17500 34.82900 30.09000
C  -2.36500 35.91700 32.07700
C  -1.60400 32.03500 32.34100
C  -2.35800 31.39600 33.57400
H  -1.54200 31.44200 34.85700
N  -0.52600 35.31600 26.95500
C  -0.09900 36.05200 28.05900
C  0.85300 37.00600 27.52200
C  0.88400 36.88100 26.06500
C  0.05400 35.72900 25.75900
C  1.57400 37.91900 28.38700
C  1.65900 37.74400 25.00400
O  1.75300 37.45300 23.85600
C  2.38200 39.00500 25.49800
N  -1.73400 33.44100 24.86500
C  -0.90200 34.01900 24.04800
C  -1.04600 33.54100 22.53100
C  -1.90800 32.25000 22.82700
C  -2.43500 32.42100 24.24300
C  -1.74300 34.62700 21.57200
C  -1.19300 30.94900 22.61700
C  -2.12900 29.80800 22.02000
N  -3.13000 32.06500 27.11500
C  -3.77000 31.38500 26.04700
C  -4.75100 30.48600 26.56500
C  -4.65000 30.67000 27.95500
C  -3.68600 31.69900 28.25700
C  -5.67200 29.60800 25.79100
C  -5.05900 30.17500 29.26800
O  -5.90700 29.35800 29.61500
C  -4.40800 31.16900 30.35100
C  -5.47100 32.01800 31.05600
O  -5.73900 33.21400 30.84600
O  -5.99400 31.18700 31.99300
C  -6.91400 31.87300 32.86400
H  0.09600 36.43200 30.12000
H  0.49600 35.55600 23.65300
H  -3.65100 30.86400 23.88500
H  -3.32000 33.45400 32.02700
H  -0.58800 34.61600 32.13200
H  -3.40500 35.63500 32.24200
H  -2.21700 36.67700 31.31100
H  -1.92600 36.45100 32.91900
H  -0.61300 32.30500 32.70500
H  -1.36100 31.29300 31.58100
H  -2.60300 30.34600 33.41700
H  -3.27300 31.96500 33.74100
H  0.83100 38.11400 29.16100
H  1.83300 38.89200 27.96900
H  2.34700 37.41600 28.96900
H  1.58600 39.62900 25.90500
H  2.79900 39.46000 24.60000
H  3.09100 38.68700 26.26100
H  -0.11000 33.12400 22.15800
H  -2.77400 32.28400 22.16600
H  -1.03200 35.42000 21.34500
H  -2.60600 35.20400 21.90400
H  -1.98200 34.07500 20.66300
H  -0.81900 30.57800 23.57200
H  -0.42600 31.14400 21.86600
H  -1.63000 29.36000 21.16100
H  -3.09200 30.24200 21.75100
H  -2.28100 29.01500 22.75200
H  -5.40800 29.60400 24.73300
H  -6.68500 29.99000 25.91900
H  -5.68200 28.57200 26.13100
H  -3.88300 30.60200 31.12000
H  -7.47100 32.58600 32.25600
H  -6.42200 32.44300 33.65300
H  -7.48200 31.04200 33.28100
Mg -6.40700 24.71200 26.19000
C  -4.85100 25.80000 29.24500
C  -8.50800 22.78500 28.03000
C  -7.45500 23.35500 23.25800
C  -4.16900 26.70700 24.48800
N  -6.74200 24.44100 28.37500
C  -6.00000 24.93700 29.45500
C  -6.66500 24.57900 30.79600
C  -7.74900 23.51200 30.41200
C  -7.76300 23.66700 28.85500
C  -7.48800 22.08600 30.99000
C  -7.06200 25.84300 31.65800
C  -6.53000 26.01300 33.04700
H  -5.87000 24.85500 33.85100
N  -7.82100 23.22600 25.73400
C  -8.58300 22.55700 26.63900
C  -9.44800 21.66100 25.90500
C  -9.18700 21.83900 24.48800
C  -8.09300 22.79500 24.45000
C  -10.45500 20.80000 26.59100
C  -9.94000 21.29000 23.28700
O  -9.51700 21.37600 22.13400
C  -11.13400 20.37500 23.56600
N  -5.82600 24.90400 24.23200
C  -6.38800 24.25300 23.17200
C  -5.78200 24.65800 21.81800
C  -4.71100 25.71700 22.26900
C  -4.86800 25.82300 23.74500
C  -5.17000 23.43400 21.01700
C  -4.81300 27.00200 21.51900
C  -4.11900 27.00900 20.12900
N  -4.86400 25.94400 26.70800
C  -4.06100 26.76000 25.85300
C  -3.10800 27.51600 26.66100
C  -3.42500 27.17000 27.94700
C  -4.45000 26.23700 27.95800
C  -2.06000 28.38700 26.10200
C  -3.02000 27.41700 29.31900
O  -2.15200 28.09200 29.74700
C  -3.92000 26.48800 30.20700
C  -3.06500 25.55900 30.93500
O  -2.67100 24.45000 30.52000
O  -2.65900 26.10500 32.12400
C  -1.58800 25.49100 32.83300
H  -9.04300 22.05900 28.64500
H  -7.88400 22.95900 22.33500
H  -3.40200 27.29800 23.98300
H  -5.93800 24.12400 31.46900
H  -8.75500 23.79400 30.72500
H  -7.31300 21.26900 30.29100
H  -8.30800 21.79400 31.64700
H  -6.58000 22.15300 31.58800
H  -8.15100 25.84700 31.71200
H  -6.76700 26.73000 31.09800
H  -7.32600 26.44200 33.65500
H  -5.73500 26.74400 32.90000
H  -11.44500 21.23900 26.46900
H  -10.30500 20.77400 27.67000
H  -10.49700 19.75900 26.27200
H  -11.45400 19.97100 22.60500
H  -11.92400 21.01500 23.96000
H  -11.01900 19.50300 24.21000
H  -6.60600 25.12600 21.28000
H  -3.69900 25.31300 22.23000
H  -5.19900 22.47600 21.53700
H  -4.09000 23.53300 20.91000
H  -5.58700 23.36000 20.01300
H  -4.51300 27.85100 22.13300
H  -5.88300 27.17300 21.39800
H  -3.54700 27.92900 20.00700
H  -4.89600 26.85400 19.38000
H  -3.45200 26.15700 20.00100
H  -1.57100 29.01300 26.84700
H  -2.35100 29.08000 25.31200
H  -1.24900 27.80100 25.67000
H  -4.44200 27.21100 30.83400
H  -1.33100 24.49500 32.47100
H  -1.95700 25.40200 33.85500
H  -0.59300 25.93500 32.84400

