158

Mg 6.33000 54.13900 41.31600
C  5.93800 50.55200 41.00300
C  9.39700 54.03100 39.97300
C  6.28400 57.47800 41.27400
C  2.94000 54.13100 42.44700
N  7.41200 52.44100 40.55100
C  7.14400 51.07600 40.48400
C  8.38700 50.30500 39.93100
C  9.54000 51.40000 39.90400
C  8.74500 52.72000 40.17400
C  10.71200 51.25200 40.92600
C  8.21600 49.58800 38.54400
C  7.50000 50.34100 37.37600
H  6.81800 49.53300 36.19100
N  7.71400 55.62600 40.72600
C  8.94500 55.38300 40.18500
C  9.59700 56.58600 39.98900
C  8.70200 57.60400 40.31700
C  7.48900 56.91100 40.80500
C  11.00700 56.60100 39.44200
C  8.93500 59.12500 40.17600
O  9.98700 59.60800 39.70500
C  7.86800 60.22300 40.37500
N  4.71500 55.59200 41.66300
C  5.04200 56.90400 41.69500
C  3.81200 57.78600 41.94100
C  2.67900 56.64800 42.12500
C  3.49000 55.39600 42.09900
C  3.97500 58.77500 43.16400
C  1.59500 56.79900 41.00300
C  0.38000 57.59500 41.43500
N  4.71300 52.66800 41.60000
C  3.50600 52.82300 42.19500
C  2.95300 51.50900 42.59900
C  3.85600 50.54900 42.01200
C  4.90200 51.37400 41.43300
C  1.68900 51.26800 43.40400
C  4.17100 49.14500 41.89800
O  3.52000 48.22600 42.42100
C  5.55400 49.09700 41.21100
C  5.43300 48.17100 40.00600
O  4.88800 48.47500 38.89900
O  5.90200 46.89800 40.26700
C  5.50400 45.97000 39.21100
H  10.42600 54.01700 39.60900
H  6.29200 58.55300 41.46500
H  1.89700 54.06500 42.76300
H  8.66000 49.56800 40.68700
H  9.98500 51.40900 38.90900
H  11.70500 51.26600 40.47600
H  10.60400 50.24500 41.32800
H  10.63000 52.11200 41.59100
H  7.88000 48.56900 38.73700
H  9.20400 49.40000 38.12500
H  8.19800 51.04600 36.92500
H  6.73500 50.94000 37.87000
H  11.67300 56.08800 40.13600
H  11.28500 57.65000 39.34000
H  11.12500 56.20500 38.43400
H  8.21400 61.17000 39.96300
H  7.54000 60.27700 41.41300
H  7.03300 59.98400 39.71500
H  3.52700 58.36300 41.06100
H  2.24200 56.88000 43.09600
H  3.73900 59.82900 43.01200
H  5.03900 58.81400 43.39700
H  3.50800 58.56900 44.12700
H  1.28400 55.80900 40.66800
H  2.01600 57.33800 40.15400
H  0.15300 58.31400 40.64800
H  0.58800 58.18800 42.32500
H  -0.50000 56.97400 41.60400
H  1.71900 51.87100 44.31100
H  1.77700 50.26500 43.82300
H  0.78000 51.41200 42.82100
H  6.34100 48.60600 41.78400
H  4.41900 45.98900 39.10900
H  5.68400 44.93400 39.49900
H  5.97500 46.08000 38.23400
Mg -5.85000 25.06800 26.68300
C  -4.50600 26.82000 29.38300
C  -7.45000 23.04000 28.89100
C  -6.82600 23.18500 24.06700
C  -3.49000 26.65500 24.61300
N  -5.91900 24.89600 28.90000
C  -5.30800 25.76100 29.78500
C  -5.93900 25.48300 31.16000
C  -6.59800 24.03100 31.03400
C  -6.61700 23.94200 29.48000
C  -5.81500 22.88900 31.60100
C  -6.95700 26.62900 31.47200
C  -7.31500 26.79600 32.94900
H  -6.67400 25.80000 33.88800
N  -7.15700 23.49300 26.50600
C  -7.78900 22.82800 27.51900
C  -8.76900 21.88700 26.96300
C  -8.55800 21.84800 25.59700
C  -7.51800 22.87900 25.31100
C  -9.76900 21.12300 27.75200
C  -9.33900 21.12400 24.44200
O  -8.90000 21.18000 23.27800
C  -10.51500 20.15400 24.75100
N  -5.20800 24.97900 24.68300
C  -5.84300 24.15500 23.78100
C  -5.21200 24.30000 22.36500
C  -4.12400 25.39600 22.53800
C  -4.28800 25.70400 24.02600
C  -4.65700 22.96600 21.74100
C  -4.34500 26.62100 21.48900
C  -5.53600 27.55100 21.70900
N  -4.28100 26.38300 26.93500
C  -3.47600 27.08600 25.97600
C  -2.68100 28.07800 26.56800
C  -3.16900 28.13000 27.92900
C  -4.06800 27.08900 28.08600
C  -1.68000 29.01500 25.87400
C  -2.98400 28.75400 29.19600
O  -2.21500 29.64900 29.50600
C  -3.97200 27.98000 30.17300
C  -3.18200 27.58000 31.37400
O  -2.05500 27.11000 31.39500
O  -3.85900 27.93400 32.53900
C  -3.15300 27.89800 33.78800
H  -7.88000 22.35900 29.62800
H  -7.07300 22.65200 23.14600
H  -2.75400 27.11200 23.94800
H  -5.21800 25.54600 31.97500
H  -7.53500 24.13600 31.58000
H  -6.32400 22.47900 32.47300
H  -4.84100 23.28300 31.89200
H  -5.55200 22.10100 30.89600
H  -7.79400 26.36600 30.82500
H  -6.57000 27.59600 31.15300
H  -8.38900 26.70000 33.10900
H  -7.02800 27.79300 33.28500
H  -9.73100 20.09300 27.39900
H  -10.78700 21.51200 27.74100
H  -9.53000 21.12800 28.81500
H  -9.91700 19.37800 25.22900
H  -11.05800 19.80800 23.87200
H  -11.18000 20.60900 25.48500
H  -6.04700 24.71300 21.79900
H  -3.12700 25.04600 22.27100
H  -4.36900 22.12000 22.36500
H  -3.75100 23.24000 21.19900
H  -5.29500 22.54700 20.96400
H  -4.35900 26.17900 20.49200
H  -3.53500 27.35000 21.52400
H  -6.40600 27.30900 21.10000
H  -5.19700 28.56300 21.48900
H  -5.87700 27.44600 22.73900
H  -1.83500 28.80500 24.81500
H  -0.69500 28.64900 26.16400
H  -1.71800 30.08400 26.08100
H  -4.76100 28.67000 30.47200
H  -3.78500 28.31500 34.57200
H  -2.26200 28.52400 33.75700
H  -2.92400 26.89500 34.14800

