158

Mg 16.79700 -0.56300 27.93000
C  15.54500 1.05000 30.71900
C  18.72100 -2.56300 29.89400
C  18.13500 -1.97200 25.15300
C  15.02800 1.65200 25.91500
N  17.06800 -0.73400 30.00900
C  16.44400 0.05900 30.99900
C  16.95600 -0.38300 32.44300
C  17.92800 -1.59800 32.10600
C  17.98300 -1.58600 30.53800
C  19.38200 -1.51000 32.67200
C  15.84700 -0.86700 33.49100
C  15.92500 -0.22300 34.94400
H  17.24200 0.22200 35.54600
N  18.26800 -2.06600 27.63000
C  18.96100 -2.80600 28.55300
C  19.75500 -3.75900 27.91500
C  19.55400 -3.62800 26.53300
C  18.61600 -2.47100 26.37900
C  20.49800 -4.73600 28.76000
C  20.26700 -4.31500 25.37900
O  20.00600 -4.12800 24.22100
C  21.35000 -5.26900 25.74400
N  16.64300 -0.23100 25.84600
C  17.34100 -0.92000 24.88300
C  17.04200 -0.29500 23.41400
C  15.92300 0.74300 23.73000
C  15.82100 0.71700 25.29200
C  18.36900 0.21000 22.74100
C  14.65400 0.51300 22.92900
C  13.65400 -0.53000 23.48500
N  15.49000 1.01300 28.19100
C  14.94300 1.92500 27.26600
C  14.25200 2.95600 27.96700
C  14.42000 2.59500 29.31900
C  15.19200 1.40300 29.38500
C  13.63700 4.15000 27.31700
C  14.12300 3.04000 30.61700
O  13.65000 4.14500 30.95400
C  14.89600 2.12900 31.62500
C  15.91400 2.91300 32.27800
O  17.05000 3.09100 31.87200
O  15.49100 3.24900 33.54400
C  16.41800 4.00500 34.37300
H  19.16100 -3.23700 30.63200
H  18.54200 -2.35200 24.21300
H  14.45600 2.30500 25.25200
H  17.52900 0.42700 32.89400
H  17.58800 -2.61200 32.31900
H  19.91500 -2.45800 32.73800
H  19.42800 -1.00700 33.63800
H  20.02300 -0.90700 32.02900
H  16.02500 -1.92200 33.70100
H  14.87400 -0.51600 33.14700
H  15.44100 -0.95100 35.59400
H  15.27400 0.64900 34.99800
H  21.55600 -4.78100 28.50200
H  20.16700 -5.76500 28.62200
H  20.53300 -4.58000 29.83800
H  22.24300 -4.70000 26.00100
H  21.64200 -5.94100 24.93700
H  21.04400 -5.87900 26.59400
H  16.61400 -1.12100 22.84400
H  16.31800 1.72600 23.47700
H  19.19300 0.06200 23.43900
H  18.21500 1.26500 22.51500
H  18.57300 -0.30500 21.80200
H  15.08300 0.17900 21.98400
H  14.07900 1.42000 22.74400
H  13.99500 -1.14700 24.31600
H  13.32900 -1.21000 22.69700
H  12.77400 0.00900 23.83600
H  13.63800 4.86300 28.14200
H  12.67200 3.94000 26.85600
H  14.33400 4.49700 26.55500
H  14.15600 1.83900 32.37000
H  16.72800 4.90600 33.84500
H  17.37600 3.52100 34.56200
H  16.05100 4.45000 35.29800
Mg 36.37500 48.86100 25.05000
C  36.43600 46.86800 27.88900
C  35.50400 51.61400 27.12200
C  36.20200 50.68700 22.32100
C  36.80900 45.99900 23.12500
N  35.90000 49.17700 27.26200
C  36.14800 48.23500 28.17500
C  36.03000 48.72300 29.60600
C  35.59100 50.27000 29.29500
C  35.66100 50.41900 27.81600
C  34.15300 50.62800 29.82600
C  37.32500 48.56400 30.41400
C  37.29300 47.92900 31.84200
H  36.04500 48.30100 32.74200
N  35.99500 50.88000 24.81600
C  35.69900 51.85100 25.75000
C  35.78100 53.14400 25.15400
C  35.87900 52.91600 23.73400
C  35.98800 51.43300 23.52900
C  35.60100 54.47100 25.88300
C  35.86300 53.95000 22.68600
O  35.62300 53.56200 21.54100
C  36.28800 55.36200 23.03200
N  36.46000 48.45000 22.97400
C  36.25100 49.32000 22.00800
C  36.54200 48.78500 20.61300
C  37.09100 47.39600 21.02100
C  36.74500 47.26100 22.47800
C  35.26500 48.75700 19.74200
C  38.67600 47.45100 20.79200
C  39.28200 46.34500 20.01500
N  36.51300 46.77500 25.39000
C  36.75800 45.72500 24.47000
C  36.88100 44.46800 25.25200
C  36.74000 44.93500 26.57600
C  36.51800 46.31200 26.59600
C  37.11500 43.03200 24.68900
C  36.78500 44.52900 27.97100
O  36.96000 43.48500 28.51800
C  36.42200 45.71300 28.84800
C  35.02600 45.44300 29.27900
O  34.03800 45.49100 28.60000
O  35.06000 45.07700 30.61300
C  33.70500 44.68800 31.27600
H  35.07200 52.41200 27.73000
H  36.09900 51.27700 21.40800
H  36.97500 45.21900 22.37900
H  35.20500 48.23000 30.12100
H  36.12900 51.12200 29.71000
H  33.92200 49.91600 30.61900
H  33.51300 50.46900 28.95800
H  34.01600 51.63800 30.21400
H  37.86700 49.51000 30.42600
H  37.86700 47.89900 29.74200
H  38.15600 48.34800 32.35900
H  37.43900 46.85100 31.76800
H  34.65800 54.92400 25.57900
H  36.47200 55.08000 25.64100
H  35.63600 54.38600 26.96900
H  36.52400 55.91000 22.12000
H  37.18100 55.35100 23.65700
H  35.46900 55.84700 23.56400
H  37.20800 49.46700 20.08400
H  36.62400 46.63600 20.39600
H  34.92300 49.77900 19.57800
H  34.42100 48.21200 20.16300
H  35.40700 48.30400 18.76000
H  39.09400 47.34100 21.79300
H  39.01700 48.44000 20.48600
H  38.55100 45.89200 19.34500
H  39.67100 45.63000 20.74000
H  40.10400 46.74900 19.42200
H  36.31000 42.37400 25.01800
H  37.96800 42.61000 25.22200
H  37.19200 42.90700 23.60900
H  37.12100 45.69100 29.68400
H  33.28200 43.94300 30.60100
H  33.16800 45.63400 31.34800
H  33.72800 44.28900 32.29000

