158

Mg 36.02000 0.69900 30.82400
C  33.49700 1.97800 32.80500
C  38.19100 0.81700 33.61900
C  38.58400 -0.17600 28.74800
C  33.84500 0.91800 28.08200
N  35.83900 1.49600 32.86300
C  34.71400 1.90100 33.49600
C  34.94600 1.96500 35.06400
C  36.52700 1.81400 35.16100
C  36.89400 1.32800 33.80400
C  37.16200 3.13400 35.45000
C  34.21800 0.79700 35.79800
C  33.76400 1.10400 37.20200
H  34.31400 2.33800 37.99700
N  38.09600 0.35500 31.13000
C  38.77000 0.33100 32.37200
C  40.10200 -0.16700 32.09000
C  40.26200 -0.49800 30.75100
C  38.96400 -0.12500 30.13700
C  41.11900 -0.26800 33.18800
C  41.44800 -1.07800 30.06400
O  41.35000 -1.28300 28.86900
C  42.66800 -1.58800 30.84800
N  36.19500 0.48000 28.77600
C  37.35800 0.12400 28.14400
C  37.06000 0.00400 26.59200
C  35.55400 0.18600 26.47600
C  35.12700 0.55600 27.86100
C  37.78400 1.03100 25.62000
C  34.85100 -1.17100 26.02400
C  33.82800 -1.11700 24.93000
N  34.04600 1.22200 30.50400
C  33.27600 1.24300 29.31500
C  31.93300 1.68200 29.59800
C  31.93300 1.96400 31.01200
C  33.28300 1.76000 31.47900
C  30.92600 1.85900 28.56800
C  31.15400 2.32200 32.20700
O  29.97200 2.50100 32.44400
C  32.17600 2.38500 33.45800
C  31.97400 3.67600 34.09800
O  32.46000 4.72400 33.66300
O  31.38700 3.49800 35.33400
C  31.16600 4.85400 35.90600
H  38.81500 0.82100 34.51600
H  39.37400 -0.35400 28.01600
H  33.16500 0.92000 27.22700
H  34.56800 2.92000 35.43000
H  36.88300 1.12700 35.92800
H  37.86500 3.00300 36.27200
H  36.42800 3.88300 35.75000
H  37.64000 3.48300 34.53500
H  34.94500 -0.00400 35.93000
H  33.34800 0.42100 35.25900
H  33.95600 0.20300 37.78400
H  32.68000 1.20600 37.25300
H  40.96700 0.46700 33.97900
H  42.03000 0.12400 32.73600
H  41.17600 -1.32900 33.43000
H  43.36500 -0.81300 31.16700
H  43.21900 -2.20200 30.13600
H  42.23900 -2.25900 31.59300
H  37.41300 -1.01200 26.41500
H  35.27800 0.93900 25.73800
H  37.14000 1.88800 25.42200
H  38.22600 0.55700 24.74400
H  38.65900 1.42700 26.13500
H  34.31200 -1.67700 26.82400
H  35.61900 -1.80600 25.58200
H  34.01800 -1.80200 24.10400
H  33.77700 -0.11300 24.51000
H  32.88300 -1.43200 25.37300
H  30.77600 0.85400 28.17300
H  31.33100 2.59200 27.87000
H  30.08500 2.31100 29.09400
H  31.75600 1.61800 34.10900
H  31.96100 5.11900 36.60200
H  30.29400 4.91500 36.55800
H  31.02300 5.68700 35.21800
Mg 47.44900 44.40600 42.23300
C  44.09900 43.60900 43.13000
C  48.00500 40.96400 41.96300
C  50.40300 45.08000 40.71200
C  46.42500 47.75600 41.62700
N  46.21400 42.58800 42.63600
C  44.88300 42.45000 42.96700
C  44.36100 40.96500 42.88600
C  45.73900 40.17400 42.77600
C  46.77500 41.32700 42.49500
C  45.97400 39.14200 43.88600
C  43.31000 40.78800 41.76600
C  43.68900 41.28300 40.33200
H  43.25400 40.49400 39.08400
N  48.99100 43.21400 41.47200
C  49.03800 41.84100 41.54200
C  50.38900 41.41400 41.24400
C  51.07800 42.56200 40.80300
C  50.16600 43.72300 40.93800
C  50.96200 40.02700 41.40500
C  52.60900 42.51900 40.41500
O  53.32500 41.55400 40.40400
C  53.24700 43.73900 39.86800
N  48.30600 46.15700 41.22300
C  49.58700 46.20900 40.85000
C  50.10200 47.58300 40.77000
C  48.76800 48.38600 40.67300
C  47.70900 47.40700 41.14800
C  51.02700 47.83300 41.94600
C  48.39600 48.83600 39.28800
C  48.97200 50.24700 38.98500
N  45.75100 45.56100 42.61500
C  45.43800 46.91600 42.25100
C  44.14000 47.20900 42.72500
C  43.52400 45.93200 43.01100
C  44.55700 44.90600 42.88600
C  43.40700 48.49500 42.47100
C  42.27000 45.26300 43.37300
O  41.08100 45.63400 43.49300
C  42.60900 43.79400 43.39800
C  42.07100 43.28000 44.70000
O  42.31100 43.72400 45.80800
O  41.29200 42.13400 44.44700
C  41.03800 41.25700 45.56200
H  48.26100 39.90400 41.90300
H  51.36900 45.52400 40.46200
H  46.14000 48.80600 41.53800
H  43.90100 40.68800 43.83400
H  45.67000 39.68700 41.80300
H  46.17600 38.22600 43.33000
H  45.05900 38.92300 44.43700
H  46.75200 39.48700 44.56800
H  42.38800 41.29300 42.05500
H  43.18500 39.70600 41.77600
H  44.77300 41.17300 40.28000
H  43.51400 42.35300 40.22200
H  50.36800 39.29800 41.95500
H  51.97100 40.01300 41.81800
H  51.20800 39.54200 40.46100
H  52.55900 44.31800 39.25100
H  54.13500 43.52900 39.27100
H  53.51500 44.39300 40.69800
H  50.72600 47.60100 39.87700
H  48.71600 49.21200 41.38100
H  50.62900 47.46100 42.89000
H  51.21400 48.90100 42.06500
H  51.99600 47.47500 41.59700
H  47.31800 48.91700 39.15100
H  48.88100 48.14200 38.60000
H  49.51700 50.14800 38.04600
H  49.51200 50.61600 39.85800
H  48.11400 50.89900 38.81900
H  43.72300 48.96800 41.54100
H  43.67600 49.15900 43.29200
H  42.32600 48.43100 42.59000
H  42.06500 43.30400 42.59100
H  41.87400 41.01600 46.21800
H  40.75500 40.36400 45.00500
H  40.13400 41.59400 46.06800

