158

Mg 45.00200 4.43300 47.89300
C  42.73800 7.11400 47.17400
C  42.34500 2.41100 47.68100
C  47.15400 1.86700 47.52900
C  47.66700 6.72600 47.55000
N  42.73300 4.78000 47.59000
C  42.05000 5.90200 47.28000
C  40.60300 5.60800 46.86000
C  40.44600 4.17400 47.41800
C  41.96300 3.71800 47.65700
C  39.64400 4.08300 48.80400
C  40.33700 5.79200 45.30800
C  39.40200 6.97000 44.91800
H  39.77700 7.83000 43.69800
N  44.77200 2.39600 47.61000
C  43.57100 1.72400 47.58000
C  43.74700 0.32100 47.36100
C  45.16000 0.13000 47.28400
C  45.77200 1.50400 47.48800
C  42.60700 -0.78100 47.28100
C  45.94800 -1.20900 47.20900
O  45.27100 -2.26200 47.21800
C  47.41000 -1.34300 47.17400
N  47.16600 4.29000 47.68400
C  47.84800 3.09300 47.70100
C  49.33000 3.35000 47.50000
C  49.43000 4.87900 47.57700
C  47.99600 5.37500 47.52700
C  50.23900 2.63000 48.45400
C  50.33900 5.59600 46.51100
C  51.86700 5.16800 46.64600
N  45.21700 6.50500 47.63000
C  46.36100 7.26700 47.43900
C  46.03000 8.59800 47.20500
C  44.63200 8.62400 47.21000
C  44.17300 7.29800 47.35500
C  47.03300 9.71900 47.03500
C  43.49400 9.47100 47.08200
O  43.39800 10.67700 47.12000
C  42.19600 8.50500 47.03500
C  41.39600 8.90000 48.31300
O  41.54300 8.42700 49.44600
O  40.62000 9.87800 47.99200
C  39.98800 10.52500 49.16600
H  41.46600 1.76800 47.59800
H  47.81500 1.02600 47.30600
H  48.54600 7.37200 47.52400
H  39.88300 6.25200 47.36500
H  39.90400 3.53900 46.71700
H  40.12100 3.69900 49.70600
H  38.80600 3.41500 48.60500
H  39.18700 5.03200 49.08400
H  39.72900 4.91400 45.09300
H  41.23500 5.82100 44.68900
H  39.24300 7.60900 45.78700
H  38.38700 6.62600 44.71900
H  42.57200 -1.21500 46.28100
H  41.59700 -0.40200 47.44000
H  42.78200 -1.48000 48.09900
H  47.83400 -0.72500 46.38300
H  47.74900 -2.32900 46.85500
H  47.76500 -1.27500 48.20200
H  49.52400 2.97800 46.49400
H  49.78300 5.20100 48.55600
H  49.70200 1.92000 49.08200
H  50.71600 3.25800 49.20700
H  50.95400 2.10600 47.82000
H  50.15900 6.66500 46.39400
H  49.83500 5.35500 45.57500
H  52.14600 4.54900 45.79400
H  51.96100 4.55500 47.54200
H  52.41600 6.10600 46.72900
H  47.55300 9.74300 46.07700
H  47.75700 9.70700 47.85000
H  46.41700 10.61700 47.08200
H  41.62000 8.58100 46.11200
H  39.90200 9.89700 50.05200
H  38.98900 10.90000 48.94100
H  40.64900 11.35500 49.41400
Mg 49.52900 45.95300 43.20300
C  46.22500 46.82000 42.34400
C  49.04700 43.00000 41.35300
C  52.79000 45.47000 43.41200
C  50.01700 49.35200 44.08700
N  47.78500 45.06900 41.86600
C  46.57900 45.57700 41.77700
C  45.73500 44.71600 40.87300
C  46.63800 43.40400 40.65100
C  47.87300 43.80900 41.33100
C  46.07300 42.10300 41.20100
C  45.17700 45.34700 39.60700
C  43.70200 45.17000 39.24100
H  43.31800 44.90400 37.76800
N  50.73100 44.36800 42.56900
C  50.34300 43.19600 41.93000
C  51.55100 42.34500 41.69900
C  52.60300 42.99600 42.38300
C  52.10000 44.36100 42.79200
C  51.47500 41.05100 40.90600
C  53.99000 42.41800 42.74700
O  54.15700 41.22100 42.49800
C  55.01300 43.19000 43.27700
N  51.18900 47.30700 43.65200
C  52.41000 46.76800 43.85500
C  53.33400 47.92600 44.41200
C  52.33200 49.12300 44.56300
C  51.10900 48.56700 43.96400
C  54.08300 47.61600 45.73000
C  52.81300 50.51200 43.96200
C  53.36100 51.63200 44.92200
N  48.34800 47.70900 43.29500
C  48.65200 48.96500 43.75100
C  47.45900 49.75600 43.84000
C  46.47400 48.96300 43.25800
C  47.07300 47.75400 42.89700
C  47.38300 51.02600 44.50700
C  45.02600 48.86800 42.92100
O  44.11600 49.69200 43.02500
C  44.82800 47.47600 42.20800
C  43.83100 46.71900 42.96700
O  43.82200 46.56600 44.17900
O  42.93300 46.09600 42.14800
C  42.07400 45.11800 42.80200
H  48.88800 41.96500 41.04400
H  53.87600 45.35800 43.38200
H  50.17900 50.36500 44.46000
H  44.91300 44.33700 41.48000
H  46.84300 43.30600 39.58500
H  44.98500 42.10000 41.26000
H  46.43000 41.92900 42.21600
H  46.35500 41.29500 40.52600
H  45.82600 45.13900 38.75600
H  45.34000 46.42000 39.70100
H  43.07400 46.00900 39.54000
H  43.37600 44.26100 39.74800
H  52.16000 40.28100 41.26000
H  51.55800 41.33100 39.85600
H  50.47600 40.64300 41.05600
H  54.86200 43.65400 44.25100
H  55.32400 43.97700 42.59100
H  55.89300 42.55100 43.35200
H  54.08600 48.26500 43.70000
H  52.13400 49.32700 45.61500
H  53.88900 46.54600 45.81100
H  53.60100 48.13800 46.55600
H  55.14700 47.84800 45.68300
H  52.04800 50.97600 43.33900
H  53.57900 50.28800 43.22000
H  53.19400 51.22100 45.91700
H  52.74500 52.51800 44.76500
H  54.38900 51.90800 44.68600
H  48.06400 51.78400 44.11800
H  47.62200 50.96300 45.56900
H  46.37100 51.42400 44.42700
H  44.53000 47.67300 41.17800
H  41.24700 45.66400 43.25700
H  42.61900 44.45500 43.47300
H  41.50500 44.60800 42.02400

