158

Mg 17.12800 -2.19300 28.11700
C  15.88200 -0.03100 30.44800
C  19.06800 -3.60400 30.58300
C  18.81900 -3.93500 25.90800
C  15.64200 -0.37800 25.67400
N  17.57100 -1.73100 30.20400
C  16.75300 -0.97200 30.96700
C  17.04800 -1.14800 32.42100
C  18.33400 -1.96700 32.43200
C  18.39200 -2.46300 31.01400
C  19.61200 -1.15500 32.77700
C  15.87700 -1.68800 33.33600
C  15.78200 -1.48000 34.88900
H  17.00700 -0.80300 35.67800
N  18.46000 -3.77700 28.26400
C  19.14300 -4.20900 29.33700
C  19.83200 -5.38700 29.06500
C  19.80400 -5.56200 27.62600
C  18.97200 -4.40600 27.22700
C  20.48200 -6.20700 30.13600
C  20.45600 -6.55500 26.66400
O  20.44300 -6.53000 25.44300
C  21.23500 -7.65700 27.22600
N  17.24000 -2.15300 26.15200
C  17.96200 -3.01000 25.40100
C  17.75600 -2.74900 23.85400
C  16.67700 -1.60000 23.88000
C  16.47800 -1.39900 25.31600
C  19.15700 -2.49100 23.07500
C  15.46700 -1.80400 22.84100
C  15.23700 -0.57100 21.90600
N  15.93200 -0.58100 27.99500
C  15.31900 0.03800 26.95800
C  14.43600 1.11200 27.40700
C  14.70600 1.12200 28.79600
C  15.56500 0.06600 29.09100
C  13.62600 1.98900 26.55100
C  14.35300 1.83000 30.03900
O  13.74400 2.91900 30.17100
C  15.08900 1.00600 31.19900
C  16.04400 1.98200 31.70400
O  17.01100 2.39800 31.12700
O  15.56900 2.52400 32.87600
C  16.47000 3.40300 33.56400
H  19.60600 -4.05000 31.42200
H  19.34700 -4.59300 25.21500
H  15.04700 0.24600 25.00400
H  17.29900 -0.17800 32.85100
H  18.18500 -2.71600 33.21000
H  20.36000 -1.56900 32.10000
H  20.08900 -1.35400 33.73600
H  19.47300 -0.07700 32.70700
H  15.81400 -2.77000 33.22000
H  14.87200 -1.32200 33.12800
H  15.52700 -2.42800 35.36200
H  14.92400 -0.82500 35.04300
H  20.47600 -5.83500 31.16100
H  21.50300 -6.46400 29.85500
H  19.98400 -7.17600 30.14100
H  22.10500 -7.27100 27.75800
H  21.61400 -8.19500 26.35800
H  20.52900 -8.27500 27.78200
H  17.26200 -3.65600 23.50700
H  17.28500 -0.73600 23.61100
H  19.37400 -1.42400 23.03500
H  18.98900 -2.91800 22.08600
H  19.98600 -2.97100 23.59600
H  14.56900 -1.82900 23.45800
H  15.59000 -2.75000 22.31400
H  14.38200 -0.00200 22.26900
H  15.10500 -0.92300 20.88300
H  16.10600 0.08600 21.94700
H  14.22600 2.84400 26.24000
H  12.77500 2.29300 27.16000
H  13.23700 1.37400 25.73900
H  14.52300 0.70900 32.08200
H  16.98500 2.77800 34.29300
H  15.76800 4.10600 34.01100
H  17.22100 3.94300 32.98700
Mg 26.77000 50.28100 27.02400
C  24.68100 51.42600 29.57000
C  29.06900 49.59900 29.47100
C  28.89700 49.44200 24.60400
C  24.57000 51.58500 24.60600
N  26.84700 50.55700 29.17500
C  25.83200 50.91200 30.02700
C  26.21600 50.67800 31.44100
C  27.75600 50.43100 31.43400
C  27.97700 50.25500 29.91600
C  28.69300 51.52600 32.11500
C  25.27100 49.63100 32.05600
C  24.74800 50.13700 33.41900
H  25.78200 50.50400 34.54700
N  28.70400 49.51600 27.06800
C  29.46900 49.23300 28.12600
C  30.73900 48.61300 27.66000
C  30.69800 48.58700 26.26800
C  29.40300 49.20300 25.92700
C  31.83900 48.09200 28.67600
C  31.81400 48.22500 25.20700
O  31.75000 48.41200 24.04100
C  33.07100 47.54600 25.66100
N  26.62900 50.30600 24.90000
C  27.68500 49.93000 24.15200
C  27.31400 49.96400 22.63000
C  25.81100 50.48600 22.67300
C  25.64500 50.85300 24.14400
C  28.29500 50.74000 21.79500
C  24.71500 49.49000 22.09300
C  23.52100 50.03800 21.33100
N  24.98600 51.30400 27.01000
C  24.16700 51.65700 25.94700
C  22.93700 52.23200 26.40700
C  23.07100 52.19700 27.86000
C  24.40200 51.67000 28.15200
C  21.81100 52.77500 25.56700
C  22.50900 52.53500 29.18400
O  21.54400 53.11100 29.52000
C  23.52200 52.09000 30.32700
C  23.98300 53.15500 31.25300
O  25.10600 53.70500 31.26000
O  23.02800 53.35500 32.17100
C  23.46400 54.34700 33.21900
H  29.78200 49.20900 30.20200
H  29.62500 49.17700 23.83300
H  23.86200 52.00900 23.89100
H  26.01300 51.61400 31.96100
H  27.93300 49.54900 32.04900
H  29.20100 51.00200 32.92500
H  28.04300 52.32300 32.47600
H  29.46300 51.93900 31.46300
H  25.71400 48.64800 32.21500
H  24.40000 49.48900 31.41600
H  24.13400 49.36000 33.87400
H  24.06300 50.95600 33.19700
H  31.61700 48.35900 29.71000
H  32.77800 48.62100 28.51500
H  32.17200 47.07600 28.46400
H  33.79100 48.35400 25.79600
H  33.47100 46.92800 24.85700
H  33.02200 46.92000 26.55200
H  27.35500 48.88900 22.45200
H  25.83200 51.46400 22.19100
H  29.14500 51.07700 22.38700
H  27.88500 51.47500 21.10300
H  28.61400 49.98100 21.08100
H  24.21400 49.12200 22.98900
H  25.12000 48.75300 21.40000
H  23.52700 49.49900 20.38400
H  23.73800 51.07500 21.07100
H  22.55400 49.82200 21.78500
H  21.48300 52.18000 24.71500
H  22.10800 53.75600 25.19700
H  20.97900 52.88500 26.26300
H  23.01700 51.31400 30.90200
H  23.82000 55.26100 32.74300
H  24.28300 53.92900 33.80400
H  22.59800 54.58900 33.83400

