158

Mg 27.36900 50.20300 26.65400
C  25.43100 51.01500 29.34000
C  29.76800 48.99900 28.83600
C  29.64700 50.02100 24.10400
C  25.00900 51.44000 24.52300
N  27.60800 50.19000 28.88900
C  26.56900 50.45100 29.76300
C  27.03400 49.99700 31.17100
C  28.57000 49.55700 30.97400
C  28.66400 49.53900 29.45300
C  29.57900 50.46900 31.78900
C  26.17000 48.87900 31.77800
C  25.39600 49.21200 33.00000
H  26.14100 49.75800 34.18400
N  29.40900 49.47800 26.49600
C  30.20400 49.01200 27.49900
C  31.38100 48.44500 26.97500
C  31.46400 48.87000 25.65300
C  30.15500 49.58700 25.38100
C  32.30700 47.61300 27.84100
C  32.63100 48.85300 24.57700
O  32.57600 49.36100 23.47000
C  33.89800 48.17400 24.89400
N  27.36800 50.59800 24.56900
C  28.41000 50.38500 23.69700
C  27.98200 50.73900 22.27300
C  26.45100 51.22500 22.43800
C  26.24700 51.07300 23.92800
C  28.95900 51.87400 21.61300
C  25.47400 50.37400 21.52400
C  24.20900 51.13600 21.00100
N  25.62600 51.12700 26.85900
C  24.74900 51.55600 25.86900
C  23.56500 52.08000 26.50200
C  23.77300 51.83000 27.88200
C  25.05300 51.32100 28.05200
C  22.36500 52.76100 25.91900
C  23.10800 51.87400 29.21600
O  22.01400 52.32900 29.53500
C  24.15800 51.34800 30.23700
C  24.36700 52.20100 31.39100
O  25.26600 52.96900 31.59800
O  23.32700 51.86100 32.26000
C  23.39500 52.45200 33.53600
H  30.44800 48.58400 29.58300
H  30.44500 49.98800 23.36000
H  24.19000 51.75400 23.87200
H  26.92900 50.91400 31.75000
H  28.83300 48.54800 31.29400
H  30.61900 50.20100 31.60400
H  29.45100 50.51600 32.87000
H  29.41900 51.51900 31.54600
H  26.84700 48.03300 31.89400
H  25.48200 48.50700 31.01900
H  24.86600 48.28000 33.19400
H  24.65100 49.97000 32.75800
H  33.14100 48.28100 28.05600
H  32.65100 46.79000 27.21600
H  31.95500 47.32900 28.83300
H  34.64800 48.33700 24.11900
H  33.57400 47.13300 24.88600
H  34.18200 48.45000 25.90900
H  27.96900 49.80600 21.71100
H  26.34500 52.29700 22.26800
H  29.84400 52.02600 22.23100
H  28.32800 52.73700 21.39900
H  29.35700 51.57800 20.64200
H  25.08300 49.56400 22.14100
H  26.05600 50.05200 20.66100
H  24.05700 52.12400 21.43700
H  23.29100 50.60900 21.25700
H  24.25200 51.33300 19.92900
H  21.59200 52.07600 25.57000
H  22.68800 53.28800 25.02100
H  21.98800 53.44500 26.67900
H  23.76400 50.40000 30.60400
H  22.49000 52.03800 33.97900
H  23.45900 53.54100 33.54200
H  24.24000 52.02800 34.07900
Mg 16.94700 51.67300 26.51600
C  18.91900 50.27200 29.16500
C  14.63000 52.45300 28.85500
C  15.25200 53.01400 24.08700
C  19.55400 50.64300 24.34600
N  16.84000 51.41500 28.75700
C  17.78800 50.89700 29.67600
C  17.21700 50.80900 31.08000
C  15.75600 51.43700 30.89400
C  15.71800 51.77600 29.39800
C  14.55700 50.49000 31.25700
C  18.09300 51.43500 32.14000
C  18.09000 50.77200 33.49700
H  17.23300 51.28800 34.67500
N  15.18100 52.54700 26.49200
C  14.33000 52.82800 27.59200
C  13.17000 53.47600 27.15700
C  13.22600 53.69600 25.74800
C  14.63200 53.10700 25.39700
C  12.06900 53.88900 28.09100
C  12.34600 54.31900 24.69900
O  12.71700 54.52700 23.54700
C  10.93100 54.57200 25.23100
N  17.32700 51.71600 24.52600
C  16.44400 52.39600 23.73000
C  16.91200 52.28800 22.25600
C  18.26800 51.66100 22.38600
C  18.41000 51.31300 23.83900
C  15.94100 51.44000 21.48100
C  19.51000 52.37000 21.68100
C  20.24800 53.44300 22.45300
N  18.73600 50.53000 26.62200
C  19.74500 50.29400 25.69100
C  20.83800 49.70800 26.29700
C  20.53600 49.59700 27.57600
C  19.28200 50.16100 27.80600
C  22.07500 49.22300 25.59000
C  21.05200 49.07700 28.82800
O  22.01600 48.39300 29.02600
C  20.06200 49.62900 29.96800
C  19.69300 48.51600 30.88800
O  19.23000 47.48300 30.50700
O  20.23400 48.75200 32.11500
C  20.18900 47.66900 33.04200
H  13.94200 52.71800 29.66000
H  14.70500 53.39400 23.22200
H  20.33400 50.29500 23.66500
H  17.02200 49.76700 31.33500
H  15.72900 52.34700 31.49300
H  13.78400 51.10100 31.72200
H  14.86800 49.75000 31.99500
H  14.19700 49.83600 30.46200
H  17.66700 52.40200 32.40700
H  19.12500 51.57600 31.82100
H  19.13400 50.82200 33.80700
H  17.84400 49.72500 33.32000
H  12.42000 53.93700 29.12200
H  11.32900 53.09800 27.97000
H  11.65100 54.87900 27.90500
H  10.27400 54.60900 24.36200
H  10.88700 55.54500 25.72000
H  10.54400 53.86800 25.96700
H  16.93800 53.25900 21.76100
H  18.27800 50.69900 21.87300
H  15.78700 51.96000 20.53600
H  14.98700 51.25400 21.97400
H  16.40800 50.50200 21.18000
H  19.17200 52.90300 20.79200
H  20.26500 51.65200 21.36300
H  20.09200 54.43400 22.02500
H  21.30900 53.22800 22.32900
H  19.98100 53.45200 23.51000
H  21.85300 48.37800 24.93800
H  22.82200 48.76900 26.24100
H  22.43100 50.05400 24.98000
H  20.52300 50.41600 30.56500
H  21.14100 47.68800 33.57300
H  20.02600 46.68600 32.60000
H  19.42500 47.85000 33.79800

