158

Mg 41.57200 8.15800 30.21400
C  43.26200 9.54500 32.83400
C  39.34200 6.74300 32.61400
C  39.89600 6.76000 27.68800
C  43.99800 9.10800 28.05500
N  41.41500 8.10300 32.39700
C  42.11100 8.87000 33.24400
C  41.70600 8.79600 34.66800
C  40.45000 7.89700 34.56100
C  40.41800 7.46100 33.13800
C  40.37800 6.72500 35.55700
C  41.37100 10.14500 35.44100
C  42.09100 10.32800 36.72500
H  41.36100 10.93700 37.85900
N  39.93500 6.97600 30.16800
C  39.08400 6.60400 31.19700
C  37.93300 5.95400 30.63000
C  38.01700 6.03200 29.19700
C  39.37200 6.57400 28.96100
C  36.89300 5.30200 31.44200
C  36.99100 5.57700 28.14600
O  37.24500 5.66800 26.94700
C  35.57300 5.30800 28.53800
N  41.93000 7.86800 28.18600
C  41.01500 7.41200 27.29100
C  41.45600 7.46100 25.86500
C  42.81100 8.26500 25.99800
C  42.91900 8.49100 27.46000
C  41.69900 6.00000 25.28600
C  42.85900 9.55500 25.11200
C  42.13400 10.80200 25.57800
N  43.42300 9.04900 30.35700
C  44.27700 9.42200 29.39200
C  45.36100 10.23300 30.00300
C  44.98500 10.31500 31.38500
C  43.79200 9.58800 31.53500
C  46.65400 10.75300 29.34100
C  45.36300 10.82700 32.64900
O  46.39300 11.36800 32.98700
C  44.22200 10.40800 33.67700
C  44.94000 9.53000 34.65000
O  45.36000 8.41100 34.49200
O  45.18200 10.22200 35.84700
C  45.68200 9.38200 36.94000
H  38.44100 6.61100 33.21600
H  39.40300 6.25800 26.85300
H  44.66700 9.65100 27.38400
H  42.42700 8.19700 35.22400
H  39.61000 8.49500 34.91500
H  41.11300 6.86800 36.34900
H  40.59800 5.74400 35.13700
H  39.44300 6.74900 36.11700
H  40.29000 10.28600 35.42100
H  41.77900 10.95200 34.83300
H  42.95900 10.98400 36.66200
H  42.53200 9.40100 37.09000
H  37.27100 5.14400 32.45200
H  36.64800 4.30200 31.08300
H  36.04400 5.98500 31.44600
H  35.51900 4.60200 29.36700
H  35.04200 4.96000 27.65200
H  35.11700 6.25700 28.82200
H  40.68100 7.93300 25.26100
H  43.68000 7.61900 25.86800
H  42.74000 5.86500 24.99100
H  41.03600 5.83900 24.43700
H  41.44200 5.26400 26.04800
H  42.44200 9.39500 24.11700
H  43.91300 9.79200 24.96500
H  42.71200 11.72700 25.59600
H  41.48400 10.57100 26.42200
H  41.47200 10.91400 24.72000
H  46.51400 10.70900 28.26100
H  47.54700 10.24500 29.70300
H  46.87500 11.77100 29.66100
H  43.79100 11.35200 34.01200
H  45.42300 9.89600 37.86600
H  46.73900 9.16300 36.78800
H  45.05100 8.49400 36.96900
Mg -10.23400 16.51200 40.95900
C  -6.63600 16.61000 40.92000
C  -10.16200 19.69800 40.00800
C  -13.53700 16.31400 40.43400
C  -10.14900 13.09500 41.32500
N  -8.55100 17.94100 40.64600
C  -7.22400 17.82500 40.68300
C  -6.58200 19.09200 40.16200
C  -7.65400 20.15400 40.34100
C  -8.92100 19.22400 40.33500
C  -7.55500 20.95900 41.65500
C  -5.97500 18.83400 38.71400
C  -4.49000 19.11800 38.45000
H  -3.81100 18.27500 37.38000
N  -11.66500 17.89500 40.47600
C  -11.41600 19.17000 40.10700
C  -12.65400 19.82300 39.75900
C  -13.67600 18.89900 39.91100
C  -12.99600 17.62800 40.27800
C  -12.79300 21.32900 39.42100
C  -15.14800 19.22800 39.77800
O  -15.61800 20.35600 39.49700
C  -16.16900 18.14800 39.92200
N  -11.64600 14.88800 40.75000
C  -13.00500 15.10800 40.58500
C  -13.78600 13.81300 40.81200
C  -12.72400 12.76500 41.11200
C  -11.41400 13.60500 41.12600
C  -14.89600 13.78300 41.90600
C  -12.70200 11.41600 40.27400
C  -12.36600 11.59700 38.80000
N  -8.77700 15.10600 41.11000
C  -8.85400 13.76300 41.36300
C  -7.51200 13.23500 41.65600
C  -6.63900 14.34100 41.43000
C  -7.41900 15.46600 41.12800
C  -7.12700 11.76200 41.90800
C  -5.25800 14.60500 41.26500
O  -4.26900 13.88400 41.35700
C  -5.17400 16.15400 40.92000
C  -4.35700 16.97400 41.88100
O  -3.28400 17.53800 41.65800
O  -5.10400 16.94900 43.10500
C  -4.54600 17.72400 44.20600
H  -10.17400 20.76500 39.77700
H  -14.55900 16.21600 40.06400
H  -10.02800 12.02300 41.49400
H  -5.78300 19.51500 40.77100
H  -7.63700 20.97000 39.61900
H  -7.27400 20.24700 42.43100
H  -8.52200 21.29500 42.02700
H  -6.79200 21.73100 41.55600
H  -6.47800 19.59000 38.11300
H  -6.18400 17.85600 38.28000
H  -3.92500 18.76800 39.31400
H  -4.29900 20.17500 38.27100
H  -13.14300 21.38900 38.39100
H  -11.79600 21.76400 39.50100
H  -13.59600 21.81400 39.97700
H  -17.18000 18.55100 39.97100
H  -16.00000 17.63300 40.86800
H  -16.05600 17.52400 39.03500
H  -14.30100 13.51900 39.89700
H  -12.82200 12.41600 42.14000
H  -14.91500 12.80000 42.37800
H  -15.87400 13.90100 41.43900
H  -14.70600 14.60500 42.59500
H  -13.68300 10.94300 40.31800
H  -12.03500 10.73400 40.80100
H  -13.26800 11.60600 38.18800
H  -11.68000 10.86900 38.36700
H  -11.88100 12.52600 38.49900
H  -7.38700 11.17900 41.02400
H  -7.52600 11.34500 42.83200
H  -6.03700 11.77800 41.89900
H  -4.70900 16.24400 39.93800
H  -4.51200 17.09700 45.09700
H  -5.30900 18.48200 44.38600
H  -3.60100 18.18000 43.90800

