158

Mg 1.14600 42.37500 25.69000
C  3.25500 42.32800 28.50500
C  -1.56600 41.66900 27.69900
C  -0.55900 41.46800 22.88000
C  3.99900 42.91900 23.82500
N  0.85500 42.17700 28.00400
C  1.84300 42.28100 28.90000
C  1.15700 42.21200 30.34100
C  -0.34700 41.94300 30.04800
C  -0.39500 42.07000 28.51000
C  -0.85500 40.60200 30.65100
C  1.33600 43.59600 31.05200
C  1.79300 43.54400 32.50800
H  0.61800 43.45200 33.50400
N  -0.79500 41.77400 25.31600
C  -1.75600 41.56100 26.27600
C  -2.98000 40.98600 25.67500
C  -2.67600 40.83000 24.27400
C  -1.29600 41.32900 24.08100
C  -4.17100 40.65900 26.54300
C  -3.59000 40.20700 23.14600
O  -3.10700 40.10300 21.99900
C  -5.04300 39.83600 23.37300
N  1.63600 42.19500 23.62500
C  0.77600 41.92400 22.65600
C  1.36300 42.12100 21.24100
C  2.74000 42.79700 21.57100
C  2.82800 42.66800 23.09500
C  1.48800 40.68300 20.48300
C  2.91000 44.25900 21.13400
C  2.66000 44.49600 19.64200
N  3.16900 42.52300 26.04900
C  4.22400 42.76900 25.18400
C  5.48200 42.93400 25.84400
C  5.19800 42.67400 27.16600
C  3.75000 42.44000 27.24000
C  6.78700 42.95700 25.17700
C  5.76800 42.55900 28.47500
O  6.92800 42.62400 28.81600
C  4.57000 42.45100 29.39500
C  4.67800 41.45400 30.57200
O  4.60000 40.22200 30.55100
O  4.92400 42.23500 31.69100
C  5.07100 41.44600 32.88300
H  -2.46500 41.54100 28.30500
H  -1.01200 41.07300 21.96800
H  4.83500 43.29200 23.23000
H  1.68900 41.44800 30.90700
H  -0.92100 42.81000 30.37500
H  -0.14800 39.95600 31.17200
H  -1.31200 40.09400 29.80200
H  -1.67700 40.77100 31.34600
H  0.43000 44.19000 30.92900
H  2.13300 44.15100 30.55700
H  2.41600 44.41800 32.69900
H  2.43200 42.66900 32.62500
H  -4.27900 41.42600 27.31100
H  -4.10000 39.63400 26.90600
H  -5.11400 40.89700 26.05000
H  -5.44000 39.60500 22.38500
H  -5.55900 40.75000 23.66600
H  -5.02700 38.96200 24.02500
H  0.69100 42.88700 20.85700
H  3.64500 42.32800 21.18500
H  1.29300 39.87400 21.18700
H  2.53900 40.59100 20.21200
H  0.83600 40.56300 19.61700
H  3.97800 44.47400 21.10700
H  2.44200 45.04300 21.72900
H  2.13400 43.66200 19.17800
H  3.61900 44.60300 19.13400
H  2.16900 45.44500 19.42400
H  6.89800 42.98800 24.09300
H  7.32500 42.06800 25.50600
H  7.34600 43.79300 25.59800
H  4.62200 43.43000 29.87100
H  5.65400 42.09500 33.53700
H  5.63700 40.53000 32.71600
H  4.04800 41.23000 33.19000
Mg -12.30300 16.61600 41.93300
C  -9.76300 14.29700 41.53900
C  -10.24000 18.98600 40.78900
C  -15.07600 18.57900 41.48700
C  -14.52000 13.96700 42.53900
N  -10.34500 16.62400 41.10500
C  -9.45900 15.56100 41.09000
C  -8.08200 15.99400 40.64200
C  -8.15200 17.54200 40.89200
C  -9.67200 17.79300 40.95800
C  -7.48400 17.99000 42.21900
C  -7.85500 15.61000 39.17800
C  -6.37000 15.68800 38.80100
H  -6.02700 16.35200 37.47200
N  -12.59400 18.55900 41.18100
C  -11.59800 19.37700 40.75200
C  -12.16300 20.59600 40.38200
C  -13.57100 20.41100 40.42500
C  -13.83900 19.15200 41.11200
C  -11.39900 21.76700 39.79100
C  -14.61600 21.29700 39.68400
O  -14.24600 22.37100 39.12800
C  -16.10900 20.99200 39.60200
N  -14.57700 16.31600 41.95300
C  -15.50200 17.28600 41.90200
C  -16.96200 16.75900 41.98000
C  -16.66600 15.34300 42.61800
C  -15.14500 15.15200 42.22200
C  -17.99200 17.62100 42.70100
C  -17.54600 14.21400 42.05600
C  -18.74000 13.79400 42.87100
N  -12.16000 14.58300 42.24800
C  -13.17200 13.67700 42.55900
C  -12.51200 12.35900 42.61400
C  -11.21300 12.52600 42.29500
C  -11.01300 13.89400 42.08300
C  -13.22900 11.05200 42.89800
C  -9.89100 11.94500 42.06800
O  -9.49200 10.73900 42.05600
C  -8.95200 13.00400 41.62600
C  -7.74900 13.26900 42.39100
O  -7.68900 13.87600 43.47600
O  -6.62400 12.77300 41.66900
C  -5.32600 13.47200 42.06500
H  -9.57200 19.84800 40.72400
H  -15.90300 19.28800 41.40700
H  -15.22400 13.24200 42.95400
H  -7.32300 15.66800 41.35400
H  -7.62500 17.92600 40.01800
H  -7.06600 17.14300 42.76200
H  -8.27400 18.38900 42.85600
H  -6.74100 18.77700 42.08500
H  -8.41500 16.27100 38.51600
H  -8.10900 14.57800 38.93400
H  -5.98300 14.66900 38.80500
H  -5.83100 16.09100 39.65800
H  -11.85400 22.68000 40.17500
H  -11.41800 21.75200 38.70100
H  -10.35000 21.80100 40.08500
H  -16.74600 21.07200 40.48300
H  -16.12800 19.91100 39.46600
H  -16.48000 21.43300 38.67700
H  -17.43500 16.61300 41.00900
H  -16.90900 15.48400 43.67100
H  -18.56700 17.00900 43.39600
H  -18.73700 18.08900 42.05800
H  -17.54800 18.37000 43.35600
H  -17.11100 13.25100 41.78800
H  -17.97600 14.46100 41.08500
H  -18.77400 12.71100 42.98300
H  -19.67400 14.10900 42.40600
H  -18.65600 14.26700 43.85000
H  -12.57200 10.46300 43.53800
H  -13.66400 10.64300 41.98700
H  -14.09200 11.23200 43.53900
H  -8.68700 12.68400 40.61800
H  -5.63100 14.49900 42.26700
H  -4.73700 13.47300 41.14800
H  -4.76200 13.01500 42.87700

