158

Mg 55.31500 24.81800 44.49600
C  52.62800 26.69200 43.53000
C  54.04700 22.06900 42.93500
C  58.41700 23.44000 44.53100
C  56.84800 27.91700 45.64900
N  53.60300 24.50300 43.25500
C  52.59800 25.36100 43.03700
C  51.44200 24.73000 42.28700
C  51.75000 23.22200 42.45400
C  53.18700 23.22100 42.97300
C  50.68700 22.43600 43.33500
C  51.41600 25.10900 40.74200
C  49.98500 25.40700 40.21500
H  49.47100 24.54400 39.09100
N  56.14900 22.96700 43.97700
C  55.39200 21.91600 43.39400
C  56.25900 20.78700 43.32300
C  57.56600 21.13700 43.86000
C  57.39100 22.56600 44.22300
C  55.69600 19.44100 42.74000
C  58.74100 20.19100 44.00000
O  58.66100 19.00900 43.56400
C  60.06700 20.66200 44.61300
N  57.39000 25.59100 45.07100
C  58.45500 24.83100 44.80400
C  59.75900 25.54500 45.25400
C  59.24600 27.09000 45.24300
C  57.73200 26.85100 45.38000
C  60.44300 24.94700 46.48900
C  59.63500 27.87200 43.89800
C  60.40100 29.17400 44.09300
N  54.80500 26.87700 44.72500
C  55.44100 27.97200 45.28100
C  54.48100 29.07300 45.38300
C  53.34400 28.59700 44.75300
C  53.63400 27.26500 44.23000
C  54.70900 30.41600 46.08800
C  51.97700 28.91800 44.41700
O  51.35300 29.92200 44.68300
C  51.48100 27.77500 43.61500
C  51.03400 28.33300 42.32600
O  51.79900 28.90700 41.50300
O  49.68100 28.21700 42.13800
C  49.07200 28.89100 41.00700
H  53.54300 21.20000 42.50800
H  59.41800 23.00800 44.48000
H  57.34100 28.78400 46.09300
H  50.53900 24.99900 42.83400
H  51.69600 22.74400 41.47700
H  50.25500 21.62300 42.75100
H  49.93300 23.05400 43.82100
H  51.36200 22.06000 44.10400
H  51.89300 24.31800 40.16400
H  52.08300 25.96300 40.62900
H  49.90500 26.44400 39.88900
H  49.20000 25.25300 40.95600
H  54.66300 19.50800 42.39800
H  55.80000 18.80900 43.62300
H  56.28100 19.05300 41.90600
H  60.51400 21.44100 43.99500
H  60.74400 19.80800 44.59400
H  59.94300 21.00000 45.64200
H  60.57100 25.47200 44.53100
H  59.58100 27.56100 46.16800
H  61.34100 24.47600 46.09000
H  59.86900 24.10200 46.86900
H  60.89500 25.62200 47.21600
H  58.73000 28.18000 43.37400
H  60.18800 27.22900 43.21300
H  59.75100 30.01300 44.33900
H  60.88300 29.53600 43.18600
H  61.17200 29.00500 44.84500
H  53.72300 30.67900 46.47100
H  55.01700 31.07500 45.27600
H  55.59700 30.19400 46.68000
H  50.61800 27.38100 44.15200
H  49.78600 28.95000 40.18600
H  48.75500 29.91300 41.21700
H  48.25200 28.35500 40.53000
Mg 35.61200 48.57300 26.15400
C  36.02700 46.54500 28.95200
C  34.89500 51.19600 28.17400
C  34.77200 50.24400 23.36500
C  36.60200 45.84100 24.16400
N  35.55300 48.82600 28.37200
C  35.70500 47.88200 29.32500
C  35.46500 48.41300 30.69700
C  34.94400 49.82300 30.42000
C  35.12400 49.99700 28.90500
C  33.42800 50.12600 30.77200
C  36.86100 48.41300 31.43700
C  36.83200 47.82400 32.80400
H  36.80600 48.84300 33.88100
N  35.01500 50.41700 25.81800
C  34.89900 51.40300 26.77000
C  34.66900 52.67400 26.11300
C  34.57100 52.40100 24.66000
C  34.70500 50.97500 24.60700
C  34.41700 53.90200 26.92200
C  34.33900 53.44400 23.48400
O  34.27200 53.17300 22.32500
C  34.12500 54.87200 23.92000
N  35.37400 48.02600 24.02300
C  35.21600 49.00600 23.08400
C  35.24500 48.37400 21.67500
C  35.99000 47.05900 21.96700
C  35.99900 46.95300 23.47000
C  33.92700 48.20800 20.99400
C  37.46200 46.97100 21.47700
C  38.66000 47.60500 22.31200
N  36.02200 46.62200 26.45500
C  36.53100 45.65800 25.57600
C  36.92300 44.46900 26.35400
C  36.62000 44.75500 27.65900
C  36.22300 46.13600 27.62500
C  37.49400 43.14400 25.96100
C  36.66300 44.22100 28.94800
O  36.91000 43.12000 29.35200
C  36.22500 45.41200 29.86700
C  34.99400 44.93600 30.51800
O  33.93000 44.85800 29.93800
O  35.36700 44.46500 31.74300
C  34.27000 43.91100 32.57100
H  34.66000 52.01200 28.86000
H  34.55000 50.79900 22.45000
H  37.06500 45.08100 23.53100
H  34.68200 47.75600 31.07400
H  35.58400 50.58500 30.86500
H  32.98700 49.34300 31.38900
H  32.77600 50.17100 29.89900
H  33.26600 50.95500 31.46100
H  37.36700 49.37800 31.45800
H  37.47500 47.77300 30.80400
H  37.65300 47.11600 32.91200
H  35.94000 47.21900 32.96800
H  34.94300 53.86100 27.87700
H  33.34400 54.06100 27.02800
H  34.87000 54.77500 26.45200
H  33.46100 55.14000 23.09900
H  35.01200 55.50500 23.93200
H  33.63000 54.92300 24.89000
H  35.94800 48.96600 21.09000
H  35.54300 46.14700 21.57100
H  33.72800 49.03600 20.31400
H  33.10500 48.20000 21.71000
H  33.81700 47.39800 20.27400
H  37.47100 47.62700 20.60600
H  37.81600 45.98500 21.18000
H  39.01700 48.41700 21.68000
H  39.39800 46.80500 22.35800
H  38.51500 47.96300 23.33200
H  38.30600 42.89300 26.64300
H  37.79200 43.10300 24.91300
H  36.77200 42.34300 26.11600
H  37.07700 45.52700 30.53700
H  34.07800 42.87800 32.27900
H  33.37700 44.53600 32.58900
H  34.70800 43.88800 33.56800

