158

Mg -1.26500 18.12400 27.08000
C  -1.85900 16.00100 29.80600
C  -1.60500 20.87700 29.26900
C  -1.28800 20.33100 24.43100
C  -1.36300 15.40800 24.89200
N  -1.86600 18.34900 29.30300
C  -1.82200 17.37500 30.21500
C  -1.97400 17.91900 31.65200
C  -1.98300 19.50200 31.41200
C  -1.76100 19.63200 29.93200
C  -3.38900 20.01300 32.00600
C  -0.90600 17.59000 32.71400
C  -1.38500 17.23200 34.13900
H  -0.37800 17.35700 35.33100
N  -1.23800 20.32500 26.87000
C  -1.42100 21.23500 27.89100
C  -1.23900 22.52000 27.31100
C  -1.25300 22.42100 25.88700
C  -1.23500 20.98100 25.64300
C  -1.32200 23.74100 28.26000
C  -1.39700 23.55400 24.83700
O  -1.55500 23.31400 23.60800
C  -1.42800 25.03400 25.27900
N  -1.15900 17.88700 24.97100
C  -1.31400 18.93300 24.09800
C  -1.09800 18.44200 22.66500
C  -0.85600 16.91700 22.84600
C  -1.10500 16.72400 24.29600
C  -2.16300 18.87400 21.62800
C  0.45600 16.37700 22.21800
C  1.78600 16.58700 23.01200
N  -1.53400 16.11500 27.19300
C  -1.52800 15.07600 26.22000
C  -1.70000 13.77800 26.91000
C  -1.79300 14.11000 28.29700
C  -1.72700 15.50700 28.41000
C  -1.67200 12.49600 26.22600
C  -1.91300 13.49600 29.59000
O  -1.92700 12.30900 29.92000
C  -1.81000 14.65300 30.61800
C  -0.53300 14.46900 31.33400
O  0.58000 14.68900 30.87100
O  -0.86600 13.99100 32.57600
C  0.35000 13.81100 33.42400
H  -1.55300 21.69300 29.99200
H  -1.40400 20.92700 23.52300
H  -1.42900 14.57300 24.19100
H  -2.96600 17.54100 31.89700
H  -1.17300 19.99400 31.95000
H  -3.80000 19.51400 32.88400
H  -4.19000 19.89800 31.27500
H  -3.35600 21.07300 32.25500
H  -0.06600 18.28400 32.75600
H  -0.55100 16.62300 32.35600
H  -1.65000 16.18100 34.01700
H  -2.25300 17.86100 34.33800
H  -2.35000 24.02600 28.03700
H  -0.60200 24.54900 28.13200
H  -1.37700 23.66800 29.34600
H  -2.36200 25.19600 25.81600
H  -1.40300 25.53900 24.31300
H  -0.54800 25.21500 25.89600
H  -0.07200 18.78700 22.53300
H  -1.73900 16.40200 22.46900
H  -2.62400 18.00300 21.16400
H  -1.68100 19.60400 20.97800
H  -3.02100 19.42700 22.01200
H  0.53800 16.78800 21.21100
H  0.33700 15.29500 22.27000
H  2.54300 16.88800 22.28800
H  2.02800 15.67800 23.56200
H  1.70100 17.38000 23.75500
H  -0.81700 11.86100 26.45900
H  -1.65000 12.70900 25.15700
H  -2.60400 11.95300 26.38300
H  -2.65500 14.74300 31.30000
H  0.76000 14.80400 33.60900
H  1.14900 13.29900 32.88700
H  -0.00000 13.27100 34.30300
Mg 0.93800 44.30300 24.75100
C  2.91200 43.92200 27.63300
C  -1.87800 43.78700 26.92200
C  -0.95100 43.80100 22.15800
C  3.73600 44.33100 22.77600
N  0.59800 43.88300 26.98200
C  1.52400 43.88800 27.92500
C  0.93800 43.89200 29.35000
C  -0.58100 43.59800 29.07100
C  -0.66200 43.75200 27.55000
C  -1.10300 42.15500 29.49500
C  1.19500 45.14300 30.22200
C  1.21800 44.94600 31.74900
H  1.09700 43.54000 32.35000
N  -1.14400 44.00800 24.55000
C  -2.12400 43.83300 25.52600
C  -3.47200 43.75900 24.86400
C  -3.22600 43.93800 23.41800
C  -1.69300 43.90600 23.35300
C  -4.78800 43.63900 25.65100
C  -4.12700 44.12700 22.20100
O  -3.67400 44.47100 21.12200
C  -5.61900 44.03800 22.40000
N  1.28700 44.16000 22.70200
C  0.39800 43.86800 21.83500
C  0.93800 43.79900 20.38100
C  2.38300 44.29100 20.54600
C  2.48900 44.38500 22.10000
C  0.64300 42.42500 19.72400
C  2.78700 45.54500 19.88200
C  4.18300 45.56200 19.13400
N  2.98800 44.30200 25.09400
C  4.05500 44.41300 24.19600
C  5.35500 44.40400 25.00600
C  4.89300 44.20900 26.33100
C  3.47800 44.10500 26.34500
C  6.70000 44.55800 24.35000
C  5.34200 44.05500 27.65900
O  6.51800 44.07000 28.08100
C  4.15100 43.89300 28.54700
C  4.34500 42.65200 29.29600
O  4.06400 41.49900 28.94300
O  4.74500 43.00400 30.52000
C  4.74300 41.90500 31.55500
H  -2.73700 43.80400 27.59600
H  -1.49200 43.67800 21.21800
H  4.59400 44.33100 22.10100
H  1.44900 43.06300 29.84000
H  -1.20200 44.40000 29.47000
H  -1.21800 41.53900 28.60300
H  -2.04700 42.29800 30.02100
H  -0.41400 41.66400 30.18200
H  0.39000 45.87000 30.11600
H  2.18200 45.53800 29.97900
H  0.43600 45.61600 32.10600
H  2.15800 45.38800 32.07900
H  -5.44600 44.50000 25.53600
H  -4.74800 43.63700 26.74100
H  -5.35200 42.74900 25.37500
H  -5.77500 43.01800 22.75100
H  -6.01800 44.13600 21.39100
H  -6.03100 44.77300 23.09200
H  0.31600 44.39500 19.71300
H  3.09200 43.52100 20.24200
H  0.22100 41.85400 20.55100
H  1.64100 42.05300 19.49200
H  -0.06000 42.38600 18.89200
H  2.93300 46.29800 20.65700
H  2.02100 45.91500 19.20100
H  4.01400 45.62300 18.05900
H  4.85700 44.73800 19.37000
H  4.85500 46.38000 19.39400
H  6.87800 44.24300 23.32200
H  7.25200 43.85300 24.97200
H  7.10000 45.57200 24.35300
H  4.26000 44.72500 29.24200
H  5.76900 41.55400 31.65800
H  3.96800 41.15100 31.41800
H  4.48300 42.44400 32.46600

