158

Mg 47.27600 15.81100 28.08300
C  45.20700 15.75800 31.04400
C  49.53500 17.73700 29.71800
C  48.78700 16.34700 25.14100
C  44.57300 14.38800 26.38500
N  47.29100 16.66800 30.15800
C  46.47600 16.43100 31.18600
C  47.11200 16.97100 32.55400
C  48.43300 17.65300 32.04400
C  48.46900 17.27000 30.55800
C  48.54100 19.18400 32.22200
C  47.28100 15.79900 33.54500
C  46.95900 16.06200 35.01100
H  47.17300 17.52200 35.47300
N  49.03700 16.76100 27.51800
C  49.79700 17.55100 28.33000
C  50.94500 18.03000 27.61800
C  50.78200 17.63000 26.23800
C  49.47600 16.88900 26.27900
C  52.06800 18.78200 28.27400
C  51.62700 17.88300 25.01800
O  51.32500 17.41300 23.99700
C  52.90800 18.65200 25.12500
N  46.64600 15.67100 26.04900
C  47.54200 15.75900 25.04000
C  46.97600 15.23400 23.74600
C  45.79400 14.27000 24.24400
C  45.65100 14.85100 25.65400
C  46.52100 16.30100 22.66200
C  46.16300 12.74500 24.21100
C  45.79600 11.99700 22.90300
N  45.28500 15.30700 28.56300
C  44.34600 14.65100 27.73600
C  43.10500 14.40200 28.56200
C  43.45700 14.78500 29.89700
C  44.70400 15.40200 29.81500
C  41.82200 13.83800 28.04600
C  42.90400 14.90800 31.25500
O  41.76800 14.64300 31.63800
C  44.10900 15.43700 32.10100
C  43.66700 16.70700 32.74100
O  43.70500 17.82200 32.23900
O  43.33600 16.44200 34.05400
C  42.87600 17.57700 34.85700
H  50.10200 18.44500 30.32600
H  49.26500 16.37000 24.15900
H  43.86800 13.74400 25.85600
H  46.36000 17.69500 32.86800
H  49.33500 17.22500 32.48300
H  47.63600 19.42500 32.78000
H  48.47200 19.59800 31.21600
H  49.45500 19.49100 32.73200
H  48.34600 15.57600 33.60200
H  46.68500 14.95400 33.19900
H  47.59200 15.36500 35.56000
H  45.91200 15.76100 34.99800
H  51.95800 18.93800 29.34700
H  52.19500 19.75200 27.79200
H  52.98500 18.22600 28.07900
H  52.80900 19.39700 25.91400
H  53.05200 19.17800 24.18100
H  53.67800 17.94900 25.44100
H  47.69400 14.59000 23.23800
H  44.85300 14.42400 23.71700
H  46.62800 17.30500 23.07200
H  45.51500 16.17500 22.26200
H  47.23400 16.11900 21.85800
H  45.68500 12.31700 25.09300
H  47.24600 12.62800 24.22300
H  45.22700 11.15100 23.28900
H  46.59200 11.65900 22.24000
H  45.16900 12.57300 22.22200
H  41.47400 13.00800 28.66100
H  41.85800 13.47600 27.01800
H  41.05900 14.61200 28.13200
H  44.37800 14.63400 32.78800
H  41.82200 17.83000 34.75100
H  43.40400 18.52200 34.73000
H  43.10700 17.40700 35.90900
Mg 47.99600 24.94400 27.50700
C  48.90900 26.95800 30.22800
C  47.06200 22.49400 29.76700
C  47.26700 22.93600 24.88800
C  49.09300 27.35200 25.37500
N  48.18600 24.75100 29.81100
C  48.37000 25.72600 30.66700
C  48.05500 25.23900 32.12000
C  47.59400 23.81900 31.88900
C  47.54700 23.70300 30.36400
C  48.43700 22.65300 32.62100
C  47.15800 26.32400 32.80500
C  47.52000 26.65800 34.26400
H  46.59000 27.42500 35.19900
N  47.31500 22.96900 27.35900
C  46.98700 22.11500 28.38400
C  46.55400 20.81300 27.94500
C  46.51700 20.95400 26.47600
C  47.03500 22.31400 26.15500
C  46.02500 19.70400 28.90000
C  46.08000 19.88800 25.48500
O  46.25300 19.97800 24.27300
C  45.41500 18.64800 26.01800
N  48.44100 24.98400 25.45000
C  47.94400 24.09300 24.60200
C  48.10000 24.58400 23.13400
C  48.62000 26.02900 23.27600
C  48.76000 26.14800 24.80600
C  48.90900 23.70900 22.20400
C  47.66900 27.10400 22.64000
C  48.31800 27.74800 21.38700
N  48.89900 26.75500 27.70700
C  49.23400 27.65100 26.74700
C  49.74800 28.84800 27.29900
C  49.71500 28.57300 28.70200
C  49.19200 27.32300 28.90800
C  50.22100 29.97800 26.57800
C  50.02100 29.21000 29.99400
O  50.64300 30.26300 30.23600
C  49.38500 28.22100 31.02800
C  50.51000 27.86400 31.95100
O  51.41100 27.05000 31.72100
O  50.39800 28.54800 33.14500
C  51.33000 28.04900 34.15200
H  46.71600 21.80000 30.53600
H  47.08600 22.34700 23.98700
H  49.40000 28.18800 24.74300
H  48.99300 25.26100 32.67500
H  46.55000 23.78400 32.20200
H  48.84100 22.06600 31.79700
H  47.76200 21.98500 33.15600
H  49.31800 22.93200 33.19800
H  46.09500 26.08600 32.81700
H  47.20200 27.31500 32.35400
H  48.36600 27.34400 34.20600
H  47.78800 25.76300 34.82500
H  46.20600 18.70800 28.49500
H  44.94800 19.75000 29.05800
H  46.58900 19.78200 29.82900
H  44.53800 18.89600 26.61500
H  46.11400 18.01300 26.56200
H  45.08000 17.99200 25.21500
H  47.12500 24.60400 22.64700
H  49.64800 26.03000 22.91500
H  49.44800 22.95000 22.77000
H  49.72900 24.21300 21.69200
H  48.30300 23.26300 21.41600
H  47.34100 27.79800 23.41400
H  46.69300 26.67100 22.42400
H  49.13600 27.14900 20.98900
H  48.78700 28.70200 21.62600
H  47.46700 27.86000 20.71500
H  51.27200 29.86500 26.31100
H  50.12100 30.79800 27.28800
H  49.65600 30.24800 25.68600
H  48.62000 28.78900 31.55900
H  50.57600 27.71600 34.86600
H  52.00400 28.77900 34.60000
H  51.90200 27.17100 33.85600

