158

Mg 26.73700 49.18500 25.78400
C  24.79100 50.66800 28.33400
C  28.95600 48.23400 28.24200
C  28.91600 48.36000 23.34000
C  24.77000 50.84400 23.38500
N  26.83800 49.53600 28.02700
C  25.88100 50.03000 28.89200
C  26.18200 49.75000 30.36800
C  27.56400 48.93100 30.21800
C  27.85600 48.93800 28.70300
C  28.77500 49.38600 31.16400
C  24.98800 48.92400 31.09000
C  24.45800 49.49900 32.42000
H  24.37300 48.65300 33.68700
N  28.60100 48.37100 25.80100
C  29.32800 47.90700 26.89900
C  30.45000 47.10100 26.44200
C  30.61800 47.29400 25.03600
C  29.33700 48.01500 24.67200
C  31.38700 46.37300 27.34400
C  31.72600 46.89300 24.05700
O  31.63700 47.01100 22.86300
C  33.02400 46.40500 24.57800
N  26.72800 49.41100 23.56600
C  27.74900 48.95100 22.82400
C  27.52500 49.20700 21.32900
C  26.14600 49.98400 21.30500
C  25.74500 50.00200 22.82600
C  28.61900 50.05100 20.58000
C  25.09600 49.26700 20.42000
C  24.48600 47.99400 20.98400
N  25.06800 50.39200 25.77500
C  24.35300 51.03600 24.74600
C  23.27700 51.76000 25.27900
C  23.44400 51.60000 26.65600
C  24.56600 50.81800 26.94700
C  22.23200 52.42400 24.50000
C  22.82300 52.02000 27.93100
O  21.93100 52.85000 28.14200
C  23.70900 51.37800 29.06600
C  24.13500 52.32800 30.13500
O  24.97700 53.21600 30.03600
O  23.25600 52.24600 31.15500
C  23.61400 52.96000 32.40000
H  29.60100 47.76100 28.98500
H  29.67300 48.10400 22.59500
H  24.23600 51.39400 22.60700
H  26.30500 50.72800 30.83300
H  27.42500 47.86400 30.39400
H  29.53500 49.66100 30.43300
H  29.14300 48.51600 31.70900
H  28.38400 50.16500 31.81900
H  25.43100 47.97500 31.39200
H  24.15500 48.67200 30.43300
H  23.41700 49.74000 32.20600
H  25.03500 50.37800 32.70500
H  31.77600 45.44600 26.92100
H  30.90500 46.23000 28.31100
H  32.22500 46.99400 27.66200
H  33.44000 47.24300 25.13800
H  33.53600 46.22200 23.63400
H  32.82600 45.46000 25.08500
H  27.35500 48.31900 20.71900
H  26.26200 51.05300 21.12400
H  29.35200 50.28200 21.35300
H  28.18400 50.93600 20.11700
H  29.08100 49.52900 19.74200
H  25.63100 49.12300 19.48200
H  24.25300 49.94700 20.28700
H  24.89500 47.69600 21.95000
H  24.73900 47.13800 20.35900
H  23.40000 48.02600 21.06600
H  22.01600 53.36800 24.99900
H  21.42500 51.75200 24.20800
H  22.65300 52.68700 23.53000
H  23.09800 50.62500 29.56500
H  24.58900 52.64500 32.77000
H  22.99200 52.49800 33.16700
H  23.53100 54.04700 32.41600
Mg 0.36400 43.89000 26.16800
C  2.34200 43.91300 29.18500
C  -2.34400 43.46300 28.14800
C  -1.46200 43.24500 23.36300
C  3.29500 43.77300 24.39800
N  0.04700 43.75300 28.44700
C  1.00900 43.79800 29.46000
C  0.25800 43.74800 30.85000
C  -1.22700 43.32400 30.53500
C  -1.15400 43.54200 28.97600
C  -1.69300 41.91400 30.84900
C  0.46200 45.03300 31.72400
C  0.75400 44.90900 33.20000
H  0.39200 43.60800 33.89400
N  -1.64200 43.70000 25.84500
C  -2.60800 43.55600 26.81600
C  -3.91600 43.51400 26.26200
C  -3.65800 43.42000 24.90000
C  -2.21100 43.49300 24.64100
C  -5.22000 43.55900 27.12000
C  -4.71200 43.36400 23.81800
O  -4.37600 43.37100 22.60900
C  -6.12900 43.46000 24.10200
N  0.79200 43.35300 24.19200
C  -0.07600 43.19100 23.16200
C  0.62400 43.18200 21.80100
C  2.15500 43.44700 22.14500
C  2.11800 43.57700 23.69600
C  0.36100 41.79300 21.12800
C  2.81400 44.61600 21.46100
C  2.43600 46.00300 21.95300
N  2.37800 43.85300 26.63100
C  3.48600 43.82800 25.77400
C  4.74100 43.87400 26.49500
C  4.32000 44.01000 27.86900
C  2.87700 43.89300 27.86300
C  6.20400 43.89900 25.86700
C  4.79800 44.23400 29.28100
O  5.95000 44.33700 29.67800
C  3.50800 43.99600 30.14800
C  3.73100 42.79900 31.03200
O  4.04300 41.70600 30.62400
O  3.75000 43.17700 32.32200
C  4.19400 42.25000 33.34100
H  -3.11600 43.24900 28.89000
H  -2.05300 43.07700 22.46100
H  4.28500 43.72600 23.94000
H  0.72500 42.91400 31.37400
H  -1.91200 43.96600 31.08900
H  -2.57500 41.85900 31.48700
H  -0.95200 41.47800 31.51800
H  -1.77600 41.32600 29.93500
H  -0.34800 45.75400 31.61400
H  1.25700 45.60000 31.23900
H  0.18900 45.67800 33.72800
H  1.80100 45.20500 33.26200
H  -5.69900 42.58300 27.19900
H  -5.93600 44.26800 26.70500
H  -5.05700 44.00200 28.10200
H  -6.37800 42.55900 24.66200
H  -6.41700 43.70300 23.07900
H  -6.28600 44.40200 24.62800
H  0.25200 44.03400 21.23100
H  2.72700 42.59700 21.77300
H  1.31500 41.32000 20.89300
H  -0.10800 41.96600 20.15900
H  -0.15000 41.11500 21.81100
H  2.48100 44.52000 20.42700
H  3.89200 44.45900 21.42300
H  2.18200 46.71400 21.16700
H  3.34900 46.53600 22.22100
H  1.67300 46.00700 22.73100
H  6.91200 44.42700 26.50700
H  6.10300 44.26600 24.84600
H  6.50300 42.85300 25.92600
H  3.46800 44.80900 30.87300
H  3.39300 41.52800 33.49700
H  4.32100 42.85700 34.23800
H  5.17100 41.93100 32.97800

